MODEL 1
REMARK VINA RESULT:      -9.6      0.000      0.000
REMARK SMILES Nc1ccc(F)cc1SCCOc1ccc(C(=O)OCCOCCOCCOCCOC(=O)c2ccc(-c3c4nc(c(-c5c(F)c(F)c(F)c(F)c5F)c5ccc([nH]5)c(-c5c(F)c(F)c(F)c(F)c5F)c5nc(c(-c6c(F)c(F)c(F)c(F)c6F)c6ccc3[nH]6)C=C5)C=C4)cc2)cc1
REMARK SMILES IDX 23 1 22 2 21 3 20 4 19 5 17 6 18 7 16 8 13 9 14 10 98 11
REMARK SMILES IDX 15 12 97 13 12 14 11 15 10 16 9 17 8 18 2 19 3 20 4 21 7 22
REMARK SMILES IDX 5 23 6 24 1 25 24 28 25 29 26 30 27 31 28 32 29 33 30 34
REMARK SMILES IDX 31 35 32 36 33 37 34 38 35 39 96 40 36 41 95 42 37 43 38 44
REMARK SMILES IDX 39 45 89 46 40 47 94 48 88 49 90 50 41 51 93 52 87 53 86 54
REMARK SMILES IDX 42 56 74 57 54 58 73 59 55 60 58 61 72 62 91 63 56 64 57 65
REMARK SMILES IDX 71 67 92 68 59 69 43 70 44 71 52 72 45 73 46 74 50 75 53 76
REMARK SMILES IDX 47 77 48 78 51 79 49 80 75 81 76 82 84 83 77 84 78 85 82 86
REMARK SMILES IDX 85 87 79 88 80 89 83 90 81 91 60 92 61 93 69 94 62 95 63 96
REMARK SMILES IDX 67 97 70 98 64 99 65 100 68 101 66 102
REMARK H PARENT 1 26 1 27 90 55 58 66
REMARK Flexibility Score: inf
ROOT
ATOM      1  C   UNL A   1      33.788  24.036  24.915  1.00  0.00     0.188 C 
ENDROOT
BRANCH   1   2
ATOM      2  O   UNL A   1      32.533  23.497  24.520  1.00  0.00    -0.376 OA
BRANCH   2   3
ATOM      3  C   UNL A   1      31.905  24.155  23.425  1.00  0.00     0.202 C 
BRANCH   3   4
ATOM      4  C   UNL A   1      30.676  24.988  23.820  1.00  0.00     0.261 C 
BRANCH   4   5
ATOM      5  O   UNL A   1      30.985  26.278  24.375  1.00  0.00    -0.460 OA
BRANCH   5   6
ATOM      6  C   UNL A   1      31.067  26.314  25.722  1.00  0.00     0.338 C 
ATOM      7  O   UNL A   1      30.687  25.452  26.493  1.00  0.00    -0.246 OA
BRANCH   6   8
ATOM      8  C   UNL A   1      31.917  27.454  26.114  1.00  0.00     0.060 A 
ATOM      9  C   UNL A   1      33.349  29.742  26.821  1.00  0.00     0.119 A 
ATOM     10  C   UNL A   1      32.086  29.524  27.356  1.00  0.00     0.047 A 
ATOM     11  C   UNL A   1      33.950  28.737  26.048  1.00  0.00     0.047 A 
ATOM     12  C   UNL A   1      31.343  28.429  26.933  1.00  0.00     0.019 A 
ATOM     13  C   UNL A   1      33.245  27.573  25.713  1.00  0.00     0.019 A 
BRANCH   9  14
ATOM     14  O   UNL A   1      34.019  30.934  26.876  1.00  0.00    -0.493 OA
BRANCH  14  15
ATOM     15  C   UNL A   1      34.095  31.612  28.138  1.00  0.00     0.241 C 
BRANCH  15  16
ATOM     16  C   UNL A   1      34.037  33.154  28.095  1.00  0.00     0.116 C 
BRANCH  16  17
ATOM     17  S   UNL A   1      35.296  34.148  28.993  1.00  0.00    -0.120 SA
BRANCH  17  18
ATOM     18  C   UNL A   1      34.893  34.116  30.752  1.00  0.00     0.033 A 
ATOM     19  C   UNL A   1      33.999  34.947  31.462  1.00  0.00     0.045 A 
ATOM     20  C   UNL A   1      33.747  34.683  32.823  1.00  0.00     0.029 A 
ATOM     21  C   UNL A   1      34.426  33.679  33.508  1.00  0.00     0.041 A 
ATOM     22  C   UNL A   1      35.602  33.130  31.474  1.00  0.00     0.056 A 
ATOM     23  C   UNL A   1      35.369  32.927  32.830  1.00  0.00     0.124 A 
ATOM     24  F   UNL A   1      36.043  31.969  33.480  1.00  0.00    -0.207 F 
BRANCH  19  25
ATOM     25  N   UNL A   1      33.191  35.910  30.850  1.00  0.00    -0.398 N 
ATOM     26  H   UNL A   1      32.212  35.800  30.847  1.00  0.00     0.156 HD
ATOM     27  H   UNL A   1      33.600  36.697  30.422  1.00  0.00     0.156 HD
ENDBRANCH  19  25
ENDBRANCH  17  18
ENDBRANCH  16  17
ENDBRANCH  15  16
ENDBRANCH  14  15
ENDBRANCH   9  14
ENDBRANCH   6   8
ENDBRANCH   5   6
ENDBRANCH   4   5
ENDBRANCH   3   4
ENDBRANCH   2   3
ENDBRANCH   1   2
BRANCH   1  28
ATOM     28  C   UNL A   1      34.354  23.499  26.249  1.00  0.00     0.188 C 
BRANCH  28  29
ATOM     29  O   UNL A   1      35.722  23.144  26.348  1.00  0.00    -0.377 OA
BRANCH  29  30
ATOM     30  C   UNL A   1      36.407  22.766  25.169  1.00  0.00     0.188 C 
BRANCH  30  31
ATOM     31  C   UNL A   1      36.777  21.287  24.930  1.00  0.00     0.188 C 
BRANCH  31  32
ATOM     32  O   UNL A   1      38.151  20.964  25.108  1.00  0.00    -0.376 OA
BRANCH  32  33
ATOM     33  C   UNL A   1      38.472  19.580  25.165  1.00  0.00     0.202 C 
BRANCH  33  34
ATOM     34  C   UNL A   1      39.679  19.232  26.045  1.00  0.00     0.261 C 
BRANCH  34  35
ATOM     35  O   UNL A   1      40.947  19.265  25.376  1.00  0.00    -0.460 OA
BRANCH  35  36
ATOM     36  C   UNL A   1      42.057  19.165  26.146  1.00  0.00     0.338 C 
ATOM     37  O   UNL A   1      42.651  18.160  26.459  1.00  0.00    -0.246 OA
BRANCH  36  38
ATOM     38  C   UNL A   1      42.547  20.545  26.369  1.00  0.00     0.060 A 
ATOM     39  C   UNL A   1      42.998  21.320  25.299  1.00  0.00     0.016 A 
ATOM     40  C   UNL A   1      42.624  21.027  27.682  1.00  0.00     0.016 A 
ATOM     41  C   UNL A   1      43.502  22.597  25.540  1.00  0.00     0.010 A 
ATOM     42  C   UNL A   1      43.153  22.295  27.925  1.00  0.00     0.010 A 
ATOM     43  C   UNL A   1      43.567  23.098  26.851  1.00  0.00    -0.014 A 
BRANCH  43  44
ATOM     44  C   UNL A   1      43.848  24.534  27.071  1.00  0.00     0.031 A 
ATOM     45  C   UNL A   1      42.796  25.509  27.493  1.00  0.00     0.074 A 
ATOM     46  C   UNL A   1      45.114  24.943  26.866  1.00  0.00     0.049 A 
ATOM     47  N   UNL A   1      42.930  26.777  27.791  1.00  0.00    -0.248 NA
ATOM     48  C   UNL A   1      41.418  25.009  27.584  1.00  0.00     0.031 C 
ATOM     49  C   UNL A   1      46.209  24.074  26.427  1.00  0.00     0.029 A 
ATOM     50  N   UNL A   1      45.695  26.175  26.999  1.00  0.00    -0.354 N 
ATOM     51  C   UNL A   1      41.663  27.224  28.135  1.00  0.00     0.074 A 
ATOM     52  C   UNL A   1      40.762  26.101  27.960  1.00  0.00     0.031 C 
ATOM     53  C   UNL A   1      47.334  24.798  26.343  1.00  0.00     0.029 A 
ATOM     54  C   UNL A   1      47.036  26.179  26.705  1.00  0.00     0.049 A 
ATOM     55  H   UNL A   1      45.201  26.979  27.277  1.00  0.00     0.167 HD
ATOM     56  C   UNL A   1      41.299  28.455  28.572  1.00  0.00     0.037 A 
ATOM     57  C   UNL A   1      47.930  27.183  26.733  1.00  0.00     0.037 A 
ATOM     58  C   UNL A   1      42.206  29.569  28.721  1.00  0.00     0.049 A 
ATOM     59  C   UNL A   1      47.487  28.546  27.176  1.00  0.00     0.074 A 
ATOM     60  C   UNL A   1      41.937  30.840  29.201  1.00  0.00     0.029 A 
ATOM     61  N   UNL A   1      43.551  29.552  28.377  1.00  0.00    -0.354 N 
ATOM     62  N   UNL A   1      46.304  28.938  27.581  1.00  0.00    -0.248 NA
ATOM     63  C   UNL A   1      48.504  29.605  27.174  1.00  0.00     0.031 C 
ATOM     64  C   UNL A   1      43.104  31.605  29.098  1.00  0.00     0.029 A 
ATOM     65  C   UNL A   1      44.115  30.799  28.602  1.00  0.00     0.049 A 
ATOM     66  H   UNL A   1      44.033  28.769  28.024  1.00  0.00     0.167 HD
ATOM     67  C   UNL A   1      46.435  30.281  27.899  1.00  0.00     0.074 A 
ATOM     68  C   UNL A   1      47.820  30.633  27.659  1.00  0.00     0.031 C 
ATOM     69  C   UNL A   1      45.491  31.143  28.348  1.00  0.00     0.037 A 
BRANCH  56  70
ATOM     70  C   UNL A   1      39.862  28.676  28.942  1.00  0.00     0.064 A 
ATOM     71  C   UNL A   1      39.418  28.506  30.263  1.00  0.00     0.173 A 
ATOM     72  C   UNL A   1      38.944  29.165  28.001  1.00  0.00     0.173 A 
ATOM     73  F   UNL A   1      40.256  28.042  31.202  1.00  0.00    -0.203 F 
ATOM     74  C   UNL A   1      38.107  28.808  30.623  1.00  0.00     0.198 A 
ATOM     75  C   UNL A   1      37.640  29.488  28.370  1.00  0.00     0.198 A 
ATOM     76  F   UNL A   1      39.319  29.359  26.727  1.00  0.00    -0.203 F 
ATOM     77  F   UNL A   1      37.701  28.618  31.887  1.00  0.00    -0.200 F 
ATOM     78  C   UNL A   1      37.223  29.308  29.680  1.00  0.00     0.200 A 
ATOM     79  F   UNL A   1      36.791  29.988  27.460  1.00  0.00    -0.200 F 
ATOM     80  F   UNL A   1      35.968  29.618  30.034  1.00  0.00    -0.200 F 
ENDBRANCH  56  70
BRANCH  57  81
ATOM     81  C   UNL A   1      49.342  26.907  26.372  1.00  0.00     0.064 A 
ATOM     82  C   UNL A   1      49.794  27.093  25.060  1.00  0.00     0.173 A 
ATOM     83  C   UNL A   1      50.274  26.499  27.337  1.00  0.00     0.173 A 
ATOM     84  F   UNL A   1      48.935  27.471  24.102  1.00  0.00    -0.203 F 
ATOM     85  C   UNL A   1      51.127  26.871  24.723  1.00  0.00     0.198 A 
ATOM     86  C   UNL A   1      51.611  26.302  27.004  1.00  0.00     0.198 A 
ATOM     87  F   UNL A   1      49.889  26.319  28.609  1.00  0.00    -0.203 F 
ATOM     88  F   UNL A   1      51.529  27.028  23.454  1.00  0.00    -0.200 F 
ATOM     89  C   UNL A   1      52.036  26.484  25.697  1.00  0.00     0.200 A 
ATOM     90  F   UNL A   1      52.490  25.946  27.951  1.00  0.00    -0.200 F 
ATOM     91  F   UNL A   1      53.321  26.283  25.373  1.00  0.00    -0.200 F 
ENDBRANCH  57  81
BRANCH  69  92
ATOM     92  C   UNL A   1      45.920  32.558  28.609  1.00  0.00     0.064 A 
ATOM     93  C   UNL A   1      45.870  33.534  27.603  1.00  0.00     0.173 A 
ATOM     94  C   UNL A   1      46.339  32.953  29.889  1.00  0.00     0.173 A 
ATOM     95  F   UNL A   1      45.494  33.202  26.359  1.00  0.00    -0.203 F 
ATOM     96  C   UNL A   1      46.237  34.851  27.864  1.00  0.00     0.198 A 
ATOM     97  C   UNL A   1      46.678  34.278  30.153  1.00  0.00     0.198 A 
ATOM     98  F   UNL A   1      46.402  32.059  30.887  1.00  0.00    -0.203 F 
ATOM     99  F   UNL A   1      46.219  35.758  26.878  1.00  0.00    -0.200 F 
ATOM    100  C   UNL A   1      46.632  35.224  29.141  1.00  0.00     0.200 A 
ATOM    101  F   UNL A   1      47.047  34.639  31.391  1.00  0.00    -0.200 F 
ATOM    102  F   UNL A   1      46.973  36.494  29.394  1.00  0.00    -0.200 F 
ENDBRANCH  69  92
ENDBRANCH  43  44
ENDBRANCH  36  38
ENDBRANCH  35  36
ENDBRANCH  34  35
ENDBRANCH  33  34
ENDBRANCH  32  33
ENDBRANCH  31  32
ENDBRANCH  30  31
ENDBRANCH  29  30
ENDBRANCH  28  29
ENDBRANCH   1  28
TORSDOF 26
ENDMDL
MODEL 2
REMARK VINA RESULT:      -9.6      1.268      7.106
REMARK SMILES Nc1ccc(F)cc1SCCOc1ccc(C(=O)OCCOCCOCCOCCOC(=O)c2ccc(-c3c4nc(c(-c5c(F)c(F)c(F)c(F)c5F)c5ccc([nH]5)c(-c5c(F)c(F)c(F)c(F)c5F)c5nc(c(-c6c(F)c(F)c(F)c(F)c6F)c6ccc3[nH]6)C=C5)C=C4)cc2)cc1
REMARK SMILES IDX 23 1 22 2 21 3 20 4 19 5 17 6 18 7 16 8 13 9 14 10 98 11
REMARK SMILES IDX 15 12 97 13 12 14 11 15 10 16 9 17 8 18 2 19 3 20 4 21 7 22
REMARK SMILES IDX 5 23 6 24 1 25 24 28 25 29 26 30 27 31 28 32 29 33 30 34
REMARK SMILES IDX 31 35 32 36 33 37 34 38 35 39 96 40 36 41 95 42 37 43 38 44
REMARK SMILES IDX 39 45 89 46 40 47 94 48 88 49 90 50 41 51 93 52 87 53 86 54
REMARK SMILES IDX 42 56 74 57 54 58 73 59 55 60 58 61 72 62 91 63 56 64 57 65
REMARK SMILES IDX 71 67 92 68 59 69 43 70 44 71 52 72 45 73 46 74 50 75 53 76
REMARK SMILES IDX 47 77 48 78 51 79 49 80 75 81 76 82 84 83 77 84 78 85 82 86
REMARK SMILES IDX 85 87 79 88 80 89 83 90 81 91 60 92 61 93 69 94 62 95 63 96
REMARK SMILES IDX 67 97 70 98 64 99 65 100 68 101 66 102
REMARK H PARENT 1 26 1 27 90 55 58 66
REMARK Flexibility Score: inf
ROOT
ATOM      1  C   UNL A   1      33.361  24.120  25.291  1.00  0.00     0.188 C 
ENDROOT
BRANCH   1   2
ATOM      2  O   UNL A   1      32.112  23.734  24.731  1.00  0.00    -0.376 OA
BRANCH   2   3
ATOM      3  C   UNL A   1      31.951  24.020  23.346  1.00  0.00     0.202 C 
BRANCH   3   4
ATOM      4  C   UNL A   1      31.274  25.370  23.063  1.00  0.00     0.261 C 
BRANCH   4   5
ATOM      5  O   UNL A   1      32.013  26.514  23.524  1.00  0.00    -0.460 OA
BRANCH   5   6
ATOM      6  C   UNL A   1      31.256  27.564  23.910  1.00  0.00     0.338 C 
ATOM      7  O   UNL A   1      30.079  27.739  23.652  1.00  0.00    -0.246 OA
BRANCH   6   8
ATOM      8  C   UNL A   1      32.008  28.347  24.906  1.00  0.00     0.060 A 
ATOM      9  C   UNL A   1      33.388  30.012  26.671  1.00  0.00     0.119 A 
ATOM     10  C   UNL A   1      32.125  30.376  26.221  1.00  0.00     0.047 A 
ATOM     11  C   UNL A   1      33.890  28.742  26.350  1.00  0.00     0.047 A 
ATOM     12  C   UNL A   1      31.482  29.587  25.276  1.00  0.00     0.019 A 
ATOM     13  C   UNL A   1      33.189  27.891  25.486  1.00  0.00     0.019 A 
BRANCH   9  14
ATOM     14  O   UNL A   1      34.258  30.856  27.306  1.00  0.00    -0.493 OA
BRANCH  14  15
ATOM     15  C   UNL A   1      33.719  31.997  27.990  1.00  0.00     0.241 C 
BRANCH  15  16
ATOM     16  C   UNL A   1      34.592  33.270  27.998  1.00  0.00     0.116 C 
BRANCH  16  17
ATOM     17  S   UNL A   1      34.897  34.167  29.573  1.00  0.00    -0.120 SA
BRANCH  17  18
ATOM     18  C   UNL A   1      36.369  33.467  30.348  1.00  0.00     0.033 A 
ATOM     19  C   UNL A   1      36.450  32.647  31.495  1.00  0.00     0.045 A 
ATOM     20  C   UNL A   1      37.698  32.114  31.874  1.00  0.00     0.029 A 
ATOM     21  C   UNL A   1      38.868  32.448  31.198  1.00  0.00     0.041 A 
ATOM     22  C   UNL A   1      37.572  33.826  29.701  1.00  0.00     0.056 A 
ATOM     23  C   UNL A   1      38.796  33.326  30.130  1.00  0.00     0.124 A 
ATOM     24  F   UNL A   1      39.916  33.670  29.481  1.00  0.00    -0.207 F 
BRANCH  19  25
ATOM     25  N   UNL A   1      35.329  32.167  32.179  1.00  0.00    -0.398 N 
ATOM     26  H   UNL A   1      35.364  32.045  33.156  1.00  0.00     0.156 HD
ATOM     27  H   UNL A   1      34.505  31.952  31.685  1.00  0.00     0.156 HD
ENDBRANCH  19  25
ENDBRANCH  17  18
ENDBRANCH  16  17
ENDBRANCH  15  16
ENDBRANCH  14  15
ENDBRANCH   9  14
ENDBRANCH   6   8
ENDBRANCH   5   6
ENDBRANCH   4   5
ENDBRANCH   3   4
ENDBRANCH   2   3
ENDBRANCH   1   2
BRANCH   1  28
ATOM     28  C   UNL A   1      33.821  23.306  26.520  1.00  0.00     0.188 C 
BRANCH  28  29
ATOM     29  O   UNL A   1      35.154  22.833  26.602  1.00  0.00    -0.377 OA
BRANCH  29  30
ATOM     30  C   UNL A   1      35.870  22.627  25.399  1.00  0.00     0.188 C 
BRANCH  30  31
ATOM     31  C   UNL A   1      36.291  21.201  24.985  1.00  0.00     0.188 C 
BRANCH  31  32
ATOM     32  O   UNL A   1      37.692  20.949  24.999  1.00  0.00    -0.376 OA
BRANCH  32  33
ATOM     33  C   UNL A   1      38.088  19.586  24.918  1.00  0.00     0.202 C 
BRANCH  33  34
ATOM     34  C   UNL A   1      39.315  19.219  25.762  1.00  0.00     0.261 C 
BRANCH  34  35
ATOM     35  O   UNL A   1      40.563  19.732  25.276  1.00  0.00    -0.460 OA
BRANCH  35  36
ATOM     36  C   UNL A   1      41.672  19.458  26.002  1.00  0.00     0.338 C 
ATOM     37  O   UNL A   1      42.202  18.383  26.164  1.00  0.00    -0.246 OA
BRANCH  36  38
ATOM     38  C   UNL A   1      42.255  20.759  26.400  1.00  0.00     0.060 A 
ATOM     39  C   UNL A   1      42.896  21.568  25.459  1.00  0.00     0.016 A 
ATOM     40  C   UNL A   1      42.220  21.127  27.752  1.00  0.00     0.016 A 
ATOM     41  C   UNL A   1      43.481  22.766  25.868  1.00  0.00     0.010 A 
ATOM     42  C   UNL A   1      42.829  22.312  28.164  1.00  0.00     0.010 A 
ATOM     43  C   UNL A   1      43.437  23.152  27.218  1.00  0.00    -0.014 A 
BRANCH  43  44
ATOM     44  C   UNL A   1      43.818  24.531  27.596  1.00  0.00     0.031 A 
ATOM     45  C   UNL A   1      45.239  24.997  27.632  1.00  0.00     0.074 A 
ATOM     46  C   UNL A   1      42.817  25.370  27.920  1.00  0.00     0.049 A 
ATOM     47  N   UNL A   1      45.698  26.199  27.873  1.00  0.00    -0.248 NA
ATOM     48  C   UNL A   1      46.279  23.992  27.377  1.00  0.00     0.031 C 
ATOM     49  C   UNL A   1      41.398  25.004  27.942  1.00  0.00     0.029 A 
ATOM     50  N   UNL A   1      42.830  26.689  28.287  1.00  0.00    -0.354 N 
ATOM     51  C   UNL A   1      47.078  26.108  27.771  1.00  0.00     0.074 A 
ATOM     52  C   UNL A   1      47.385  24.718  27.494  1.00  0.00     0.031 C 
ATOM     53  C   UNL A   1      40.676  26.080  28.287  1.00  0.00     0.029 A 
ATOM     54  C   UNL A   1      41.579  27.200  28.525  1.00  0.00     0.049 A 
ATOM     55  H   UNL A   1      43.655  27.219  28.372  1.00  0.00     0.167 HD
ATOM     56  C   UNL A   1      47.994  27.102  27.882  1.00  0.00     0.037 A 
ATOM     57  C   UNL A   1      41.199  28.438  28.889  1.00  0.00     0.037 A 
ATOM     58  C   UNL A   1      47.672  28.478  28.178  1.00  0.00     0.049 A 
ATOM     59  C   UNL A   1      42.240  29.506  29.049  1.00  0.00     0.074 A 
ATOM     60  C   UNL A   1      48.528  29.564  28.263  1.00  0.00     0.029 A 
ATOM     61  N   UNL A   1      46.398  28.956  28.454  1.00  0.00    -0.354 N 
ATOM     62  N   UNL A   1      43.535  29.429  28.866  1.00  0.00    -0.248 NA
ATOM     63  C   UNL A   1      41.767  30.834  29.459  1.00  0.00     0.031 C 
ATOM     64  C   UNL A   1      47.782  30.684  28.641  1.00  0.00     0.029 A 
ATOM     65  C   UNL A   1      46.451  30.312  28.743  1.00  0.00     0.049 A 
ATOM     66  H   UNL A   1      45.578  28.411  28.446  1.00  0.00     0.167 HD
ATOM     67  C   UNL A   1      44.032  30.699  29.120  1.00  0.00     0.074 A 
ATOM     68  C   UNL A   1      42.894  31.533  29.450  1.00  0.00     0.031 C 
ATOM     69  C   UNL A   1      45.315  31.130  29.083  1.00  0.00     0.037 A 
BRANCH  56  70
ATOM     70  C   UNL A   1      49.438  26.758  27.667  1.00  0.00     0.064 A 
ATOM     71  C   UNL A   1      50.294  26.506  28.750  1.00  0.00     0.173 A 
ATOM     72  C   UNL A   1      49.947  26.570  26.373  1.00  0.00     0.173 A 
ATOM     73  F   UNL A   1      49.856  26.671  30.008  1.00  0.00    -0.203 F 
ATOM     74  C   UNL A   1      51.607  26.089  28.545  1.00  0.00     0.198 A 
ATOM     75  C   UNL A   1      51.254  26.129  26.172  1.00  0.00     0.198 A 
ATOM     76  F   UNL A   1      49.168  26.782  25.301  1.00  0.00    -0.203 F 
ATOM     77  F   UNL A   1      52.412  25.875  29.596  1.00  0.00    -0.200 F 
ATOM     78  C   UNL A   1      52.082  25.892  27.258  1.00  0.00     0.200 A 
ATOM     79  F   UNL A   1      51.707  25.922  24.928  1.00  0.00    -0.200 F 
ATOM     80  F   UNL A   1      53.340  25.469  27.064  1.00  0.00    -0.200 F 
ENDBRANCH  56  70
BRANCH  57  81
ATOM     81  C   UNL A   1      39.756  28.729  29.072  1.00  0.00     0.064 A 
ATOM     82  C   UNL A   1      39.151  28.578  30.326  1.00  0.00     0.173 A 
ATOM     83  C   UNL A   1      38.969  29.206  28.015  1.00  0.00     0.173 A 
ATOM     84  F   UNL A   1      39.863  28.114  31.363  1.00  0.00    -0.203 F 
ATOM     85  C   UNL A   1      37.806  28.885  30.514  1.00  0.00     0.198 A 
ATOM     86  C   UNL A   1      37.631  29.537  28.210  1.00  0.00     0.198 A 
ATOM     87  F   UNL A   1      39.508  29.377  26.799  1.00  0.00    -0.203 F 
ATOM     88  F   UNL A   1      37.242  28.705  31.716  1.00  0.00    -0.200 F 
ATOM     89  C   UNL A   1      37.049  29.372  29.458  1.00  0.00     0.200 A 
ATOM     90  F   UNL A   1      36.907  30.024  27.193  1.00  0.00    -0.200 F 
ATOM     91  F   UNL A   1      35.758  29.679  29.644  1.00  0.00    -0.200 F 
ENDBRANCH  57  81
BRANCH  69  92
ATOM     92  C   UNL A   1      45.565  32.575  29.410  1.00  0.00     0.064 A 
ATOM     93  C   UNL A   1      45.497  33.569  28.423  1.00  0.00     0.173 A 
ATOM     94  C   UNL A   1      45.824  32.975  30.730  1.00  0.00     0.173 A 
ATOM     95  F   UNL A   1      45.270  33.236  27.144  1.00  0.00    -0.203 F 
ATOM     96  C   UNL A   1      45.696  34.909  28.743  1.00  0.00     0.198 A 
ATOM     97  C   UNL A   1      45.994  34.319  31.050  1.00  0.00     0.198 A 
ATOM     98  F   UNL A   1      45.895  32.063  31.712  1.00  0.00    -0.203 F 
ATOM     99  F   UNL A   1      45.666  35.838  27.777  1.00  0.00    -0.200 F 
ATOM    100  C   UNL A   1      45.934  35.284  30.057  1.00  0.00     0.200 A 
ATOM    101  F   UNL A   1      46.211  34.681  32.323  1.00  0.00    -0.200 F 
ATOM    102  F   UNL A   1      46.112  36.576  30.364  1.00  0.00    -0.200 F 
ENDBRANCH  69  92
ENDBRANCH  43  44
ENDBRANCH  36  38
ENDBRANCH  35  36
ENDBRANCH  34  35
ENDBRANCH  33  34
ENDBRANCH  32  33
ENDBRANCH  31  32
ENDBRANCH  30  31
ENDBRANCH  29  30
ENDBRANCH  28  29
ENDBRANCH   1  28
TORSDOF 26
ENDMDL
MODEL 3
REMARK VINA RESULT:      -9.1      1.220      7.177
REMARK SMILES Nc1ccc(F)cc1SCCOc1ccc(C(=O)OCCOCCOCCOCCOC(=O)c2ccc(-c3c4nc(c(-c5c(F)c(F)c(F)c(F)c5F)c5ccc([nH]5)c(-c5c(F)c(F)c(F)c(F)c5F)c5nc(c(-c6c(F)c(F)c(F)c(F)c6F)c6ccc3[nH]6)C=C5)C=C4)cc2)cc1
REMARK SMILES IDX 23 1 22 2 21 3 20 4 19 5 17 6 18 7 16 8 13 9 14 10 98 11
REMARK SMILES IDX 15 12 97 13 12 14 11 15 10 16 9 17 8 18 2 19 3 20 4 21 7 22
REMARK SMILES IDX 5 23 6 24 1 25 24 28 25 29 26 30 27 31 28 32 29 33 30 34
REMARK SMILES IDX 31 35 32 36 33 37 34 38 35 39 96 40 36 41 95 42 37 43 38 44
REMARK SMILES IDX 39 45 89 46 40 47 94 48 88 49 90 50 41 51 93 52 87 53 86 54
REMARK SMILES IDX 42 56 74 57 54 58 73 59 55 60 58 61 72 62 91 63 56 64 57 65
REMARK SMILES IDX 71 67 92 68 59 69 43 70 44 71 52 72 45 73 46 74 50 75 53 76
REMARK SMILES IDX 47 77 48 78 51 79 49 80 75 81 76 82 84 83 77 84 78 85 82 86
REMARK SMILES IDX 85 87 79 88 80 89 83 90 81 91 60 92 61 93 69 94 62 95 63 96
REMARK SMILES IDX 67 97 70 98 64 99 65 100 68 101 66 102
REMARK H PARENT 1 26 1 27 90 55 58 66
REMARK Flexibility Score: inf
ROOT
ATOM      1  C   UNL A   1      32.546  24.137  24.595  1.00  0.00     0.188 C 
ENDROOT
BRANCH   1   2
ATOM      2  O   UNL A   1      31.702  24.193  23.452  1.00  0.00    -0.376 OA
BRANCH   2   3
ATOM      3  C   UNL A   1      32.135  25.072  22.419  1.00  0.00     0.202 C 
BRANCH   3   4
ATOM      4  C   UNL A   1      31.533  26.483  22.509  1.00  0.00     0.261 C 
BRANCH   4   5
ATOM      5  O   UNL A   1      32.165  27.338  23.479  1.00  0.00    -0.460 OA
BRANCH   5   6
ATOM      6  C   UNL A   1      31.375  27.713  24.508  1.00  0.00     0.338 C 
ATOM      7  O   UNL A   1      30.310  27.213  24.822  1.00  0.00    -0.246 OA
BRANCH   6   8
ATOM      8  C   UNL A   1      32.121  28.663  25.354  1.00  0.00     0.060 A 
ATOM      9  C   UNL A   1      33.450  30.625  26.828  1.00  0.00     0.119 A 
ATOM     10  C   UNL A   1      32.104  30.783  26.521  1.00  0.00     0.047 A 
ATOM     11  C   UNL A   1      34.086  29.413  26.521  1.00  0.00     0.047 A 
ATOM     12  C   UNL A   1      31.472  29.846  25.713  1.00  0.00     0.019 A 
ATOM     13  C   UNL A   1      33.414  28.413  25.804  1.00  0.00     0.019 A 
BRANCH   9  14
ATOM     14  O   UNL A   1      34.260  31.623  27.296  1.00  0.00    -0.493 OA
BRANCH  14  15
ATOM     15  C   UNL A   1      34.148  31.996  28.678  1.00  0.00     0.241 C 
BRANCH  15  16
ATOM     16  C   UNL A   1      34.293  33.499  28.999  1.00  0.00     0.116 C 
BRANCH  16  17
ATOM     17  S   UNL A   1      34.618  34.044  30.724  1.00  0.00    -0.120 SA
BRANCH  17  18
ATOM     18  C   UNL A   1      36.266  33.478  31.197  1.00  0.00     0.033 A 
ATOM     19  C   UNL A   1      37.473  33.597  30.476  1.00  0.00     0.045 A 
ATOM     20  C   UNL A   1      38.678  33.182  31.077  1.00  0.00     0.029 A 
ATOM     21  C   UNL A   1      38.695  32.574  32.330  1.00  0.00     0.041 A 
ATOM     22  C   UNL A   1      36.299  32.823  32.448  1.00  0.00     0.056 A 
ATOM     23  C   UNL A   1      37.497  32.376  32.993  1.00  0.00     0.124 A 
ATOM     24  F   UNL A   1      37.497  31.777  34.191  1.00  0.00    -0.207 F 
BRANCH  19  25
ATOM     25  N   UNL A   1      37.582  34.285  29.263  1.00  0.00    -0.398 N 
ATOM     26  H   UNL A   1      36.820  34.809  28.925  1.00  0.00     0.156 HD
ATOM     27  H   UNL A   1      38.420  34.245  28.747  1.00  0.00     0.156 HD
ENDBRANCH  19  25
ENDBRANCH  17  18
ENDBRANCH  16  17
ENDBRANCH  15  16
ENDBRANCH  14  15
ENDBRANCH   9  14
ENDBRANCH   6   8
ENDBRANCH   5   6
ENDBRANCH   4   5
ENDBRANCH   3   4
ENDBRANCH   2   3
ENDBRANCH   1   2
BRANCH   1  28
ATOM     28  C   UNL A   1      32.793  22.725  25.172  1.00  0.00     0.188 C 
BRANCH  28  29
ATOM     29  O   UNL A   1      34.084  22.361  25.629  1.00  0.00    -0.377 OA
BRANCH  29  30
ATOM     30  C   UNL A   1      35.009  21.844  24.692  1.00  0.00     0.188 C 
BRANCH  30  31
ATOM     31  C   UNL A   1      35.683  20.479  24.943  1.00  0.00     0.188 C 
BRANCH  31  32
ATOM     32  O   UNL A   1      37.085  20.524  25.186  1.00  0.00    -0.376 OA
BRANCH  32  33
ATOM     33  C   UNL A   1      37.820  19.352  24.859  1.00  0.00     0.202 C 
BRANCH  33  34
ATOM     34  C   UNL A   1      39.073  19.116  25.713  1.00  0.00     0.261 C 
BRANCH  34  35
ATOM     35  O   UNL A   1      40.029  20.185  25.698  1.00  0.00    -0.460 OA
BRANCH  35  36
ATOM     36  C   UNL A   1      41.276  19.907  26.145  1.00  0.00     0.338 C 
ATOM     37  O   UNL A   1      41.847  18.842  26.128  1.00  0.00    -0.246 OA
BRANCH  36  38
ATOM     38  C   UNL A   1      41.911  21.204  26.473  1.00  0.00     0.060 A 
ATOM     39  C   UNL A   1      42.359  22.052  25.459  1.00  0.00     0.016 A 
ATOM     40  C   UNL A   1      42.123  21.527  27.820  1.00  0.00     0.016 A 
ATOM     41  C   UNL A   1      42.999  23.245  25.793  1.00  0.00     0.010 A 
ATOM     42  C   UNL A   1      42.787  22.708  28.153  1.00  0.00     0.010 A 
ATOM     43  C   UNL A   1      43.201  23.588  27.141  1.00  0.00    -0.014 A 
BRANCH  43  44
ATOM     44  C   UNL A   1      43.633  24.960  27.489  1.00  0.00     0.031 A 
ATOM     45  C   UNL A   1      45.031  25.446  27.278  1.00  0.00     0.074 A 
ATOM     46  C   UNL A   1      42.701  25.771  28.023  1.00  0.00     0.049 A 
ATOM     47  N   UNL A   1      45.516  26.647  27.471  1.00  0.00    -0.248 NA
ATOM     48  C   UNL A   1      46.015  24.466  26.799  1.00  0.00     0.031 C 
ATOM     49  C   UNL A   1      41.316  25.383  28.295  1.00  0.00     0.029 A 
ATOM     50  N   UNL A   1      42.770  27.078  28.427  1.00  0.00    -0.354 N 
ATOM     51  C   UNL A   1      46.853  26.581  27.111  1.00  0.00     0.074 A 
ATOM     52  C   UNL A   1      47.117  25.206  26.734  1.00  0.00     0.031 C 
ATOM     53  C   UNL A   1      40.660  26.435  28.805  1.00  0.00     0.029 A 
ATOM     54  C   UNL A   1      41.581  27.560  28.911  1.00  0.00     0.049 A 
ATOM     55  H   UNL A   1      43.592  27.617  28.375  1.00  0.00     0.167 HD
ATOM     56  C   UNL A   1      47.764  27.586  27.085  1.00  0.00     0.037 A 
ATOM     57  C   UNL A   1      41.263  28.780  29.382  1.00  0.00     0.037 A 
ATOM     58  C   UNL A   1      47.490  28.946  27.483  1.00  0.00     0.049 A 
ATOM     59  C   UNL A   1      42.306  29.858  29.383  1.00  0.00     0.074 A 
ATOM     60  C   UNL A   1      48.337  30.042  27.446  1.00  0.00     0.029 A 
ATOM     61  N   UNL A   1      46.285  29.394  28.007  1.00  0.00    -0.354 N 
ATOM     62  N   UNL A   1      43.545  29.808  28.960  1.00  0.00    -0.248 NA
ATOM     63  C   UNL A   1      41.904  31.165  29.920  1.00  0.00     0.031 C 
ATOM     64  C   UNL A   1      47.663  31.138  27.995  1.00  0.00     0.029 A 
ATOM     65  C   UNL A   1      46.378  30.741  28.329  1.00  0.00     0.049 A 
ATOM     66  H   UNL A   1      45.483  28.837  28.133  1.00  0.00     0.167 HD
ATOM     67  C   UNL A   1      44.068  31.077  29.161  1.00  0.00     0.074 A 
ATOM     68  C   UNL A   1      43.003  31.882  29.726  1.00  0.00     0.031 C 
ATOM     69  C   UNL A   1      45.318  31.530  28.902  1.00  0.00     0.037 A 
BRANCH  56  70
ATOM     70  C   UNL A   1      49.147  27.271  26.593  1.00  0.00     0.064 A 
ATOM     71  C   UNL A   1      49.485  27.410  25.238  1.00  0.00     0.173 A 
ATOM     72  C   UNL A   1      50.170  26.935  27.492  1.00  0.00     0.173 A 
ATOM     73  F   UNL A   1      48.544  27.731  24.337  1.00  0.00    -0.203 F 
ATOM     74  C   UNL A   1      50.793  27.215  24.802  1.00  0.00     0.198 A 
ATOM     75  C   UNL A   1      51.482  26.764  27.055  1.00  0.00     0.198 A 
ATOM     76  F   UNL A   1      49.904  26.803  28.801  1.00  0.00    -0.203 F 
ATOM     77  F   UNL A   1      51.088  27.333  23.499  1.00  0.00    -0.200 F 
ATOM     78  C   UNL A   1      51.791  26.902  25.712  1.00  0.00     0.200 A 
ATOM     79  F   UNL A   1      52.449  26.479  27.939  1.00  0.00    -0.200 F 
ATOM     80  F   UNL A   1      53.053  26.735  25.292  1.00  0.00    -0.200 F 
ENDBRANCH  56  70
BRANCH  57  81
ATOM     81  C   UNL A   1      39.877  29.042  29.840  1.00  0.00     0.064 A 
ATOM     82  C   UNL A   1      38.880  29.410  28.928  1.00  0.00     0.173 A 
ATOM     83  C   UNL A   1      39.512  28.886  31.184  1.00  0.00     0.173 A 
ATOM     84  F   UNL A   1      39.187  29.582  27.633  1.00  0.00    -0.203 F 
ATOM     85  C   UNL A   1      37.569  29.621  29.346  1.00  0.00     0.198 A 
ATOM     86  C   UNL A   1      38.196  29.072  31.597  1.00  0.00     0.198 A 
ATOM     87  F   UNL A   1      40.431  28.523  32.092  1.00  0.00    -0.203 F 
ATOM     88  F   UNL A   1      36.639  30.001  28.458  1.00  0.00    -0.200 F 
ATOM     89  C   UNL A   1      37.226  29.444  30.678  1.00  0.00     0.200 A 
ATOM     90  F   UNL A   1      37.864  28.882  32.881  1.00  0.00    -0.200 F 
ATOM     91  F   UNL A   1      35.961  29.635  31.076  1.00  0.00    -0.200 F 
ENDBRANCH  57  81
BRANCH  69  92
ATOM     92  C   UNL A   1      45.610  32.967  29.228  1.00  0.00     0.064 A 
ATOM     93  C   UNL A   1      46.039  33.353  30.506  1.00  0.00     0.173 A 
ATOM     94  C   UNL A   1      45.508  33.959  28.241  1.00  0.00     0.173 A 
ATOM     95  F   UNL A   1      46.135  32.445  31.489  1.00  0.00    -0.203 F 
ATOM     96  C   UNL A   1      46.340  34.682  30.788  1.00  0.00     0.198 A 
ATOM     97  C   UNL A   1      45.838  35.282  28.519  1.00  0.00     0.198 A 
ATOM     98  F   UNL A   1      45.105  33.641  27.001  1.00  0.00    -0.203 F 
ATOM     99  F   UNL A   1      46.709  35.034  32.027  1.00  0.00    -0.200 F 
ATOM    100  C   UNL A   1      46.248  35.644  29.793  1.00  0.00     0.200 A 
ATOM    101  F   UNL A   1      45.761  36.208  27.553  1.00  0.00    -0.200 F 
ATOM    102  F   UNL A   1      46.551  36.920  30.064  1.00  0.00    -0.200 F 
ENDBRANCH  69  92
ENDBRANCH  43  44
ENDBRANCH  36  38
ENDBRANCH  35  36
ENDBRANCH  34  35
ENDBRANCH  33  34
ENDBRANCH  32  33
ENDBRANCH  31  32
ENDBRANCH  30  31
ENDBRANCH  29  30
ENDBRANCH  28  29
ENDBRANCH   1  28
TORSDOF 26
ENDMDL
