MODEL 1
REMARK VINA RESULT:     -11.5      0.000      0.000
REMARK SMILES CN1C(=O)C[C@@H](C(=O)OCCOCCOCCOCCOC(=O)c2ccc(-c3c4nc(c(-c5c(F)c(F)c(F)c(F)c5F)c5ccc([nH]5)c(-c5c(F)c(F)c(F)c(F)c5F)c5nc(c(-c6c(F)c(F)c(F)c(F)c6F)c6ccc3[nH]6)C=C5)C=C4)cc2)C12CCN(C(=O)c1ccccc1-n1cccn1)CC2
REMARK SMILES IDX 15 1 14 2 13 3 12 4 11 5 10 6 9 7 7 8 8 9 6 10 1 11 2 12
REMARK SMILES IDX 3 13 87 14 4 15 5 16 88 17 105 18 89 19 104 20 90 21 91 22
REMARK SMILES IDX 92 23 93 24 94 25 98 26 95 27 97 28 96 29 99 30 100 31
REMARK SMILES IDX 103 32 101 33 102 34 16 35 17 36 18 37 19 38 20 39 21 40
REMARK SMILES IDX 22 41 23 42 24 43 25 44 86 45 26 46 85 47 27 48 28 49 29 50
REMARK SMILES IDX 79 51 30 52 84 53 78 54 80 55 31 56 83 57 77 58 76 59 32 61
REMARK SMILES IDX 64 62 44 63 63 64 45 65 48 66 62 67 81 68 46 69 47 70 61 72
REMARK SMILES IDX 82 73 49 74 33 75 34 76 42 77 35 78 36 79 40 80 43 81 37 82
REMARK SMILES IDX 38 83 41 84 39 85 65 86 66 87 74 88 67 89 68 90 72 91 75 92
REMARK SMILES IDX 69 93 70 94 73 95 71 96 50 97 51 98 59 99 52 100 53 101
REMARK SMILES IDX 57 102 60 103 54 104 55 105 58 106 56 107
REMARK H PARENT 80 60 48 71
REMARK Flexibility Score: inf
ROOT
ATOM      1  O   UNL A   1      42.459  20.116  27.176  1.00  0.00    -0.377 OA
ENDROOT
BRANCH   1   2
ATOM      2  C   UNL A   1      41.126  19.655  27.238  1.00  0.00     0.188 C 
BRANCH   2   3
ATOM      3  C   UNL A   1      40.182  20.146  26.148  1.00  0.00     0.188 C 
BRANCH   3   4
ATOM      4  O   UNL A   1      39.474  21.350  26.347  1.00  0.00    -0.376 OA
BRANCH   4   5
ATOM      5  C   UNL A   1      38.441  21.718  25.440  1.00  0.00     0.202 C 
BRANCH   5   6
ATOM      6  C   UNL A   1      37.327  20.725  25.028  1.00  0.00     0.261 C 
BRANCH   6   7
ATOM      7  O   UNL A   1      35.999  20.868  25.621  1.00  0.00    -0.463 OA
BRANCH   7   8
ATOM      8  C   UNL A   1      35.061  20.006  25.177  1.00  0.00     0.311 C 
ATOM      9  O   UNL A   1      35.343  18.909  24.690  1.00  0.00    -0.252 OA
BRANCH   8  10
ATOM     10  C   UNL A   1      33.596  20.447  25.166  1.00  0.00     0.134 C 
ATOM     11  C   UNL A   1      31.887  21.440  21.958  1.00  0.00     0.147 C 
ATOM     12  N   UNL A   1      32.444  20.826  23.151  1.00  0.00    -0.339 N 
ATOM     13  C   UNL A   1      32.449  19.453  23.321  1.00  0.00     0.223 C 
ATOM     14  C   UNL A   1      32.873  21.573  24.358  1.00  0.00     0.060 C 
ATOM     15  O   UNL A   1      32.127  18.613  22.497  1.00  0.00    -0.275 OA
ATOM     16  C   UNL A   1      32.852  19.163  24.735  1.00  0.00     0.118 C 
ATOM     17  C   UNL A   1      33.653  22.838  23.967  1.00  0.00     0.051 C 
ATOM     18  C   UNL A   1      31.579  22.024  25.131  1.00  0.00     0.051 C 
ATOM     19  C   UNL A   1      33.771  23.940  25.019  1.00  0.00     0.122 C 
ATOM     20  C   UNL A   1      31.783  23.128  26.173  1.00  0.00     0.122 C 
ATOM     21  N   UNL A   1      32.506  24.278  25.638  1.00  0.00    -0.338 N 
ATOM     22  C   UNL A   1      32.138  25.561  26.071  1.00  0.00     0.256 C 
ATOM     23  O   UNL A   1      31.188  25.751  26.831  1.00  0.00    -0.269 OA
BRANCH  22  24
ATOM     24  C   UNL A   1      32.895  26.783  25.676  1.00  0.00     0.065 A 
ATOM     25  C   UNL A   1      33.481  27.511  26.732  1.00  0.00     0.016 A 
ATOM     26  C   UNL A   1      33.033  27.280  24.371  1.00  0.00     0.077 A 
ATOM     27  C   UNL A   1      34.164  28.710  26.497  1.00  0.00     0.001 A 
ATOM     28  C   UNL A   1      33.727  28.485  24.140  1.00  0.00     0.029 A 
ATOM     29  C   UNL A   1      34.260  29.213  25.203  1.00  0.00     0.002 A 
BRANCH  26  30
ATOM     30  N   UNL A   1      32.536  26.603  23.239  1.00  0.00    -0.240 N 
ATOM     31  C   UNL A   1      31.251  26.207  22.965  1.00  0.00     0.115 A 
ATOM     32  N   UNL A   1      33.400  26.203  22.267  1.00  0.00    -0.177 NA
ATOM     33  C   UNL A   1      31.303  25.453  21.817  1.00  0.00     0.042 A 
ATOM     34  C   UNL A   1      32.659  25.445  21.459  1.00  0.00     0.135 A 
ENDBRANCH  26  30
ENDBRANCH  22  24
ENDBRANCH   8  10
ENDBRANCH   7   8
ENDBRANCH   6   7
ENDBRANCH   5   6
ENDBRANCH   4   5
ENDBRANCH   3   4
ENDBRANCH   2   3
ENDBRANCH   1   2
BRANCH   1  35
ATOM     35  C   UNL A   1      42.926  20.936  26.115  1.00  0.00     0.188 C 
BRANCH  35  36
ATOM     36  C   UNL A   1      44.164  20.477  25.345  1.00  0.00     0.188 C 
BRANCH  36  37
ATOM     37  O   UNL A   1      45.159  21.472  25.105  1.00  0.00    -0.376 OA
BRANCH  37  38
ATOM     38  C   UNL A   1      44.875  22.798  25.554  1.00  0.00     0.202 C 
BRANCH  38  39
ATOM     39  C   UNL A   1      44.263  23.684  24.489  1.00  0.00     0.261 C 
BRANCH  39  40
ATOM     40  O   UNL A   1      43.368  24.621  25.100  1.00  0.00    -0.460 OA
BRANCH  40  41
ATOM     41  C   UNL A   1      43.885  25.843  25.292  1.00  0.00     0.338 C 
ATOM     42  O   UNL A   1      44.843  26.355  24.720  1.00  0.00    -0.246 OA
BRANCH  41  43
ATOM     43  C   UNL A   1      43.000  26.598  26.177  1.00  0.00     0.060 A 
ATOM     44  C   UNL A   1      43.336  27.933  26.422  1.00  0.00     0.016 A 
ATOM     45  C   UNL A   1      41.942  25.979  26.845  1.00  0.00     0.016 A 
ATOM     46  C   UNL A   1      42.668  28.636  27.412  1.00  0.00     0.010 A 
ATOM     47  C   UNL A   1      41.277  26.684  27.850  1.00  0.00     0.010 A 
ATOM     48  C   UNL A   1      41.684  27.991  28.172  1.00  0.00    -0.014 A 
BRANCH  48  49
ATOM     49  C   UNL A   1      41.271  28.613  29.449  1.00  0.00     0.031 A 
ATOM     50  C   UNL A   1      40.039  29.476  29.451  1.00  0.00     0.074 A 
ATOM     51  C   UNL A   1      41.930  28.342  30.586  1.00  0.00     0.049 A 
ATOM     52  N   UNL A   1      39.479  30.125  30.437  1.00  0.00    -0.248 NA
ATOM     53  C   UNL A   1      39.340  29.621  28.162  1.00  0.00     0.031 C 
ATOM     54  C   UNL A   1      43.091  27.462  30.698  1.00  0.00     0.029 A 
ATOM     55  N   UNL A   1      41.709  28.779  31.866  1.00  0.00    -0.354 N 
ATOM     56  C   UNL A   1      38.371  30.756  29.889  1.00  0.00     0.074 A 
ATOM     57  C   UNL A   1      38.352  30.444  28.478  1.00  0.00     0.031 C 
ATOM     58  C   UNL A   1      43.490  27.430  31.981  1.00  0.00     0.029 A 
ATOM     59  C   UNL A   1      42.633  28.316  32.768  1.00  0.00     0.049 A 
ATOM     60  H   UNL A   1      40.961  29.368  32.113  1.00  0.00     0.167 HD
ATOM     61  C   UNL A   1      37.446  31.522  30.514  1.00  0.00     0.037 A 
ATOM     62  C   UNL A   1      42.779  28.602  34.075  1.00  0.00     0.037 A 
ATOM     63  C   UNL A   1      37.481  31.824  31.920  1.00  0.00     0.049 A 
ATOM     64  C   UNL A   1      41.790  29.535  34.729  1.00  0.00     0.074 A 
ATOM     65  C   UNL A   1      36.598  32.588  32.662  1.00  0.00     0.029 A 
ATOM     66  N   UNL A   1      38.462  31.380  32.794  1.00  0.00    -0.354 N 
ATOM     67  N   UNL A   1      40.738  30.123  34.211  1.00  0.00    -0.248 NA
ATOM     68  C   UNL A   1      42.007  29.841  36.149  1.00  0.00     0.031 C 
ATOM     69  C   UNL A   1      37.081  32.658  33.971  1.00  0.00     0.029 A 
ATOM     70  C   UNL A   1      38.225  31.879  34.063  1.00  0.00     0.049 A 
ATOM     71  H   UNL A   1      39.215  30.795  32.549  1.00  0.00     0.167 HD
ATOM     72  C   UNL A   1      40.149  30.838  35.245  1.00  0.00     0.074 A 
ATOM     73  C   UNL A   1      40.958  30.605  36.423  1.00  0.00     0.031 C 
ATOM     74  C   UNL A   1      39.037  31.615  35.225  1.00  0.00     0.037 A 
BRANCH  61  75
ATOM     75  C   UNL A   1      36.351  32.117  29.676  1.00  0.00     0.064 A 
ATOM     76  C   UNL A   1      36.335  33.476  29.328  1.00  0.00     0.173 A 
ATOM     77  C   UNL A   1      35.310  31.308  29.196  1.00  0.00     0.173 A 
ATOM     78  F   UNL A   1      37.297  34.299  29.774  1.00  0.00    -0.203 F 
ATOM     79  C   UNL A   1      35.305  34.007  28.555  1.00  0.00     0.198 A 
ATOM     80  C   UNL A   1      34.300  31.834  28.396  1.00  0.00     0.198 A 
ATOM     81  F   UNL A   1      35.275  30.000  29.496  1.00  0.00    -0.203 F 
ATOM     82  F   UNL A   1      35.283  35.319  28.280  1.00  0.00    -0.200 F 
ATOM     83  C   UNL A   1      34.293  33.185  28.084  1.00  0.00     0.200 A 
ATOM     84  F   UNL A   1      33.330  31.035  27.930  1.00  0.00    -0.200 F 
ATOM     85  F   UNL A   1      33.306  33.696  27.334  1.00  0.00    -0.200 F 
ENDBRANCH  61  75
BRANCH  62  86
ATOM     86  C   UNL A   1      43.910  28.018  34.843  1.00  0.00     0.064 A 
ATOM     87  C   UNL A   1      43.808  26.755  35.442  1.00  0.00     0.173 A 
ATOM     88  C   UNL A   1      45.115  28.719  35.003  1.00  0.00     0.173 A 
ATOM     89  F   UNL A   1      42.669  26.054  35.335  1.00  0.00    -0.203 F 
ATOM     90  C   UNL A   1      44.858  26.226  36.189  1.00  0.00     0.198 A 
ATOM     91  C   UNL A   1      46.176  28.175  35.723  1.00  0.00     0.198 A 
ATOM     92  F   UNL A   1      45.266  29.932  34.450  1.00  0.00    -0.203 F 
ATOM     93  F   UNL A   1      44.716  25.038  36.792  1.00  0.00    -0.200 F 
ATOM     94  C   UNL A   1      46.044  26.933  36.323  1.00  0.00     0.200 A 
ATOM     95  F   UNL A   1      47.324  28.857  35.838  1.00  0.00    -0.200 F 
ATOM     96  F   UNL A   1      47.054  26.421  37.040  1.00  0.00    -0.200 F 
ENDBRANCH  62  86
BRANCH  74  97
ATOM     97  C   UNL A   1      38.595  32.227  36.522  1.00  0.00     0.064 A 
ATOM     98  C   UNL A   1      37.870  31.499  37.476  1.00  0.00     0.173 A 
ATOM     99  C   UNL A   1      38.971  33.542  36.844  1.00  0.00     0.173 A 
ATOM    100  F   UNL A   1      37.476  30.244  37.212  1.00  0.00    -0.203 F 
ATOM    101  C   UNL A   1      37.520  32.072  38.696  1.00  0.00     0.198 A 
ATOM    102  C   UNL A   1      38.649  34.098  38.078  1.00  0.00     0.198 A 
ATOM    103  F   UNL A   1      39.674  34.277  35.970  1.00  0.00    -0.203 F 
ATOM    104  F   UNL A   1      36.791  31.371  39.576  1.00  0.00    -0.200 F 
ATOM    105  C   UNL A   1      37.919  33.365  39.000  1.00  0.00     0.200 A 
ATOM    106  F   UNL A   1      39.053  35.340  38.377  1.00  0.00    -0.200 F 
ATOM    107  F   UNL A   1      37.597  33.905  40.183  1.00  0.00    -0.200 F 
ENDBRANCH  74  97
ENDBRANCH  48  49
ENDBRANCH  41  43
ENDBRANCH  40  41
ENDBRANCH  39  40
ENDBRANCH  38  39
ENDBRANCH  37  38
ENDBRANCH  36  37
ENDBRANCH  35  36
ENDBRANCH   1  35
TORSDOF 22
ENDMDL
MODEL 2
REMARK VINA RESULT:     -10.6      4.362      7.952
REMARK SMILES CN1C(=O)C[C@@H](C(=O)OCCOCCOCCOCCOC(=O)c2ccc(-c3c4nc(c(-c5c(F)c(F)c(F)c(F)c5F)c5ccc([nH]5)c(-c5c(F)c(F)c(F)c(F)c5F)c5nc(c(-c6c(F)c(F)c(F)c(F)c6F)c6ccc3[nH]6)C=C5)C=C4)cc2)C12CCN(C(=O)c1ccccc1-n1cccn1)CC2
REMARK SMILES IDX 15 1 14 2 13 3 12 4 11 5 10 6 9 7 7 8 8 9 6 10 1 11 2 12
REMARK SMILES IDX 3 13 87 14 4 15 5 16 88 17 105 18 89 19 104 20 90 21 91 22
REMARK SMILES IDX 92 23 93 24 94 25 98 26 95 27 97 28 96 29 99 30 100 31
REMARK SMILES IDX 103 32 101 33 102 34 16 35 17 36 18 37 19 38 20 39 21 40
REMARK SMILES IDX 22 41 23 42 24 43 25 44 86 45 26 46 85 47 27 48 28 49 29 50
REMARK SMILES IDX 79 51 30 52 84 53 78 54 80 55 31 56 83 57 77 58 76 59 32 61
REMARK SMILES IDX 64 62 44 63 63 64 45 65 48 66 62 67 81 68 46 69 47 70 61 72
REMARK SMILES IDX 82 73 49 74 33 75 34 76 42 77 35 78 36 79 40 80 43 81 37 82
REMARK SMILES IDX 38 83 41 84 39 85 65 86 66 87 74 88 67 89 68 90 72 91 75 92
REMARK SMILES IDX 69 93 70 94 73 95 71 96 50 97 51 98 59 99 52 100 53 101
REMARK SMILES IDX 57 102 60 103 54 104 55 105 58 106 56 107
REMARK H PARENT 80 60 48 71
REMARK Flexibility Score: inf
ROOT
ATOM      1  O   UNL A   1      42.727  19.991  26.572  1.00  0.00    -0.377 OA
ENDROOT
BRANCH   1   2
ATOM      2  C   UNL A   1      41.510  19.967  27.288  1.00  0.00     0.188 C 
BRANCH   2   3
ATOM      3  C   UNL A   1      40.506  21.067  26.966  1.00  0.00     0.188 C 
BRANCH   3   4
ATOM      4  O   UNL A   1      40.582  22.289  27.667  1.00  0.00    -0.376 OA
BRANCH   4   5
ATOM      5  C   UNL A   1      39.777  23.389  27.255  1.00  0.00     0.202 C 
BRANCH   5   6
ATOM      6  C   UNL A   1      38.818  23.288  26.044  1.00  0.00     0.261 C 
BRANCH   6   7
ATOM      7  O   UNL A   1      37.430  23.717  26.206  1.00  0.00    -0.463 OA
BRANCH   7   8
ATOM      8  C   UNL A   1      36.548  23.191  25.331  1.00  0.00     0.311 C 
ATOM      9  O   UNL A   1      36.783  23.096  24.125  1.00  0.00    -0.252 OA
BRANCH   8  10
ATOM     10  C   UNL A   1      35.154  22.803  25.829  1.00  0.00     0.134 C 
ATOM     11  C   UNL A   1      32.650  21.177  23.529  1.00  0.00     0.147 C 
ATOM     12  N   UNL A   1      33.673  21.564  24.486  1.00  0.00    -0.339 N 
ATOM     13  C   UNL A   1      34.559  20.639  25.010  1.00  0.00     0.223 C 
ATOM     14  C   UNL A   1      33.757  22.896  25.133  1.00  0.00     0.060 C 
ATOM     15  O   UNL A   1      34.683  19.474  24.672  1.00  0.00    -0.275 OA
ATOM     16  C   UNL A   1      35.303  21.296  26.133  1.00  0.00     0.118 C 
ATOM     17  C   UNL A   1      33.497  24.015  24.112  1.00  0.00     0.051 C 
ATOM     18  C   UNL A   1      32.630  22.972  26.228  1.00  0.00     0.051 C 
ATOM     19  C   UNL A   1      33.096  25.383  24.661  1.00  0.00     0.122 C 
ATOM     20  C   UNL A   1      32.291  24.379  26.731  1.00  0.00     0.122 C 
ATOM     21  N   UNL A   1      32.033  25.316  25.642  1.00  0.00    -0.338 N 
ATOM     22  C   UNL A   1      31.036  26.288  25.819  1.00  0.00     0.256 C 
ATOM     23  O   UNL A   1      30.331  26.331  26.827  1.00  0.00    -0.269 OA
BRANCH  22  24
ATOM     24  C   UNL A   1      30.785  27.363  24.815  1.00  0.00     0.065 A 
ATOM     25  C   UNL A   1      29.903  27.030  23.767  1.00  0.00     0.016 A 
ATOM     26  C   UNL A   1      31.376  28.636  24.808  1.00  0.00     0.077 A 
ATOM     27  C   UNL A   1      29.636  27.930  22.729  1.00  0.00     0.001 A 
ATOM     28  C   UNL A   1      31.098  29.540  23.762  1.00  0.00     0.029 A 
ATOM     29  C   UNL A   1      30.258  29.175  22.711  1.00  0.00     0.002 A 
BRANCH  26  30
ATOM     30  N   UNL A   1      32.227  29.090  25.835  1.00  0.00    -0.240 N 
ATOM     31  C   UNL A   1      32.003  30.068  26.772  1.00  0.00     0.115 A 
ATOM     32  N   UNL A   1      33.483  28.578  25.938  1.00  0.00    -0.177 NA
ATOM     33  C   UNL A   1      33.186  30.247  27.450  1.00  0.00     0.042 A 
ATOM     34  C   UNL A   1      34.074  29.336  26.860  1.00  0.00     0.135 A 
ENDBRANCH  26  30
ENDBRANCH  22  24
ENDBRANCH   8  10
ENDBRANCH   7   8
ENDBRANCH   6   7
ENDBRANCH   5   6
ENDBRANCH   4   5
ENDBRANCH   3   4
ENDBRANCH   2   3
ENDBRANCH   1   2
BRANCH   1  35
ATOM     35  C   UNL A   1      43.035  19.030  25.573  1.00  0.00     0.188 C 
BRANCH  35  36
ATOM     36  C   UNL A   1      44.311  19.228  24.756  1.00  0.00     0.188 C 
BRANCH  36  37
ATOM     37  O   UNL A   1      44.320  20.346  23.867  1.00  0.00    -0.376 OA
BRANCH  37  38
ATOM     38  C   UNL A   1      44.953  21.540  24.329  1.00  0.00     0.202 C 
BRANCH  38  39
ATOM     39  C   UNL A   1      44.116  22.787  24.138  1.00  0.00     0.261 C 
BRANCH  39  40
ATOM     40  O   UNL A   1      43.263  22.972  25.273  1.00  0.00    -0.460 OA
BRANCH  40  41
ATOM     41  C   UNL A   1      43.908  23.211  26.424  1.00  0.00     0.338 C 
ATOM     42  O   UNL A   1      44.881  22.615  26.880  1.00  0.00    -0.246 OA
BRANCH  41  43
ATOM     43  C   UNL A   1      43.402  24.454  27.002  1.00  0.00     0.060 A 
ATOM     44  C   UNL A   1      43.232  25.535  26.133  1.00  0.00     0.016 A 
ATOM     45  C   UNL A   1      43.220  24.591  28.380  1.00  0.00     0.016 A 
ATOM     46  C   UNL A   1      42.964  26.794  26.650  1.00  0.00     0.010 A 
ATOM     47  C   UNL A   1      42.962  25.860  28.901  1.00  0.00     0.010 A 
ATOM     48  C   UNL A   1      42.896  26.969  28.038  1.00  0.00    -0.014 A 
BRANCH  48  49
ATOM     49  C   UNL A   1      43.002  28.344  28.572  1.00  0.00     0.031 A 
ATOM     50  C   UNL A   1      44.361  28.984  28.616  1.00  0.00     0.074 A 
ATOM     51  C   UNL A   1      41.901  29.026  28.925  1.00  0.00     0.049 A 
ATOM     52  N   UNL A   1      44.709  30.171  29.037  1.00  0.00    -0.248 NA
ATOM     53  C   UNL A   1      45.483  28.174  28.109  1.00  0.00     0.031 C 
ATOM     54  C   UNL A   1      40.534  28.517  28.851  1.00  0.00     0.029 A 
ATOM     55  N   UNL A   1      41.765  30.300  29.412  1.00  0.00    -0.354 N 
ATOM     56  C   UNL A   1      46.083  30.248  28.851  1.00  0.00     0.074 A 
ATOM     57  C   UNL A   1      46.515  28.979  28.312  1.00  0.00     0.031 C 
ATOM     58  C   UNL A   1      39.692  29.469  29.287  1.00  0.00     0.029 A 
ATOM     59  C   UNL A   1      40.467  30.636  29.704  1.00  0.00     0.049 A 
ATOM     60  H   UNL A   1      42.524  30.913  29.539  1.00  0.00     0.167 HD
ATOM     61  C   UNL A   1      46.908  31.292  29.101  1.00  0.00     0.037 A 
ATOM     62  C   UNL A   1      39.974  31.754  30.270  1.00  0.00     0.037 A 
ATOM     63  C   UNL A   1      46.460  32.548  29.639  1.00  0.00     0.049 A 
ATOM     64  C   UNL A   1      40.927  32.868  30.628  1.00  0.00     0.074 A 
ATOM     65  C   UNL A   1      47.205  33.676  29.934  1.00  0.00     0.029 A 
ATOM     66  N   UNL A   1      45.144  32.836  29.973  1.00  0.00    -0.354 N 
ATOM     67  N   UNL A   1      42.223  32.940  30.443  1.00  0.00    -0.248 NA
ATOM     68  C   UNL A   1      40.347  34.054  31.271  1.00  0.00     0.031 C 
ATOM     69  C   UNL A   1      46.350  34.622  30.504  1.00  0.00     0.029 A 
ATOM     70  C   UNL A   1      45.059  34.113  30.500  1.00  0.00     0.049 A 
ATOM     71  H   UNL A   1      44.383  32.223  29.852  1.00  0.00     0.167 HD
ATOM     72  C   UNL A   1      42.608  34.189  30.912  1.00  0.00     0.074 A 
ATOM     73  C   UNL A   1      41.406  34.844  31.384  1.00  0.00     0.031 C 
ATOM     74  C   UNL A   1      43.844  34.748  30.946  1.00  0.00     0.037 A 
BRANCH  61  75
ATOM     75  C   UNL A   1      48.374  31.102  28.837  1.00  0.00     0.064 A 
ATOM     76  C   UNL A   1      48.955  31.430  27.603  1.00  0.00     0.173 A 
ATOM     77  C   UNL A   1      49.214  30.601  29.843  1.00  0.00     0.173 A 
ATOM     78  F   UNL A   1      48.196  31.897  26.601  1.00  0.00    -0.203 F 
ATOM     79  C   UNL A   1      50.317  31.238  27.378  1.00  0.00     0.198 A 
ATOM     80  C   UNL A   1      50.580  30.442  29.626  1.00  0.00     0.198 A 
ATOM     81  F   UNL A   1      48.712  30.272  31.043  1.00  0.00    -0.203 F 
ATOM     82  F   UNL A   1      50.841  31.509  26.174  1.00  0.00    -0.200 F 
ATOM     83  C   UNL A   1      51.129  30.752  28.392  1.00  0.00     0.200 A 
ATOM     84  F   UNL A   1      51.364  29.985  30.612  1.00  0.00    -0.200 F 
ATOM     85  F   UNL A   1      52.440  30.574  28.175  1.00  0.00    -0.200 F 
ENDBRANCH  61  75
BRANCH  62  86
ATOM     86  C   UNL A   1      38.519  31.866  30.549  1.00  0.00     0.064 A 
ATOM     87  C   UNL A   1      37.659  32.539  29.671  1.00  0.00     0.173 A 
ATOM     88  C   UNL A   1      37.960  31.312  31.710  1.00  0.00     0.173 A 
ATOM     89  F   UNL A   1      38.148  33.104  28.556  1.00  0.00    -0.203 F 
ATOM     90  C   UNL A   1      36.301  32.670  29.952  1.00  0.00     0.198 A 
ATOM     91  C   UNL A   1      36.596  31.416  31.976  1.00  0.00     0.198 A 
ATOM     92  F   UNL A   1      38.737  30.657  32.585  1.00  0.00    -0.203 F 
ATOM     93  F   UNL A   1      35.510  33.361  29.119  1.00  0.00    -0.200 F 
ATOM     94  C   UNL A   1      35.769  32.104  31.102  1.00  0.00     0.200 A 
ATOM     95  F   UNL A   1      36.085  30.854  33.080  1.00  0.00    -0.200 F 
ATOM     96  F   UNL A   1      34.462  32.229  31.370  1.00  0.00    -0.200 F 
ENDBRANCH  62  86
BRANCH  74  97
ATOM     97  C   UNL A   1      43.956  36.154  31.461  1.00  0.00     0.064 A 
ATOM     98  C   UNL A   1      43.920  37.262  30.602  1.00  0.00     0.173 A 
ATOM     99  C   UNL A   1      44.026  36.394  32.843  1.00  0.00     0.173 A 
ATOM    100  F   UNL A   1      43.866  37.086  29.273  1.00  0.00    -0.203 F 
ATOM    101  C   UNL A   1      43.968  38.558  31.109  1.00  0.00     0.198 A 
ATOM    102  C   UNL A   1      44.040  37.691  33.345  1.00  0.00     0.198 A 
ATOM    103  F   UNL A   1      44.054  35.368  33.706  1.00  0.00    -0.203 F 
ATOM    104  F   UNL A   1      43.974  39.602  30.268  1.00  0.00    -0.200 F 
ATOM    105  C   UNL A   1      44.017  38.772  32.478  1.00  0.00     0.200 A 
ATOM    106  F   UNL A   1      44.066  37.893  34.670  1.00  0.00    -0.200 F 
ATOM    107  F   UNL A   1      44.044  40.021  32.962  1.00  0.00    -0.200 F 
ENDBRANCH  74  97
ENDBRANCH  48  49
ENDBRANCH  41  43
ENDBRANCH  40  41
ENDBRANCH  39  40
ENDBRANCH  38  39
ENDBRANCH  37  38
ENDBRANCH  36  37
ENDBRANCH  35  36
ENDBRANCH   1  35
TORSDOF 22
ENDMDL
MODEL 3
REMARK VINA RESULT:     -10.5      5.164      8.000
REMARK SMILES CN1C(=O)C[C@@H](C(=O)OCCOCCOCCOCCOC(=O)c2ccc(-c3c4nc(c(-c5c(F)c(F)c(F)c(F)c5F)c5ccc([nH]5)c(-c5c(F)c(F)c(F)c(F)c5F)c5nc(c(-c6c(F)c(F)c(F)c(F)c6F)c6ccc3[nH]6)C=C5)C=C4)cc2)C12CCN(C(=O)c1ccccc1-n1cccn1)CC2
REMARK SMILES IDX 15 1 14 2 13 3 12 4 11 5 10 6 9 7 7 8 8 9 6 10 1 11 2 12
REMARK SMILES IDX 3 13 87 14 4 15 5 16 88 17 105 18 89 19 104 20 90 21 91 22
REMARK SMILES IDX 92 23 93 24 94 25 98 26 95 27 97 28 96 29 99 30 100 31
REMARK SMILES IDX 103 32 101 33 102 34 16 35 17 36 18 37 19 38 20 39 21 40
REMARK SMILES IDX 22 41 23 42 24 43 25 44 86 45 26 46 85 47 27 48 28 49 29 50
REMARK SMILES IDX 79 51 30 52 84 53 78 54 80 55 31 56 83 57 77 58 76 59 32 61
REMARK SMILES IDX 64 62 44 63 63 64 45 65 48 66 62 67 81 68 46 69 47 70 61 72
REMARK SMILES IDX 82 73 49 74 33 75 34 76 42 77 35 78 36 79 40 80 43 81 37 82
REMARK SMILES IDX 38 83 41 84 39 85 65 86 66 87 74 88 67 89 68 90 72 91 75 92
REMARK SMILES IDX 69 93 70 94 73 95 71 96 50 97 51 98 59 99 52 100 53 101
REMARK SMILES IDX 57 102 60 103 54 104 55 105 58 106 56 107
REMARK H PARENT 80 60 48 71
REMARK Flexibility Score: inf
ROOT
ATOM      1  O   UNL A   1      42.881  24.086  27.211  1.00  0.00    -0.377 OA
ENDROOT
BRANCH   1   2
ATOM      2  C   UNL A   1      42.124  25.252  27.461  1.00  0.00     0.188 C 
BRANCH   2   3
ATOM      3  C   UNL A   1      40.926  25.497  26.552  1.00  0.00     0.188 C 
BRANCH   3   4
ATOM      4  O   UNL A   1      39.626  25.327  27.072  1.00  0.00    -0.376 OA
BRANCH   4   5
ATOM      5  C   UNL A   1      38.957  24.082  26.905  1.00  0.00     0.202 C 
BRANCH   5   6
ATOM      6  C   UNL A   1      37.764  23.922  25.930  1.00  0.00     0.261 C 
BRANCH   6   7
ATOM      7  O   UNL A   1      37.599  22.655  25.220  1.00  0.00    -0.463 OA
BRANCH   7   8
ATOM      8  C   UNL A   1      36.461  22.526  24.507  1.00  0.00     0.311 C 
ATOM      9  O   UNL A   1      36.416  22.704  23.288  1.00  0.00    -0.252 OA
BRANCH   8  10
ATOM     10  C   UNL A   1      35.149  22.263  25.248  1.00  0.00     0.134 C 
ATOM     11  C   UNL A   1      32.166  20.805  23.466  1.00  0.00     0.147 C 
ATOM     12  N   UNL A   1      33.366  21.125  24.221  1.00  0.00    -0.339 N 
ATOM     13  C   UNL A   1      34.255  20.140  24.615  1.00  0.00     0.223 C 
ATOM     14  C   UNL A   1      33.664  22.458  24.799  1.00  0.00     0.060 C 
ATOM     15  O   UNL A   1      34.228  18.963  24.299  1.00  0.00    -0.275 OA
ATOM     16  C   UNL A   1      35.231  20.755  25.572  1.00  0.00     0.118 C 
ATOM     17  C   UNL A   1      33.319  23.574  23.801  1.00  0.00     0.051 C 
ATOM     18  C   UNL A   1      32.753  22.647  26.068  1.00  0.00     0.051 C 
ATOM     19  C   UNL A   1      33.126  24.981  24.365  1.00  0.00     0.122 C 
ATOM     20  C   UNL A   1      32.617  24.085  26.574  1.00  0.00     0.122 C 
ATOM     21  N   UNL A   1      32.247  25.020  25.516  1.00  0.00    -0.338 N 
ATOM     22  C   UNL A   1      31.375  26.074  25.828  1.00  0.00     0.256 C 
ATOM     23  O   UNL A   1      30.860  26.194  26.940  1.00  0.00    -0.269 OA
BRANCH  22  24
ATOM     24  C   UNL A   1      31.038  27.146  24.848  1.00  0.00     0.065 A 
ATOM     25  C   UNL A   1      30.071  26.809  23.878  1.00  0.00     0.016 A 
ATOM     26  C   UNL A   1      31.623  28.420  24.788  1.00  0.00     0.077 A 
ATOM     27  C   UNL A   1      29.715  27.707  22.865  1.00  0.00     0.001 A 
ATOM     28  C   UNL A   1      31.256  29.322  23.768  1.00  0.00     0.029 A 
ATOM     29  C   UNL A   1      30.331  28.953  22.792  1.00  0.00     0.002 A 
BRANCH  26  30
ATOM     30  N   UNL A   1      32.556  28.878  25.739  1.00  0.00    -0.240 N 
ATOM     31  C   UNL A   1      32.414  29.865  26.683  1.00  0.00     0.115 A 
ATOM     32  N   UNL A   1      33.814  28.359  25.744  1.00  0.00    -0.177 NA
ATOM     33  C   UNL A   1      33.649  30.043  27.260  1.00  0.00     0.042 A 
ATOM     34  C   UNL A   1      34.482  29.122  26.609  1.00  0.00     0.135 A 
ENDBRANCH  26  30
ENDBRANCH  22  24
ENDBRANCH   8  10
ENDBRANCH   7   8
ENDBRANCH   6   7
ENDBRANCH   5   6
ENDBRANCH   4   5
ENDBRANCH   3   4
ENDBRANCH   2   3
ENDBRANCH   1   2
BRANCH   1  35
ATOM     35  C   UNL A   1      42.310  22.787  27.274  1.00  0.00     0.188 C 
BRANCH  35  36
ATOM     36  C   UNL A   1      42.338  21.929  26.010  1.00  0.00     0.188 C 
BRANCH  36  37
ATOM     37  O   UNL A   1      43.073  22.461  24.906  1.00  0.00    -0.376 OA
BRANCH  37  38
ATOM     38  C   UNL A   1      44.360  21.896  24.649  1.00  0.00     0.202 C 
BRANCH  38  39
ATOM     39  C   UNL A   1      45.379  22.902  24.157  1.00  0.00     0.261 C 
BRANCH  39  40
ATOM     40  O   UNL A   1      44.946  24.226  24.487  1.00  0.00    -0.460 OA
BRANCH  40  41
ATOM     41  C   UNL A   1      45.924  25.051  24.886  1.00  0.00     0.338 C 
ATOM     42  O   UNL A   1      47.074  25.118  24.461  1.00  0.00    -0.246 OA
BRANCH  41  43
ATOM     43  C   UNL A   1      45.366  26.040  25.806  1.00  0.00     0.060 A 
ATOM     44  C   UNL A   1      44.517  27.007  25.259  1.00  0.00     0.016 A 
ATOM     45  C   UNL A   1      45.763  26.093  27.144  1.00  0.00     0.016 A 
ATOM     46  C   UNL A   1      44.129  28.092  26.028  1.00  0.00     0.010 A 
ATOM     47  C   UNL A   1      45.381  27.192  27.915  1.00  0.00     0.010 A 
ATOM     48  C   UNL A   1      44.615  28.220  27.336  1.00  0.00    -0.014 A 
BRANCH  48  49
ATOM     49  C   UNL A   1      44.516  29.542  27.990  1.00  0.00     0.031 A 
ATOM     50  C   UNL A   1      45.656  30.507  27.813  1.00  0.00     0.074 A 
ATOM     51  C   UNL A   1      43.402  29.898  28.647  1.00  0.00     0.049 A 
ATOM     52  N   UNL A   1      45.803  31.717  28.284  1.00  0.00    -0.248 NA
ATOM     53  C   UNL A   1      46.785  30.043  26.987  1.00  0.00     0.031 C 
ATOM     54  C   UNL A   1      42.216  29.060  28.810  1.00  0.00     0.029 A 
ATOM     55  N   UNL A   1      43.087  31.064  29.295  1.00  0.00    -0.354 N 
ATOM     56  C   UNL A   1      47.035  32.154  27.817  1.00  0.00     0.074 A 
ATOM     57  C   UNL A   1      47.615  31.071  27.056  1.00  0.00     0.031 C 
ATOM     58  C   UNL A   1      41.301  29.737  29.524  1.00  0.00     0.029 A 
ATOM     59  C   UNL A   1      41.854  31.038  29.896  1.00  0.00     0.049 A 
ATOM     60  H   UNL A   1      43.688  31.843  29.326  1.00  0.00     0.167 HD
ATOM     61  C   UNL A   1      47.625  33.359  28.003  1.00  0.00     0.037 A 
ATOM     62  C   UNL A   1      41.259  31.957  30.680  1.00  0.00     0.037 A 
ATOM     63  C   UNL A   1      47.034  34.425  28.766  1.00  0.00     0.049 A 
ATOM     64  C   UNL A   1      41.979  33.255  30.951  1.00  0.00     0.074 A 
ATOM     65  C   UNL A   1      47.538  35.687  29.022  1.00  0.00     0.029 A 
ATOM     66  N   UNL A   1      45.805  34.345  29.406  1.00  0.00    -0.354 N 
ATOM     67  N   UNL A   1      43.139  33.669  30.502  1.00  0.00    -0.248 NA
ATOM     68  C   UNL A   1      41.304  34.214  31.836  1.00  0.00     0.031 C 
ATOM     69  C   UNL A   1      46.644  36.347  29.868  1.00  0.00     0.029 A 
ATOM     70  C   UNL A   1      45.548  35.525  30.082  1.00  0.00     0.049 A 
ATOM     71  H   UNL A   1      45.204  33.566  29.381  1.00  0.00     0.167 HD
ATOM     72  C   UNL A   1      43.318  34.946  31.017  1.00  0.00     0.074 A 
ATOM     73  C   UNL A   1      42.142  35.241  31.809  1.00  0.00     0.031 C 
ATOM     74  C   UNL A   1      44.358  35.800  30.849  1.00  0.00     0.037 A 
BRANCH  61  75
ATOM     75  C   UNL A   1      48.989  33.567  27.410  1.00  0.00     0.064 A 
ATOM     76  C   UNL A   1      49.167  34.091  26.121  1.00  0.00     0.173 A 
ATOM     77  C   UNL A   1      50.138  33.255  28.153  1.00  0.00     0.173 A 
ATOM     78  F   UNL A   1      48.102  34.390  25.360  1.00  0.00    -0.203 F 
ATOM     79  C   UNL A   1      50.442  34.268  25.588  1.00  0.00     0.198 A 
ATOM     80  C   UNL A   1      51.410  33.465  27.630  1.00  0.00     0.198 A 
ATOM     81  F   UNL A   1      50.027  32.753  29.392  1.00  0.00    -0.203 F 
ATOM     82  F   UNL A   1      50.586  34.720  24.334  1.00  0.00    -0.200 F 
ATOM     83  C   UNL A   1      51.562  33.962  26.346  1.00  0.00     0.200 A 
ATOM     84  F   UNL A   1      52.492  33.182  28.370  1.00  0.00    -0.200 F 
ATOM     85  F   UNL A   1      52.788  34.140  25.834  1.00  0.00    -0.200 F 
ENDBRANCH  61  75
BRANCH  62  86
ATOM     86  C   UNL A   1      39.927  31.676  31.277  1.00  0.00     0.064 A 
ATOM     87  C   UNL A   1      39.805  30.998  32.497  1.00  0.00     0.173 A 
ATOM     88  C   UNL A   1      38.746  32.070  30.630  1.00  0.00     0.173 A 
ATOM     89  F   UNL A   1      40.904  30.582  33.144  1.00  0.00    -0.203 F 
ATOM     90  C   UNL A   1      38.554  30.706  33.036  1.00  0.00     0.198 A 
ATOM     91  C   UNL A   1      37.496  31.807  31.185  1.00  0.00     0.198 A 
ATOM     92  F   UNL A   1      38.806  32.723  29.460  1.00  0.00    -0.203 F 
ATOM     93  F   UNL A   1      38.465  30.013  34.180  1.00  0.00    -0.200 F 
ATOM     94  C   UNL A   1      37.401  31.116  32.384  1.00  0.00     0.200 A 
ATOM     95  F   UNL A   1      36.386  32.218  30.558  1.00  0.00    -0.200 F 
ATOM     96  F   UNL A   1      36.198  30.838  32.905  1.00  0.00    -0.200 F 
ENDBRANCH  62  86
BRANCH  74  97
ATOM     97  C   UNL A   1      44.253  37.155  31.486  1.00  0.00     0.064 A 
ATOM     98  C   UNL A   1      43.819  38.279  30.769  1.00  0.00     0.173 A 
ATOM     99  C   UNL A   1      44.522  37.312  32.856  1.00  0.00     0.173 A 
ATOM    100  F   UNL A   1      43.562  38.185  29.456  1.00  0.00    -0.203 F 
ATOM    101  C   UNL A   1      43.675  39.514  31.397  1.00  0.00     0.198 A 
ATOM    102  C   UNL A   1      44.344  38.539  33.486  1.00  0.00     0.198 A 
ATOM    103  F   UNL A   1      44.931  36.265  33.588  1.00  0.00    -0.203 F 
ATOM    104  F   UNL A   1      43.299  40.584  30.683  1.00  0.00    -0.200 F 
ATOM    105  C   UNL A   1      43.927  39.640  32.755  1.00  0.00     0.200 A 
ATOM    106  F   UNL A   1      44.568  38.653  34.802  1.00  0.00    -0.200 F 
ATOM    107  F   UNL A   1      43.769  40.826  33.359  1.00  0.00    -0.200 F 
ENDBRANCH  74  97
ENDBRANCH  48  49
ENDBRANCH  41  43
ENDBRANCH  40  41
ENDBRANCH  39  40
ENDBRANCH  38  39
ENDBRANCH  37  38
ENDBRANCH  36  37
ENDBRANCH  35  36
ENDBRANCH   1  35
TORSDOF 22
ENDMDL
