MODEL 1
REMARK VINA RESULT:     -11.1      0.000      0.000
REMARK SMILES O=C(OCCOCCOCCOCCOC(=O)[C@H]1Cc2[nH]cnc2CN1C(=O)N1CCC[C@H](O)C1)c1ccc(-c2c3nc(c(-c4c(F)c(F)c(F)c(F)c4F)c4ccc([nH]4)c(-c4c(F)c(F)c(F)c(F)c4F)c4nc(c(-c5c(F)c(F)c(F)c(F)c5F)c5ccc2[nH]5)C=C4)C=C3)cc1
REMARK SMILES IDX 10 1 9 2 8 3 7 4 6 5 5 6 4 7 3 8 2 9 1 10 36 11 37 12 98 13
REMARK SMILES IDX 38 14 97 15 39 16 40 17 41 18 91 19 42 20 96 21 90 22 92 23
REMARK SMILES IDX 43 24 95 25 89 26 88 27 44 29 76 30 56 31 75 32 57 33 60 34
REMARK SMILES IDX 74 35 93 36 58 37 59 38 73 40 94 41 61 42 45 43 46 44 54 45
REMARK SMILES IDX 47 46 48 47 52 48 55 49 49 50 50 51 53 52 51 53 77 54 78 55
REMARK SMILES IDX 86 56 79 57 80 58 84 59 87 60 81 61 82 62 85 63 83 64 62 65
REMARK SMILES IDX 63 66 71 67 64 68 65 69 69 70 72 71 66 72 67 73 70 74 68 75
REMARK SMILES IDX 11 76 12 77 13 78 14 79 15 80 16 81 17 82 18 83 19 84 26 85
REMARK SMILES IDX 20 86 25 87 21 88 24 89 22 90 23 92 27 93 28 94 29 95 30 96
REMARK SMILES IDX 35 97 31 98 33 99 32 100 34 101
REMARK H PARENT 92 28 60 39 21 91 34 102
REMARK Flexibility Score: inf
ROOT
ATOM      1  C   UNL A   1      37.499  22.828  25.540  1.00  0.00     0.188 C 
ENDROOT
BRANCH   1   2
ATOM      2  O   UNL A   1      38.086  21.549  25.566  1.00  0.00    -0.377 OA
BRANCH   2   3
ATOM      3  C   UNL A   1      39.408  21.483  26.075  1.00  0.00     0.188 C 
BRANCH   3   4
ATOM      4  C   UNL A   1      40.164  20.138  26.173  1.00  0.00     0.188 C 
BRANCH   4   5
ATOM      5  O   UNL A   1      41.498  19.877  26.595  1.00  0.00    -0.376 OA
BRANCH   5   6
ATOM      6  C   UNL A   1      42.729  19.925  25.907  1.00  0.00     0.202 C 
BRANCH   6   7
ATOM      7  C   UNL A   1      43.466  21.257  25.645  1.00  0.00     0.261 C 
BRANCH   7   8
ATOM      8  O   UNL A   1      42.673  22.356  25.193  1.00  0.00    -0.460 OA
BRANCH   8   9
ATOM      9  C   UNL A   1      43.005  23.667  25.216  1.00  0.00     0.338 C 
ATOM     10  O   UNL A   1      43.963  24.062  24.557  1.00  0.00    -0.246 OA
BRANCH   9  11
ATOM     11  C   UNL A   1      42.360  24.620  26.145  1.00  0.00     0.060 A 
ATOM     12  C   UNL A   1      41.508  25.653  25.744  1.00  0.00     0.016 A 
ATOM     13  C   UNL A   1      42.664  24.460  27.511  1.00  0.00     0.016 A 
ATOM     14  C   UNL A   1      41.054  26.575  26.635  1.00  0.00     0.010 A 
ATOM     15  C   UNL A   1      42.258  25.413  28.418  1.00  0.00     0.010 A 
ATOM     16  C   UNL A   1      41.566  26.508  27.916  1.00  0.00    -0.014 A 
BRANCH  16  17
ATOM     17  C   UNL A   1      41.598  27.792  28.563  1.00  0.00     0.031 A 
ATOM     18  C   UNL A   1      42.825  28.569  28.279  1.00  0.00     0.074 A 
ATOM     19  C   UNL A   1      40.600  28.017  29.440  1.00  0.00     0.049 A 
ATOM     20  N   UNL A   1      43.689  29.037  29.118  1.00  0.00    -0.248 NA
ATOM     21  C   UNL A   1      43.248  28.654  26.870  1.00  0.00     0.031 C 
ATOM     22  C   UNL A   1      39.381  27.217  29.659  1.00  0.00     0.029 A 
ATOM     23  N   UNL A   1      40.408  29.084  30.253  1.00  0.00    -0.354 N 
ATOM     24  C   UNL A   1      44.652  29.672  28.339  1.00  0.00     0.074 A 
ATOM     25  C   UNL A   1      44.430  29.258  26.980  1.00  0.00     0.031 C 
ATOM     26  C   UNL A   1      38.462  27.966  30.299  1.00  0.00     0.029 A 
ATOM     27  C   UNL A   1      39.079  29.223  30.650  1.00  0.00     0.049 A 
ATOM     28  H   UNL A   1      41.129  29.694  30.533  1.00  0.00     0.167 HD
ATOM     29  C   UNL A   1      45.345  30.731  28.830  1.00  0.00     0.037 A 
ATOM     30  C   UNL A   1      38.547  30.407  31.032  1.00  0.00     0.037 A 
ATOM     31  C   UNL A   1      45.472  30.653  30.261  1.00  0.00     0.049 A 
ATOM     32  C   UNL A   1      39.702  31.253  31.462  1.00  0.00     0.074 A 
ATOM     33  C   UNL A   1      46.103  29.771  31.116  1.00  0.00     0.029 A 
ATOM     34  N   UNL A   1      44.579  31.350  31.038  1.00  0.00    -0.354 N 
ATOM     35  N   UNL A   1      40.456  30.952  32.491  1.00  0.00    -0.248 NA
ATOM     36  C   UNL A   1      40.338  32.085  30.445  1.00  0.00     0.031 C 
ATOM     37  C   UNL A   1      45.230  29.645  32.234  1.00  0.00     0.029 A 
ATOM     38  C   UNL A   1      44.151  30.508  32.035  1.00  0.00     0.049 A 
ATOM     39  H   UNL A   1      44.297  32.284  30.906  1.00  0.00     0.167 HD
ATOM     40  C   UNL A   1      41.758  31.214  32.072  1.00  0.00     0.074 A 
ATOM     41  C   UNL A   1      41.615  31.946  30.815  1.00  0.00     0.031 C 
ATOM     42  C   UNL A   1      42.830  30.566  32.617  1.00  0.00     0.037 A 
BRANCH  29  43
ATOM     43  C   UNL A   1      45.486  32.016  28.052  1.00  0.00     0.064 A 
ATOM     44  C   UNL A   1      46.772  32.519  27.789  1.00  0.00     0.173 A 
ATOM     45  C   UNL A   1      44.420  32.922  27.832  1.00  0.00     0.173 A 
ATOM     46  F   UNL A   1      47.855  31.750  27.972  1.00  0.00    -0.203 F 
ATOM     47  C   UNL A   1      46.977  33.853  27.424  1.00  0.00     0.198 A 
ATOM     48  C   UNL A   1      44.626  34.234  27.422  1.00  0.00     0.198 A 
ATOM     49  F   UNL A   1      43.147  32.620  28.109  1.00  0.00    -0.203 F 
ATOM     50  F   UNL A   1      48.225  34.324  27.307  1.00  0.00    -0.200 F 
ATOM     51  C   UNL A   1      45.906  34.712  27.252  1.00  0.00     0.200 A 
ATOM     52  F   UNL A   1      43.572  35.051  27.279  1.00  0.00    -0.200 F 
ATOM     53  F   UNL A   1      46.104  36.005  26.974  1.00  0.00    -0.200 F 
ENDBRANCH  29  43
BRANCH  30  54
ATOM     54  C   UNL A   1      37.245  30.929  30.554  1.00  0.00     0.064 A 
ATOM     55  C   UNL A   1      36.302  31.450  31.447  1.00  0.00     0.173 A 
ATOM     56  C   UNL A   1      36.978  31.122  29.179  1.00  0.00     0.173 A 
ATOM     57  F   UNL A   1      36.509  31.357  32.768  1.00  0.00    -0.203 F 
ATOM     58  C   UNL A   1      35.158  32.118  30.994  1.00  0.00     0.198 A 
ATOM     59  C   UNL A   1      35.833  31.775  28.728  1.00  0.00     0.198 A 
ATOM     60  F   UNL A   1      37.864  30.754  28.241  1.00  0.00    -0.203 F 
ATOM     61  F   UNL A   1      34.298  32.642  31.878  1.00  0.00    -0.200 F 
ATOM     62  C   UNL A   1      34.926  32.282  29.637  1.00  0.00     0.200 A 
ATOM     63  F   UNL A   1      35.642  31.954  27.413  1.00  0.00    -0.200 F 
ATOM     64  F   UNL A   1      33.852  32.957  29.206  1.00  0.00    -0.200 F 
ENDBRANCH  30  54
BRANCH  42  65
ATOM     65  C   UNL A   1      42.573  29.653  33.787  1.00  0.00     0.064 A 
ATOM     66  C   UNL A   1      42.237  28.294  33.646  1.00  0.00     0.173 A 
ATOM     67  C   UNL A   1      42.856  30.112  35.077  1.00  0.00     0.173 A 
ATOM     68  F   UNL A   1      42.068  27.753  32.435  1.00  0.00    -0.203 F 
ATOM     69  C   UNL A   1      42.147  27.448  34.752  1.00  0.00     0.198 A 
ATOM     70  C   UNL A   1      42.799  29.258  36.177  1.00  0.00     0.198 A 
ATOM     71  F   UNL A   1      43.256  31.380  35.264  1.00  0.00    -0.203 F 
ATOM     72  F   UNL A   1      41.829  26.155  34.586  1.00  0.00    -0.200 F 
ATOM     73  C   UNL A   1      42.435  27.931  36.016  1.00  0.00     0.200 A 
ATOM     74  F   UNL A   1      43.137  29.714  37.391  1.00  0.00    -0.200 F 
ATOM     75  F   UNL A   1      42.399  27.109  37.075  1.00  0.00    -0.200 F 
ENDBRANCH  42  65
ENDBRANCH  16  17
ENDBRANCH   9  11
ENDBRANCH   8   9
ENDBRANCH   7   8
ENDBRANCH   6   7
ENDBRANCH   5   6
ENDBRANCH   4   5
ENDBRANCH   3   4
ENDBRANCH   2   3
ENDBRANCH   1   2
BRANCH   1  76
ATOM     76  C   UNL A   1      35.964  22.799  25.430  1.00  0.00     0.188 C 
BRANCH  76  77
ATOM     77  O   UNL A   1      35.388  21.747  26.180  1.00  0.00    -0.376 OA
BRANCH  77  78
ATOM     78  C   UNL A   1      34.696  22.088  27.376  1.00  0.00     0.202 C 
BRANCH  78  79
ATOM     79  C   UNL A   1      33.211  21.785  27.536  1.00  0.00     0.261 C 
BRANCH  79  80
ATOM     80  O   UNL A   1      32.343  22.839  27.935  1.00  0.00    -0.462 OA
BRANCH  80  81
ATOM     81  C   UNL A   1      31.421  23.329  27.075  1.00  0.00     0.329 C 
ATOM     82  O   UNL A   1      30.232  23.397  27.291  1.00  0.00    -0.250 OA
BRANCH  81  83
ATOM     83  C   UNL A   1      32.125  23.688  25.766  1.00  0.00     0.203 C 
ATOM     84  C   UNL A   1      31.554  22.909  24.552  1.00  0.00     0.093 C 
ATOM     85  N   UNL A   1      32.382  25.117  25.443  1.00  0.00    -0.304 N 
ATOM     86  C   UNL A   1      32.336  23.236  23.349  1.00  0.00     0.042 A 
ATOM     87  C   UNL A   1      33.406  25.308  24.361  1.00  0.00     0.180 C 
ATOM     88  N   UNL A   1      32.387  22.578  22.156  1.00  0.00    -0.348 N 
ATOM     89  C   UNL A   1      33.174  24.317  23.246  1.00  0.00     0.081 A 
ATOM     90  C   UNL A   1      33.305  23.249  21.392  1.00  0.00     0.197 A 
ATOM     91  H   UNL A   1      31.870  21.781  21.897  1.00  0.00     0.167 HD
ATOM     92  N   UNL A   1      33.798  24.299  22.022  1.00  0.00    -0.240 NA
BRANCH  85  93
ATOM     93  C   UNL A   1      31.618  26.226  25.759  1.00  0.00     0.321 C 
ATOM     94  O   UNL A   1      31.521  26.625  26.922  1.00  0.00    -0.248 OA
BRANCH  93  95
ATOM     95  N   UNL A   1      30.960  26.942  24.747  1.00  0.00    -0.322 N 
ATOM     96  C   UNL A   1      29.575  26.551  24.468  1.00  0.00     0.121 C 
ATOM     97  C   UNL A   1      31.056  28.388  24.956  1.00  0.00     0.153 C 
ATOM     98  C   UNL A   1      28.782  27.465  23.510  1.00  0.00     0.024 C 
ATOM     99  C   UNL A   1      30.683  29.223  23.733  1.00  0.00     0.134 C 
ATOM    100  C   UNL A   1      29.450  28.735  22.978  1.00  0.00     0.035 C 
BRANCH  99 101
ATOM    101  O   UNL A   1      31.782  29.333  22.822  1.00  0.00    -0.391 OA
ATOM    102  H   UNL A   1      31.944  30.269  22.624  1.00  0.00     0.211 HD
ENDBRANCH  99 101
ENDBRANCH  93  95
ENDBRANCH  85  93
ENDBRANCH  81  83
ENDBRANCH  80  81
ENDBRANCH  79  80
ENDBRANCH  78  79
ENDBRANCH  77  78
ENDBRANCH  76  77
ENDBRANCH   1  76
TORSDOF 23
ENDMDL
MODEL 2
REMARK VINA RESULT:     -10.9      3.718      8.159
REMARK SMILES O=C(OCCOCCOCCOCCOC(=O)[C@H]1Cc2[nH]cnc2CN1C(=O)N1CCC[C@H](O)C1)c1ccc(-c2c3nc(c(-c4c(F)c(F)c(F)c(F)c4F)c4ccc([nH]4)c(-c4c(F)c(F)c(F)c(F)c4F)c4nc(c(-c5c(F)c(F)c(F)c(F)c5F)c5ccc2[nH]5)C=C4)C=C3)cc1
REMARK SMILES IDX 10 1 9 2 8 3 7 4 6 5 5 6 4 7 3 8 2 9 1 10 36 11 37 12 98 13
REMARK SMILES IDX 38 14 97 15 39 16 40 17 41 18 91 19 42 20 96 21 90 22 92 23
REMARK SMILES IDX 43 24 95 25 89 26 88 27 44 29 76 30 56 31 75 32 57 33 60 34
REMARK SMILES IDX 74 35 93 36 58 37 59 38 73 40 94 41 61 42 45 43 46 44 54 45
REMARK SMILES IDX 47 46 48 47 52 48 55 49 49 50 50 51 53 52 51 53 77 54 78 55
REMARK SMILES IDX 86 56 79 57 80 58 84 59 87 60 81 61 82 62 85 63 83 64 62 65
REMARK SMILES IDX 63 66 71 67 64 68 65 69 69 70 72 71 66 72 67 73 70 74 68 75
REMARK SMILES IDX 11 76 12 77 13 78 14 79 15 80 16 81 17 82 18 83 19 84 26 85
REMARK SMILES IDX 20 86 25 87 21 88 24 89 22 90 23 92 27 93 28 94 29 95 30 96
REMARK SMILES IDX 35 97 31 98 33 99 32 100 34 101
REMARK H PARENT 92 28 60 39 21 91 34 102
REMARK Flexibility Score: inf
ROOT
ATOM      1  C   UNL A   1      35.359  32.417  27.974  1.00  0.00     0.188 C 
ENDROOT
BRANCH   1   2
ATOM      2  O   UNL A   1      34.763  33.661  27.695  1.00  0.00    -0.377 OA
BRANCH   2   3
ATOM      3  C   UNL A   1      34.973  34.680  28.658  1.00  0.00     0.188 C 
BRANCH   3   4
ATOM      4  C   UNL A   1      34.191  34.698  29.991  1.00  0.00     0.188 C 
BRANCH   4   5
ATOM      5  O   UNL A   1      33.871  33.624  30.869  1.00  0.00    -0.376 OA
BRANCH   5   6
ATOM      6  C   UNL A   1      34.633  32.948  31.845  1.00  0.00     0.202 C 
BRANCH   6   7
ATOM      7  C   UNL A   1      36.136  32.651  31.647  1.00  0.00     0.261 C 
BRANCH   7   8
ATOM      8  O   UNL A   1      36.469  31.517  30.844  1.00  0.00    -0.460 OA
BRANCH   8   9
ATOM      9  C   UNL A   1      36.739  30.263  31.274  1.00  0.00     0.338 C 
ATOM     10  O   UNL A   1      36.288  29.880  32.351  1.00  0.00    -0.246 OA
BRANCH   9  11
ATOM     11  C   UNL A   1      37.703  29.387  30.574  1.00  0.00     0.060 A 
ATOM     12  C   UNL A   1      38.343  28.294  31.162  1.00  0.00     0.016 A 
ATOM     13  C   UNL A   1      37.987  29.722  29.235  1.00  0.00     0.016 A 
ATOM     14  C   UNL A   1      39.317  27.611  30.502  1.00  0.00     0.010 A 
ATOM     15  C   UNL A   1      39.007  29.077  28.571  1.00  0.00     0.010 A 
ATOM     16  C   UNL A   1      39.718  28.122  29.284  1.00  0.00    -0.014 A 
BRANCH  16  17
ATOM     17  C   UNL A   1      41.091  27.812  28.984  1.00  0.00     0.031 A 
ATOM     18  C   UNL A   1      41.300  26.417  28.537  1.00  0.00     0.074 A 
ATOM     19  C   UNL A   1      41.979  28.774  29.304  1.00  0.00     0.049 A 
ATOM     20  N   UNL A   1      42.066  25.516  29.058  1.00  0.00    -0.248 NA
ATOM     21  C   UNL A   1      40.384  25.904  27.503  1.00  0.00     0.031 C 
ATOM     22  C   UNL A   1      41.708  30.164  29.717  1.00  0.00     0.029 A 
ATOM     23  N   UNL A   1      43.330  28.745  29.219  1.00  0.00    -0.354 N 
ATOM     24  C   UNL A   1      41.887  24.382  28.271  1.00  0.00     0.074 A 
ATOM     25  C   UNL A   1      40.728  24.618  27.454  1.00  0.00     0.031 C 
ATOM     26  C   UNL A   1      42.820  30.906  29.549  1.00  0.00     0.029 A 
ATOM     27  C   UNL A   1      43.892  30.020  29.162  1.00  0.00     0.049 A 
ATOM     28  H   UNL A   1      43.859  27.914  29.199  1.00  0.00     0.167 HD
ATOM     29  C   UNL A   1      42.891  23.480  28.128  1.00  0.00     0.037 A 
ATOM     30  C   UNL A   1      45.102  30.265  28.607  1.00  0.00     0.037 A 
ATOM     31  C   UNL A   1      43.745  23.460  29.286  1.00  0.00     0.049 A 
ATOM     32  C   UNL A   1      45.838  28.965  28.644  1.00  0.00     0.074 A 
ATOM     33  C   UNL A   1      43.549  23.117  30.609  1.00  0.00     0.029 A 
ATOM     34  N   UNL A   1      44.903  24.198  29.258  1.00  0.00    -0.354 N 
ATOM     35  N   UNL A   1      46.170  28.370  29.763  1.00  0.00    -0.248 NA
ATOM     36  C   UNL A   1      45.700  28.084  27.487  1.00  0.00     0.031 C 
ATOM     37  C   UNL A   1      44.314  24.060  31.355  1.00  0.00     0.029 A 
ATOM     38  C   UNL A   1      44.988  24.878  30.449  1.00  0.00     0.049 A 
ATOM     39  H   UNL A   1      45.554  24.233  28.522  1.00  0.00     0.167 HD
ATOM     40  C   UNL A   1      45.898  27.022  29.550  1.00  0.00     0.074 A 
ATOM     41  C   UNL A   1      45.646  26.905  28.115  1.00  0.00     0.031 C 
ATOM     42  C   UNL A   1      45.608  26.177  30.584  1.00  0.00     0.037 A 
BRANCH  29  43
ATOM     43  C   UNL A   1      43.321  22.981  26.770  1.00  0.00     0.064 A 
ATOM     44  C   UNL A   1      43.190  21.613  26.471  1.00  0.00     0.173 A 
ATOM     45  C   UNL A   1      44.134  23.724  25.881  1.00  0.00     0.173 A 
ATOM     46  F   UNL A   1      42.451  20.812  27.252  1.00  0.00    -0.203 F 
ATOM     47  C   UNL A   1      43.895  21.022  25.419  1.00  0.00     0.198 A 
ATOM     48  C   UNL A   1      44.794  23.141  24.806  1.00  0.00     0.198 A 
ATOM     49  F   UNL A   1      44.418  25.017  26.072  1.00  0.00    -0.203 F 
ATOM     50  F   UNL A   1      43.842  19.695  25.247  1.00  0.00    -0.200 F 
ATOM     51  C   UNL A   1      44.705  21.784  24.594  1.00  0.00     0.200 A 
ATOM     52  F   UNL A   1      45.586  23.898  24.032  1.00  0.00    -0.200 F 
ATOM     53  F   UNL A   1      45.436  21.209  23.633  1.00  0.00    -0.200 F 
ENDBRANCH  29  43
BRANCH  30  54
ATOM     54  C   UNL A   1      45.375  31.368  27.655  1.00  0.00     0.064 A 
ATOM     55  C   UNL A   1      44.475  31.676  26.629  1.00  0.00     0.173 A 
ATOM     56  C   UNL A   1      46.432  32.284  27.858  1.00  0.00     0.173 A 
ATOM     57  F   UNL A   1      43.414  30.886  26.409  1.00  0.00    -0.203 F 
ATOM     58  C   UNL A   1      44.625  32.829  25.848  1.00  0.00     0.198 A 
ATOM     59  C   UNL A   1      46.589  33.424  27.071  1.00  0.00     0.198 A 
ATOM     60  F   UNL A   1      47.291  32.140  28.878  1.00  0.00    -0.203 F 
ATOM     61  F   UNL A   1      43.720  33.116  24.902  1.00  0.00    -0.200 F 
ATOM     62  C   UNL A   1      45.679  33.701  26.071  1.00  0.00     0.200 A 
ATOM     63  F   UNL A   1      47.594  34.274  27.324  1.00  0.00    -0.200 F 
ATOM     64  F   UNL A   1      45.797  34.825  25.351  1.00  0.00    -0.200 F 
ENDBRANCH  30  54
BRANCH  42  65
ATOM     65  C   UNL A   1      45.728  26.719  31.983  1.00  0.00     0.064 A 
ATOM     66  C   UNL A   1      46.950  26.805  32.676  1.00  0.00     0.173 A 
ATOM     67  C   UNL A   1      44.618  27.341  32.564  1.00  0.00     0.173 A 
ATOM     68  F   UNL A   1      48.079  26.340  32.131  1.00  0.00    -0.203 F 
ATOM     69  C   UNL A   1      47.043  27.445  33.913  1.00  0.00     0.198 A 
ATOM     70  C   UNL A   1      44.720  28.009  33.783  1.00  0.00     0.198 A 
ATOM     71  F   UNL A   1      43.444  27.358  31.914  1.00  0.00    -0.203 F 
ATOM     72  F   UNL A   1      48.223  27.514  34.548  1.00  0.00    -0.200 F 
ATOM     73  C   UNL A   1      45.927  28.052  34.462  1.00  0.00     0.200 A 
ATOM     74  F   UNL A   1      43.652  28.647  34.282  1.00  0.00    -0.200 F 
ATOM     75  F   UNL A   1      46.024  28.711  35.625  1.00  0.00    -0.200 F 
ENDBRANCH  42  65
ENDBRANCH  16  17
ENDBRANCH   9  11
ENDBRANCH   8   9
ENDBRANCH   7   8
ENDBRANCH   6   7
ENDBRANCH   5   6
ENDBRANCH   4   5
ENDBRANCH   3   4
ENDBRANCH   2   3
ENDBRANCH   1   2
BRANCH   1  76
ATOM     76  C   UNL A   1      34.433  31.216  27.706  1.00  0.00     0.188 C 
BRANCH  76  77
ATOM     77  O   UNL A   1      35.139  29.990  27.652  1.00  0.00    -0.376 OA
BRANCH  77  78
ATOM     78  C   UNL A   1      34.532  28.907  26.959  1.00  0.00     0.202 C 
BRANCH  78  79
ATOM     79  C   UNL A   1      33.421  29.149  25.944  1.00  0.00     0.261 C 
BRANCH  79  80
ATOM     80  O   UNL A   1      32.075  28.924  26.346  1.00  0.00    -0.462 OA
BRANCH  80  81
ATOM     81  C   UNL A   1      31.590  27.665  26.440  1.00  0.00     0.329 C 
ATOM     82  O   UNL A   1      30.968  27.224  27.380  1.00  0.00    -0.250 OA
BRANCH  81  83
ATOM     83  C   UNL A   1      32.042  26.881  25.207  1.00  0.00     0.203 C 
ATOM     84  C   UNL A   1      32.337  25.392  25.526  1.00  0.00     0.093 C 
ATOM     85  N   UNL A   1      31.301  27.043  23.927  1.00  0.00    -0.304 N 
ATOM     86  C   UNL A   1      32.851  24.725  24.319  1.00  0.00     0.042 A 
ATOM     87  C   UNL A   1      32.064  26.549  22.730  1.00  0.00     0.180 C 
ATOM     88  N   UNL A   1      33.509  23.536  24.211  1.00  0.00    -0.348 N 
ATOM     89  C   UNL A   1      32.734  25.233  23.050  1.00  0.00     0.081 A 
ATOM     90  C   UNL A   1      33.823  23.395  22.885  1.00  0.00     0.197 A 
ATOM     91  H   UNL A   1      33.716  22.907  24.940  1.00  0.00     0.167 HD
ATOM     92  N   UNL A   1      33.372  24.402  22.162  1.00  0.00    -0.240 NA
BRANCH  85  93
ATOM     93  C   UNL A   1      29.952  27.278  23.731  1.00  0.00     0.321 C 
ATOM     94  O   UNL A   1      29.110  26.414  23.989  1.00  0.00    -0.248 OA
BRANCH  93  95
ATOM     95  N   UNL A   1      29.513  28.525  23.263  1.00  0.00    -0.322 N 
ATOM     96  C   UNL A   1      30.337  29.160  22.231  1.00  0.00     0.121 C 
ATOM     97  C   UNL A   1      28.109  28.484  22.848  1.00  0.00     0.153 C 
ATOM     98  C   UNL A   1      29.753  30.423  21.564  1.00  0.00     0.024 C 
ATOM     99  C   UNL A   1      27.469  29.859  22.668  1.00  0.00     0.134 C 
ATOM    100  C   UNL A   1      28.348  30.885  21.959  1.00  0.00     0.035 C 
BRANCH  99 101
ATOM    101  O   UNL A   1      27.031  30.397  23.920  1.00  0.00    -0.391 OA
ATOM    102  H   UNL A   1      27.796  30.735  24.411  1.00  0.00     0.211 HD
ENDBRANCH  99 101
ENDBRANCH  93  95
ENDBRANCH  85  93
ENDBRANCH  81  83
ENDBRANCH  80  81
ENDBRANCH  79  80
ENDBRANCH  78  79
ENDBRANCH  77  78
ENDBRANCH  76  77
ENDBRANCH   1  76
TORSDOF 23
ENDMDL
MODEL 3
REMARK VINA RESULT:     -10.7      1.855      3.038
REMARK SMILES O=C(OCCOCCOCCOCCOC(=O)[C@H]1Cc2[nH]cnc2CN1C(=O)N1CCC[C@H](O)C1)c1ccc(-c2c3nc(c(-c4c(F)c(F)c(F)c(F)c4F)c4ccc([nH]4)c(-c4c(F)c(F)c(F)c(F)c4F)c4nc(c(-c5c(F)c(F)c(F)c(F)c5F)c5ccc2[nH]5)C=C4)C=C3)cc1
REMARK SMILES IDX 10 1 9 2 8 3 7 4 6 5 5 6 4 7 3 8 2 9 1 10 36 11 37 12 98 13
REMARK SMILES IDX 38 14 97 15 39 16 40 17 41 18 91 19 42 20 96 21 90 22 92 23
REMARK SMILES IDX 43 24 95 25 89 26 88 27 44 29 76 30 56 31 75 32 57 33 60 34
REMARK SMILES IDX 74 35 93 36 58 37 59 38 73 40 94 41 61 42 45 43 46 44 54 45
REMARK SMILES IDX 47 46 48 47 52 48 55 49 49 50 50 51 53 52 51 53 77 54 78 55
REMARK SMILES IDX 86 56 79 57 80 58 84 59 87 60 81 61 82 62 85 63 83 64 62 65
REMARK SMILES IDX 63 66 71 67 64 68 65 69 69 70 72 71 66 72 67 73 70 74 68 75
REMARK SMILES IDX 11 76 12 77 13 78 14 79 15 80 16 81 17 82 18 83 19 84 26 85
REMARK SMILES IDX 20 86 25 87 21 88 24 89 22 90 23 92 27 93 28 94 29 95 30 96
REMARK SMILES IDX 35 97 31 98 33 99 32 100 34 101
REMARK H PARENT 92 28 60 39 21 91 34 102
REMARK Flexibility Score: inf
ROOT
ATOM      1  C   UNL A   1      33.817  21.440  26.884  1.00  0.00     0.188 C 
ENDROOT
BRANCH   1   2
ATOM      2  O   UNL A   1      35.147  21.641  26.471  1.00  0.00    -0.377 OA
BRANCH   2   3
ATOM      3  C   UNL A   1      35.580  20.863  25.367  1.00  0.00     0.188 C 
BRANCH   3   4
ATOM      4  C   UNL A   1      36.778  21.302  24.496  1.00  0.00     0.188 C 
BRANCH   4   5
ATOM      5  O   UNL A   1      38.125  21.564  24.873  1.00  0.00    -0.376 OA
BRANCH   5   6
ATOM      6  C   UNL A   1      39.001  20.899  25.759  1.00  0.00     0.202 C 
BRANCH   6   7
ATOM      7  C   UNL A   1      40.258  21.589  26.335  1.00  0.00     0.261 C 
BRANCH   7   8
ATOM      8  O   UNL A   1      40.047  22.568  27.353  1.00  0.00    -0.460 OA
BRANCH   8   9
ATOM      9  C   UNL A   1      39.467  23.782  27.211  1.00  0.00     0.338 C 
ATOM     10  O   UNL A   1      38.338  23.864  26.735  1.00  0.00    -0.246 OA
BRANCH   9  11
ATOM     11  C   UNL A   1      40.213  25.037  27.449  1.00  0.00     0.060 A 
ATOM     12  C   UNL A   1      41.158  25.208  28.464  1.00  0.00     0.016 A 
ATOM     13  C   UNL A   1      39.908  26.113  26.593  1.00  0.00     0.016 A 
ATOM     14  C   UNL A   1      41.711  26.427  28.711  1.00  0.00     0.010 A 
ATOM     15  C   UNL A   1      40.416  27.365  26.862  1.00  0.00     0.010 A 
ATOM     16  C   UNL A   1      41.207  27.495  27.996  1.00  0.00    -0.014 A 
BRANCH  16  17
ATOM     17  C   UNL A   1      41.308  28.736  28.716  1.00  0.00     0.031 A 
ATOM     18  C   UNL A   1      42.547  29.491  28.425  1.00  0.00     0.074 A 
ATOM     19  C   UNL A   1      40.356  28.938  29.649  1.00  0.00     0.049 A 
ATOM     20  N   UNL A   1      43.460  29.881  29.252  1.00  0.00    -0.248 NA
ATOM     21  C   UNL A   1      42.913  29.649  27.006  1.00  0.00     0.031 C 
ATOM     22  C   UNL A   1      39.121  28.163  29.872  1.00  0.00     0.029 A 
ATOM     23  N   UNL A   1      40.234  29.958  30.531  1.00  0.00    -0.354 N 
ATOM     24  C   UNL A   1      44.409  30.533  28.470  1.00  0.00     0.074 A 
ATOM     25  C   UNL A   1      44.117  30.209  27.100  1.00  0.00     0.031 C 
ATOM     26  C   UNL A   1      38.255  28.898  30.595  1.00  0.00     0.029 A 
ATOM     27  C   UNL A   1      38.927  30.112  30.994  1.00  0.00     0.049 A 
ATOM     28  H   UNL A   1      40.985  30.528  30.815  1.00  0.00     0.167 HD
ATOM     29  C   UNL A   1      45.157  31.539  28.993  1.00  0.00     0.037 A 
ATOM     30  C   UNL A   1      38.451  31.287  31.469  1.00  0.00     0.037 A 
ATOM     31  C   UNL A   1      45.342  31.370  30.410  1.00  0.00     0.049 A 
ATOM     32  C   UNL A   1      39.650  32.070  31.897  1.00  0.00     0.074 A 
ATOM     33  C   UNL A   1      45.979  30.418  31.182  1.00  0.00     0.029 A 
ATOM     34  N   UNL A   1      44.505  32.045  31.265  1.00  0.00    -0.354 N 
ATOM     35  N   UNL A   1      40.436  31.684  32.872  1.00  0.00    -0.248 NA
ATOM     36  C   UNL A   1      40.270  32.942  30.904  1.00  0.00     0.031 C 
ATOM     37  C   UNL A   1      45.150  30.251  32.328  1.00  0.00     0.029 A 
ATOM     38  C   UNL A   1      44.093  31.157  32.228  1.00  0.00     0.049 A 
ATOM     39  H   UNL A   1      44.249  32.993  31.201  1.00  0.00     0.167 HD
ATOM     40  C   UNL A   1      41.727  31.932  32.412  1.00  0.00     0.074 A 
ATOM     41  C   UNL A   1      41.556  32.743  31.209  1.00  0.00     0.031 C 
ATOM     42  C   UNL A   1      42.800  31.219  32.870  1.00  0.00     0.037 A 
BRANCH  29  43
ATOM     43  C   UNL A   1      45.307  32.864  28.288  1.00  0.00     0.064 A 
ATOM     44  C   UNL A   1      46.596  33.325  27.964  1.00  0.00     0.173 A 
ATOM     45  C   UNL A   1      44.275  33.829  28.200  1.00  0.00     0.173 A 
ATOM     46  F   UNL A   1      47.650  32.498  28.022  1.00  0.00    -0.203 F 
ATOM     47  C   UNL A   1      46.841  34.669  27.669  1.00  0.00     0.198 A 
ATOM     48  C   UNL A   1      44.516  35.154  27.858  1.00  0.00     0.198 A 
ATOM     49  F   UNL A   1      43.011  33.567  28.549  1.00  0.00    -0.203 F 
ATOM     50  F   UNL A   1      48.100  35.090  27.492  1.00  0.00    -0.200 F 
ATOM     51  C   UNL A   1      45.803  35.584  27.627  1.00  0.00     0.200 A 
ATOM     52  F   UNL A   1      43.497  36.025  27.841  1.00  0.00    -0.200 F 
ATOM     53  F   UNL A   1      46.046  36.883  27.415  1.00  0.00    -0.200 F 
ENDBRANCH  29  43
BRANCH  30  54
ATOM     54  C   UNL A   1      37.148  31.876  31.080  1.00  0.00     0.064 A 
ATOM     55  C   UNL A   1      36.139  32.090  32.026  1.00  0.00     0.173 A 
ATOM     56  C   UNL A   1      36.936  32.439  29.801  1.00  0.00     0.173 A 
ATOM     57  F   UNL A   1      36.289  31.634  33.278  1.00  0.00    -0.203 F 
ATOM     58  C   UNL A   1      34.985  32.817  31.712  1.00  0.00     0.198 A 
ATOM     59  C   UNL A   1      35.781  33.152  29.484  1.00  0.00     0.198 A 
ATOM     60  F   UNL A   1      37.882  32.384  28.851  1.00  0.00    -0.203 F 
ATOM     61  F   UNL A   1      34.059  33.039  32.655  1.00  0.00    -0.200 F 
ATOM     62  C   UNL A   1      34.808  33.349  30.444  1.00  0.00     0.200 A 
ATOM     63  F   UNL A   1      35.643  33.688  28.263  1.00  0.00    -0.200 F 
ATOM     64  F   UNL A   1      33.723  34.080  30.157  1.00  0.00    -0.200 F 
ENDBRANCH  30  54
BRANCH  42  65
ATOM     65  C   UNL A   1      42.562  30.245  33.994  1.00  0.00     0.064 A 
ATOM     66  C   UNL A   1      42.124  28.923  33.790  1.00  0.00     0.173 A 
ATOM     67  C   UNL A   1      42.966  30.593  35.287  1.00  0.00     0.173 A 
ATOM     68  F   UNL A   1      41.835  28.480  32.561  1.00  0.00    -0.203 F 
ATOM     69  C   UNL A   1      42.053  28.009  34.842  1.00  0.00     0.198 A 
ATOM     70  C   UNL A   1      42.926  29.669  36.329  1.00  0.00     0.198 A 
ATOM     71  F   UNL A   1      43.464  31.817  35.526  1.00  0.00    -0.203 F 
ATOM     72  F   UNL A   1      41.636  26.754  34.616  1.00  0.00    -0.200 F 
ATOM     73  C   UNL A   1      42.461  28.383  36.110  1.00  0.00     0.200 A 
ATOM     74  F   UNL A   1      43.379  30.017  37.542  1.00  0.00    -0.200 F 
ATOM     75  F   UNL A   1      42.443  27.493  37.112  1.00  0.00    -0.200 F 
ENDBRANCH  42  65
ENDBRANCH  16  17
ENDBRANCH   9  11
ENDBRANCH   8   9
ENDBRANCH   7   8
ENDBRANCH   6   7
ENDBRANCH   5   6
ENDBRANCH   4   5
ENDBRANCH   3   4
ENDBRANCH   2   3
ENDBRANCH   1   2
BRANCH   1  76
ATOM     76  C   UNL A   1      33.344  22.444  27.950  1.00  0.00     0.188 C 
BRANCH  76  77
ATOM     77  O   UNL A   1      32.053  22.956  27.674  1.00  0.00    -0.376 OA
BRANCH  77  78
ATOM     78  C   UNL A   1      31.917  23.853  26.579  1.00  0.00     0.202 C 
BRANCH  78  79
ATOM     79  C   UNL A   1      30.552  24.398  26.176  1.00  0.00     0.261 C 
BRANCH  79  80
ATOM     80  O   UNL A   1      30.481  25.703  25.615  1.00  0.00    -0.462 OA
BRANCH  80  81
ATOM     81  C   UNL A   1      31.513  26.194  24.892  1.00  0.00     0.329 C 
ATOM     82  O   UNL A   1      31.995  25.667  23.914  1.00  0.00    -0.250 OA
BRANCH  81  83
ATOM     83  C   UNL A   1      32.017  27.467  25.574  1.00  0.00     0.203 C 
ATOM     84  C   UNL A   1      33.559  27.485  25.732  1.00  0.00     0.093 C 
ATOM     85  N   UNL A   1      31.483  28.786  25.141  1.00  0.00    -0.304 N 
ATOM     86  C   UNL A   1      33.962  28.691  26.473  1.00  0.00     0.042 A 
ATOM     87  C   UNL A   1      31.744  29.888  26.130  1.00  0.00     0.180 C 
ATOM     88  N   UNL A   1      35.146  28.962  27.090  1.00  0.00    -0.348 N 
ATOM     89  C   UNL A   1      33.155  29.785  26.659  1.00  0.00     0.081 A 
ATOM     90  C   UNL A   1      34.994  30.187  27.684  1.00  0.00     0.197 A 
ATOM     91  H   UNL A   1      35.948  28.391  27.107  1.00  0.00     0.167 HD
ATOM     92  N   UNL A   1      33.804  30.706  27.444  1.00  0.00    -0.240 NA
BRANCH  85  93
ATOM     93  C   UNL A   1      31.082  29.187  23.879  1.00  0.00     0.321 C 
ATOM     94  O   UNL A   1      31.807  29.017  22.896  1.00  0.00    -0.248 OA
BRANCH  93  95
ATOM     95  N   UNL A   1      29.820  29.769  23.690  1.00  0.00    -0.322 N 
ATOM     96  C   UNL A   1      29.719  31.207  23.955  1.00  0.00     0.121 C 
ATOM     97  C   UNL A   1      29.267  29.448  22.373  1.00  0.00     0.153 C 
ATOM     98  C   UNL A   1      28.396  31.891  23.550  1.00  0.00     0.024 C 
ATOM     99  C   UNL A   1      27.774  29.739  22.232  1.00  0.00     0.134 C 
ATOM    100  C   UNL A   1      27.321  31.060  22.846  1.00  0.00     0.035 C 
BRANCH  99 101
ATOM    101  O   UNL A   1      26.983  28.673  22.769  1.00  0.00    -0.391 OA
ATOM    102  H   UNL A   1      26.774  28.862  23.697  1.00  0.00     0.211 HD
ENDBRANCH  99 101
ENDBRANCH  93  95
ENDBRANCH  85  93
ENDBRANCH  81  83
ENDBRANCH  80  81
ENDBRANCH  79  80
ENDBRANCH  78  79
ENDBRANCH  77  78
ENDBRANCH  76  77
ENDBRANCH   1  76
TORSDOF 23
ENDMDL
