MODEL 1
REMARK VINA RESULT:     -11.4      0.000      0.000
REMARK SMILES Cc1nn([C@H]2CCS(=O)(=O)C2)c(C)c1/C=C(\CC(=O)OCCOCCOCCOCCOC(=O)c1ccc(-c2c3nc(c(-c4c(F)c(F)c(F)c(F)c4F)c4ccc([nH]4)c(-c4c(F)c(F)c(F)c(F)c4F)c4nc(c(-c5c(F)c(F)c(F)c(F)c5F)c5ccc2[nH]5)C=C4)C=C3)cc1)c1nc2ccccc2s1
REMARK SMILES IDX 25 1 24 2 23 3 22 4 21 5 20 6 18 7 19 8 17 9 16 10 15 11
REMARK SMILES IDX 14 12 1 13 2 14 3 15 4 16 12 17 13 18 5 19 6 20 11 21 7 22
REMARK SMILES IDX 8 23 9 24 10 25 98 26 99 27 106 28 100 29 105 30 101 31
REMARK SMILES IDX 104 32 102 33 103 34 26 35 27 36 28 37 29 38 30 39 31 40
REMARK SMILES IDX 32 41 33 42 34 43 35 44 36 45 97 46 37 47 96 48 38 49 39 50
REMARK SMILES IDX 40 51 90 52 41 53 95 54 89 55 91 56 42 57 94 58 88 59 87 60
REMARK SMILES IDX 43 62 75 63 55 64 74 65 56 66 59 67 73 68 92 69 57 70 58 71
REMARK SMILES IDX 72 73 93 74 60 75 44 76 45 77 53 78 46 79 47 80 51 81 54 82
REMARK SMILES IDX 48 83 49 84 52 85 50 86 76 87 77 88 85 89 78 90 79 91 83 92
REMARK SMILES IDX 86 93 80 94 81 95 84 96 82 97 61 98 62 99 70 100 63 101
REMARK SMILES IDX 64 102 68 103 71 104 65 105 66 106 69 107 67 108
REMARK H PARENT 91 61 59 72
REMARK Flexibility Score: inf
ROOT
ATOM      1  C   UNL A   1      35.388  33.341  28.212  1.00  0.00     0.188 C 
ENDROOT
BRANCH   1   2
ATOM      2  C   UNL A   1      35.111  31.924  27.650  1.00  0.00     0.188 C 
BRANCH   2   3
ATOM      3  O   UNL A   1      33.961  31.170  28.029  1.00  0.00    -0.376 OA
BRANCH   3   4
ATOM      4  C   UNL A   1      32.868  31.045  27.138  1.00  0.00     0.202 C 
BRANCH   4   5
ATOM      5  C   UNL A   1      32.957  29.918  26.092  1.00  0.00     0.261 C 
BRANCH   5   6
ATOM      6  O   UNL A   1      33.200  28.592  26.610  1.00  0.00    -0.463 OA
BRANCH   6   7
ATOM      7  C   UNL A   1      33.576  27.693  25.668  1.00  0.00     0.310 C 
ATOM      8  O   UNL A   1      33.747  27.973  24.482  1.00  0.00    -0.252 OA
BRANCH   7   9
ATOM      9  C   UNL A   1      33.560  26.237  26.107  1.00  0.00     0.161 C 
BRANCH   9  10
ATOM     10  C   UNL A   1      33.733  24.899  25.364  1.00  0.00    -0.000 C 
ATOM     11  C   UNL A   1      32.791  24.485  24.465  1.00  0.00     0.019 C 
BRANCH  11  12
ATOM     12  C   UNL A   1      31.516  25.093  24.223  1.00  0.00     0.019 A 
ATOM     13  C   UNL A   1      30.074  24.348  26.292  1.00  0.00     0.069 C 
ATOM     14  C   UNL A   1      30.380  25.134  25.070  1.00  0.00     0.067 A 
ATOM     15  N   UNL A   1      29.498  26.040  24.626  1.00  0.00    -0.177 NA
ATOM     16  N   UNL A   1      30.070  26.524  23.503  1.00  0.00    -0.265 N 
ATOM     17  C   UNL A   1      31.068  25.693  23.054  1.00  0.00     0.043 A 
ATOM     18  C   UNL A   1      31.552  25.621  21.645  1.00  0.00     0.067 C 
BRANCH  16  19
ATOM     19  C   UNL A   1      29.622  27.798  22.963  1.00  0.00     0.123 C 
ATOM     20  C   UNL A   1      28.118  28.068  23.208  1.00  0.00     0.044 C 
ATOM     21  C   UNL A   1      30.300  29.025  23.578  1.00  0.00     0.164 C 
ATOM     22  C   UNL A   1      27.836  29.475  22.698  1.00  0.00     0.139 C 
ATOM     23  S   UNL A   1      29.322  30.400  23.027  1.00  0.00     0.152 S 
ATOM     24  O   UNL A   1      29.869  30.843  21.749  1.00  0.00    -0.229 OA
ATOM     25  O   UNL A   1      29.098  31.296  24.124  1.00  0.00    -0.229 OA
ENDBRANCH  16  19
ENDBRANCH  11  12
BRANCH  10  26
ATOM     26  C   UNL A   1      35.003  24.176  25.410  1.00  0.00     0.121 A 
ATOM     27  N   UNL A   1      36.072  24.607  26.056  1.00  0.00    -0.236 NA
ATOM     28  S   UNL A   1      35.255  22.618  24.667  1.00  0.00    -0.114 S 
ATOM     29  C   UNL A   1      37.130  23.710  25.973  1.00  0.00     0.082 A 
ATOM     30  C   UNL A   1      36.868  22.546  25.256  1.00  0.00     0.055 A 
ATOM     31  C   UNL A   1      38.397  23.857  26.582  1.00  0.00     0.030 A 
ATOM     32  C   UNL A   1      37.828  21.523  25.119  1.00  0.00     0.021 A 
ATOM     33  C   UNL A   1      39.349  22.833  26.480  1.00  0.00     0.002 A 
ATOM     34  C   UNL A   1      39.064  21.679  25.756  1.00  0.00     0.002 A 
ENDBRANCH  10  26
ENDBRANCH   9  10
ENDBRANCH   7   9
ENDBRANCH   6   7
ENDBRANCH   5   6
ENDBRANCH   4   5
ENDBRANCH   3   4
ENDBRANCH   2   3
ENDBRANCH   1   2
BRANCH   1  35
ATOM     35  O   UNL A   1      34.565  34.389  27.718  1.00  0.00    -0.377 OA
BRANCH  35  36
ATOM     36  C   UNL A   1      33.372  34.613  28.448  1.00  0.00     0.188 C 
BRANCH  36  37
ATOM     37  C   UNL A   1      33.535  35.392  29.768  1.00  0.00     0.188 C 
BRANCH  37  38
ATOM     38  O   UNL A   1      33.330  34.618  30.943  1.00  0.00    -0.376 OA
BRANCH  38  39
ATOM     39  C   UNL A   1      34.393  34.403  31.859  1.00  0.00     0.202 C 
BRANCH  39  40
ATOM     40  C   UNL A   1      34.553  32.953  32.298  1.00  0.00     0.261 C 
BRANCH  40  41
ATOM     41  O   UNL A   1      35.149  32.122  31.320  1.00  0.00    -0.460 OA
BRANCH  41  42
ATOM     42  C   UNL A   1      36.133  31.333  31.769  1.00  0.00     0.338 C 
ATOM     43  O   UNL A   1      36.499  31.181  32.929  1.00  0.00    -0.246 OA
BRANCH  42  44
ATOM     44  C   UNL A   1      36.831  30.768  30.616  1.00  0.00     0.060 A 
ATOM     45  C   UNL A   1      36.704  29.386  30.532  1.00  0.00     0.016 A 
ATOM     46  C   UNL A   1      37.945  31.473  30.128  1.00  0.00     0.016 A 
ATOM     47  C   UNL A   1      37.860  28.686  30.350  1.00  0.00     0.010 A 
ATOM     48  C   UNL A   1      39.104  30.771  29.962  1.00  0.00     0.010 A 
ATOM     49  C   UNL A   1      39.054  29.401  30.186  1.00  0.00    -0.014 A 
BRANCH  49  50
ATOM     50  C   UNL A   1      40.252  28.614  30.144  1.00  0.00     0.031 A 
ATOM     51  C   UNL A   1      40.884  28.520  31.468  1.00  0.00     0.074 A 
ATOM     52  C   UNL A   1      40.707  28.029  29.029  1.00  0.00     0.049 A 
ATOM     53  N   UNL A   1      41.968  29.088  31.873  1.00  0.00    -0.248 NA
ATOM     54  C   UNL A   1      40.080  27.892  32.526  1.00  0.00     0.031 C 
ATOM     55  C   UNL A   1      40.017  27.770  27.766  1.00  0.00     0.029 A 
ATOM     56  N   UNL A   1      41.917  27.449  28.857  1.00  0.00    -0.354 N 
ATOM     57  C   UNL A   1      42.065  28.757  33.217  1.00  0.00     0.074 A 
ATOM     58  C   UNL A   1      40.795  28.204  33.604  1.00  0.00     0.031 C 
ATOM     59  C   UNL A   1      40.751  26.885  27.048  1.00  0.00     0.029 A 
ATOM     60  C   UNL A   1      42.001  26.632  27.749  1.00  0.00     0.049 A 
ATOM     61  H   UNL A   1      42.672  27.598  29.470  1.00  0.00     0.167 HD
ATOM     62  C   UNL A   1      43.262  28.739  33.856  1.00  0.00     0.037 A 
ATOM     63  C   UNL A   1      42.994  25.738  27.535  1.00  0.00     0.037 A 
ATOM     64  C   UNL A   1      44.250  29.502  33.143  1.00  0.00     0.049 A 
ATOM     65  C   UNL A   1      44.135  26.105  28.425  1.00  0.00     0.074 A 
ATOM     66  C   UNL A   1      44.384  30.837  32.816  1.00  0.00     0.029 A 
ATOM     67  N   UNL A   1      45.127  28.824  32.332  1.00  0.00    -0.354 N 
ATOM     68  N   UNL A   1      44.861  27.180  28.283  1.00  0.00    -0.248 NA
ATOM     69  C   UNL A   1      44.193  25.493  29.746  1.00  0.00     0.031 C 
ATOM     70  C   UNL A   1      45.003  30.849  31.531  1.00  0.00     0.029 A 
ATOM     71  C   UNL A   1      45.229  29.523  31.156  1.00  0.00     0.049 A 
ATOM     72  H   UNL A   1      45.597  27.988  32.555  1.00  0.00     0.167 HD
ATOM     73  C   UNL A   1      45.159  27.594  29.577  1.00  0.00     0.074 A 
ATOM     74  C   UNL A   1      44.802  26.466  30.429  1.00  0.00     0.031 C 
ATOM     75  C   UNL A   1      45.405  28.906  29.861  1.00  0.00     0.037 A 
BRANCH  62  76
ATOM     76  C   UNL A   1      43.602  27.745  34.932  1.00  0.00     0.064 A 
ATOM     77  C   UNL A   1      43.972  28.216  36.203  1.00  0.00     0.173 A 
ATOM     78  C   UNL A   1      43.843  26.371  34.695  1.00  0.00     0.173 A 
ATOM     79  F   UNL A   1      43.813  29.508  36.526  1.00  0.00    -0.203 F 
ATOM     80  C   UNL A   1      44.597  27.389  37.139  1.00  0.00     0.198 A 
ATOM     81  C   UNL A   1      44.405  25.536  35.654  1.00  0.00     0.198 A 
ATOM     82  F   UNL A   1      43.656  25.802  33.499  1.00  0.00    -0.203 F 
ATOM     83  F   UNL A   1      45.047  27.911  38.287  1.00  0.00    -0.200 F 
ATOM     84  C   UNL A   1      44.815  26.051  36.864  1.00  0.00     0.200 A 
ATOM     85  F   UNL A   1      44.621  24.247  35.357  1.00  0.00    -0.200 F 
ATOM     86  F   UNL A   1      45.462  25.271  37.737  1.00  0.00    -0.200 F 
ENDBRANCH  62  76
BRANCH  63  87
ATOM     87  C   UNL A   1      42.869  24.410  26.896  1.00  0.00     0.064 A 
ATOM     88  C   UNL A   1      43.342  24.190  25.595  1.00  0.00     0.173 A 
ATOM     89  C   UNL A   1      42.509  23.266  27.637  1.00  0.00     0.173 A 
ATOM     90  F   UNL A   1      43.752  25.224  24.845  1.00  0.00    -0.203 F 
ATOM     91  C   UNL A   1      43.458  22.900  25.068  1.00  0.00     0.198 A 
ATOM     92  C   UNL A   1      42.614  21.981  27.107  1.00  0.00     0.198 A 
ATOM     93  F   UNL A   1      42.135  23.363  28.921  1.00  0.00    -0.203 F 
ATOM     94  F   UNL A   1      43.967  22.723  23.841  1.00  0.00    -0.200 F 
ATOM     95  C   UNL A   1      43.100  21.797  25.827  1.00  0.00     0.200 A 
ATOM     96  F   UNL A   1      42.297  20.922  27.866  1.00  0.00    -0.200 F 
ATOM     97  F   UNL A   1      43.260  20.558  25.341  1.00  0.00    -0.200 F 
ENDBRANCH  63  87
BRANCH  75  98
ATOM     98  C   UNL A   1      45.616  29.839  28.704  1.00  0.00     0.064 A 
ATOM     99  C   UNL A   1      44.564  30.487  28.035  1.00  0.00     0.173 A 
ATOM    100  C   UNL A   1      46.924  30.219  28.377  1.00  0.00     0.173 A 
ATOM    101  F   UNL A   1      43.289  30.249  28.368  1.00  0.00    -0.203 F 
ATOM    102  C   UNL A   1      44.815  31.445  27.056  1.00  0.00     0.198 A 
ATOM    103  C   UNL A   1      47.172  31.203  27.425  1.00  0.00     0.198 A 
ATOM    104  F   UNL A   1      47.964  29.675  29.029  1.00  0.00    -0.203 F 
ATOM    105  F   UNL A   1      43.795  32.049  26.427  1.00  0.00    -0.200 F 
ATOM    106  C   UNL A   1      46.119  31.809  26.758  1.00  0.00     0.200 A 
ATOM    107  F   UNL A   1      48.431  31.588  27.177  1.00  0.00    -0.200 F 
ATOM    108  F   UNL A   1      46.359  32.767  25.853  1.00  0.00    -0.200 F 
ENDBRANCH  75  98
ENDBRANCH  49  50
ENDBRANCH  42  44
ENDBRANCH  41  42
ENDBRANCH  40  41
ENDBRANCH  39  40
ENDBRANCH  38  39
ENDBRANCH  37  38
ENDBRANCH  36  37
ENDBRANCH  35  36
ENDBRANCH   1  35
TORSDOF 24
ENDMDL
MODEL 2
REMARK VINA RESULT:     -11.2      1.557      4.602
REMARK SMILES Cc1nn([C@H]2CCS(=O)(=O)C2)c(C)c1/C=C(\CC(=O)OCCOCCOCCOCCOC(=O)c1ccc(-c2c3nc(c(-c4c(F)c(F)c(F)c(F)c4F)c4ccc([nH]4)c(-c4c(F)c(F)c(F)c(F)c4F)c4nc(c(-c5c(F)c(F)c(F)c(F)c5F)c5ccc2[nH]5)C=C4)C=C3)cc1)c1nc2ccccc2s1
REMARK SMILES IDX 25 1 24 2 23 3 22 4 21 5 20 6 18 7 19 8 17 9 16 10 15 11
REMARK SMILES IDX 14 12 1 13 2 14 3 15 4 16 12 17 13 18 5 19 6 20 11 21 7 22
REMARK SMILES IDX 8 23 9 24 10 25 98 26 99 27 106 28 100 29 105 30 101 31
REMARK SMILES IDX 104 32 102 33 103 34 26 35 27 36 28 37 29 38 30 39 31 40
REMARK SMILES IDX 32 41 33 42 34 43 35 44 36 45 97 46 37 47 96 48 38 49 39 50
REMARK SMILES IDX 40 51 90 52 41 53 95 54 89 55 91 56 42 57 94 58 88 59 87 60
REMARK SMILES IDX 43 62 75 63 55 64 74 65 56 66 59 67 73 68 92 69 57 70 58 71
REMARK SMILES IDX 72 73 93 74 60 75 44 76 45 77 53 78 46 79 47 80 51 81 54 82
REMARK SMILES IDX 48 83 49 84 52 85 50 86 76 87 77 88 85 89 78 90 79 91 83 92
REMARK SMILES IDX 86 93 80 94 81 95 84 96 82 97 61 98 62 99 70 100 63 101
REMARK SMILES IDX 64 102 68 103 71 104 65 105 66 106 69 107 67 108
REMARK H PARENT 91 61 59 72
REMARK Flexibility Score: inf
ROOT
ATOM      1  C   UNL A   1      34.952  33.992  28.487  1.00  0.00     0.188 C 
ENDROOT
BRANCH   1   2
ATOM      2  C   UNL A   1      34.964  32.609  27.790  1.00  0.00     0.188 C 
BRANCH   2   3
ATOM      3  O   UNL A   1      34.142  31.530  28.232  1.00  0.00    -0.376 OA
BRANCH   3   4
ATOM      4  C   UNL A   1      33.248  30.903  27.332  1.00  0.00     0.202 C 
BRANCH   4   5
ATOM      5  C   UNL A   1      33.459  29.396  27.090  1.00  0.00     0.261 C 
BRANCH   5   6
ATOM      6  O   UNL A   1      34.078  29.037  25.835  1.00  0.00    -0.463 OA
BRANCH   6   7
ATOM      7  C   UNL A   1      33.743  27.803  25.389  1.00  0.00     0.310 C 
ATOM      8  O   UNL A   1      33.894  26.772  26.044  1.00  0.00    -0.252 OA
BRANCH   7   9
ATOM      9  C   UNL A   1      33.367  27.715  23.917  1.00  0.00     0.161 C 
BRANCH   9  10
ATOM     10  C   UNL A   1      32.031  27.576  23.166  1.00  0.00    -0.000 C 
ATOM     11  C   UNL A   1      31.597  26.347  22.758  1.00  0.00     0.019 C 
BRANCH  11  12
ATOM     12  C   UNL A   1      32.336  25.120  22.807  1.00  0.00     0.019 A 
ATOM     13  C   UNL A   1      32.918  24.650  20.286  1.00  0.00     0.069 C 
ATOM     14  C   UNL A   1      33.009  24.450  21.754  1.00  0.00     0.067 A 
ATOM     15  N   UNL A   1      33.827  23.509  22.246  1.00  0.00    -0.177 NA
ATOM     16  N   UNL A   1      33.632  23.577  23.580  1.00  0.00    -0.265 N 
ATOM     17  C   UNL A   1      32.472  24.250  23.881  1.00  0.00     0.043 A 
ATOM     18  C   UNL A   1      31.694  24.091  25.142  1.00  0.00     0.067 C 
BRANCH  16  19
ATOM     19  C   UNL A   1      34.623  23.006  24.479  1.00  0.00     0.123 C 
ATOM     20  C   UNL A   1      34.269  21.573  24.944  1.00  0.00     0.044 C 
ATOM     21  C   UNL A   1      36.017  22.838  23.866  1.00  0.00     0.164 C 
ATOM     22  C   UNL A   1      35.448  21.076  25.769  1.00  0.00     0.139 C 
ATOM     23  S   UNL A   1      36.888  21.804  25.017  1.00  0.00     0.152 S 
ATOM     24  O   UNL A   1      37.518  22.678  26.001  1.00  0.00    -0.229 OA
ATOM     25  O   UNL A   1      37.616  20.799  24.297  1.00  0.00    -0.229 OA
ENDBRANCH  16  19
ENDBRANCH  11  12
BRANCH  10  26
ATOM     26  C   UNL A   1      31.093  28.695  23.093  1.00  0.00     0.121 A 
ATOM     27  N   UNL A   1      30.386  28.995  22.019  1.00  0.00    -0.236 NA
ATOM     28  S   UNL A   1      30.740  29.748  24.440  1.00  0.00    -0.114 S 
ATOM     29  C   UNL A   1      29.544  30.080  22.231  1.00  0.00     0.082 A 
ATOM     30  C   UNL A   1      29.589  30.625  23.512  1.00  0.00     0.055 A 
ATOM     31  C   UNL A   1      28.636  30.625  21.297  1.00  0.00     0.030 A 
ATOM     32  C   UNL A   1      28.763  31.701  23.893  1.00  0.00     0.021 A 
ATOM     33  C   UNL A   1      27.786  31.675  21.673  1.00  0.00     0.002 A 
ATOM     34  C   UNL A   1      27.851  32.205  22.958  1.00  0.00     0.002 A 
ENDBRANCH  10  26
ENDBRANCH   9  10
ENDBRANCH   7   9
ENDBRANCH   6   7
ENDBRANCH   5   6
ENDBRANCH   4   5
ENDBRANCH   3   4
ENDBRANCH   2   3
ENDBRANCH   1   2
BRANCH   1  35
ATOM     35  O   UNL A   1      33.800  34.797  28.276  1.00  0.00    -0.377 OA
BRANCH  35  36
ATOM     36  C   UNL A   1      32.920  34.890  29.381  1.00  0.00     0.188 C 
BRANCH  36  37
ATOM     37  C   UNL A   1      33.270  35.971  30.423  1.00  0.00     0.188 C 
BRANCH  37  38
ATOM     38  O   UNL A   1      33.487  35.478  31.739  1.00  0.00    -0.376 OA
BRANCH  38  39
ATOM     39  C   UNL A   1      34.749  34.944  32.110  1.00  0.00     0.202 C 
BRANCH  39  40
ATOM     40  C   UNL A   1      34.728  33.455  32.426  1.00  0.00     0.261 C 
BRANCH  40  41
ATOM     41  O   UNL A   1      35.197  32.639  31.369  1.00  0.00    -0.460 OA
BRANCH  41  42
ATOM     42  C   UNL A   1      35.965  31.610  31.745  1.00  0.00     0.338 C 
ATOM     43  O   UNL A   1      36.145  31.186  32.881  1.00  0.00    -0.246 OA
BRANCH  42  44
ATOM     44  C   UNL A   1      36.703  31.137  30.575  1.00  0.00     0.060 A 
ATOM     45  C   UNL A   1      36.521  29.780  30.334  1.00  0.00     0.016 A 
ATOM     46  C   UNL A   1      37.873  31.834  30.227  1.00  0.00     0.016 A 
ATOM     47  C   UNL A   1      37.655  29.046  30.138  1.00  0.00     0.010 A 
ATOM     48  C   UNL A   1      39.008  31.096  30.046  1.00  0.00     0.010 A 
ATOM     49  C   UNL A   1      38.886  29.715  30.117  1.00  0.00    -0.014 A 
BRANCH  49  50
ATOM     50  C   UNL A   1      40.049  28.878  30.052  1.00  0.00     0.031 A 
ATOM     51  C   UNL A   1      40.690  28.741  31.368  1.00  0.00     0.074 A 
ATOM     52  C   UNL A   1      40.467  28.289  28.925  1.00  0.00     0.049 A 
ATOM     53  N   UNL A   1      41.801  29.258  31.768  1.00  0.00    -0.248 NA
ATOM     54  C   UNL A   1      39.871  28.134  32.427  1.00  0.00     0.031 C 
ATOM     55  C   UNL A   1      39.754  28.075  27.667  1.00  0.00     0.029 A 
ATOM     56  N   UNL A   1      41.649  27.660  28.733  1.00  0.00    -0.354 N 
ATOM     57  C   UNL A   1      41.898  28.906  33.107  1.00  0.00     0.074 A 
ATOM     58  C   UNL A   1      40.610  28.403  33.501  1.00  0.00     0.031 C 
ATOM     59  C   UNL A   1      40.442  27.169  26.930  1.00  0.00     0.029 A 
ATOM     60  C   UNL A   1      41.688  26.854  27.614  1.00  0.00     0.049 A 
ATOM     61  H   UNL A   1      42.416  27.769  29.340  1.00  0.00     0.167 HD
ATOM     62  C   UNL A   1      43.099  28.829  33.733  1.00  0.00     0.037 A 
ATOM     63  C   UNL A   1      42.639  25.922  27.379  1.00  0.00     0.037 A 
ATOM     64  C   UNL A   1      44.111  29.559  33.019  1.00  0.00     0.049 A 
ATOM     65  C   UNL A   1      43.803  26.229  28.261  1.00  0.00     0.074 A 
ATOM     66  C   UNL A   1      44.299  30.890  32.705  1.00  0.00     0.029 A 
ATOM     67  N   UNL A   1      44.951  28.854  32.190  1.00  0.00    -0.354 N 
ATOM     68  N   UNL A   1      44.573  27.274  28.124  1.00  0.00    -0.248 NA
ATOM     69  C   UNL A   1      43.849  25.598  29.573  1.00  0.00     0.031 C 
ATOM     70  C   UNL A   1      44.905  30.892  31.414  1.00  0.00     0.029 A 
ATOM     71  C   UNL A   1      45.070  29.562  31.021  1.00  0.00     0.049 A 
ATOM     72  H   UNL A   1      45.387  27.996  32.397  1.00  0.00     0.167 HD
ATOM     73  C   UNL A   1      44.902  27.658  29.420  1.00  0.00     0.074 A 
ATOM     74  C   UNL A   1      44.506  26.536  30.262  1.00  0.00     0.031 C 
ATOM     75  C   UNL A   1      45.207  28.955  29.717  1.00  0.00     0.037 A 
BRANCH  62  76
ATOM     76  C   UNL A   1      43.408  27.808  34.792  1.00  0.00     0.064 A 
ATOM     77  C   UNL A   1      43.747  28.247  36.084  1.00  0.00     0.173 A 
ATOM     78  C   UNL A   1      43.650  26.439  34.529  1.00  0.00     0.173 A 
ATOM     79  F   UNL A   1      43.584  29.532  36.433  1.00  0.00    -0.203 F 
ATOM     80  C   UNL A   1      44.344  27.396  37.016  1.00  0.00     0.198 A 
ATOM     81  C   UNL A   1      44.184  25.579  35.482  1.00  0.00     0.198 A 
ATOM     82  F   UNL A   1      43.492  25.900  33.315  1.00  0.00    -0.203 F 
ATOM     83  F   UNL A   1      44.766  27.887  38.187  1.00  0.00    -0.200 F 
ATOM     84  C   UNL A   1      44.564  26.064  36.714  1.00  0.00     0.200 A 
ATOM     85  F   UNL A   1      44.403  24.297  35.160  1.00  0.00    -0.200 F 
ATOM     86  F   UNL A   1      45.185  25.259  37.584  1.00  0.00    -0.200 F 
ENDBRANCH  62  76
BRANCH  63  87
ATOM     87  C   UNL A   1      42.451  24.608  26.726  1.00  0.00     0.064 A 
ATOM     88  C   UNL A   1      43.211  24.248  25.604  1.00  0.00     0.173 A 
ATOM     89  C   UNL A   1      41.701  23.582  27.334  1.00  0.00     0.173 A 
ATOM     90  F   UNL A   1      43.991  25.156  25.000  1.00  0.00    -0.203 F 
ATOM     91  C   UNL A   1      43.228  22.934  25.124  1.00  0.00     0.198 A 
ATOM     92  C   UNL A   1      41.709  22.275  26.849  1.00  0.00     0.198 A 
ATOM     93  F   UNL A   1      41.017  23.804  28.466  1.00  0.00    -0.203 F 
ATOM     94  F   UNL A   1      44.008  22.612  24.085  1.00  0.00    -0.200 F 
ATOM     95  C   UNL A   1      42.481  21.948  25.751  1.00  0.00     0.200 A 
ATOM     96  F   UNL A   1      41.009  21.326  27.487  1.00  0.00    -0.200 F 
ATOM     97  F   UNL A   1      42.537  20.679  25.324  1.00  0.00    -0.200 F 
ENDBRANCH  63  87
BRANCH  75  98
ATOM     98  C   UNL A   1      45.445  29.893  28.569  1.00  0.00     0.064 A 
ATOM     99  C   UNL A   1      44.413  30.579  27.907  1.00  0.00     0.173 A 
ATOM    100  C   UNL A   1      46.763  30.236  28.245  1.00  0.00     0.173 A 
ATOM    101  F   UNL A   1      43.131  30.376  28.239  1.00  0.00    -0.203 F 
ATOM    102  C   UNL A   1      44.693  31.539  26.937  1.00  0.00     0.198 A 
ATOM    103  C   UNL A   1      47.041  31.222  27.302  1.00  0.00     0.198 A 
ATOM    104  F   UNL A   1      47.787  29.655  28.891  1.00  0.00    -0.203 F 
ATOM    105  F   UNL A   1      43.691  32.179  26.316  1.00  0.00    -0.200 F 
ATOM    106  C   UNL A   1      46.006  31.866  26.642  1.00  0.00     0.200 A 
ATOM    107  F   UNL A   1      48.311  31.572  27.058  1.00  0.00    -0.200 F 
ATOM    108  F   UNL A   1      46.275  32.826  25.747  1.00  0.00    -0.200 F 
ENDBRANCH  75  98
ENDBRANCH  49  50
ENDBRANCH  42  44
ENDBRANCH  41  42
ENDBRANCH  40  41
ENDBRANCH  39  40
ENDBRANCH  38  39
ENDBRANCH  37  38
ENDBRANCH  36  37
ENDBRANCH  35  36
ENDBRANCH   1  35
TORSDOF 24
ENDMDL
MODEL 3
REMARK VINA RESULT:     -10.9      4.011      9.319
REMARK SMILES Cc1nn([C@H]2CCS(=O)(=O)C2)c(C)c1/C=C(\CC(=O)OCCOCCOCCOCCOC(=O)c1ccc(-c2c3nc(c(-c4c(F)c(F)c(F)c(F)c4F)c4ccc([nH]4)c(-c4c(F)c(F)c(F)c(F)c4F)c4nc(c(-c5c(F)c(F)c(F)c(F)c5F)c5ccc2[nH]5)C=C4)C=C3)cc1)c1nc2ccccc2s1
REMARK SMILES IDX 25 1 24 2 23 3 22 4 21 5 20 6 18 7 19 8 17 9 16 10 15 11
REMARK SMILES IDX 14 12 1 13 2 14 3 15 4 16 12 17 13 18 5 19 6 20 11 21 7 22
REMARK SMILES IDX 8 23 9 24 10 25 98 26 99 27 106 28 100 29 105 30 101 31
REMARK SMILES IDX 104 32 102 33 103 34 26 35 27 36 28 37 29 38 30 39 31 40
REMARK SMILES IDX 32 41 33 42 34 43 35 44 36 45 97 46 37 47 96 48 38 49 39 50
REMARK SMILES IDX 40 51 90 52 41 53 95 54 89 55 91 56 42 57 94 58 88 59 87 60
REMARK SMILES IDX 43 62 75 63 55 64 74 65 56 66 59 67 73 68 92 69 57 70 58 71
REMARK SMILES IDX 72 73 93 74 60 75 44 76 45 77 53 78 46 79 47 80 51 81 54 82
REMARK SMILES IDX 48 83 49 84 52 85 50 86 76 87 77 88 85 89 78 90 79 91 83 92
REMARK SMILES IDX 86 93 80 94 81 95 84 96 82 97 61 98 62 99 70 100 63 101
REMARK SMILES IDX 64 102 68 103 71 104 65 105 66 106 69 107 67 108
REMARK H PARENT 91 61 59 72
REMARK Flexibility Score: inf
ROOT
ATOM      1  C   UNL A   1      41.698  20.913  27.334  1.00  0.00     0.188 C 
ENDROOT
BRANCH   1   2
ATOM      2  C   UNL A   1      40.231  21.405  27.272  1.00  0.00     0.188 C 
BRANCH   2   3
ATOM      3  O   UNL A   1      39.410  21.198  26.125  1.00  0.00    -0.376 OA
BRANCH   3   4
ATOM      4  C   UNL A   1      38.784  22.298  25.491  1.00  0.00     0.202 C 
BRANCH   4   5
ATOM      5  C   UNL A   1      37.252  22.387  25.618  1.00  0.00     0.261 C 
BRANCH   5   6
ATOM      6  O   UNL A   1      36.661  23.659  25.273  1.00  0.00    -0.463 OA
BRANCH   6   7
ATOM      7  C   UNL A   1      35.782  23.596  24.244  1.00  0.00     0.310 C 
ATOM      8  O   UNL A   1      36.110  23.420  23.071  1.00  0.00    -0.252 OA
BRANCH   7   9
ATOM      9  C   UNL A   1      34.350  23.985  24.578  1.00  0.00     0.161 C 
BRANCH   9  10
ATOM     10  C   UNL A   1      32.990  23.280  24.418  1.00  0.00    -0.000 C 
ATOM     11  C   UNL A   1      31.910  23.971  23.945  1.00  0.00     0.019 C 
BRANCH  11  12
ATOM     12  C   UNL A   1      31.835  25.383  23.710  1.00  0.00     0.019 A 
ATOM     13  C   UNL A   1      33.366  25.739  21.602  1.00  0.00     0.069 C 
ATOM     14  C   UNL A   1      32.367  26.129  22.627  1.00  0.00     0.067 A 
ATOM     15  N   UNL A   1      31.837  27.360  22.603  1.00  0.00    -0.177 NA
ATOM     16  N   UNL A   1      31.017  27.379  23.676  1.00  0.00    -0.265 N 
ATOM     17  C   UNL A   1      31.312  26.358  24.547  1.00  0.00     0.043 A 
ATOM     18  C   UNL A   1      30.992  26.358  26.004  1.00  0.00     0.067 C 
BRANCH  16  19
ATOM     19  C   UNL A   1      29.967  28.383  23.757  1.00  0.00     0.123 C 
ATOM     20  C   UNL A   1      30.492  29.828  23.580  1.00  0.00     0.044 C 
ATOM     21  C   UNL A   1      28.892  28.269  22.673  1.00  0.00     0.164 C 
ATOM     22  C   UNL A   1      29.273  30.739  23.568  1.00  0.00     0.139 C 
ATOM     23  S   UNL A   1      27.987  29.792  22.780  1.00  0.00     0.152 S 
ATOM     24  O   UNL A   1      26.913  29.597  23.748  1.00  0.00    -0.229 OA
ATOM     25  O   UNL A   1      27.753  30.302  21.459  1.00  0.00    -0.229 OA
ENDBRANCH  16  19
ENDBRANCH  11  12
BRANCH  10  26
ATOM     26  C   UNL A   1      32.883  21.826  24.524  1.00  0.00     0.121 A 
ATOM     27  N   UNL A   1      32.641  21.029  23.499  1.00  0.00    -0.236 NA
ATOM     28  S   UNL A   1      33.121  20.947  26.013  1.00  0.00    -0.114 S 
ATOM     29  C   UNL A   1      32.630  19.689  23.869  1.00  0.00     0.082 A 
ATOM     30  C   UNL A   1      32.887  19.442  25.215  1.00  0.00     0.055 A 
ATOM     31  C   UNL A   1      32.437  18.588  23.006  1.00  0.00     0.030 A 
ATOM     32  C   UNL A   1      32.951  18.133  25.734  1.00  0.00     0.021 A 
ATOM     33  C   UNL A   1      32.530  17.281  23.503  1.00  0.00     0.002 A 
ATOM     34  C   UNL A   1      32.785  17.059  24.853  1.00  0.00     0.002 A 
ENDBRANCH  10  26
ENDBRANCH   9  10
ENDBRANCH   7   9
ENDBRANCH   6   7
ENDBRANCH   5   6
ENDBRANCH   4   5
ENDBRANCH   3   4
ENDBRANCH   2   3
ENDBRANCH   1   2
BRANCH   1  35
ATOM     35  O   UNL A   1      41.935  19.576  26.916  1.00  0.00    -0.377 OA
BRANCH  35  36
ATOM     36  C   UNL A   1      42.360  19.431  25.572  1.00  0.00     0.188 C 
BRANCH  36  37
ATOM     37  C   UNL A   1      43.885  19.454  25.350  1.00  0.00     0.188 C 
BRANCH  37  38
ATOM     38  O   UNL A   1      44.486  20.736  25.486  1.00  0.00    -0.376 OA
BRANCH  38  39
ATOM     39  C   UNL A   1      44.825  21.498  24.338  1.00  0.00     0.202 C 
BRANCH  39  40
ATOM     40  C   UNL A   1      43.979  22.750  24.149  1.00  0.00     0.261 C 
BRANCH  40  41
ATOM     41  O   UNL A   1      43.426  23.252  25.350  1.00  0.00    -0.460 OA
BRANCH  41  42
ATOM     42  C   UNL A   1      43.392  24.587  25.445  1.00  0.00     0.338 C 
ATOM     43  O   UNL A   1      44.154  25.394  24.922  1.00  0.00    -0.246 OA
BRANCH  42  44
ATOM     44  C   UNL A   1      42.365  24.953  26.418  1.00  0.00     0.060 A 
ATOM     45  C   UNL A   1      41.354  25.734  25.870  1.00  0.00     0.016 A 
ATOM     46  C   UNL A   1      42.754  25.027  27.767  1.00  0.00     0.016 A 
ATOM     47  C   UNL A   1      41.033  26.869  26.556  1.00  0.00     0.010 A 
ATOM     48  C   UNL A   1      42.442  26.170  28.445  1.00  0.00     0.010 A 
ATOM     49  C   UNL A   1      41.676  27.116  27.776  1.00  0.00    -0.014 A 
BRANCH  49  50
ATOM     50  C   UNL A   1      41.405  28.389  28.378  1.00  0.00     0.031 A 
ATOM     51  C   UNL A   1      42.458  29.368  28.068  1.00  0.00     0.074 A 
ATOM     52  C   UNL A   1      40.311  28.637  29.108  1.00  0.00     0.049 A 
ATOM     53  N   UNL A   1      43.359  29.842  28.860  1.00  0.00    -0.248 NA
ATOM     54  C   UNL A   1      42.655  29.679  26.645  1.00  0.00     0.031 C 
ATOM     55  C   UNL A   1      39.064  27.880  29.204  1.00  0.00     0.029 A 
ATOM     56  N   UNL A   1      40.079  29.731  29.870  1.00  0.00    -0.354 N 
ATOM     57  C   UNL A   1      44.156  30.643  28.054  1.00  0.00     0.074 A 
ATOM     58  C   UNL A   1      43.805  30.346  26.692  1.00  0.00     0.031 C 
ATOM     59  C   UNL A   1      38.132  28.659  29.803  1.00  0.00     0.029 A 
ATOM     60  C   UNL A   1      38.760  29.899  30.235  1.00  0.00     0.049 A 
ATOM     61  H   UNL A   1      40.793  30.352  30.141  1.00  0.00     0.167 HD
ATOM     62  C   UNL A   1      44.878  31.668  28.572  1.00  0.00     0.037 A 
ATOM     63  C   UNL A   1      38.249  31.045  30.740  1.00  0.00     0.037 A 
ATOM     64  C   UNL A   1      45.062  31.519  29.990  1.00  0.00     0.049 A 
ATOM     65  C   UNL A   1      39.390  31.875  31.225  1.00  0.00     0.074 A 
ATOM     66  C   UNL A   1      45.706  30.593  30.786  1.00  0.00     0.029 A 
ATOM     67  N   UNL A   1      44.224  32.218  30.825  1.00  0.00    -0.354 N 
ATOM     68  N   UNL A   1      40.136  31.572  32.252  1.00  0.00    -0.248 NA
ATOM     69  C   UNL A   1      39.981  32.830  30.296  1.00  0.00     0.031 C 
ATOM     70  C   UNL A   1      44.906  30.485  31.961  1.00  0.00     0.029 A 
ATOM     71  C   UNL A   1      43.831  31.364  31.825  1.00  0.00     0.049 A 
ATOM     72  H   UNL A   1      43.956  33.159  30.726  1.00  0.00     0.167 HD
ATOM     73  C   UNL A   1      41.418  31.989  31.910  1.00  0.00     0.074 A 
ATOM     74  C   UNL A   1      41.242  32.838  30.738  1.00  0.00     0.031 C 
ATOM     75  C   UNL A   1      42.522  31.386  32.438  1.00  0.00     0.037 A 
BRANCH  62  76
ATOM     76  C   UNL A   1      45.107  32.961  27.840  1.00  0.00     0.064 A 
ATOM     77  C   UNL A   1      46.412  33.298  27.440  1.00  0.00     0.173 A 
ATOM     78  C   UNL A   1      44.154  34.005  27.755  1.00  0.00     0.173 A 
ATOM     79  F   UNL A   1      47.400  32.394  27.505  1.00  0.00    -0.203 F 
ATOM     80  C   UNL A   1      46.749  34.596  27.050  1.00  0.00     0.198 A 
ATOM     81  C   UNL A   1      44.480  35.278  27.303  1.00  0.00     0.198 A 
ATOM     82  F   UNL A   1      42.902  33.876  28.209  1.00  0.00    -0.203 F 
ATOM     83  F   UNL A   1      48.028  34.900  26.799  1.00  0.00    -0.200 F 
ATOM     84  C   UNL A   1      45.784  35.585  26.983  1.00  0.00     0.200 A 
ATOM     85  F   UNL A   1      43.531  36.224  27.263  1.00  0.00    -0.200 F 
ATOM     86  F   UNL A   1      46.114  36.841  26.662  1.00  0.00    -0.200 F 
ENDBRANCH  62  76
BRANCH  63  87
ATOM     87  C   UNL A   1      36.900  31.600  30.492  1.00  0.00     0.064 A 
ATOM     88  C   UNL A   1      36.079  31.995  31.557  1.00  0.00     0.173 A 
ATOM     89  C   UNL A   1      36.487  31.984  29.201  1.00  0.00     0.173 A 
ATOM     90  F   UNL A   1      36.431  31.711  32.820  1.00  0.00    -0.203 F 
ATOM     91  C   UNL A   1      34.915  32.741  31.344  1.00  0.00     0.198 A 
ATOM     92  C   UNL A   1      35.320  32.718  28.988  1.00  0.00     0.198 A 
ATOM     93  F   UNL A   1      37.251  31.736  28.127  1.00  0.00    -0.203 F 
ATOM     94  F   UNL A   1      34.183  33.150  32.388  1.00  0.00    -0.200 F 
ATOM     95  C   UNL A   1      34.541  33.107  30.060  1.00  0.00     0.200 A 
ATOM     96  F   UNL A   1      34.991  33.093  27.743  1.00  0.00    -0.200 F 
ATOM     97  F   UNL A   1      33.455  33.865  29.859  1.00  0.00    -0.200 F 
ENDBRANCH  63  87
BRANCH  75  98
ATOM     98  C   UNL A   1      42.316  30.454  33.597  1.00  0.00     0.064 A 
ATOM     99  C   UNL A   1      42.334  30.874  34.938  1.00  0.00     0.173 A 
ATOM    100  C   UNL A   1      41.920  29.136  33.336  1.00  0.00     0.173 A 
ATOM    101  F   UNL A   1      42.602  32.148  35.254  1.00  0.00    -0.203 F 
ATOM    102  C   UNL A   1      42.005  30.000  35.971  1.00  0.00     0.198 A 
ATOM    103  C   UNL A   1      41.558  28.275  34.368  1.00  0.00     0.198 A 
ATOM    104  F   UNL A   1      41.827  28.701  32.069  1.00  0.00    -0.203 F 
ATOM    105  F   UNL A   1      42.032  30.422  37.244  1.00  0.00    -0.200 F 
ATOM    106  C   UNL A   1      41.608  28.703  35.684  1.00  0.00     0.200 A 
ATOM    107  F   UNL A   1      41.125  27.039  34.083  1.00  0.00    -0.200 F 
ATOM    108  F   UNL A   1      41.243  27.878  36.675  1.00  0.00    -0.200 F 
ENDBRANCH  75  98
ENDBRANCH  49  50
ENDBRANCH  42  44
ENDBRANCH  41  42
ENDBRANCH  40  41
ENDBRANCH  39  40
ENDBRANCH  38  39
ENDBRANCH  37  38
ENDBRANCH  36  37
ENDBRANCH  35  36
ENDBRANCH   1  35
TORSDOF 24
ENDMDL
