MODEL 1
REMARK VINA RESULT:      -9.6      0.000      0.000
REMARK SMILES CCOc1cccc(OCC)c1-c1ccc([C@@H](C)C(=O)OCCOCCOCCOCCOC(=O)c2ccc(-c3c4nc(c(-c5c(F)c(F)c(F)c(F)c5F)c5ccc([nH]5)c(-c5c(F)c(F)c(F)c(F)c5F)c5nc(c(-c6c(F)c(F)c(F)c(F)c6F)c6ccc3[nH]6)C=C5)C=C4)cc2)cc1F
REMARK SMILES IDX 26 1 25 2 24 3 23 4 22 5 21 6 19 7 20 8 17 9 18 10 16 11
REMARK SMILES IDX 13 12 14 13 100 14 15 15 99 16 101 17 12 18 4 19 5 20 6 21
REMARK SMILES IDX 8 22 7 23 3 24 2 25 1 26 9 27 10 28 11 29 27 30 28 31 29 32
REMARK SMILES IDX 30 33 31 34 32 35 33 36 34 37 35 38 36 39 37 40 98 41 38 42
REMARK SMILES IDX 97 43 39 44 40 45 41 46 91 47 42 48 96 49 90 50 92 51 43 52
REMARK SMILES IDX 95 53 89 54 88 55 44 57 76 58 56 59 75 60 57 61 60 62 74 63
REMARK SMILES IDX 93 64 58 65 59 66 73 68 94 69 61 70 45 71 46 72 54 73 47 74
REMARK SMILES IDX 48 75 52 76 55 77 49 78 50 79 53 80 51 81 77 82 78 83 86 84
REMARK SMILES IDX 79 85 80 86 84 87 87 88 81 89 82 90 85 91 83 92 62 93 63 94
REMARK SMILES IDX 71 95 64 96 65 97 69 98 72 99 66 100 67 101 70 102 68 103
REMARK H PARENT 92 56 60 67
REMARK Flexibility Score: inf
ROOT
ATOM      1  C   UNL A   1      33.967  28.117  26.087  1.00  0.00     0.188 C 
ENDROOT
BRANCH   1   2
ATOM      2  C   UNL A   1      33.662  26.859  25.269  1.00  0.00     0.188 C 
BRANCH   2   3
ATOM      3  O   UNL A   1      33.158  26.957  23.947  1.00  0.00    -0.376 OA
BRANCH   3   4
ATOM      4  C   UNL A   1      31.951  26.300  23.590  1.00  0.00     0.202 C 
BRANCH   4   5
ATOM      5  C   UNL A   1      30.655  26.648  24.338  1.00  0.00     0.261 C 
BRANCH   5   6
ATOM      6  O   UNL A   1      29.878  25.530  24.819  1.00  0.00    -0.463 OA
BRANCH   6   7
ATOM      7  C   UNL A   1      30.357  24.905  25.921  1.00  0.00     0.313 C 
ATOM      8  O   UNL A   1      30.896  25.500  26.854  1.00  0.00    -0.252 OA
BRANCH   7   9
ATOM      9  C   UNL A   1      30.277  23.384  25.925  1.00  0.00     0.126 C 
ATOM     10  C   UNL A   1      29.543  22.951  27.195  1.00  0.00     0.025 C 
BRANCH   9  11
ATOM     11  C   UNL A   1      31.488  22.481  25.691  1.00  0.00    -0.031 A 
ATOM     12  C   UNL A   1      33.963  21.073  25.300  1.00  0.00     0.025 A 
ATOM     13  C   UNL A   1      32.919  21.021  24.358  1.00  0.00     0.012 A 
ATOM     14  C   UNL A   1      33.708  21.782  26.476  1.00  0.00     0.131 A 
ATOM     15  C   UNL A   1      31.724  21.748  24.524  1.00  0.00     0.005 A 
ATOM     16  C   UNL A   1      32.499  22.461  26.675  1.00  0.00     0.044 A 
ATOM     17  F   UNL A   1      34.638  21.857  27.441  1.00  0.00    -0.206 F 
BRANCH  12  18
ATOM     18  C   UNL A   1      35.257  20.401  25.035  1.00  0.00     0.069 A 
ATOM     19  C   UNL A   1      36.431  21.197  24.939  1.00  0.00     0.130 A 
ATOM     20  C   UNL A   1      37.720  20.656  24.853  1.00  0.00     0.047 A 
ATOM     21  C   UNL A   1      37.880  19.284  24.832  1.00  0.00     0.008 A 
ATOM     22  C   UNL A   1      35.439  19.005  24.918  1.00  0.00     0.130 A 
ATOM     23  C   UNL A   1      36.747  18.475  24.834  1.00  0.00     0.047 A 
BRANCH  19  24
ATOM     24  O   UNL A   1      36.312  22.551  24.759  1.00  0.00    -0.493 OA
BRANCH  24  25
ATOM     25  C   UNL A   1      36.294  22.938  23.391  1.00  0.00     0.226 C 
ATOM     26  C   UNL A   1      35.050  23.771  23.194  1.00  0.00     0.049 C 
ENDBRANCH  24  25
ENDBRANCH  19  24
BRANCH  22  27
ATOM     27  O   UNL A   1      34.539  17.982  24.820  1.00  0.00    -0.493 OA
BRANCH  27  28
ATOM     28  C   UNL A   1      34.344  17.192  23.661  1.00  0.00     0.226 C 
ATOM     29  C   UNL A   1      33.118  17.703  22.927  1.00  0.00     0.049 C 
ENDBRANCH  27  28
ENDBRANCH  22  27
ENDBRANCH  12  18
ENDBRANCH   9  11
ENDBRANCH   7   9
ENDBRANCH   6   7
ENDBRANCH   5   6
ENDBRANCH   4   5
ENDBRANCH   3   4
ENDBRANCH   2   3
ENDBRANCH   1   2
BRANCH   1  30
ATOM     30  O   UNL A   1      32.938  28.536  26.958  1.00  0.00    -0.377 OA
BRANCH  30  31
ATOM     31  C   UNL A   1      31.789  29.068  26.315  1.00  0.00     0.188 C 
BRANCH  31  32
ATOM     32  C   UNL A   1      31.510  30.558  26.582  1.00  0.00     0.188 C 
BRANCH  32  33
ATOM     33  O   UNL A   1      32.525  31.356  27.180  1.00  0.00    -0.376 OA
BRANCH  33  34
ATOM     34  C   UNL A   1      32.308  32.734  27.451  1.00  0.00     0.202 C 
BRANCH  34  35
ATOM     35  C   UNL A   1      33.454  33.746  27.348  1.00  0.00     0.261 C 
BRANCH  35  36
ATOM     36  O   UNL A   1      33.336  34.823  28.292  1.00  0.00    -0.460 OA
BRANCH  36  37
ATOM     37  C   UNL A   1      33.739  34.529  29.541  1.00  0.00     0.338 C 
ATOM     38  O   UNL A   1      33.163  34.818  30.592  1.00  0.00    -0.246 OA
BRANCH  37  39
ATOM     39  C   UNL A   1      34.893  33.622  29.519  1.00  0.00     0.060 A 
ATOM     40  C   UNL A   1      34.717  32.341  30.058  1.00  0.00     0.016 A 
ATOM     41  C   UNL A   1      36.163  34.066  29.144  1.00  0.00     0.016 A 
ATOM     42  C   UNL A   1      35.820  31.526  30.298  1.00  0.00     0.010 A 
ATOM     43  C   UNL A   1      37.274  33.251  29.402  1.00  0.00     0.010 A 
ATOM     44  C   UNL A   1      37.110  32.004  30.035  1.00  0.00    -0.014 A 
BRANCH  44  45
ATOM     45  C   UNL A   1      38.263  31.296  30.645  1.00  0.00     0.031 A 
ATOM     46  C   UNL A   1      38.607  31.586  32.083  1.00  0.00     0.074 A 
ATOM     47  C   UNL A   1      38.945  30.354  29.970  1.00  0.00     0.049 A 
ATOM     48  N   UNL A   1      39.546  31.071  32.837  1.00  0.00    -0.248 NA
ATOM     49  C   UNL A   1      37.771  32.588  32.766  1.00  0.00     0.031 C 
ATOM     50  C   UNL A   1      38.677  29.941  28.594  1.00  0.00     0.029 A 
ATOM     51  N   UNL A   1      40.005  29.572  30.358  1.00  0.00    -0.354 N 
ATOM     52  C   UNL A   1      39.416  31.689  34.076  1.00  0.00     0.074 A 
ATOM     53  C   UNL A   1      38.325  32.632  33.969  1.00  0.00     0.031 C 
ATOM     54  C   UNL A   1      39.561  28.989  28.248  1.00  0.00     0.029 A 
ATOM     55  C   UNL A   1      40.470  28.744  29.367  1.00  0.00     0.049 A 
ATOM     56  H   UNL A   1      40.394  29.602  31.263  1.00  0.00     0.167 HD
ATOM     57  C   UNL A   1      40.137  31.481  35.204  1.00  0.00     0.037 A 
ATOM     58  C   UNL A   1      41.522  27.903  29.361  1.00  0.00     0.037 A 
ATOM     59  C   UNL A   1      41.216  30.537  35.315  1.00  0.00     0.049 A 
ATOM     60  C   UNL A   1      42.355  27.743  30.609  1.00  0.00     0.074 A 
ATOM     61  C   UNL A   1      41.985  30.235  36.425  1.00  0.00     0.029 A 
ATOM     62  N   UNL A   1      41.686  29.750  34.276  1.00  0.00    -0.354 N 
ATOM     63  N   UNL A   1      42.202  28.302  31.785  1.00  0.00    -0.248 NA
ATOM     64  C   UNL A   1      43.503  26.830  30.529  1.00  0.00     0.031 C 
ATOM     65  C   UNL A   1      42.956  29.305  36.044  1.00  0.00     0.029 A 
ATOM     66  C   UNL A   1      42.757  28.987  34.710  1.00  0.00     0.049 A 
ATOM     67  H   UNL A   1      41.313  29.736  33.365  1.00  0.00     0.167 HD
ATOM     68  C   UNL A   1      43.213  27.790  32.589  1.00  0.00     0.074 A 
ATOM     69  C   UNL A   1      43.966  26.863  31.771  1.00  0.00     0.031 C 
ATOM     70  C   UNL A   1      43.493  28.061  33.887  1.00  0.00     0.037 A 
BRANCH  57  71
ATOM     71  C   UNL A   1      39.803  32.315  36.405  1.00  0.00     0.064 A 
ATOM     72  C   UNL A   1      38.709  32.018  37.232  1.00  0.00     0.173 A 
ATOM     73  C   UNL A   1      40.618  33.401  36.758  1.00  0.00     0.173 A 
ATOM     74  F   UNL A   1      37.892  30.999  36.929  1.00  0.00    -0.203 F 
ATOM     75  C   UNL A   1      38.434  32.791  38.358  1.00  0.00     0.198 A 
ATOM     76  C   UNL A   1      40.355  34.154  37.898  1.00  0.00     0.198 A 
ATOM     77  F   UNL A   1      41.678  33.725  36.001  1.00  0.00    -0.203 F 
ATOM     78  F   UNL A   1      37.362  32.512  39.113  1.00  0.00    -0.200 F 
ATOM     79  C   UNL A   1      39.261  33.852  38.694  1.00  0.00     0.200 A 
ATOM     80  F   UNL A   1      41.161  35.172  38.227  1.00  0.00    -0.200 F 
ATOM     81  F   UNL A   1      39.000  34.587  39.783  1.00  0.00    -0.200 F 
ENDBRANCH  57  71
BRANCH  58  82
ATOM     82  C   UNL A   1      41.871  27.158  28.122  1.00  0.00     0.064 A 
ATOM     83  C   UNL A   1      42.758  27.690  27.177  1.00  0.00     0.173 A 
ATOM     84  C   UNL A   1      41.292  25.911  27.843  1.00  0.00     0.173 A 
ATOM     85  F   UNL A   1      43.316  28.892  27.385  1.00  0.00    -0.203 F 
ATOM     86  C   UNL A   1      43.037  27.013  25.991  1.00  0.00     0.198 A 
ATOM     87  C   UNL A   1      41.594  25.222  26.671  1.00  0.00     0.198 A 
ATOM     88  F   UNL A   1      40.433  25.360  28.714  1.00  0.00    -0.203 F 
ATOM     89  F   UNL A   1      43.848  27.568  25.080  1.00  0.00    -0.200 F 
ATOM     90  C   UNL A   1      42.458  25.778  25.742  1.00  0.00     0.200 A 
ATOM     91  F   UNL A   1      41.041  24.024  26.440  1.00  0.00    -0.200 F 
ATOM     92  F   UNL A   1      42.726  25.127  24.601  1.00  0.00    -0.200 F 
ENDBRANCH  58  82
BRANCH  70  93
ATOM     93  C   UNL A   1      44.640  27.326  34.519  1.00  0.00     0.064 A 
ATOM     94  C   UNL A   1      45.935  27.865  34.543  1.00  0.00     0.173 A 
ATOM     95  C   UNL A   1      44.430  26.090  35.149  1.00  0.00     0.173 A 
ATOM     96  F   UNL A   1      46.190  29.038  33.944  1.00  0.00    -0.203 F 
ATOM     97  C   UNL A   1      46.982  27.182  35.158  1.00  0.00     0.198 A 
ATOM     98  C   UNL A   1      45.473  25.425  35.788  1.00  0.00     0.198 A 
ATOM     99  F   UNL A   1      43.208  25.536  35.161  1.00  0.00    -0.203 F 
ATOM    100  F   UNL A   1      48.219  27.694  35.132  1.00  0.00    -0.200 F 
ATOM    101  C   UNL A   1      46.748  25.968  35.786  1.00  0.00     0.200 A 
ATOM    102  F   UNL A   1      45.242  24.258  36.407  1.00  0.00    -0.200 F 
ATOM    103  F   UNL A   1      47.756  25.316  36.384  1.00  0.00    -0.200 F 
ENDBRANCH  70  93
ENDBRANCH  44  45
ENDBRANCH  37  39
ENDBRANCH  36  37
ENDBRANCH  35  36
ENDBRANCH  34  35
ENDBRANCH  33  34
ENDBRANCH  32  33
ENDBRANCH  31  32
ENDBRANCH  30  31
ENDBRANCH   1  30
TORSDOF 26
ENDMDL
MODEL 2
REMARK VINA RESULT:      -9.6      3.224      9.726
REMARK SMILES CCOc1cccc(OCC)c1-c1ccc([C@@H](C)C(=O)OCCOCCOCCOCCOC(=O)c2ccc(-c3c4nc(c(-c5c(F)c(F)c(F)c(F)c5F)c5ccc([nH]5)c(-c5c(F)c(F)c(F)c(F)c5F)c5nc(c(-c6c(F)c(F)c(F)c(F)c6F)c6ccc3[nH]6)C=C5)C=C4)cc2)cc1F
REMARK SMILES IDX 26 1 25 2 24 3 23 4 22 5 21 6 19 7 20 8 17 9 18 10 16 11
REMARK SMILES IDX 13 12 14 13 100 14 15 15 99 16 101 17 12 18 4 19 5 20 6 21
REMARK SMILES IDX 8 22 7 23 3 24 2 25 1 26 9 27 10 28 11 29 27 30 28 31 29 32
REMARK SMILES IDX 30 33 31 34 32 35 33 36 34 37 35 38 36 39 37 40 98 41 38 42
REMARK SMILES IDX 97 43 39 44 40 45 41 46 91 47 42 48 96 49 90 50 92 51 43 52
REMARK SMILES IDX 95 53 89 54 88 55 44 57 76 58 56 59 75 60 57 61 60 62 74 63
REMARK SMILES IDX 93 64 58 65 59 66 73 68 94 69 61 70 45 71 46 72 54 73 47 74
REMARK SMILES IDX 48 75 52 76 55 77 49 78 50 79 53 80 51 81 77 82 78 83 86 84
REMARK SMILES IDX 79 85 80 86 84 87 87 88 81 89 82 90 85 91 83 92 62 93 63 94
REMARK SMILES IDX 71 95 64 96 65 97 69 98 72 99 66 100 67 101 70 102 68 103
REMARK H PARENT 92 56 60 67
REMARK Flexibility Score: inf
ROOT
ATOM      1  C   UNL A   1      43.080  18.541  25.729  1.00  0.00     0.188 C 
ENDROOT
BRANCH   1   2
ATOM      2  C   UNL A   1      42.607  19.134  27.059  1.00  0.00     0.188 C 
BRANCH   2   3
ATOM      3  O   UNL A   1      41.476  19.989  27.112  1.00  0.00    -0.376 OA
BRANCH   3   4
ATOM      4  C   UNL A   1      40.402  19.814  26.200  1.00  0.00     0.202 C 
BRANCH   4   5
ATOM      5  C   UNL A   1      39.596  21.040  25.744  1.00  0.00     0.261 C 
BRANCH   5   6
ATOM      6  O   UNL A   1      38.284  21.192  26.328  1.00  0.00    -0.463 OA
BRANCH   6   7
ATOM      7  C   UNL A   1      37.297  21.570  25.480  1.00  0.00     0.313 C 
ATOM      8  O   UNL A   1      36.458  20.791  25.029  1.00  0.00    -0.252 OA
BRANCH   7   9
ATOM      9  C   UNL A   1      37.317  23.024  25.024  1.00  0.00     0.126 C 
ATOM     10  C   UNL A   1      38.139  23.825  26.035  1.00  0.00     0.025 C 
BRANCH   9  11
ATOM     11  C   UNL A   1      36.055  23.800  24.647  1.00  0.00    -0.031 A 
ATOM     12  C   UNL A   1      33.542  25.134  24.238  1.00  0.00     0.025 A 
ATOM     13  C   UNL A   1      34.111  24.298  23.258  1.00  0.00     0.012 A 
ATOM     14  C   UNL A   1      34.299  25.348  25.392  1.00  0.00     0.131 A 
ATOM     15  C   UNL A   1      35.318  23.605  23.476  1.00  0.00     0.005 A 
ATOM     16  C   UNL A   1      35.529  24.707  25.592  1.00  0.00     0.044 A 
ATOM     17  F   UNL A   1      33.845  26.155  26.364  1.00  0.00    -0.206 F 
BRANCH  12  18
ATOM     18  C   UNL A   1      32.208  25.745  24.030  1.00  0.00     0.069 A 
ATOM     19  C   UNL A   1      32.125  26.977  23.326  1.00  0.00     0.130 A 
ATOM     20  C   UNL A   1      30.913  27.558  22.935  1.00  0.00     0.047 A 
ATOM     21  C   UNL A   1      29.724  26.933  23.262  1.00  0.00     0.008 A 
ATOM     22  C   UNL A   1      30.980  25.174  24.433  1.00  0.00     0.130 A 
ATOM     23  C   UNL A   1      29.765  25.772  24.029  1.00  0.00     0.047 A 
BRANCH  19  24
ATOM     24  O   UNL A   1      33.259  27.728  23.152  1.00  0.00    -0.493 OA
BRANCH  24  25
ATOM     25  C   UNL A   1      33.102  29.085  23.545  1.00  0.00     0.226 C 
ATOM     26  C   UNL A   1      33.067  29.096  25.055  1.00  0.00     0.049 C 
ENDBRANCH  24  25
ENDBRANCH  19  24
BRANCH  22  27
ATOM     27  O   UNL A   1      30.703  24.101  25.233  1.00  0.00    -0.493 OA
BRANCH  27  28
ATOM     28  C   UNL A   1      30.909  24.069  26.634  1.00  0.00     0.226 C 
ATOM     29  C   UNL A   1      31.765  22.862  26.969  1.00  0.00     0.049 C 
ENDBRANCH  27  28
ENDBRANCH  22  27
ENDBRANCH  12  18
ENDBRANCH   9  11
ENDBRANCH   7   9
ENDBRANCH   6   7
ENDBRANCH   5   6
ENDBRANCH   4   5
ENDBRANCH   3   4
ENDBRANCH   2   3
ENDBRANCH   1   2
BRANCH   1  30
ATOM     30  O   UNL A   1      44.414  18.081  25.712  1.00  0.00    -0.377 OA
BRANCH  30  31
ATOM     31  C   UNL A   1      45.228  18.646  24.696  1.00  0.00     0.188 C 
BRANCH  31  32
ATOM     32  C   UNL A   1      46.142  19.802  25.144  1.00  0.00     0.188 C 
BRANCH  32  33
ATOM     33  O   UNL A   1      46.016  21.069  24.509  1.00  0.00    -0.376 OA
BRANCH  33  34
ATOM     34  C   UNL A   1      45.675  22.230  25.255  1.00  0.00     0.202 C 
BRANCH  34  35
ATOM     35  C   UNL A   1      44.726  23.285  24.677  1.00  0.00     0.261 C 
BRANCH  35  36
ATOM     36  O   UNL A   1      43.703  23.685  25.604  1.00  0.00    -0.460 OA
BRANCH  36  37
ATOM     37  C   UNL A   1      43.331  24.974  25.517  1.00  0.00     0.338 C 
ATOM     38  O   UNL A   1      42.808  25.530  24.548  1.00  0.00    -0.246 OA
BRANCH  37  39
ATOM     39  C   UNL A   1      43.444  25.642  26.820  1.00  0.00     0.060 A 
ATOM     40  C   UNL A   1      42.734  25.087  27.892  1.00  0.00     0.016 A 
ATOM     41  C   UNL A   1      44.084  26.876  26.953  1.00  0.00     0.016 A 
ATOM     42  C   UNL A   1      42.593  25.800  29.079  1.00  0.00     0.010 A 
ATOM     43  C   UNL A   1      43.926  27.600  28.144  1.00  0.00     0.010 A 
ATOM     44  C   UNL A   1      43.131  27.088  29.187  1.00  0.00    -0.014 A 
BRANCH  44  45
ATOM     45  C   UNL A   1      42.650  27.965  30.285  1.00  0.00     0.031 A 
ATOM     46  C   UNL A   1      41.356  28.712  30.094  1.00  0.00     0.074 A 
ATOM     47  C   UNL A   1      43.299  28.037  31.460  1.00  0.00     0.049 A 
ATOM     48  N   UNL A   1      40.723  29.509  30.918  1.00  0.00    -0.248 NA
ATOM     49  C   UNL A   1      40.680  28.529  28.798  1.00  0.00     0.031 C 
ATOM     50  C   UNL A   1      44.529  27.321  31.791  1.00  0.00     0.029 A 
ATOM     51  N   UNL A   1      43.006  28.750  32.596  1.00  0.00    -0.354 N 
ATOM     52  C   UNL A   1      39.582  29.923  30.241  1.00  0.00     0.074 A 
ATOM     53  C   UNL A   1      39.618  29.311  28.931  1.00  0.00     0.031 C 
ATOM     54  C   UNL A   1      44.894  27.643  33.044  1.00  0.00     0.029 A 
ATOM     55  C   UNL A   1      43.938  28.605  33.593  1.00  0.00     0.049 A 
ATOM     56  H   UNL A   1      42.202  29.313  32.687  1.00  0.00     0.167 HD
ATOM     57  C   UNL A   1      38.588  30.734  30.676  1.00  0.00     0.037 A 
ATOM     58  C   UNL A   1      44.019  29.198  34.800  1.00  0.00     0.037 A 
ATOM     59  C   UNL A   1      38.545  31.337  31.981  1.00  0.00     0.049 A 
ATOM     60  C   UNL A   1      42.936  30.156  35.232  1.00  0.00     0.074 A 
ATOM     61  C   UNL A   1      37.564  32.150  32.523  1.00  0.00     0.029 A 
ATOM     62  N   UNL A   1      39.531  31.201  32.946  1.00  0.00    -0.354 N 
ATOM     63  N   UNL A   1      41.843  30.512  34.602  1.00  0.00    -0.248 NA
ATOM     64  C   UNL A   1      43.096  30.789  36.549  1.00  0.00     0.031 C 
ATOM     65  C   UNL A   1      37.983  32.550  33.795  1.00  0.00     0.029 A 
ATOM     66  C   UNL A   1      39.198  31.943  34.067  1.00  0.00     0.049 A 
ATOM     67  H   UNL A   1      40.346  30.659  32.847  1.00  0.00     0.167 HD
ATOM     68  C   UNL A   1      41.176  31.385  35.452  1.00  0.00     0.074 A 
ATOM     69  C   UNL A   1      41.978  31.495  36.651  1.00  0.00     0.031 C 
ATOM     70  C   UNL A   1      40.003  32.037  35.258  1.00  0.00     0.037 A 
BRANCH  57  71
ATOM     71  C   UNL A   1      37.477  31.047  29.718  1.00  0.00     0.064 A 
ATOM     72  C   UNL A   1      36.469  30.116  29.425  1.00  0.00     0.173 A 
ATOM     73  C   UNL A   1      37.396  32.314  29.121  1.00  0.00     0.173 A 
ATOM     74  F   UNL A   1      36.510  28.887  29.960  1.00  0.00    -0.203 F 
ATOM     75  C   UNL A   1      35.431  30.437  28.553  1.00  0.00     0.198 A 
ATOM     76  C   UNL A   1      36.342  32.639  28.272  1.00  0.00     0.198 A 
ATOM     77  F   UNL A   1      38.334  33.240  29.371  1.00  0.00    -0.203 F 
ATOM     78  F   UNL A   1      34.499  29.520  28.258  1.00  0.00    -0.200 F 
ATOM     79  C   UNL A   1      35.365  31.699  27.984  1.00  0.00     0.200 A 
ATOM     80  F   UNL A   1      36.274  33.863  27.731  1.00  0.00    -0.200 F 
ATOM     81  F   UNL A   1      34.359  32.009  27.154  1.00  0.00    -0.200 F 
ENDBRANCH  57  71
BRANCH  58  82
ATOM     82  C   UNL A   1      45.183  28.927  35.685  1.00  0.00     0.064 A 
ATOM     83  C   UNL A   1      45.132  27.938  36.676  1.00  0.00     0.173 A 
ATOM     84  C   UNL A   1      46.360  29.683  35.579  1.00  0.00     0.173 A 
ATOM     85  F   UNL A   1      44.018  27.208  36.835  1.00  0.00    -0.203 F 
ATOM     86  C   UNL A   1      46.205  27.727  37.539  1.00  0.00     0.198 A 
ATOM     87  C   UNL A   1      47.443  29.453  36.423  1.00  0.00     0.198 A 
ATOM     88  F   UNL A   1      46.458  30.646  34.650  1.00  0.00    -0.203 F 
ATOM     89  F   UNL A   1      46.110  26.811  38.511  1.00  0.00    -0.200 F 
ATOM     90  C   UNL A   1      47.361  28.482  37.409  1.00  0.00     0.200 A 
ATOM     91  F   UNL A   1      48.562  30.177  36.287  1.00  0.00    -0.200 F 
ATOM     92  F   UNL A   1      48.393  28.280  38.240  1.00  0.00    -0.200 F 
ENDBRANCH  58  82
BRANCH  70  93
ATOM     93  C   UNL A   1      39.496  32.902  36.376  1.00  0.00     0.064 A 
ATOM     94  C   UNL A   1      38.562  32.426  37.308  1.00  0.00     0.173 A 
ATOM     95  C   UNL A   1      39.988  34.205  36.545  1.00  0.00     0.173 A 
ATOM     96  F   UNL A   1      38.052  31.191  37.183  1.00  0.00    -0.203 F 
ATOM     97  C   UNL A   1      38.122  33.232  38.355  1.00  0.00     0.198 A 
ATOM     98  C   UNL A   1      39.568  34.998  37.610  1.00  0.00     0.198 A 
ATOM     99  F   UNL A   1      40.889  34.704  35.686  1.00  0.00    -0.203 F 
ATOM    100  F   UNL A   1      37.197  32.774  39.208  1.00  0.00    -0.200 F 
ATOM    101  C   UNL A   1      38.631  34.514  38.509  1.00  0.00     0.200 A 
ATOM    102  F   UNL A   1      40.072  36.230  37.765  1.00  0.00    -0.200 F 
ATOM    103  F   UNL A   1      38.212  35.285  39.523  1.00  0.00    -0.200 F 
ENDBRANCH  70  93
ENDBRANCH  44  45
ENDBRANCH  37  39
ENDBRANCH  36  37
ENDBRANCH  35  36
ENDBRANCH  34  35
ENDBRANCH  33  34
ENDBRANCH  32  33
ENDBRANCH  31  32
ENDBRANCH  30  31
ENDBRANCH   1  30
TORSDOF 26
ENDMDL
MODEL 3
REMARK VINA RESULT:      -9.3      1.023      7.001
REMARK SMILES CCOc1cccc(OCC)c1-c1ccc([C@@H](C)C(=O)OCCOCCOCCOCCOC(=O)c2ccc(-c3c4nc(c(-c5c(F)c(F)c(F)c(F)c5F)c5ccc([nH]5)c(-c5c(F)c(F)c(F)c(F)c5F)c5nc(c(-c6c(F)c(F)c(F)c(F)c6F)c6ccc3[nH]6)C=C5)C=C4)cc2)cc1F
REMARK SMILES IDX 26 1 25 2 24 3 23 4 22 5 21 6 19 7 20 8 17 9 18 10 16 11
REMARK SMILES IDX 13 12 14 13 100 14 15 15 99 16 101 17 12 18 4 19 5 20 6 21
REMARK SMILES IDX 8 22 7 23 3 24 2 25 1 26 9 27 10 28 11 29 27 30 28 31 29 32
REMARK SMILES IDX 30 33 31 34 32 35 33 36 34 37 35 38 36 39 37 40 98 41 38 42
REMARK SMILES IDX 97 43 39 44 40 45 41 46 91 47 42 48 96 49 90 50 92 51 43 52
REMARK SMILES IDX 95 53 89 54 88 55 44 57 76 58 56 59 75 60 57 61 60 62 74 63
REMARK SMILES IDX 93 64 58 65 59 66 73 68 94 69 61 70 45 71 46 72 54 73 47 74
REMARK SMILES IDX 48 75 52 76 55 77 49 78 50 79 53 80 51 81 77 82 78 83 86 84
REMARK SMILES IDX 79 85 80 86 84 87 87 88 81 89 82 90 85 91 83 92 62 93 63 94
REMARK SMILES IDX 71 95 64 96 65 97 69 98 72 99 66 100 67 101 70 102 68 103
REMARK H PARENT 92 56 60 67
REMARK Flexibility Score: inf
ROOT
ATOM      1  C   UNL A   1      34.222  28.845  26.687  1.00  0.00     0.188 C 
ENDROOT
BRANCH   1   2
ATOM      2  C   UNL A   1      34.003  27.587  25.843  1.00  0.00     0.188 C 
BRANCH   2   3
ATOM      3  O   UNL A   1      33.936  27.665  24.428  1.00  0.00    -0.376 OA
BRANCH   3   4
ATOM      4  C   UNL A   1      32.850  27.076  23.729  1.00  0.00     0.202 C 
BRANCH   4   5
ATOM      5  C   UNL A   1      31.418  27.542  24.034  1.00  0.00     0.261 C 
BRANCH   5   6
ATOM      6  O   UNL A   1      30.451  26.500  24.290  1.00  0.00    -0.463 OA
BRANCH   6   7
ATOM      7  C   UNL A   1      30.478  25.957  25.531  1.00  0.00     0.313 C 
ATOM      8  O   UNL A   1      30.834  26.579  26.532  1.00  0.00    -0.252 OA
BRANCH   7   9
ATOM      9  C   UNL A   1      30.122  24.479  25.632  1.00  0.00     0.126 C 
ATOM     10  C   UNL A   1      29.437  24.249  26.980  1.00  0.00     0.025 C 
BRANCH   9  11
ATOM     11  C   UNL A   1      31.121  23.357  25.356  1.00  0.00    -0.031 A 
ATOM     12  C   UNL A   1      33.229  21.428  25.036  1.00  0.00     0.025 A 
ATOM     13  C   UNL A   1      32.561  21.993  23.933  1.00  0.00     0.012 A 
ATOM     14  C   UNL A   1      32.763  21.792  26.302  1.00  0.00     0.131 A 
ATOM     15  C   UNL A   1      31.561  22.974  24.086  1.00  0.00     0.005 A 
ATOM     16  C   UNL A   1      31.729  22.725  26.462  1.00  0.00     0.044 A 
ATOM     17  F   UNL A   1      33.323  21.277  27.407  1.00  0.00    -0.206 F 
BRANCH  12  18
ATOM     18  C   UNL A   1      34.364  20.496  24.839  1.00  0.00     0.069 A 
ATOM     19  C   UNL A   1      35.687  21.015  24.881  1.00  0.00     0.130 A 
ATOM     20  C   UNL A   1      36.829  20.205  24.868  1.00  0.00     0.047 A 
ATOM     21  C   UNL A   1      36.688  18.833  24.785  1.00  0.00     0.008 A 
ATOM     22  C   UNL A   1      34.247  19.100  24.662  1.00  0.00     0.130 A 
ATOM     23  C   UNL A   1      35.411  18.296  24.653  1.00  0.00     0.047 A 
BRANCH  19  24
ATOM     24  O   UNL A   1      35.881  22.367  24.765  1.00  0.00    -0.493 OA
BRANCH  24  25
ATOM     25  C   UNL A   1      36.216  22.996  25.995  1.00  0.00     0.226 C 
ATOM     26  C   UNL A   1      37.342  23.958  25.695  1.00  0.00     0.049 C 
ENDBRANCH  24  25
ENDBRANCH  19  24
BRANCH  22  27
ATOM     27  O   UNL A   1      33.158  18.305  24.436  1.00  0.00    -0.493 OA
BRANCH  27  28
ATOM     28  C   UNL A   1      32.994  17.468  23.305  1.00  0.00     0.226 C 
ATOM     29  C   UNL A   1      32.409  18.293  22.173  1.00  0.00     0.049 C 
ENDBRANCH  27  28
ENDBRANCH  22  27
ENDBRANCH  12  18
ENDBRANCH   9  11
ENDBRANCH   7   9
ENDBRANCH   6   7
ENDBRANCH   5   6
ENDBRANCH   4   5
ENDBRANCH   3   4
ENDBRANCH   2   3
ENDBRANCH   1   2
BRANCH   1  30
ATOM     30  O   UNL A   1      33.068  29.360  27.317  1.00  0.00    -0.377 OA
BRANCH  30  31
ATOM     31  C   UNL A   1      32.105  29.919  26.436  1.00  0.00     0.188 C 
BRANCH  31  32
ATOM     32  C   UNL A   1      31.728  31.386  26.710  1.00  0.00     0.188 C 
BRANCH  32  33
ATOM     33  O   UNL A   1      32.692  32.249  27.303  1.00  0.00    -0.376 OA
BRANCH  33  34
ATOM     34  C   UNL A   1      32.384  33.608  27.581  1.00  0.00     0.202 C 
BRANCH  34  35
ATOM     35  C   UNL A   1      33.497  34.652  27.728  1.00  0.00     0.261 C 
BRANCH  35  36
ATOM     36  O   UNL A   1      33.241  35.599  28.778  1.00  0.00    -0.460 OA
BRANCH  36  37
ATOM     37  C   UNL A   1      33.408  35.122  30.024  1.00  0.00     0.338 C 
ATOM     38  O   UNL A   1      32.649  35.277  30.985  1.00  0.00    -0.246 OA
BRANCH  37  39
ATOM     39  C   UNL A   1      34.546  34.196  30.083  1.00  0.00     0.060 A 
ATOM     40  C   UNL A   1      34.362  32.991  30.775  1.00  0.00     0.016 A 
ATOM     41  C   UNL A   1      35.812  34.566  29.627  1.00  0.00     0.016 A 
ATOM     42  C   UNL A   1      35.457  32.190  31.085  1.00  0.00     0.010 A 
ATOM     43  C   UNL A   1      36.916  33.766  29.954  1.00  0.00     0.010 A 
ATOM     44  C   UNL A   1      36.747  32.607  30.735  1.00  0.00    -0.014 A 
BRANCH  44  45
ATOM     45  C   UNL A   1      37.904  31.953  31.397  1.00  0.00     0.031 A 
ATOM     46  C   UNL A   1      38.685  30.921  30.626  1.00  0.00     0.074 A 
ATOM     47  C   UNL A   1      38.308  32.321  32.625  1.00  0.00     0.049 A 
ATOM     48  N   UNL A   1      39.747  30.241  30.982  1.00  0.00    -0.248 NA
ATOM     49  C   UNL A   1      38.209  30.621  29.266  1.00  0.00     0.031 C 
ATOM     50  C   UNL A   1      37.674  33.345  33.452  1.00  0.00     0.029 A 
ATOM     51  N   UNL A   1      39.358  31.871  33.389  1.00  0.00    -0.354 N 
ATOM     52  C   UNL A   1      40.059  29.433  29.895  1.00  0.00     0.074 A 
ATOM     53  C   UNL A   1      39.065  29.688  28.876  1.00  0.00     0.031 C 
ATOM     54  C   UNL A   1      38.340  33.436  34.617  1.00  0.00     0.029 A 
ATOM     55  C   UNL A   1      39.430  32.460  34.626  1.00  0.00     0.049 A 
ATOM     56  H   UNL A   1      39.998  31.190  33.078  1.00  0.00     0.167 HD
ATOM     57  C   UNL A   1      41.088  28.563  29.755  1.00  0.00     0.037 A 
ATOM     58  C   UNL A   1      40.269  32.223  35.654  1.00  0.00     0.037 A 
ATOM     59  C   UNL A   1      42.083  28.314  30.763  1.00  0.00     0.049 A 
ATOM     60  C   UNL A   1      41.363  31.195  35.499  1.00  0.00     0.074 A 
ATOM     61  C   UNL A   1      43.180  27.473  30.702  1.00  0.00     0.029 A 
ATOM     62  N   UNL A   1      42.095  28.898  32.021  1.00  0.00    -0.354 N 
ATOM     63  N   UNL A   1      41.673  30.465  34.456  1.00  0.00    -0.248 NA
ATOM     64  C   UNL A   1      42.227  30.965  36.666  1.00  0.00     0.031 C 
ATOM     65  C   UNL A   1      43.825  27.506  31.941  1.00  0.00     0.029 A 
ATOM     66  C   UNL A   1      43.162  28.410  32.756  1.00  0.00     0.049 A 
ATOM     67  H   UNL A   1      41.442  29.561  32.341  1.00  0.00     0.167 HD
ATOM     68  C   UNL A   1      42.779  29.712  34.829  1.00  0.00     0.074 A 
ATOM     69  C   UNL A   1      43.097  30.084  36.191  1.00  0.00     0.031 C 
ATOM     70  C   UNL A   1      43.471  28.795  34.110  1.00  0.00     0.037 A 
BRANCH  57  71
ATOM     71  C   UNL A   1      41.173  27.788  28.474  1.00  0.00     0.064 A 
ATOM     72  C   UNL A   1      41.859  28.281  27.355  1.00  0.00     0.173 A 
ATOM     73  C   UNL A   1      40.597  26.512  28.383  1.00  0.00     0.173 A 
ATOM     74  F   UNL A   1      42.415  29.501  27.388  1.00  0.00    -0.203 F 
ATOM     75  C   UNL A   1      41.949  27.532  26.184  1.00  0.00     0.198 A 
ATOM     76  C   UNL A   1      40.712  25.755  27.220  1.00  0.00     0.198 A 
ATOM     77  F   UNL A   1      39.932  25.994  29.427  1.00  0.00    -0.203 F 
ATOM     78  F   UNL A   1      42.578  28.038  25.114  1.00  0.00    -0.200 F 
ATOM     79  C   UNL A   1      41.383  26.268  26.120  1.00  0.00     0.200 A 
ATOM     80  F   UNL A   1      40.173  24.530  27.164  1.00  0.00    -0.200 F 
ATOM     81  F   UNL A   1      41.479  25.544  24.996  1.00  0.00    -0.200 F 
ENDBRANCH  57  71
BRANCH  58  82
ATOM     82  C   UNL A   1      40.096  32.952  36.938  1.00  0.00     0.064 A 
ATOM     83  C   UNL A   1      39.095  32.596  37.852  1.00  0.00     0.173 A 
ATOM     84  C   UNL A   1      40.910  34.049  37.259  1.00  0.00     0.173 A 
ATOM     85  F   UNL A   1      38.273  31.572  37.576  1.00  0.00    -0.203 F 
ATOM     86  C   UNL A   1      38.902  33.319  39.027  1.00  0.00     0.198 A 
ATOM     87  C   UNL A   1      40.735  34.753  38.447  1.00  0.00     0.198 A 
ATOM     88  F   UNL A   1      41.881  34.434  36.417  1.00  0.00    -0.203 F 
ATOM     89  F   UNL A   1      37.904  32.989  39.857  1.00  0.00    -0.200 F 
ATOM     90  C   UNL A   1      39.725  34.394  39.326  1.00  0.00     0.200 A 
ATOM     91  F   UNL A   1      41.540  35.785  38.737  1.00  0.00    -0.200 F 
ATOM     92  F   UNL A   1      39.538  35.090  40.456  1.00  0.00    -0.200 F 
ENDBRANCH  58  82
BRANCH  70  93
ATOM     93  C   UNL A   1      44.661  28.152  34.763  1.00  0.00     0.064 A 
ATOM     94  C   UNL A   1      45.932  28.742  34.720  1.00  0.00     0.173 A 
ATOM     95  C   UNL A   1      44.515  26.955  35.482  1.00  0.00     0.173 A 
ATOM     96  F   UNL A   1      46.126  29.879  34.035  1.00  0.00    -0.203 F 
ATOM     97  C   UNL A   1      47.019  28.146  35.354  1.00  0.00     0.198 A 
ATOM     98  C   UNL A   1      45.598  26.378  36.140  1.00  0.00     0.198 A 
ATOM     99  F   UNL A   1      43.317  26.356  35.561  1.00  0.00    -0.203 F 
ATOM    100  F   UNL A   1      48.234  28.703  35.264  1.00  0.00    -0.200 F 
ATOM    101  C   UNL A   1      46.849  26.969  36.070  1.00  0.00     0.200 A 
ATOM    102  F   UNL A   1      45.428  25.249  36.843  1.00  0.00    -0.200 F 
ATOM    103  F   UNL A   1      47.895  26.401  36.687  1.00  0.00    -0.200 F 
ENDBRANCH  70  93
ENDBRANCH  44  45
ENDBRANCH  37  39
ENDBRANCH  36  37
ENDBRANCH  35  36
ENDBRANCH  34  35
ENDBRANCH  33  34
ENDBRANCH  32  33
ENDBRANCH  31  32
ENDBRANCH  30  31
ENDBRANCH   1  30
TORSDOF 26
ENDMDL
