MODEL 1
REMARK VINA RESULT:      -8.0      0.000      0.000
REMARK SMILES Cc1ccccc1C(=O)Nc1cc(C(=O)OCCOCCOCCOCCOC(=O)c2ccc(-c3c4nc(c(-c5c(F)c(F)c(F)c(F)c5F)c5ccc([nH]5)c(-c5c(F)c(F)c(F)c(F)c5F)c5nc(c(-c6c(F)c(F)c(F)c(F)c6F)c6ccc3[nH]6)C=C5)C=C4)cc2)ccc1N1CC[NH+](CC(=O)Nc2ccc(F)cc2)CC1
REMARK SMILES IDX 21 1 20 2 19 3 18 4 17 5 16 6 14 7 15 8 13 9 11 10 12 11
REMARK SMILES IDX 96 12 95 13 94 14 10 15 8 16 9 17 7 19 1 20 2 21 3 22 4 23
REMARK SMILES IDX 6 24 5 25 97 26 98 27 113 28 99 29 112 30 100 31 101 33
REMARK SMILES IDX 102 34 103 35 104 36 105 38 106 39 111 40 107 41 110 42
REMARK SMILES IDX 108 43 109 44 22 45 23 46 24 47 25 48 26 49 27 50 28 51
REMARK SMILES IDX 29 52 30 53 31 54 32 55 93 56 33 57 92 58 34 59 35 60 36 61
REMARK SMILES IDX 86 62 37 63 91 64 85 65 87 66 38 67 90 68 84 69 83 70 39 72
REMARK SMILES IDX 71 73 51 74 70 75 52 76 55 77 69 78 88 79 53 80 54 81 68 83
REMARK SMILES IDX 89 84 56 85 40 86 41 87 49 88 42 89 43 90 47 91 50 92 44 93
REMARK SMILES IDX 45 94 48 95 46 96 72 97 73 98 81 99 74 100 75 101 79 102
REMARK SMILES IDX 82 103 76 104 77 105 80 106 78 107 57 108 58 109 66 110
REMARK SMILES IDX 59 111 60 112 64 113 67 114 61 115 62 116 65 117 63 118
REMARK H PARENT 10 18 100 32 104 37 87 71 55 82
REMARK Flexibility Score: inf
ROOT
ATOM      1  C   UNL A   1      45.125  42.194  38.046  1.00  0.00     0.188 C 
ENDROOT
BRANCH   1   2
ATOM      2  C   UNL A   1      44.109  42.099  36.915  1.00  0.00     0.188 C 
BRANCH   2   3
ATOM      3  O   UNL A   1      44.126  42.990  35.803  1.00  0.00    -0.376 OA
BRANCH   3   4
ATOM      4  C   UNL A   1      43.452  42.500  34.640  1.00  0.00     0.202 C 
BRANCH   4   5
ATOM      5  C   UNL A   1      42.918  43.535  33.627  1.00  0.00     0.261 C 
BRANCH   5   6
ATOM      6  O   UNL A   1      42.329  42.937  32.475  1.00  0.00    -0.460 OA
BRANCH   6   7
ATOM      7  C   UNL A   1      42.812  43.365  31.295  1.00  0.00     0.338 C 
ATOM      8  O   UNL A   1      42.963  44.504  30.921  1.00  0.00    -0.246 OA
BRANCH   7   9
ATOM      9  C   UNL A   1      43.495  42.187  30.718  1.00  0.00     0.062 A 
ATOM     10  C   UNL A   1      44.907  41.079  29.111  1.00  0.00     0.065 A 
ATOM     11  C   UNL A   1      44.346  42.246  29.600  1.00  0.00     0.044 A 
ATOM     12  C   UNL A   1      44.443  39.807  29.603  1.00  0.00     0.061 A 
ATOM     13  C   UNL A   1      43.425  39.806  30.574  1.00  0.00     0.029 A 
ATOM     14  C   UNL A   1      43.024  40.973  31.192  1.00  0.00     0.018 A 
BRANCH  10  15
ATOM     15  N   UNL A   1      45.944  41.107  28.161  1.00  0.00    -0.320 N 
ATOM     16  C   UNL A   1      46.173  41.748  26.955  1.00  0.00     0.255 C 
ATOM     17  O   UNL A   1      47.368  41.746  26.612  1.00  0.00    -0.269 OA
ATOM     18  H   UNL A   1      46.696  40.526  28.418  1.00  0.00     0.170 HD
BRANCH  16  19
ATOM     19  C   UNL A   1      45.220  42.453  26.023  1.00  0.00     0.043 A 
ATOM     20  C   UNL A   1      43.181  40.851  25.858  1.00  0.00     0.045 C 
ATOM     21  C   UNL A   1      44.004  42.034  25.456  1.00  0.00    -0.038 A 
ATOM     22  C   UNL A   1      43.377  42.840  24.473  1.00  0.00     0.004 A 
ATOM     23  C   UNL A   1      43.808  44.128  24.195  1.00  0.00     0.000 A 
ATOM     24  C   UNL A   1      45.597  43.799  25.761  1.00  0.00     0.014 A 
ATOM     25  C   UNL A   1      44.889  44.634  24.889  1.00  0.00     0.001 A 
ENDBRANCH  16  19
ENDBRANCH  10  15
BRANCH  12  26
ATOM     26  N   UNL A   1      45.089  38.573  29.289  1.00  0.00    -0.359 N 
ATOM     27  C   UNL A   1      45.193  38.201  27.834  1.00  0.00     0.178 C 
ATOM     28  C   UNL A   1      44.515  37.472  30.074  1.00  0.00     0.178 C 
ATOM     29  C   UNL A   1      45.601  36.726  27.569  1.00  0.00     0.284 C 
ATOM     30  C   UNL A   1      45.294  36.177  29.828  1.00  0.00     0.284 C 
ATOM     31  N   UNL A   1      45.076  35.701  28.482  1.00  0.00    -0.324 N 
ATOM     32  H   UNL A   1      45.611  34.868  28.234  1.00  0.00     0.348 HD
BRANCH  31  33
ATOM     33  C   UNL A   1      43.739  35.085  28.292  1.00  0.00     0.364 C 
BRANCH  33  34
ATOM     34  C   UNL A   1      43.373  33.715  28.894  1.00  0.00     0.279 C 
ATOM     35  O   UNL A   1      43.669  32.699  28.238  1.00  0.00    -0.268 OA
ATOM     36  N   UNL A   1      42.857  33.439  30.139  1.00  0.00    -0.321 N 
ATOM     37  H   UNL A   1      43.112  32.519  30.381  1.00  0.00     0.170 HD
BRANCH  36  38
ATOM     38  C   UNL A   1      42.093  33.988  31.210  1.00  0.00     0.041 A 
ATOM     39  C   UNL A   1      42.837  34.476  32.302  1.00  0.00     0.029 A 
ATOM     40  C   UNL A   1      40.713  33.977  31.392  1.00  0.00     0.029 A 
ATOM     41  C   UNL A   1      42.227  34.935  33.485  1.00  0.00     0.041 A 
ATOM     42  C   UNL A   1      40.089  34.383  32.587  1.00  0.00     0.041 A 
ATOM     43  C   UNL A   1      40.852  34.876  33.622  1.00  0.00     0.123 A 
ATOM     44  F   UNL A   1      40.263  35.289  34.751  1.00  0.00    -0.207 F 
ENDBRANCH  36  38
ENDBRANCH  33  34
ENDBRANCH  31  33
ENDBRANCH  12  26
ENDBRANCH   7   9
ENDBRANCH   6   7
ENDBRANCH   5   6
ENDBRANCH   4   5
ENDBRANCH   3   4
ENDBRANCH   2   3
ENDBRANCH   1   2
BRANCH   1  45
ATOM     45  O   UNL A   1      44.827  41.202  39.023  1.00  0.00    -0.377 OA
BRANCH  45  46
ATOM     46  C   UNL A   1      45.284  39.909  38.685  1.00  0.00     0.188 C 
BRANCH  46  47
ATOM     47  C   UNL A   1      44.314  38.768  39.001  1.00  0.00     0.188 C 
BRANCH  47  48
ATOM     48  O   UNL A   1      44.222  38.360  40.358  1.00  0.00    -0.376 OA
BRANCH  48  49
ATOM     49  C   UNL A   1      42.948  38.046  40.923  1.00  0.00     0.202 C 
BRANCH  49  50
ATOM     50  C   UNL A   1      41.918  39.182  40.976  1.00  0.00     0.261 C 
BRANCH  50  51
ATOM     51  O   UNL A   1      40.718  38.785  40.286  1.00  0.00    -0.460 OA
BRANCH  51  52
ATOM     52  C   UNL A   1      39.795  38.128  41.039  1.00  0.00     0.338 C 
ATOM     53  O   UNL A   1      39.645  38.260  42.242  1.00  0.00    -0.246 OA
BRANCH  52  54
ATOM     54  C   UNL A   1      39.221  36.990  40.252  1.00  0.00     0.060 A 
ATOM     55  C   UNL A   1      39.003  35.750  40.883  1.00  0.00     0.016 A 
ATOM     56  C   UNL A   1      39.332  37.038  38.869  1.00  0.00     0.016 A 
ATOM     57  C   UNL A   1      39.120  34.550  40.156  1.00  0.00     0.010 A 
ATOM     58  C   UNL A   1      39.570  35.858  38.195  1.00  0.00     0.010 A 
ATOM     59  C   UNL A   1      39.524  34.597  38.823  1.00  0.00    -0.014 A 
BRANCH  59  60
ATOM     60  C   UNL A   1      40.132  33.482  38.042  1.00  0.00     0.031 A 
ATOM     61  C   UNL A   1      39.231  32.711  37.098  1.00  0.00     0.074 A 
ATOM     62  C   UNL A   1      41.483  33.511  37.879  1.00  0.00     0.049 A 
ATOM     63  N   UNL A   1      39.596  31.900  36.162  1.00  0.00    -0.248 NA
ATOM     64  C   UNL A   1      37.767  32.801  37.166  1.00  0.00     0.031 C 
ATOM     65  C   UNL A   1      42.241  33.290  36.653  1.00  0.00     0.029 A 
ATOM     66  N   UNL A   1      42.499  33.826  38.791  1.00  0.00    -0.354 N 
ATOM     67  C   UNL A   1      38.502  31.640  35.331  1.00  0.00     0.074 A 
ATOM     68  C   UNL A   1      37.378  32.174  36.051  1.00  0.00     0.031 C 
ATOM     69  C   UNL A   1      43.558  33.339  36.863  1.00  0.00     0.029 A 
ATOM     70  C   UNL A   1      43.725  33.336  38.277  1.00  0.00     0.049 A 
ATOM     71  H   UNL A   1      42.381  34.304  39.643  1.00  0.00     0.167 HD
ATOM     72  C   UNL A   1      38.705  31.107  34.080  1.00  0.00     0.037 A 
ATOM     73  C   UNL A   1      44.397  32.323  38.890  1.00  0.00     0.037 A 
ATOM     74  C   UNL A   1      40.095  30.633  33.950  1.00  0.00     0.049 A 
ATOM     75  C   UNL A   1      44.286  30.985  38.158  1.00  0.00     0.074 A 
ATOM     76  C   UNL A   1      41.129  30.855  33.057  1.00  0.00     0.029 A 
ATOM     77  N   UNL A   1      40.659  29.908  35.002  1.00  0.00    -0.354 N 
ATOM     78  N   UNL A   1      43.364  30.723  37.250  1.00  0.00    -0.248 NA
ATOM     79  C   UNL A   1      45.221  29.873  38.304  1.00  0.00     0.031 C 
ATOM     80  C   UNL A   1      42.337  30.397  33.657  1.00  0.00     0.029 A 
ATOM     81  C   UNL A   1      42.024  29.794  34.865  1.00  0.00     0.049 A 
ATOM     82  H   UNL A   1      40.144  29.525  35.748  1.00  0.00     0.167 HD
ATOM     83  C   UNL A   1      43.560  29.475  36.714  1.00  0.00     0.074 A 
ATOM     84  C   UNL A   1      44.743  28.994  37.404  1.00  0.00     0.031 C 
ATOM     85  C   UNL A   1      42.767  28.906  35.748  1.00  0.00     0.037 A 
BRANCH  72  86
ATOM     86  C   UNL A   1      37.740  31.150  32.870  1.00  0.00     0.064 A 
ATOM     87  C   UNL A   1      37.545  30.001  32.054  1.00  0.00     0.173 A 
ATOM     88  C   UNL A   1      37.063  32.291  32.384  1.00  0.00     0.173 A 
ATOM     89  F   UNL A   1      38.062  28.812  32.387  1.00  0.00    -0.203 F 
ATOM     90  C   UNL A   1      36.798  30.012  30.861  1.00  0.00     0.198 A 
ATOM     91  C   UNL A   1      36.265  32.285  31.223  1.00  0.00     0.198 A 
ATOM     92  F   UNL A   1      37.158  33.481  32.981  1.00  0.00    -0.203 F 
ATOM     93  F   UNL A   1      36.713  28.899  30.116  1.00  0.00    -0.200 F 
ATOM     94  C   UNL A   1      36.150  31.152  30.450  1.00  0.00     0.200 A 
ATOM     95  F   UNL A   1      35.622  33.404  30.855  1.00  0.00    -0.200 F 
ATOM     96  F   UNL A   1      35.417  31.161  29.327  1.00  0.00    -0.200 F 
ENDBRANCH  72  86
BRANCH  73  97
ATOM     97  C   UNL A   1      44.747  32.760  40.286  1.00  0.00     0.064 A 
ATOM     98  C   UNL A   1      44.124  31.930  41.259  1.00  0.00     0.173 A 
ATOM     99  C   UNL A   1      46.091  33.102  40.527  1.00  0.00     0.173 A 
ATOM    100  F   UNL A   1      42.828  31.609  41.118  1.00  0.00    -0.203 F 
ATOM    101  C   UNL A   1      44.891  31.182  42.158  1.00  0.00     0.198 A 
ATOM    102  C   UNL A   1      46.849  32.371  41.455  1.00  0.00     0.198 A 
ATOM    103  F   UNL A   1      46.734  33.916  39.677  1.00  0.00    -0.203 F 
ATOM    104  F   UNL A   1      44.327  30.176  42.845  1.00  0.00    -0.200 F 
ATOM    105  C   UNL A   1      46.262  31.361  42.207  1.00  0.00     0.200 A 
ATOM    106  F   UNL A   1      48.182  32.518  41.490  1.00  0.00    -0.200 F 
ATOM    107  F   UNL A   1      47.028  30.498  42.895  1.00  0.00    -0.200 F 
ENDBRANCH  73  97
BRANCH  85 108
ATOM    108  C   UNL A   1      42.626  27.411  35.468  1.00  0.00     0.064 A 
ATOM    109  C   UNL A   1      43.433  26.712  34.559  1.00  0.00     0.173 A 
ATOM    110  C   UNL A   1      41.786  26.584  36.270  1.00  0.00     0.173 A 
ATOM    111  F   UNL A   1      44.391  27.323  33.853  1.00  0.00    -0.203 F 
ATOM    112  C   UNL A   1      43.339  25.327  34.391  1.00  0.00     0.198 A 
ATOM    113  C   UNL A   1      41.753  25.196  36.153  1.00  0.00     0.198 A 
ATOM    114  F   UNL A   1      40.993  27.079  37.229  1.00  0.00    -0.203 F 
ATOM    115  F   UNL A   1      44.094  24.726  33.462  1.00  0.00    -0.200 F 
ATOM    116  C   UNL A   1      42.510  24.569  35.193  1.00  0.00     0.200 A 
ATOM    117  F   UNL A   1      41.000  24.474  36.996  1.00  0.00    -0.200 F 
ATOM    118  F   UNL A   1      42.466  23.237  35.060  1.00  0.00    -0.200 F 
ENDBRANCH  85 108
ENDBRANCH  59  60
ENDBRANCH  52  54
ENDBRANCH  51  52
ENDBRANCH  50  51
ENDBRANCH  49  50
ENDBRANCH  48  49
ENDBRANCH  47  48
ENDBRANCH  46  47
ENDBRANCH  45  46
ENDBRANCH   1  45
TORSDOF 26
ENDMDL
MODEL 2
REMARK VINA RESULT:      -7.9      3.466      6.762
REMARK SMILES Cc1ccccc1C(=O)Nc1cc(C(=O)OCCOCCOCCOCCOC(=O)c2ccc(-c3c4nc(c(-c5c(F)c(F)c(F)c(F)c5F)c5ccc([nH]5)c(-c5c(F)c(F)c(F)c(F)c5F)c5nc(c(-c6c(F)c(F)c(F)c(F)c6F)c6ccc3[nH]6)C=C5)C=C4)cc2)ccc1N1CC[NH+](CC(=O)Nc2ccc(F)cc2)CC1
REMARK SMILES IDX 21 1 20 2 19 3 18 4 17 5 16 6 14 7 15 8 13 9 11 10 12 11
REMARK SMILES IDX 96 12 95 13 94 14 10 15 8 16 9 17 7 19 1 20 2 21 3 22 4 23
REMARK SMILES IDX 6 24 5 25 97 26 98 27 113 28 99 29 112 30 100 31 101 33
REMARK SMILES IDX 102 34 103 35 104 36 105 38 106 39 111 40 107 41 110 42
REMARK SMILES IDX 108 43 109 44 22 45 23 46 24 47 25 48 26 49 27 50 28 51
REMARK SMILES IDX 29 52 30 53 31 54 32 55 93 56 33 57 92 58 34 59 35 60 36 61
REMARK SMILES IDX 86 62 37 63 91 64 85 65 87 66 38 67 90 68 84 69 83 70 39 72
REMARK SMILES IDX 71 73 51 74 70 75 52 76 55 77 69 78 88 79 53 80 54 81 68 83
REMARK SMILES IDX 89 84 56 85 40 86 41 87 49 88 42 89 43 90 47 91 50 92 44 93
REMARK SMILES IDX 45 94 48 95 46 96 72 97 73 98 81 99 74 100 75 101 79 102
REMARK SMILES IDX 82 103 76 104 77 105 80 106 78 107 57 108 58 109 66 110
REMARK SMILES IDX 59 111 60 112 64 113 67 114 61 115 62 116 65 117 63 118
REMARK H PARENT 10 18 100 32 104 37 87 71 55 82
REMARK Flexibility Score: inf
ROOT
ATOM      1  C   UNL A   1      44.707  41.443  36.792  1.00  0.00     0.188 C 
ENDROOT
BRANCH   1   2
ATOM      2  C   UNL A   1      43.866  42.424  35.983  1.00  0.00     0.188 C 
BRANCH   2   3
ATOM      3  O   UNL A   1      44.073  42.630  34.589  1.00  0.00    -0.376 OA
BRANCH   3   4
ATOM      4  C   UNL A   1      43.700  43.930  34.120  1.00  0.00     0.202 C 
BRANCH   4   5
ATOM      5  C   UNL A   1      42.318  44.087  33.454  1.00  0.00     0.261 C 
BRANCH   5   6
ATOM      6  O   UNL A   1      42.283  43.596  32.116  1.00  0.00    -0.460 OA
BRANCH   6   7
ATOM      7  C   UNL A   1      42.313  42.256  31.996  1.00  0.00     0.338 C 
ATOM      8  O   UNL A   1      41.687  41.437  32.626  1.00  0.00    -0.246 OA
BRANCH   7   9
ATOM      9  C   UNL A   1      42.945  42.011  30.681  1.00  0.00     0.062 A 
ATOM     10  C   UNL A   1      43.234  40.812  28.612  1.00  0.00     0.065 A 
ATOM     11  C   UNL A   1      42.553  40.984  29.804  1.00  0.00     0.044 A 
ATOM     12  C   UNL A   1      44.464  41.527  28.387  1.00  0.00     0.061 A 
ATOM     13  C   UNL A   1      44.926  42.383  29.404  1.00  0.00     0.029 A 
ATOM     14  C   UNL A   1      44.135  42.695  30.490  1.00  0.00     0.018 A 
BRANCH  10  15
ATOM     15  N   UNL A   1      42.737  39.972  27.599  1.00  0.00    -0.320 N 
ATOM     16  C   UNL A   1      42.460  38.620  27.472  1.00  0.00     0.255 C 
ATOM     17  O   UNL A   1      41.717  38.354  26.512  1.00  0.00    -0.269 OA
ATOM     18  H   UNL A   1      42.534  40.469  26.774  1.00  0.00     0.170 HD
BRANCH  16  19
ATOM     19  C   UNL A   1      42.896  37.447  28.314  1.00  0.00     0.043 A 
ATOM     20  C   UNL A   1      45.083  38.256  29.461  1.00  0.00     0.045 C 
ATOM     21  C   UNL A   1      44.063  37.234  29.066  1.00  0.00    -0.038 A 
ATOM     22  C   UNL A   1      44.300  35.962  29.644  1.00  0.00     0.004 A 
ATOM     23  C   UNL A   1      43.326  34.975  29.671  1.00  0.00     0.000 A 
ATOM     24  C   UNL A   1      41.898  36.439  28.415  1.00  0.00     0.014 A 
ATOM     25  C   UNL A   1      42.094  35.237  29.106  1.00  0.00     0.001 A 
ENDBRANCH  16  19
ENDBRANCH  10  15
BRANCH  12  26
ATOM     26  N   UNL A   1      45.128  41.546  27.123  1.00  0.00    -0.359 N 
ATOM     27  C   UNL A   1      46.459  42.248  27.056  1.00  0.00     0.178 C 
ATOM     28  C   UNL A   1      44.226  42.027  26.069  1.00  0.00     0.178 C 
ATOM     29  C   UNL A   1      46.976  42.521  25.617  1.00  0.00     0.284 C 
ATOM     30  C   UNL A   1      44.902  41.925  24.699  1.00  0.00     0.284 C 
ATOM     31  N   UNL A   1      45.982  42.878  24.594  1.00  0.00    -0.324 N 
ATOM     32  H   UNL A   1      46.512  42.826  23.723  1.00  0.00     0.348 HD
BRANCH  31  33
ATOM     33  C   UNL A   1      45.513  44.273  24.403  1.00  0.00     0.364 C 
BRANCH  33  34
ATOM     34  C   UNL A   1      44.542  44.665  23.273  1.00  0.00     0.279 C 
ATOM     35  O   UNL A   1      43.325  44.669  23.534  1.00  0.00    -0.268 OA
ATOM     36  N   UNL A   1      44.841  45.138  22.015  1.00  0.00    -0.321 N 
ATOM     37  H   UNL A   1      44.074  45.667  21.696  1.00  0.00     0.170 HD
BRANCH  36  38
ATOM     38  C   UNL A   1      45.844  45.148  21.004  1.00  0.00     0.041 A 
ATOM     39  C   UNL A   1      45.386  45.369  19.691  1.00  0.00     0.029 A 
ATOM     40  C   UNL A   1      47.195  44.827  21.112  1.00  0.00     0.029 A 
ATOM     41  C   UNL A   1      46.234  45.287  18.571  1.00  0.00     0.041 A 
ATOM     42  C   UNL A   1      48.047  44.688  20.000  1.00  0.00     0.041 A 
ATOM     43  C   UNL A   1      47.563  44.936  18.735  1.00  0.00     0.123 A 
ATOM     44  F   UNL A   1      48.374  44.833  17.674  1.00  0.00    -0.207 F 
ENDBRANCH  36  38
ENDBRANCH  33  34
ENDBRANCH  31  33
ENDBRANCH  12  26
ENDBRANCH   7   9
ENDBRANCH   6   7
ENDBRANCH   5   6
ENDBRANCH   4   5
ENDBRANCH   3   4
ENDBRANCH   2   3
ENDBRANCH   1   2
BRANCH   1  45
ATOM     45  O   UNL A   1      44.370  40.114  36.406  1.00  0.00    -0.377 OA
BRANCH  45  46
ATOM     46  C   UNL A   1      44.987  39.116  37.191  1.00  0.00     0.188 C 
BRANCH  46  47
ATOM     47  C   UNL A   1      44.474  39.003  38.629  1.00  0.00     0.188 C 
BRANCH  47  48
ATOM     48  O   UNL A   1      45.159  38.103  39.487  1.00  0.00    -0.376 OA
BRANCH  48  49
ATOM     49  C   UNL A   1      44.420  37.171  40.278  1.00  0.00     0.202 C 
BRANCH  49  50
ATOM     50  C   UNL A   1      43.020  37.608  40.732  1.00  0.00     0.261 C 
BRANCH  50  51
ATOM     51  O   UNL A   1      42.076  36.547  40.491  1.00  0.00    -0.460 OA
BRANCH  51  52
ATOM     52  C   UNL A   1      40.796  36.799  40.876  1.00  0.00     0.338 C 
ATOM     53  O   UNL A   1      40.463  37.259  41.955  1.00  0.00    -0.246 OA
BRANCH  52  54
ATOM     54  C   UNL A   1      39.845  36.129  39.932  1.00  0.00     0.060 A 
ATOM     55  C   UNL A   1      39.647  34.737  40.017  1.00  0.00     0.016 A 
ATOM     56  C   UNL A   1      39.534  36.788  38.751  1.00  0.00     0.016 A 
ATOM     57  C   UNL A   1      39.355  33.986  38.862  1.00  0.00     0.010 A 
ATOM     58  C   UNL A   1      39.374  36.032  37.607  1.00  0.00     0.010 A 
ATOM     59  C   UNL A   1      39.334  34.623  37.622  1.00  0.00    -0.014 A 
BRANCH  59  60
ATOM     60  C   UNL A   1      39.499  33.975  36.290  1.00  0.00     0.031 A 
ATOM     61  C   UNL A   1      38.252  33.737  35.463  1.00  0.00     0.074 A 
ATOM     62  C   UNL A   1      40.734  34.046  35.721  1.00  0.00     0.049 A 
ATOM     63  N   UNL A   1      38.194  33.434  34.210  1.00  0.00    -0.248 NA
ATOM     64  C   UNL A   1      36.903  33.817  36.041  1.00  0.00     0.031 C 
ATOM     65  C   UNL A   1      41.064  34.392  34.344  1.00  0.00     0.029 A 
ATOM     66  N   UNL A   1      42.005  33.889  36.290  1.00  0.00    -0.354 N 
ATOM     67  C   UNL A   1      36.882  33.604  33.759  1.00  0.00     0.074 A 
ATOM     68  C   UNL A   1      36.114  33.775  34.962  1.00  0.00     0.031 C 
ATOM     69  C   UNL A   1      42.375  34.313  34.108  1.00  0.00     0.029 A 
ATOM     70  C   UNL A   1      42.934  33.662  35.244  1.00  0.00     0.049 A 
ATOM     71  H   UNL A   1      42.215  33.929  37.250  1.00  0.00     0.167 HD
ATOM     72  C   UNL A   1      36.630  33.696  32.410  1.00  0.00     0.037 A 
ATOM     73  C   UNL A   1      43.573  32.467  35.111  1.00  0.00     0.037 A 
ATOM     74  C   UNL A   1      37.825  33.304  31.642  1.00  0.00     0.049 A 
ATOM     75  C   UNL A   1      43.035  31.613  33.963  1.00  0.00     0.074 A 
ATOM     76  C   UNL A   1      38.585  33.887  30.642  1.00  0.00     0.029 A 
ATOM     77  N   UNL A   1      38.535  32.168  32.036  1.00  0.00    -0.354 N 
ATOM     78  N   UNL A   1      41.864  31.812  33.389  1.00  0.00    -0.248 NA
ATOM     79  C   UNL A   1      43.773  30.536  33.306  1.00  0.00     0.031 C 
ATOM     80  C   UNL A   1      39.819  33.181  30.557  1.00  0.00     0.029 A 
ATOM     81  C   UNL A   1      39.765  32.100  31.423  1.00  0.00     0.049 A 
ATOM     82  H   UNL A   1      38.196  31.498  32.673  1.00  0.00     0.167 HD
ATOM     83  C   UNL A   1      41.687  30.941  32.343  1.00  0.00     0.074 A 
ATOM     84  C   UNL A   1      42.919  30.174  32.332  1.00  0.00     0.031 C 
ATOM     85  C   UNL A   1      40.569  30.892  31.547  1.00  0.00     0.037 A 
BRANCH  72  86
ATOM     86  C   UNL A   1      35.382  34.305  31.724  1.00  0.00     0.064 A 
ATOM     87  C   UNL A   1      34.861  33.742  30.526  1.00  0.00     0.173 A 
ATOM     88  C   UNL A   1      34.714  35.490  32.111  1.00  0.00     0.173 A 
ATOM     89  F   UNL A   1      35.331  32.588  30.037  1.00  0.00    -0.203 F 
ATOM     90  C   UNL A   1      33.825  34.329  29.777  1.00  0.00     0.198 A 
ATOM     91  C   UNL A   1      33.635  36.042  31.393  1.00  0.00     0.198 A 
ATOM     92  F   UNL A   1      35.083  36.195  33.182  1.00  0.00    -0.203 F 
ATOM     93  F   UNL A   1      33.432  33.766  28.624  1.00  0.00    -0.200 F 
ATOM     94  C   UNL A   1      33.204  35.475  30.216  1.00  0.00     0.200 A 
ATOM     95  F   UNL A   1      33.029  37.147  31.854  1.00  0.00    -0.200 F 
ATOM     96  F   UNL A   1      32.200  36.024  29.518  1.00  0.00    -0.200 F 
ENDBRANCH  72  86
BRANCH  73  97
ATOM     97  C   UNL A   1      44.372  32.213  36.359  1.00  0.00     0.064 A 
ATOM     98  C   UNL A   1      44.025  30.967  36.951  1.00  0.00     0.173 A 
ATOM     99  C   UNL A   1      45.746  32.516  36.306  1.00  0.00     0.173 A 
ATOM    100  F   UNL A   1      42.729  30.637  37.080  1.00  0.00    -0.203 F 
ATOM    101  C   UNL A   1      44.976  29.952  37.092  1.00  0.00     0.198 A 
ATOM    102  C   UNL A   1      46.699  31.502  36.484  1.00  0.00     0.198 A 
ATOM    103  F   UNL A   1      46.150  33.692  35.802  1.00  0.00    -0.203 F 
ATOM    104  F   UNL A   1      44.583  28.694  37.347  1.00  0.00    -0.200 F 
ATOM    105  C   UNL A   1      46.304  30.207  36.796  1.00  0.00     0.200 A 
ATOM    106  F   UNL A   1      47.984  31.732  36.172  1.00  0.00    -0.200 F 
ATOM    107  F   UNL A   1      47.180  29.193  36.709  1.00  0.00    -0.200 F 
ENDBRANCH  73  97
BRANCH  85 108
ATOM    108  C   UNL A   1      40.106  29.692  30.723  1.00  0.00     0.064 A 
ATOM    109  C   UNL A   1      40.594  29.395  29.443  1.00  0.00     0.173 A 
ATOM    110  C   UNL A   1      39.283  28.677  31.293  1.00  0.00     0.173 A 
ATOM    111  F   UNL A   1      41.507  30.165  28.841  1.00  0.00    -0.203 F 
ATOM    112  C   UNL A   1      40.217  28.239  28.751  1.00  0.00     0.198 A 
ATOM    113  C   UNL A   1      38.974  27.490  30.630  1.00  0.00     0.198 A 
ATOM    114  F   UNL A   1      38.780  28.768  32.530  1.00  0.00    -0.203 F 
ATOM    115  F   UNL A   1      40.670  28.043  27.506  1.00  0.00    -0.200 F 
ATOM    116  C   UNL A   1      39.418  27.284  29.346  1.00  0.00     0.200 A 
ATOM    117  F   UNL A   1      38.262  26.543  31.259  1.00  0.00    -0.200 F 
ATOM    118  F   UNL A   1      39.105  26.157  28.696  1.00  0.00    -0.200 F 
ENDBRANCH  85 108
ENDBRANCH  59  60
ENDBRANCH  52  54
ENDBRANCH  51  52
ENDBRANCH  50  51
ENDBRANCH  49  50
ENDBRANCH  48  49
ENDBRANCH  47  48
ENDBRANCH  46  47
ENDBRANCH  45  46
ENDBRANCH   1  45
TORSDOF 26
ENDMDL
MODEL 3
REMARK VINA RESULT:      -7.6      7.713     13.775
REMARK SMILES Cc1ccccc1C(=O)Nc1cc(C(=O)OCCOCCOCCOCCOC(=O)c2ccc(-c3c4nc(c(-c5c(F)c(F)c(F)c(F)c5F)c5ccc([nH]5)c(-c5c(F)c(F)c(F)c(F)c5F)c5nc(c(-c6c(F)c(F)c(F)c(F)c6F)c6ccc3[nH]6)C=C5)C=C4)cc2)ccc1N1CC[NH+](CC(=O)Nc2ccc(F)cc2)CC1
REMARK SMILES IDX 21 1 20 2 19 3 18 4 17 5 16 6 14 7 15 8 13 9 11 10 12 11
REMARK SMILES IDX 96 12 95 13 94 14 10 15 8 16 9 17 7 19 1 20 2 21 3 22 4 23
REMARK SMILES IDX 6 24 5 25 97 26 98 27 113 28 99 29 112 30 100 31 101 33
REMARK SMILES IDX 102 34 103 35 104 36 105 38 106 39 111 40 107 41 110 42
REMARK SMILES IDX 108 43 109 44 22 45 23 46 24 47 25 48 26 49 27 50 28 51
REMARK SMILES IDX 29 52 30 53 31 54 32 55 93 56 33 57 92 58 34 59 35 60 36 61
REMARK SMILES IDX 86 62 37 63 91 64 85 65 87 66 38 67 90 68 84 69 83 70 39 72
REMARK SMILES IDX 71 73 51 74 70 75 52 76 55 77 69 78 88 79 53 80 54 81 68 83
REMARK SMILES IDX 89 84 56 85 40 86 41 87 49 88 42 89 43 90 47 91 50 92 44 93
REMARK SMILES IDX 45 94 48 95 46 96 72 97 73 98 81 99 74 100 75 101 79 102
REMARK SMILES IDX 82 103 76 104 77 105 80 106 78 107 57 108 58 109 66 110
REMARK SMILES IDX 59 111 60 112 64 113 67 114 61 115 62 116 65 117 63 118
REMARK H PARENT 10 18 100 32 104 37 87 71 55 82
REMARK Flexibility Score: inf
ROOT
ATOM      1  C   UNL A   1      45.302  36.397  27.948  1.00  0.00     0.188 C 
ENDROOT
BRANCH   1   2
ATOM      2  C   UNL A   1      44.452  35.650  26.927  1.00  0.00     0.188 C 
BRANCH   2   3
ATOM      3  O   UNL A   1      44.147  34.265  27.063  1.00  0.00    -0.376 OA
BRANCH   3   4
ATOM      4  C   UNL A   1      43.984  33.569  25.823  1.00  0.00     0.202 C 
BRANCH   4   5
ATOM      5  C   UNL A   1      44.620  32.169  25.693  1.00  0.00     0.261 C 
BRANCH   5   6
ATOM      6  O   UNL A   1      44.112  31.235  26.643  1.00  0.00    -0.460 OA
BRANCH   6   7
ATOM      7  C   UNL A   1      45.034  30.677  27.449  1.00  0.00     0.338 C 
ATOM      8  O   UNL A   1      45.448  31.091  28.505  1.00  0.00    -0.246 OA
BRANCH   7   9
ATOM      9  C   UNL A   1      45.133  29.274  26.991  1.00  0.00     0.062 A 
ATOM     10  C   UNL A   1      45.846  27.539  25.479  1.00  0.00     0.065 A 
ATOM     11  C   UNL A   1      45.846  28.874  25.847  1.00  0.00     0.044 A 
ATOM     12  C   UNL A   1      44.945  26.623  26.130  1.00  0.00     0.061 A 
ATOM     13  C   UNL A   1      44.092  27.132  27.126  1.00  0.00     0.029 A 
ATOM     14  C   UNL A   1      44.248  28.411  27.617  1.00  0.00     0.018 A 
BRANCH  10  15
ATOM     15  N   UNL A   1      46.729  27.050  24.500  1.00  0.00    -0.320 N 
ATOM     16  C   UNL A   1      47.933  26.365  24.496  1.00  0.00     0.255 C 
ATOM     17  O   UNL A   1      48.200  25.836  23.404  1.00  0.00    -0.269 OA
ATOM     18  H   UNL A   1      46.411  27.240  23.588  1.00  0.00     0.170 HD
BRANCH  16  19
ATOM     19  C   UNL A   1      48.941  26.148  25.597  1.00  0.00     0.043 A 
ATOM     20  C   UNL A   1      50.760  27.952  25.167  1.00  0.00     0.045 C 
ATOM     21  C   UNL A   1      50.198  26.732  25.826  1.00  0.00    -0.038 A 
ATOM     22  C   UNL A   1      51.024  26.229  26.862  1.00  0.00     0.004 A 
ATOM     23  C   UNL A   1      50.558  25.317  27.796  1.00  0.00     0.000 A 
ATOM     24  C   UNL A   1      48.473  25.264  26.609  1.00  0.00     0.014 A 
ATOM     25  C   UNL A   1      49.252  24.878  27.705  1.00  0.00     0.001 A 
ENDBRANCH  16  19
ENDBRANCH  10  15
BRANCH  12  26
ATOM     26  N   UNL A   1      45.009  25.209  25.941  1.00  0.00    -0.359 N 
ATOM     27  C   UNL A   1      44.109  24.614  24.890  1.00  0.00     0.178 C 
ATOM     28  C   UNL A   1      44.858  24.506  27.221  1.00  0.00     0.178 C 
ATOM     29  C   UNL A   1      43.978  23.068  24.949  1.00  0.00     0.284 C 
ATOM     30  C   UNL A   1      45.053  23.000  27.031  1.00  0.00     0.284 C 
ATOM     31  N   UNL A   1      43.958  22.437  26.276  1.00  0.00    -0.324 N 
ATOM     32  H   UNL A   1      44.053  21.443  26.066  1.00  0.00     0.348 HD
BRANCH  31  33
ATOM     33  C   UNL A   1      42.711  22.306  27.069  1.00  0.00     0.364 C 
BRANCH  33  34
ATOM     34  C   UNL A   1      41.319  22.555  26.457  1.00  0.00     0.279 C 
ATOM     35  O   UNL A   1      40.764  21.601  25.881  1.00  0.00    -0.268 OA
ATOM     36  N   UNL A   1      40.528  23.676  26.561  1.00  0.00    -0.321 N 
ATOM     37  H   UNL A   1      39.590  23.403  26.439  1.00  0.00     0.170 HD
BRANCH  36  38
ATOM     38  C   UNL A   1      40.560  25.084  26.779  1.00  0.00     0.041 A 
ATOM     39  C   UNL A   1      39.903  25.537  27.940  1.00  0.00     0.029 A 
ATOM     40  C   UNL A   1      41.023  26.088  25.933  1.00  0.00     0.029 A 
ATOM     41  C   UNL A   1      39.742  26.904  28.231  1.00  0.00     0.041 A 
ATOM     42  C   UNL A   1      40.823  27.460  26.180  1.00  0.00     0.041 A 
ATOM     43  C   UNL A   1      40.197  27.859  27.340  1.00  0.00     0.123 A 
ATOM     44  F   UNL A   1      40.029  29.162  27.596  1.00  0.00    -0.207 F 
ENDBRANCH  36  38
ENDBRANCH  33  34
ENDBRANCH  31  33
ENDBRANCH  12  26
ENDBRANCH   7   9
ENDBRANCH   6   7
ENDBRANCH   5   6
ENDBRANCH   4   5
ENDBRANCH   3   4
ENDBRANCH   2   3
ENDBRANCH   1   2
BRANCH   1  45
ATOM     45  O   UNL A   1      46.541  35.715  28.110  1.00  0.00    -0.377 OA
BRANCH  45  46
ATOM     46  C   UNL A   1      47.614  36.301  27.403  1.00  0.00     0.188 C 
BRANCH  46  47
ATOM     47  C   UNL A   1      47.769  35.843  25.950  1.00  0.00     0.188 C 
BRANCH  47  48
ATOM     48  O   UNL A   1      47.607  34.457  25.692  1.00  0.00    -0.376 OA
BRANCH  48  49
ATOM     49  C   UNL A   1      48.611  33.531  26.111  1.00  0.00     0.202 C 
BRANCH  49  50
ATOM     50  C   UNL A   1      48.162  32.408  27.056  1.00  0.00     0.261 C 
BRANCH  50  51
ATOM     51  O   UNL A   1      48.784  31.168  26.669  1.00  0.00    -0.460 OA
BRANCH  51  52
ATOM     52  C   UNL A   1      49.589  30.594  27.604  1.00  0.00     0.338 C 
ATOM     53  O   UNL A   1      50.788  30.405  27.480  1.00  0.00    -0.246 OA
BRANCH  52  54
ATOM     54  C   UNL A   1      48.751  29.932  28.654  1.00  0.00     0.060 A 
ATOM     55  C   UNL A   1      48.650  30.515  29.932  1.00  0.00     0.016 A 
ATOM     56  C   UNL A   1      48.466  28.582  28.498  1.00  0.00     0.016 A 
ATOM     57  C   UNL A   1      48.486  29.707  31.073  1.00  0.00     0.010 A 
ATOM     58  C   UNL A   1      48.433  27.791  29.628  1.00  0.00     0.010 A 
ATOM     59  C   UNL A   1      48.496  28.320  30.933  1.00  0.00    -0.014 A 
BRANCH  59  60
ATOM     60  C   UNL A   1      48.791  27.324  32.002  1.00  0.00     0.031 A 
ATOM     61  C   UNL A   1      50.220  26.836  32.135  1.00  0.00     0.074 A 
ATOM     62  C   UNL A   1      47.912  27.255  33.038  1.00  0.00     0.049 A 
ATOM     63  N   UNL A   1      50.733  26.189  33.127  1.00  0.00    -0.248 NA
ATOM     64  C   UNL A   1      51.221  27.050  31.080  1.00  0.00     0.031 C 
ATOM     65  C   UNL A   1      48.213  27.202  34.464  1.00  0.00     0.029 A 
ATOM     66  N   UNL A   1      46.511  27.291  33.042  1.00  0.00    -0.354 N 
ATOM     67  C   UNL A   1      52.126  26.197  33.006  1.00  0.00     0.074 A 
ATOM     68  C   UNL A   1      52.362  26.688  31.675  1.00  0.00     0.031 C 
ATOM     69  C   UNL A   1      47.109  27.086  35.205  1.00  0.00     0.029 A 
ATOM     70  C   UNL A   1      46.057  26.795  34.290  1.00  0.00     0.049 A 
ATOM     71  H   UNL A   1      45.941  27.606  32.305  1.00  0.00     0.167 HD
ATOM     72  C   UNL A   1      52.908  25.898  34.097  1.00  0.00     0.037 A 
ATOM     73  C   UNL A   1      45.368  25.624  34.379  1.00  0.00     0.037 A 
ATOM     74  C   UNL A   1      52.080  25.328  35.175  1.00  0.00     0.049 A 
ATOM     75  C   UNL A   1      46.198  24.469  34.939  1.00  0.00     0.074 A 
ATOM     76  C   UNL A   1      51.873  25.618  36.512  1.00  0.00     0.029 A 
ATOM     77  N   UNL A   1      51.123  24.365  34.850  1.00  0.00    -0.354 N 
ATOM     78  N   UNL A   1      47.516  24.474  34.992  1.00  0.00    -0.248 NA
ATOM     79  C   UNL A   1      45.645  23.266  35.555  1.00  0.00     0.031 C 
ATOM     80  C   UNL A   1      50.692  24.942  36.933  1.00  0.00     0.029 A 
ATOM     81  C   UNL A   1      50.245  24.150  35.887  1.00  0.00     0.049 A 
ATOM     82  H   UNL A   1      51.082  23.896  33.985  1.00  0.00     0.167 HD
ATOM     83  C   UNL A   1      47.976  23.339  35.612  1.00  0.00     0.074 A 
ATOM     84  C   UNL A   1      46.759  22.625  35.952  1.00  0.00     0.031 C 
ATOM     85  C   UNL A   1      49.301  23.044  35.819  1.00  0.00     0.037 A 
BRANCH  72  86
ATOM     86  C   UNL A   1      54.397  26.263  34.317  1.00  0.00     0.064 A 
ATOM     87  C   UNL A   1      54.831  27.616  34.262  1.00  0.00     0.173 A 
ATOM     88  C   UNL A   1      55.464  25.349  34.477  1.00  0.00     0.173 A 
ATOM     89  F   UNL A   1      53.956  28.626  34.171  1.00  0.00    -0.203 F 
ATOM     90  C   UNL A   1      56.183  28.002  34.309  1.00  0.00     0.198 A 
ATOM     91  C   UNL A   1      56.813  25.742  34.586  1.00  0.00     0.198 A 
ATOM     92  F   UNL A   1      55.270  24.029  34.504  1.00  0.00    -0.203 F 
ATOM     93  F   UNL A   1      56.513  29.298  34.188  1.00  0.00    -0.200 F 
ATOM     94  C   UNL A   1      57.175  27.066  34.481  1.00  0.00     0.200 A 
ATOM     95  F   UNL A   1      57.760  24.812  34.778  1.00  0.00    -0.200 F 
ATOM     96  F   UNL A   1      58.462  27.431  34.550  1.00  0.00    -0.200 F 
ENDBRANCH  72  86
BRANCH  73  97
ATOM     97  C   UNL A   1      44.109  25.751  33.567  1.00  0.00     0.064 A 
ATOM     98  C   UNL A   1      43.348  26.885  33.965  1.00  0.00     0.173 A 
ATOM     99  C   UNL A   1      44.222  25.532  32.181  1.00  0.00     0.173 A 
ATOM    100  F   UNL A   1      43.157  27.123  35.273  1.00  0.00    -0.203 F 
ATOM    101  C   UNL A   1      43.084  27.921  33.064  1.00  0.00     0.198 A 
ATOM    102  C   UNL A   1      43.922  26.563  31.277  1.00  0.00     0.198 A 
ATOM    103  F   UNL A   1      44.887  24.458  31.728  1.00  0.00    -0.203 F 
ATOM    104  F   UNL A   1      42.655  29.110  33.517  1.00  0.00    -0.200 F 
ATOM    105  C   UNL A   1      43.431  27.781  31.732  1.00  0.00     0.200 A 
ATOM    106  F   UNL A   1      44.281  26.446  29.990  1.00  0.00    -0.200 F 
ATOM    107  F   UNL A   1      43.392  28.842  30.912  1.00  0.00    -0.200 F 
ENDBRANCH  73  97
BRANCH  85 108
ATOM    108  C   UNL A   1      49.886  21.650  36.042  1.00  0.00     0.064 A 
ATOM    109  C   UNL A   1      50.622  20.953  35.073  1.00  0.00     0.173 A 
ATOM    110  C   UNL A   1      49.888  21.046  37.333  1.00  0.00     0.173 A 
ATOM    111  F   UNL A   1      50.855  21.469  33.860  1.00  0.00    -0.203 F 
ATOM    112  C   UNL A   1      51.221  19.718  35.337  1.00  0.00     0.198 A 
ATOM    113  C   UNL A   1      50.553  19.854  37.611  1.00  0.00     0.198 A 
ATOM    114  F   UNL A   1      49.285  21.605  38.390  1.00  0.00    -0.203 F 
ATOM    115  F   UNL A   1      51.858  19.073  34.351  1.00  0.00    -0.200 F 
ATOM    116  C   UNL A   1      51.197  19.174  36.605  1.00  0.00     0.200 A 
ATOM    117  F   UNL A   1      50.582  19.386  38.868  1.00  0.00    -0.200 F 
ATOM    118  F   UNL A   1      51.817  18.015  36.862  1.00  0.00    -0.200 F 
ENDBRANCH  85 108
ENDBRANCH  59  60
ENDBRANCH  52  54
ENDBRANCH  51  52
ENDBRANCH  50  51
ENDBRANCH  49  50
ENDBRANCH  48  49
ENDBRANCH  47  48
ENDBRANCH  46  47
ENDBRANCH  45  46
ENDBRANCH   1  45
TORSDOF 26
ENDMDL
