MODEL 1
REMARK VINA RESULT:     -11.5      0.000      0.000
REMARK SMILES Cc1ccnc(C(=O)c2[nH]c3cc(Cl)c(F)cc3c2CC(=O)OCCOCCOCCOCCOC(=O)c2ccc(-c3c4nc(c(-c5c(F)c(F)c(F)c(F)c5F)c5ccc([nH]5)c(-c5c(F)c(F)c(F)c(F)c5F)c5nc(c(-c6c(F)c(F)c(F)c(F)c6F)c6ccc3[nH]6)C=C5)C=C4)cc2)c1
REMARK SMILES IDX 28 1 27 2 26 3 25 4 24 5 23 6 21 7 22 8 20 9 19 10 9 11
REMARK SMILES IDX 10 12 11 13 18 15 12 16 17 17 13 18 15 19 14 20 16 21 7 22
REMARK SMILES IDX 8 23 6 24 1 25 2 26 3 27 101 28 4 29 5 30 29 31 30 32 31 33
REMARK SMILES IDX 32 34 33 35 34 36 35 37 36 38 37 39 38 40 39 41 100 42 40 43
REMARK SMILES IDX 99 44 41 45 42 46 43 47 93 48 44 49 98 50 92 51 94 52 45 53
REMARK SMILES IDX 97 54 91 55 90 56 46 58 78 59 58 60 77 61 59 62 62 63 76 64
REMARK SMILES IDX 95 65 60 66 61 67 75 69 96 70 63 71 47 72 48 73 56 74 49 75
REMARK SMILES IDX 50 76 54 77 57 78 51 79 52 80 55 81 53 82 79 83 80 84 88 85
REMARK SMILES IDX 81 86 82 87 86 88 89 89 83 90 84 91 87 92 85 93 64 94 65 95
REMARK SMILES IDX 73 96 66 97 67 98 71 99 74 100 68 101 69 102 72 103 70 104
REMARK H PARENT 10 14 94 57 62 68
REMARK Flexibility Score: inf
ROOT
ATOM      1  C   UNL A   1      32.602  28.964  23.019  1.00  0.00     0.188 C 
ENDROOT
BRANCH   1   2
ATOM      2  C   UNL A   1      33.789  28.010  23.124  1.00  0.00     0.188 C 
BRANCH   2   3
ATOM      3  O   UNL A   1      33.625  27.080  24.167  1.00  0.00    -0.376 OA
BRANCH   3   4
ATOM      4  C   UNL A   1      34.285  25.858  23.876  1.00  0.00     0.202 C 
BRANCH   4   5
ATOM      5  C   UNL A   1      34.695  25.137  25.168  1.00  0.00     0.261 C 
BRANCH   5   6
ATOM      6  O   UNL A   1      35.888  24.322  24.952  1.00  0.00    -0.463 OA
BRANCH   6   7
ATOM      7  C   UNL A   1      35.675  23.085  24.432  1.00  0.00     0.310 C 
ATOM      8  O   UNL A   1      35.823  22.842  23.237  1.00  0.00    -0.252 OA
BRANCH   7   9
ATOM      9  C   UNL A   1      35.359  21.975  25.442  1.00  0.00     0.161 C 
BRANCH   9  10
ATOM     10  C   UNL A   1      34.039  21.215  25.394  1.00  0.00     0.000 A 
ATOM     11  C   UNL A   1      32.736  21.618  25.792  1.00  0.00     0.093 A 
ATOM     12  N   UNL A   1      31.985  20.450  25.829  1.00  0.00    -0.351 N 
ATOM     13  C   UNL A   1      32.697  19.354  25.402  1.00  0.00     0.048 A 
ATOM     14  H   UNL A   1      31.048  20.410  26.127  1.00  0.00     0.167 HD
ATOM     15  C   UNL A   1      33.980  19.796  25.098  1.00  0.00     0.007 A 
ATOM     16  C   UNL A   1      32.310  18.006  25.310  1.00  0.00     0.050 A 
ATOM     17  C   UNL A   1      34.926  18.839  24.661  1.00  0.00     0.051 A 
ATOM     18  C   UNL A   1      33.263  17.083  24.865  1.00  0.00     0.078 A 
ATOM     19  C   UNL A   1      34.548  17.497  24.540  1.00  0.00     0.142 A 
ATOM     20  Cl  UNL A   1      32.823  15.420  24.736  1.00  0.00    -0.081 Cl
ATOM     21  F   UNL A   1      35.464  16.613  24.113  1.00  0.00    -0.205 F 
BRANCH  11  22
ATOM     22  C   UNL A   1      32.156  22.829  26.431  1.00  0.00     0.227 C 
ATOM     23  O   UNL A   1      32.225  22.918  27.658  1.00  0.00    -0.285 OA
BRANCH  22  24
ATOM     24  C   UNL A   1      31.337  23.901  25.697  1.00  0.00     0.113 A 
ATOM     25  C   UNL A   1      30.968  25.595  22.278  1.00  0.00     0.044 C 
ATOM     26  C   UNL A   1      30.733  25.190  23.714  1.00  0.00    -0.047 A 
ATOM     27  C   UNL A   1      29.984  26.035  24.513  1.00  0.00     0.023 A 
ATOM     28  C   UNL A   1      31.323  24.056  24.323  1.00  0.00     0.036 A 
ATOM     29  C   UNL A   1      29.924  25.751  25.863  1.00  0.00     0.112 A 
ATOM     30  N   UNL A   1      30.605  24.742  26.473  1.00  0.00    -0.253 NA
ENDBRANCH  22  24
ENDBRANCH  11  22
ENDBRANCH   9  10
ENDBRANCH   7   9
ENDBRANCH   6   7
ENDBRANCH   5   6
ENDBRANCH   4   5
ENDBRANCH   3   4
ENDBRANCH   2   3
ENDBRANCH   1   2
BRANCH   1  31
ATOM     31  O   UNL A   1      31.975  29.111  24.290  1.00  0.00    -0.377 OA
BRANCH  31  32
ATOM     32  C   UNL A   1      32.810  29.748  25.259  1.00  0.00     0.188 C 
BRANCH  32  33
ATOM     33  C   UNL A   1      31.933  30.573  26.201  1.00  0.00     0.188 C 
BRANCH  33  34
ATOM     34  O   UNL A   1      32.637  31.298  27.202  1.00  0.00    -0.376 OA
BRANCH  34  35
ATOM     35  C   UNL A   1      33.936  30.802  27.526  1.00  0.00     0.202 C 
BRANCH  35  36
ATOM     36  C   UNL A   1      34.991  31.857  27.912  1.00  0.00     0.261 C 
BRANCH  36  37
ATOM     37  O   UNL A   1      36.331  31.345  27.741  1.00  0.00    -0.460 OA
BRANCH  37  38
ATOM     38  C   UNL A   1      37.259  31.818  28.642  1.00  0.00     0.338 C 
ATOM     39  O   UNL A   1      37.162  32.797  29.323  1.00  0.00    -0.246 OA
BRANCH  38  40
ATOM     40  C   UNL A   1      38.221  30.698  28.902  1.00  0.00     0.060 A 
ATOM     41  C   UNL A   1      39.478  30.938  29.450  1.00  0.00     0.016 A 
ATOM     42  C   UNL A   1      37.954  29.465  28.273  1.00  0.00     0.016 A 
ATOM     43  C   UNL A   1      40.488  29.990  29.271  1.00  0.00     0.010 A 
ATOM     44  C   UNL A   1      38.973  28.514  28.102  1.00  0.00     0.010 A 
ATOM     45  C   UNL A   1      40.256  28.780  28.579  1.00  0.00    -0.014 A 
BRANCH  45  46
ATOM     46  C   UNL A   1      41.318  27.754  28.670  1.00  0.00     0.031 A 
ATOM     47  C   UNL A   1      41.998  27.778  29.994  1.00  0.00     0.074 A 
ATOM     48  C   UNL A   1      41.659  26.744  27.839  1.00  0.00     0.049 A 
ATOM     49  N   UNL A   1      43.254  27.956  30.244  1.00  0.00    -0.248 NA
ATOM     50  C   UNL A   1      41.138  27.702  31.186  1.00  0.00     0.031 C 
ATOM     51  C   UNL A   1      40.988  26.309  26.621  1.00  0.00     0.029 A 
ATOM     52  N   UNL A   1      42.672  25.817  27.978  1.00  0.00    -0.354 N 
ATOM     53  C   UNL A   1      43.370  27.881  31.624  1.00  0.00     0.074 A 
ATOM     54  C   UNL A   1      42.031  27.845  32.161  1.00  0.00     0.031 C 
ATOM     55  C   UNL A   1      41.482  25.109  26.236  1.00  0.00     0.029 A 
ATOM     56  C   UNL A   1      42.565  24.722  27.129  1.00  0.00     0.049 A 
ATOM     57  H   UNL A   1      43.406  25.922  28.626  1.00  0.00     0.167 HD
ATOM     58  C   UNL A   1      44.557  27.663  32.243  1.00  0.00     0.037 A 
ATOM     59  C   UNL A   1      43.260  23.554  27.179  1.00  0.00     0.037 A 
ATOM     60  C   UNL A   1      45.686  27.973  31.415  1.00  0.00     0.049 A 
ATOM     61  C   UNL A   1      44.500  23.768  27.963  1.00  0.00     0.074 A 
ATOM     62  C   UNL A   1      46.111  29.108  30.750  1.00  0.00     0.029 A 
ATOM     63  N   UNL A   1      46.445  26.950  30.907  1.00  0.00    -0.354 N 
ATOM     64  N   UNL A   1      45.557  24.393  27.533  1.00  0.00    -0.248 NA
ATOM     65  C   UNL A   1      44.449  23.553  29.400  1.00  0.00     0.031 C 
ATOM     66  C   UNL A   1      46.731  28.634  29.557  1.00  0.00     0.029 A 
ATOM     67  C   UNL A   1      46.670  27.242  29.585  1.00  0.00     0.049 A 
ATOM     68  H   UNL A   1      46.767  26.159  31.396  1.00  0.00     0.167 HD
ATOM     69  C   UNL A   1      46.045  25.052  28.646  1.00  0.00     0.074 A 
ATOM     70  C   UNL A   1      45.411  24.393  29.782  1.00  0.00     0.031 C 
ATOM     71  C   UNL A   1      46.696  26.248  28.536  1.00  0.00     0.037 A 
BRANCH  58  72
ATOM     72  C   UNL A   1      44.646  26.893  33.524  1.00  0.00     0.064 A 
ATOM     73  C   UNL A   1      44.302  25.534  33.565  1.00  0.00     0.173 A 
ATOM     74  C   UNL A   1      44.841  27.524  34.774  1.00  0.00     0.173 A 
ATOM     75  F   UNL A   1      44.032  24.867  32.433  1.00  0.00    -0.203 F 
ATOM     76  C   UNL A   1      44.162  24.855  34.777  1.00  0.00     0.198 A 
ATOM     77  C   UNL A   1      44.761  26.830  35.976  1.00  0.00     0.198 A 
ATOM     78  F   UNL A   1      45.021  28.850  34.870  1.00  0.00    -0.203 F 
ATOM     79  F   UNL A   1      43.745  23.581  34.781  1.00  0.00    -0.200 F 
ATOM     80  C   UNL A   1      44.401  25.499  35.979  1.00  0.00     0.200 A 
ATOM     81  F   UNL A   1      44.970  27.481  37.129  1.00  0.00    -0.200 F 
ATOM     82  F   UNL A   1      44.239  24.854  37.142  1.00  0.00    -0.200 F 
ENDBRANCH  58  72
BRANCH  59  83
ATOM     83  C   UNL A   1      42.842  22.190  26.763  1.00  0.00     0.064 A 
ATOM     84  C   UNL A   1      43.515  21.488  25.745  1.00  0.00     0.173 A 
ATOM     85  C   UNL A   1      41.943  21.436  27.543  1.00  0.00     0.173 A 
ATOM     86  F   UNL A   1      44.427  22.108  24.982  1.00  0.00    -0.203 F 
ATOM     87  C   UNL A   1      43.314  20.117  25.537  1.00  0.00     0.198 A 
ATOM     88  C   UNL A   1      41.735  20.072  27.327  1.00  0.00     0.198 A 
ATOM     89  F   UNL A   1      41.318  21.986  28.594  1.00  0.00    -0.203 F 
ATOM     90  F   UNL A   1      44.021  19.472  24.597  1.00  0.00    -0.200 F 
ATOM     91  C   UNL A   1      42.431  19.410  26.333  1.00  0.00     0.200 A 
ATOM     92  F   UNL A   1      40.902  19.393  28.129  1.00  0.00    -0.200 F 
ATOM     93  F   UNL A   1      42.280  18.088  26.174  1.00  0.00    -0.200 F 
ENDBRANCH  59  83
BRANCH  71  94
ATOM     94  C   UNL A   1      47.244  26.665  27.193  1.00  0.00     0.064 A 
ATOM     95  C   UNL A   1      48.564  26.472  26.754  1.00  0.00     0.173 A 
ATOM     96  C   UNL A   1      46.348  27.233  26.267  1.00  0.00     0.173 A 
ATOM     97  F   UNL A   1      49.465  25.809  27.495  1.00  0.00    -0.203 F 
ATOM     98  C   UNL A   1      48.972  26.923  25.499  1.00  0.00     0.198 A 
ATOM     99  C   UNL A   1      46.740  27.569  24.973  1.00  0.00     0.198 A 
ATOM    100  F   UNL A   1      45.066  27.441  26.607  1.00  0.00    -0.203 F 
ATOM    101  F   UNL A   1      50.262  26.901  25.151  1.00  0.00    -0.200 F 
ATOM    102  C   UNL A   1      48.058  27.423  24.594  1.00  0.00     0.200 A 
ATOM    103  F   UNL A   1      45.843  28.041  24.098  1.00  0.00    -0.200 F 
ATOM    104  F   UNL A   1      48.454  27.752  23.357  1.00  0.00    -0.200 F 
ENDBRANCH  71  94
ENDBRANCH  45  46
ENDBRANCH  38  40
ENDBRANCH  37  38
ENDBRANCH  36  37
ENDBRANCH  35  36
ENDBRANCH  34  35
ENDBRANCH  33  34
ENDBRANCH  32  33
ENDBRANCH  31  32
ENDBRANCH   1  31
TORSDOF 23
ENDMDL
MODEL 2
REMARK VINA RESULT:     -11.4      2.233      3.165
REMARK SMILES Cc1ccnc(C(=O)c2[nH]c3cc(Cl)c(F)cc3c2CC(=O)OCCOCCOCCOCCOC(=O)c2ccc(-c3c4nc(c(-c5c(F)c(F)c(F)c(F)c5F)c5ccc([nH]5)c(-c5c(F)c(F)c(F)c(F)c5F)c5nc(c(-c6c(F)c(F)c(F)c(F)c6F)c6ccc3[nH]6)C=C5)C=C4)cc2)c1
REMARK SMILES IDX 28 1 27 2 26 3 25 4 24 5 23 6 21 7 22 8 20 9 19 10 9 11
REMARK SMILES IDX 10 12 11 13 18 15 12 16 17 17 13 18 15 19 14 20 16 21 7 22
REMARK SMILES IDX 8 23 6 24 1 25 2 26 3 27 101 28 4 29 5 30 29 31 30 32 31 33
REMARK SMILES IDX 32 34 33 35 34 36 35 37 36 38 37 39 38 40 39 41 100 42 40 43
REMARK SMILES IDX 99 44 41 45 42 46 43 47 93 48 44 49 98 50 92 51 94 52 45 53
REMARK SMILES IDX 97 54 91 55 90 56 46 58 78 59 58 60 77 61 59 62 62 63 76 64
REMARK SMILES IDX 95 65 60 66 61 67 75 69 96 70 63 71 47 72 48 73 56 74 49 75
REMARK SMILES IDX 50 76 54 77 57 78 51 79 52 80 55 81 53 82 79 83 80 84 88 85
REMARK SMILES IDX 81 86 82 87 86 88 89 89 83 90 84 91 87 92 85 93 64 94 65 95
REMARK SMILES IDX 73 96 66 97 67 98 71 99 74 100 68 101 69 102 72 103 70 104
REMARK H PARENT 10 14 94 57 62 68
REMARK Flexibility Score: inf
ROOT
ATOM      1  C   UNL A   1      31.893  26.957  22.345  1.00  0.00     0.188 C 
ENDROOT
BRANCH   1   2
ATOM      2  C   UNL A   1      32.291  26.309  21.021  1.00  0.00     0.188 C 
BRANCH   2   3
ATOM      3  O   UNL A   1      33.183  25.237  21.208  1.00  0.00    -0.376 OA
BRANCH   3   4
ATOM      4  C   UNL A   1      33.142  24.762  22.545  1.00  0.00     0.202 C 
BRANCH   4   5
ATOM      5  C   UNL A   1      34.546  24.374  23.030  1.00  0.00     0.261 C 
BRANCH   5   6
ATOM      6  O   UNL A   1      34.578  22.982  23.472  1.00  0.00    -0.463 OA
BRANCH   6   7
ATOM      7  C   UNL A   1      35.813  22.451  23.671  1.00  0.00     0.310 C 
ATOM      8  O   UNL A   1      36.840  23.042  23.344  1.00  0.00    -0.252 OA
BRANCH   7   9
ATOM      9  C   UNL A   1      35.861  21.126  24.441  1.00  0.00     0.161 C 
BRANCH   9  10
ATOM     10  C   UNL A   1      34.619  20.560  25.118  1.00  0.00     0.000 A 
ATOM     11  C   UNL A   1      33.813  21.104  26.154  1.00  0.00     0.093 A 
ATOM     12  N   UNL A   1      33.025  20.050  26.598  1.00  0.00    -0.351 N 
ATOM     13  C   UNL A   1      33.214  18.906  25.861  1.00  0.00     0.048 A 
ATOM     14  H   UNL A   1      32.399  20.115  27.355  1.00  0.00     0.167 HD
ATOM     15  C   UNL A   1      34.188  19.191  24.909  1.00  0.00     0.007 A 
ATOM     16  C   UNL A   1      32.630  17.634  26.001  1.00  0.00     0.050 A 
ATOM     17  C   UNL A   1      34.588  18.151  24.037  1.00  0.00     0.051 A 
ATOM     18  C   UNL A   1      33.038  16.628  25.118  1.00  0.00     0.078 A 
ATOM     19  C   UNL A   1      33.998  16.888  24.148  1.00  0.00     0.142 A 
ATOM     20  Cl  UNL A   1      32.341  15.057  25.258  1.00  0.00    -0.081 Cl
ATOM     21  F   UNL A   1      34.390  15.924  23.300  1.00  0.00    -0.205 F 
BRANCH  11  22
ATOM     22  C   UNL A   1      33.865  22.327  26.998  1.00  0.00     0.227 C 
ATOM     23  O   UNL A   1      34.497  22.270  28.053  1.00  0.00    -0.285 OA
BRANCH  22  24
ATOM     24  C   UNL A   1      33.060  23.609  26.734  1.00  0.00     0.113 A 
ATOM     25  C   UNL A   1      29.481  24.855  26.156  1.00  0.00     0.044 C 
ATOM     26  C   UNL A   1      30.975  24.827  26.379  1.00  0.00    -0.047 A 
ATOM     27  C   UNL A   1      31.708  25.938  26.002  1.00  0.00     0.023 A 
ATOM     28  C   UNL A   1      31.685  23.694  26.844  1.00  0.00     0.036 A 
ATOM     29  C   UNL A   1      33.085  25.837  26.041  1.00  0.00     0.112 A 
ATOM     30  N   UNL A   1      33.770  24.704  26.355  1.00  0.00    -0.253 NA
ENDBRANCH  22  24
ENDBRANCH  11  22
ENDBRANCH   9  10
ENDBRANCH   7   9
ENDBRANCH   6   7
ENDBRANCH   5   6
ENDBRANCH   4   5
ENDBRANCH   3   4
ENDBRANCH   2   3
ENDBRANCH   1   2
BRANCH   1  31
ATOM     31  O   UNL A   1      32.412  28.282  22.419  1.00  0.00    -0.377 OA
BRANCH  31  32
ATOM     32  C   UNL A   1      32.492  28.782  23.756  1.00  0.00     0.188 C 
BRANCH  32  33
ATOM     33  C   UNL A   1      31.116  29.303  24.171  1.00  0.00     0.188 C 
BRANCH  33  34
ATOM     34  O   UNL A   1      31.121  30.214  25.263  1.00  0.00    -0.376 OA
BRANCH  34  35
ATOM     35  C   UNL A   1      31.955  29.856  26.365  1.00  0.00     0.202 C 
BRANCH  35  36
ATOM     36  C   UNL A   1      32.724  31.008  27.040  1.00  0.00     0.261 C 
BRANCH  36  37
ATOM     37  O   UNL A   1      33.947  30.537  27.648  1.00  0.00    -0.460 OA
BRANCH  37  38
ATOM     38  C   UNL A   1      34.772  31.522  28.144  1.00  0.00     0.338 C 
ATOM     39  O   UNL A   1      34.443  32.476  28.787  1.00  0.00    -0.246 OA
BRANCH  38  40
ATOM     40  C   UNL A   1      36.172  30.990  28.074  1.00  0.00     0.060 A 
ATOM     41  C   UNL A   1      36.432  29.697  27.628  1.00  0.00     0.016 A 
ATOM     42  C   UNL A   1      37.164  31.701  28.780  1.00  0.00     0.016 A 
ATOM     43  C   UNL A   1      37.637  29.087  27.983  1.00  0.00     0.010 A 
ATOM     44  C   UNL A   1      38.376  31.083  29.128  1.00  0.00     0.010 A 
ATOM     45  C   UNL A   1      38.612  29.761  28.753  1.00  0.00    -0.014 A 
BRANCH  45  46
ATOM     46  C   UNL A   1      39.938  29.113  28.852  1.00  0.00     0.031 A 
ATOM     47  C   UNL A   1      40.306  28.819  30.266  1.00  0.00     0.074 A 
ATOM     48  C   UNL A   1      40.771  28.632  27.904  1.00  0.00     0.049 A 
ATOM     49  N   UNL A   1      41.340  29.228  30.923  1.00  0.00    -0.248 NA
ATOM     50  C   UNL A   1      39.329  28.061  31.064  1.00  0.00     0.031 C 
ATOM     51  C   UNL A   1      40.543  28.525  26.469  1.00  0.00     0.029 A 
ATOM     52  N   UNL A   1      42.008  28.040  28.061  1.00  0.00    -0.354 N 
ATOM     53  C   UNL A   1      41.219  28.669  32.187  1.00  0.00     0.074 A 
ATOM     54  C   UNL A   1      39.912  28.064  32.259  1.00  0.00     0.031 C 
ATOM     55  C   UNL A   1      41.503  27.749  25.914  1.00  0.00     0.029 A 
ATOM     56  C   UNL A   1      42.468  27.368  26.935  1.00  0.00     0.049 A 
ATOM     57  H   UNL A   1      42.520  28.089  28.901  1.00  0.00     0.167 HD
ATOM     58  C   UNL A   1      42.268  28.569  33.042  1.00  0.00     0.037 A 
ATOM     59  C   UNL A   1      43.519  26.509  26.844  1.00  0.00     0.037 A 
ATOM     60  C   UNL A   1      43.338  29.469  32.724  1.00  0.00     0.049 A 
ATOM     61  C   UNL A   1      44.427  26.743  27.993  1.00  0.00     0.074 A 
ATOM     62  C   UNL A   1      43.434  30.842  32.584  1.00  0.00     0.029 A 
ATOM     63  N   UNL A   1      44.497  28.969  32.189  1.00  0.00    -0.354 N 
ATOM     64  N   UNL A   1      45.243  27.750  28.107  1.00  0.00    -0.248 NA
ATOM     65  C   UNL A   1      44.194  25.992  29.216  1.00  0.00     0.031 C 
ATOM     66  C   UNL A   1      44.393  31.048  31.550  1.00  0.00     0.029 A 
ATOM     67  C   UNL A   1      44.840  29.792  31.146  1.00  0.00     0.049 A 
ATOM     68  H   UNL A   1      44.990  28.174  32.495  1.00  0.00     0.167 HD
ATOM     69  C   UNL A   1      45.243  28.043  29.458  1.00  0.00     0.074 A 
ATOM     70  C   UNL A   1      44.695  26.854  30.101  1.00  0.00     0.031 C 
ATOM     71  C   UNL A   1      45.420  29.321  29.908  1.00  0.00     0.037 A 
BRANCH  58  72
ATOM     72  C   UNL A   1      42.393  27.427  34.002  1.00  0.00     0.064 A 
ATOM     73  C   UNL A   1      41.915  27.544  35.315  1.00  0.00     0.173 A 
ATOM     74  C   UNL A   1      43.189  26.292  33.727  1.00  0.00     0.173 A 
ATOM     75  F   UNL A   1      41.208  28.621  35.688  1.00  0.00    -0.203 F 
ATOM     76  C   UNL A   1      42.216  26.588  36.287  1.00  0.00     0.198 A 
ATOM     77  C   UNL A   1      43.436  25.311  34.681  1.00  0.00     0.198 A 
ATOM     78  F   UNL A   1      43.828  26.149  32.557  1.00  0.00    -0.203 F 
ATOM     79  F   UNL A   1      41.818  26.778  37.553  1.00  0.00    -0.200 F 
ATOM     80  C   UNL A   1      42.967  25.468  35.967  1.00  0.00     0.200 A 
ATOM     81  F   UNL A   1      44.188  24.249  34.356  1.00  0.00    -0.200 F 
ATOM     82  F   UNL A   1      43.279  24.566  36.907  1.00  0.00    -0.200 F 
ENDBRANCH  58  72
BRANCH  59  83
ATOM     83  C   UNL A   1      43.712  25.348  25.938  1.00  0.00     0.064 A 
ATOM     84  C   UNL A   1      44.919  25.145  25.242  1.00  0.00     0.173 A 
ATOM     85  C   UNL A   1      42.814  24.263  25.945  1.00  0.00     0.173 A 
ATOM     86  F   UNL A   1      45.858  26.102  25.220  1.00  0.00    -0.203 F 
ATOM     87  C   UNL A   1      45.213  23.928  24.613  1.00  0.00     0.198 A 
ATOM     88  C   UNL A   1      43.103  23.055  25.308  1.00  0.00     0.198 A 
ATOM     89  F   UNL A   1      41.675  24.318  26.652  1.00  0.00    -0.203 F 
ATOM     90  F   UNL A   1      46.400  23.753  24.014  1.00  0.00    -0.200 F 
ATOM     91  C   UNL A   1      44.308  22.882  24.654  1.00  0.00     0.200 A 
ATOM     92  F   UNL A   1      42.231  22.038  25.386  1.00  0.00    -0.200 F 
ATOM     93  F   UNL A   1      44.611  21.699  24.103  1.00  0.00    -0.200 F 
ENDBRANCH  59  83
BRANCH  71  94
ATOM     94  C   UNL A   1      46.016  30.350  28.980  1.00  0.00     0.064 A 
ATOM     95  C   UNL A   1      47.377  30.689  28.901  1.00  0.00     0.173 A 
ATOM     96  C   UNL A   1      45.155  30.981  28.061  1.00  0.00     0.173 A 
ATOM     97  F   UNL A   1      48.307  30.047  29.624  1.00  0.00    -0.203 F 
ATOM     98  C   UNL A   1      47.816  31.679  28.022  1.00  0.00     0.198 A 
ATOM     99  C   UNL A   1      45.627  31.881  27.107  1.00  0.00     0.198 A 
ATOM    100  F   UNL A   1      43.841  30.704  28.067  1.00  0.00    -0.203 F 
ATOM    101  F   UNL A   1      49.075  32.125  28.071  1.00  0.00    -0.200 F 
ATOM    102  C   UNL A   1      46.958  32.237  27.097  1.00  0.00     0.200 A 
ATOM    103  F   UNL A   1      44.788  32.406  26.205  1.00  0.00    -0.200 F 
ATOM    104  F   UNL A   1      47.426  33.109  26.193  1.00  0.00    -0.200 F 
ENDBRANCH  71  94
ENDBRANCH  45  46
ENDBRANCH  38  40
ENDBRANCH  37  38
ENDBRANCH  36  37
ENDBRANCH  35  36
ENDBRANCH  34  35
ENDBRANCH  33  34
ENDBRANCH  32  33
ENDBRANCH  31  32
ENDBRANCH   1  31
TORSDOF 23
ENDMDL
MODEL 3
REMARK VINA RESULT:     -11.2      2.263      4.049
REMARK SMILES Cc1ccnc(C(=O)c2[nH]c3cc(Cl)c(F)cc3c2CC(=O)OCCOCCOCCOCCOC(=O)c2ccc(-c3c4nc(c(-c5c(F)c(F)c(F)c(F)c5F)c5ccc([nH]5)c(-c5c(F)c(F)c(F)c(F)c5F)c5nc(c(-c6c(F)c(F)c(F)c(F)c6F)c6ccc3[nH]6)C=C5)C=C4)cc2)c1
REMARK SMILES IDX 28 1 27 2 26 3 25 4 24 5 23 6 21 7 22 8 20 9 19 10 9 11
REMARK SMILES IDX 10 12 11 13 18 15 12 16 17 17 13 18 15 19 14 20 16 21 7 22
REMARK SMILES IDX 8 23 6 24 1 25 2 26 3 27 101 28 4 29 5 30 29 31 30 32 31 33
REMARK SMILES IDX 32 34 33 35 34 36 35 37 36 38 37 39 38 40 39 41 100 42 40 43
REMARK SMILES IDX 99 44 41 45 42 46 43 47 93 48 44 49 98 50 92 51 94 52 45 53
REMARK SMILES IDX 97 54 91 55 90 56 46 58 78 59 58 60 77 61 59 62 62 63 76 64
REMARK SMILES IDX 95 65 60 66 61 67 75 69 96 70 63 71 47 72 48 73 56 74 49 75
REMARK SMILES IDX 50 76 54 77 57 78 51 79 52 80 55 81 53 82 79 83 80 84 88 85
REMARK SMILES IDX 81 86 82 87 86 88 89 89 83 90 84 91 87 92 85 93 64 94 65 95
REMARK SMILES IDX 73 96 66 97 67 98 71 99 74 100 68 101 69 102 72 103 70 104
REMARK H PARENT 10 14 94 57 62 68
REMARK Flexibility Score: inf
ROOT
ATOM      1  C   UNL A   1      32.525  27.472  27.015  1.00  0.00     0.188 C 
ENDROOT
BRANCH   1   2
ATOM      2  C   UNL A   1      31.405  26.533  26.574  1.00  0.00     0.188 C 
BRANCH   2   3
ATOM      3  O   UNL A   1      31.483  25.284  27.218  1.00  0.00    -0.376 OA
BRANCH   3   4
ATOM      4  C   UNL A   1      32.480  24.463  26.629  1.00  0.00     0.202 C 
BRANCH   4   5
ATOM      5  C   UNL A   1      32.003  23.007  26.534  1.00  0.00     0.261 C 
BRANCH   5   6
ATOM      6  O   UNL A   1      33.046  22.153  25.970  1.00  0.00    -0.463 OA
BRANCH   6   7
ATOM      7  C   UNL A   1      32.633  21.242  25.051  1.00  0.00     0.310 C 
ATOM      8  O   UNL A   1      31.970  20.254  25.361  1.00  0.00    -0.252 OA
BRANCH   7   9
ATOM      9  C   UNL A   1      32.932  21.579  23.586  1.00  0.00     0.161 C 
BRANCH   9  10
ATOM     10  C   UNL A   1      33.307  22.993  23.161  1.00  0.00     0.000 A 
ATOM     11  C   UNL A   1      34.583  23.563  22.901  1.00  0.00     0.093 A 
ATOM     12  N   UNL A   1      34.372  24.935  22.866  1.00  0.00    -0.351 N 
ATOM     13  C   UNL A   1      33.045  25.267  23.000  1.00  0.00     0.048 A 
ATOM     14  H   UNL A   1      35.092  25.597  22.758  1.00  0.00     0.167 HD
ATOM     15  C   UNL A   1      32.343  24.077  23.163  1.00  0.00     0.007 A 
ATOM     16  C   UNL A   1      32.429  26.530  23.036  1.00  0.00     0.050 A 
ATOM     17  C   UNL A   1      30.943  24.153  23.355  1.00  0.00     0.051 A 
ATOM     18  C   UNL A   1      31.042  26.574  23.217  1.00  0.00     0.078 A 
ATOM     19  C   UNL A   1      30.313  25.401  23.368  1.00  0.00     0.142 A 
ATOM     20  Cl  UNL A   1      30.252  28.106  23.263  1.00  0.00    -0.081 Cl
ATOM     21  F   UNL A   1      28.982  25.442  23.542  1.00  0.00    -0.205 F 
BRANCH  11  22
ATOM     22  C   UNL A   1      35.988  23.084  22.986  1.00  0.00     0.227 C 
ATOM     23  O   UNL A   1      36.526  22.698  21.948  1.00  0.00    -0.285 OA
BRANCH  22  24
ATOM     24  C   UNL A   1      36.768  22.883  24.294  1.00  0.00     0.113 A 
ATOM     25  C   UNL A   1      38.177  24.816  27.290  1.00  0.00     0.044 C 
ATOM     26  C   UNL A   1      37.773  23.691  26.368  1.00  0.00    -0.047 A 
ATOM     27  C   UNL A   1      38.406  22.470  26.515  1.00  0.00     0.023 A 
ATOM     28  C   UNL A   1      36.866  23.838  25.290  1.00  0.00     0.036 A 
ATOM     29  C   UNL A   1      38.163  21.504  25.559  1.00  0.00     0.112 A 
ATOM     30  N   UNL A   1      37.402  21.691  24.446  1.00  0.00    -0.253 NA
ENDBRANCH  22  24
ENDBRANCH  11  22
ENDBRANCH   9  10
ENDBRANCH   7   9
ENDBRANCH   6   7
ENDBRANCH   5   6
ENDBRANCH   4   5
ENDBRANCH   3   4
ENDBRANCH   2   3
ENDBRANCH   1   2
BRANCH   1  31
ATOM     31  O   UNL A   1      33.222  27.975  25.878  1.00  0.00    -0.377 OA
BRANCH  31  32
ATOM     32  C   UNL A   1      33.286  29.402  25.842  1.00  0.00     0.188 C 
BRANCH  32  33
ATOM     33  C   UNL A   1      33.298  29.931  27.276  1.00  0.00     0.188 C 
BRANCH  33  34
ATOM     34  O   UNL A   1      33.184  31.344  27.399  1.00  0.00    -0.376 OA
BRANCH  34  35
ATOM     35  C   UNL A   1      34.165  31.975  28.221  1.00  0.00     0.202 C 
BRANCH  35  36
ATOM     36  C   UNL A   1      35.623  31.889  27.729  1.00  0.00     0.261 C 
BRANCH  36  37
ATOM     37  O   UNL A   1      36.455  31.184  28.677  1.00  0.00    -0.460 OA
BRANCH  37  38
ATOM     38  C   UNL A   1      37.670  31.775  28.944  1.00  0.00     0.338 C 
ATOM     39  O   UNL A   1      37.858  32.908  29.277  1.00  0.00    -0.246 OA
BRANCH  38  40
ATOM     40  C   UNL A   1      38.661  30.665  29.123  1.00  0.00     0.060 A 
ATOM     41  C   UNL A   1      39.993  30.929  29.437  1.00  0.00     0.016 A 
ATOM     42  C   UNL A   1      38.294  29.392  28.639  1.00  0.00     0.016 A 
ATOM     43  C   UNL A   1      40.959  29.958  29.164  1.00  0.00     0.010 A 
ATOM     44  C   UNL A   1      39.271  28.419  28.372  1.00  0.00     0.010 A 
ATOM     45  C   UNL A   1      40.615  28.703  28.610  1.00  0.00    -0.014 A 
BRANCH  45  46
ATOM     46  C   UNL A   1      41.677  27.673  28.600  1.00  0.00     0.031 A 
ATOM     47  C   UNL A   1      42.482  27.696  29.853  1.00  0.00     0.074 A 
ATOM     48  C   UNL A   1      41.933  26.662  27.741  1.00  0.00     0.049 A 
ATOM     49  N   UNL A   1      43.756  27.870  29.981  1.00  0.00    -0.248 NA
ATOM     50  C   UNL A   1      41.740  27.624  31.122  1.00  0.00     0.031 C 
ATOM     51  C   UNL A   1      41.147  26.228  26.594  1.00  0.00     0.029 A 
ATOM     52  N   UNL A   1      42.952  25.731  27.783  1.00  0.00    -0.354 N 
ATOM     53  C   UNL A   1      44.004  27.796  31.343  1.00  0.00     0.074 A 
ATOM     54  C   UNL A   1      42.723  27.765  32.006  1.00  0.00     0.031 C 
ATOM     55  C   UNL A   1      41.598  25.026  26.164  1.00  0.00     0.029 A 
ATOM     56  C   UNL A   1      42.761  24.636  26.949  1.00  0.00     0.049 A 
ATOM     57  H   UNL A   1      43.745  25.834  28.358  1.00  0.00     0.167 HD
ATOM     58  C   UNL A   1      45.245  27.574  31.845  1.00  0.00     0.037 A 
ATOM     59  C   UNL A   1      43.453  23.466  26.933  1.00  0.00     0.037 A 
ATOM     60  C   UNL A   1      46.290  27.879  30.912  1.00  0.00     0.049 A 
ATOM     61  C   UNL A   1      44.763  23.676  27.595  1.00  0.00     0.074 A 
ATOM     62  C   UNL A   1      46.653  29.012  30.208  1.00  0.00     0.029 A 
ATOM     63  N   UNL A   1      46.993  26.854  30.335  1.00  0.00    -0.354 N 
ATOM     64  N   UNL A   1      45.776  24.297  27.064  1.00  0.00    -0.248 NA
ATOM     65  C   UNL A   1      44.850  23.462  29.031  1.00  0.00     0.031 C 
ATOM     66  C   UNL A   1      47.153  28.536  28.961  1.00  0.00     0.029 A 
ATOM     67  C   UNL A   1      47.091  27.144  28.997  1.00  0.00     0.049 A 
ATOM     68  H   UNL A   1      47.358  26.061  30.791  1.00  0.00     0.167 HD
ATOM     69  C   UNL A   1      46.371  24.955  28.125  1.00  0.00     0.074 A 
ATOM     70  C   UNL A   1      45.847  24.299  29.317  1.00  0.00     0.031 C 
ATOM     71  C   UNL A   1      47.013  26.149  27.951  1.00  0.00     0.037 A 
BRANCH  58  72
ATOM     72  C   UNL A   1      45.454  26.805  33.113  1.00  0.00     0.064 A 
ATOM     73  C   UNL A   1      46.178  27.365  34.175  1.00  0.00     0.173 A 
ATOM     74  C   UNL A   1      45.155  25.428  33.220  1.00  0.00     0.173 A 
ATOM     75  F   UNL A   1      46.567  28.648  34.132  1.00  0.00    -0.203 F 
ATOM     76  C   UNL A   1      46.576  26.596  35.271  1.00  0.00     0.198 A 
ATOM     77  C   UNL A   1      45.499  24.679  34.340  1.00  0.00     0.198 A 
ATOM     78  F   UNL A   1      44.604  24.748  32.204  1.00  0.00    -0.203 F 
ATOM     79  F   UNL A   1      47.343  27.142  36.224  1.00  0.00    -0.200 F 
ATOM     80  C   UNL A   1      46.227  25.258  35.357  1.00  0.00     0.200 A 
ATOM     81  F   UNL A   1      45.174  23.379  34.389  1.00  0.00    -0.200 F 
ATOM     82  F   UNL A   1      46.634  24.514  36.394  1.00  0.00    -0.200 F 
ENDBRANCH  58  72
BRANCH  59  83
ATOM     83  C   UNL A   1      42.992  22.103  26.562  1.00  0.00     0.064 A 
ATOM     84  C   UNL A   1      43.663  21.334  25.592  1.00  0.00     0.173 A 
ATOM     85  C   UNL A   1      42.044  21.417  27.346  1.00  0.00     0.173 A 
ATOM     86  F   UNL A   1      44.618  21.886  24.830  1.00  0.00    -0.203 F 
ATOM     87  C   UNL A   1      43.414  19.964  25.433  1.00  0.00     0.198 A 
ATOM     88  C   UNL A   1      41.788  20.055  27.179  1.00  0.00     0.198 A 
ATOM     89  F   UNL A   1      41.413  22.033  28.356  1.00  0.00    -0.203 F 
ATOM     90  F   UNL A   1      44.118  19.254  24.540  1.00  0.00    -0.200 F 
ATOM     91  C   UNL A   1      42.483  19.325  26.232  1.00  0.00     0.200 A 
ATOM     92  F   UNL A   1      40.908  19.441  27.984  1.00  0.00    -0.200 F 
ATOM     93  F   UNL A   1      42.284  18.005  26.122  1.00  0.00    -0.200 F 
ENDBRANCH  59  83
BRANCH  71  94
ATOM     94  C   UNL A   1      47.430  26.563  26.561  1.00  0.00     0.064 A 
ATOM     95  C   UNL A   1      46.643  27.292  25.655  1.00  0.00     0.173 A 
ATOM     96  C   UNL A   1      48.743  26.258  26.152  1.00  0.00     0.173 A 
ATOM     97  F   UNL A   1      45.433  27.764  25.992  1.00  0.00    -0.203 F 
ATOM     98  C   UNL A   1      47.120  27.598  24.381  1.00  0.00     0.198 A 
ATOM     99  C   UNL A   1      49.247  26.674  24.922  1.00  0.00     0.198 A 
ATOM    100  F   UNL A   1      49.561  25.571  26.966  1.00  0.00    -0.203 F 
ATOM    101  F   UNL A   1      46.313  28.133  23.460  1.00  0.00    -0.200 F 
ATOM    102  C   UNL A   1      48.428  27.335  24.031  1.00  0.00     0.200 A 
ATOM    103  F   UNL A   1      50.523  26.426  24.599  1.00  0.00    -0.200 F 
ATOM    104  F   UNL A   1      48.895  27.733  22.840  1.00  0.00    -0.200 F 
ENDBRANCH  71  94
ENDBRANCH  45  46
ENDBRANCH  38  40
ENDBRANCH  37  38
ENDBRANCH  36  37
ENDBRANCH  35  36
ENDBRANCH  34  35
ENDBRANCH  33  34
ENDBRANCH  32  33
ENDBRANCH  31  32
ENDBRANCH   1  31
TORSDOF 23
ENDMDL
