MODEL 1
REMARK VINA RESULT:     -10.8      0.000      0.000
REMARK SMILES COc1cccc(NC(=O)[C@@H]2[C@@H](C(=O)OCCOCCOCCOCCOC(=O)c3ccc(-c4c5nc(c(-c6c(F)c(F)c(F)c(F)c6F)c6ccc([nH]6)c(-c6c(F)c(F)c(F)c(F)c6F)c6nc(c(-c7c(F)c(F)c(F)c(F)c7F)c7ccc4[nH]7)C=C6)C=C5)cc3)[C@H]3C=C[C@@H]2C3)c1
REMARK SMILES IDX 20 1 19 2 18 3 17 4 16 5 15 6 13 7 14 8 12 9 11 10 96 11
REMARK SMILES IDX 93 12 95 13 97 14 94 15 9 16 8 17 10 19 7 20 3 21 4 22 98 23
REMARK SMILES IDX 5 24 6 25 2 26 1 27 21 28 22 29 23 30 24 31 25 32 26 33
REMARK SMILES IDX 27 34 28 35 29 36 30 37 31 38 92 39 32 40 91 41 33 42 34 43
REMARK SMILES IDX 35 44 85 45 36 46 90 47 84 48 86 49 37 50 89 51 83 52 82 53
REMARK SMILES IDX 38 55 70 56 50 57 69 58 51 59 54 60 68 61 87 62 52 63 53 64
REMARK SMILES IDX 67 66 88 67 55 68 39 69 40 70 48 71 41 72 42 73 46 74 49 75
REMARK SMILES IDX 43 76 44 77 47 78 45 79 71 80 72 81 80 82 73 83 74 84 78 85
REMARK SMILES IDX 81 86 75 87 76 88 79 89 77 90 56 91 57 92 65 93 58 94 59 95
REMARK SMILES IDX 63 96 66 97 60 98 61 99 64 100 62 101
REMARK H PARENT 8 18 86 54 54 65
REMARK Flexibility Score: inf
ROOT
ATOM      1  C   UNL A   1      38.058  21.949  25.786  1.00  0.00     0.188 C 
ENDROOT
BRANCH   1   2
ATOM      2  C   UNL A   1      37.185  22.303  24.567  1.00  0.00     0.188 C 
BRANCH   2   3
ATOM      3  O   UNL A   1      35.876  21.760  24.641  1.00  0.00    -0.376 OA
BRANCH   3   4
ATOM      4  C   UNL A   1      34.842  22.350  25.408  1.00  0.00     0.202 C 
BRANCH   4   5
ATOM      5  C   UNL A   1      33.531  22.887  24.810  1.00  0.00     0.261 C 
BRANCH   5   6
ATOM      6  O   UNL A   1      33.367  24.300  24.748  1.00  0.00    -0.463 OA
BRANCH   6   7
ATOM      7  C   UNL A   1      32.426  24.863  25.548  1.00  0.00     0.310 C 
ATOM      8  O   UNL A   1      32.045  24.409  26.615  1.00  0.00    -0.252 OA
BRANCH   7   9
ATOM      9  C   UNL A   1      32.041  26.190  24.914  1.00  0.00     0.119 C 
ATOM     10  C   UNL A   1      33.077  26.825  23.981  1.00  0.00     0.100 C 
ATOM     11  C   UNL A   1      33.455  28.126  24.732  1.00  0.00     0.025 C 
ATOM     12  C   UNL A   1      31.799  27.291  25.975  1.00  0.00     0.027 C 
ATOM     13  C   UNL A   1      34.031  27.769  26.093  1.00  0.00    -0.027 C 
ATOM     14  C   UNL A   1      32.090  28.595  25.222  1.00  0.00     0.017 C 
ATOM     15  C   UNL A   1      33.021  27.320  26.858  1.00  0.00    -0.027 C 
BRANCH  10  16
ATOM     16  C   UNL A   1      32.667  27.078  22.516  1.00  0.00     0.228 C 
ATOM     17  N   UNL A   1      31.637  27.778  21.971  1.00  0.00    -0.326 N 
ATOM     18  H   UNL A   1      31.796  27.866  21.004  1.00  0.00     0.169 HD
ATOM     19  O   UNL A   1      33.450  26.635  21.653  1.00  0.00    -0.274 OA
BRANCH  17  20
ATOM     20  C   UNL A   1      30.418  28.430  22.287  1.00  0.00     0.044 A 
ATOM     21  C   UNL A   1      29.184  30.540  22.224  1.00  0.00     0.120 A 
ATOM     22  C   UNL A   1      28.099  29.977  22.879  1.00  0.00     0.046 A 
ATOM     23  C   UNL A   1      30.335  29.790  21.941  1.00  0.00     0.072 A 
ATOM     24  C   UNL A   1      28.142  28.632  23.186  1.00  0.00     0.006 A 
ATOM     25  C   UNL A   1      29.283  27.880  22.877  1.00  0.00     0.026 A 
BRANCH  21  26
ATOM     26  O   UNL A   1      29.145  31.868  21.901  1.00  0.00    -0.497 OA
ATOM     27  C   UNL A   1      27.879  32.203  21.333  1.00  0.00     0.278 C 
ENDBRANCH  21  26
ENDBRANCH  17  20
ENDBRANCH  10  16
ENDBRANCH   7   9
ENDBRANCH   6   7
ENDBRANCH   5   6
ENDBRANCH   4   5
ENDBRANCH   3   4
ENDBRANCH   2   3
ENDBRANCH   1   2
BRANCH   1  28
ATOM     28  O   UNL A   1      38.883  20.817  25.552  1.00  0.00    -0.377 OA
BRANCH  28  29
ATOM     29  C   UNL A   1      40.004  20.645  26.426  1.00  0.00     0.188 C 
BRANCH  29  30
ATOM     30  C   UNL A   1      41.379  21.307  26.139  1.00  0.00     0.188 C 
BRANCH  30  31
ATOM     31  O   UNL A   1      42.280  20.494  25.400  1.00  0.00    -0.376 OA
BRANCH  31  32
ATOM     32  C   UNL A   1      43.666  20.575  25.664  1.00  0.00     0.202 C 
BRANCH  32  33
ATOM     33  C   UNL A   1      44.366  21.859  25.204  1.00  0.00     0.261 C 
BRANCH  33  34
ATOM     34  O   UNL A   1      44.218  22.988  26.077  1.00  0.00    -0.460 OA
BRANCH  34  35
ATOM     35  C   UNL A   1      44.203  24.206  25.500  1.00  0.00     0.338 C 
ATOM     36  O   UNL A   1      44.573  24.497  24.371  1.00  0.00    -0.246 OA
BRANCH  35  37
ATOM     37  C   UNL A   1      43.476  25.121  26.400  1.00  0.00     0.060 A 
ATOM     38  C   UNL A   1      43.823  26.479  26.419  1.00  0.00     0.016 A 
ATOM     39  C   UNL A   1      42.450  24.640  27.216  1.00  0.00     0.016 A 
ATOM     40  C   UNL A   1      43.167  27.354  27.283  1.00  0.00     0.010 A 
ATOM     41  C   UNL A   1      41.811  25.511  28.098  1.00  0.00     0.010 A 
ATOM     42  C   UNL A   1      42.192  26.865  28.161  1.00  0.00    -0.014 A 
BRANCH  42  43
ATOM     43  C   UNL A   1      41.728  27.709  29.286  1.00  0.00     0.031 A 
ATOM     44  C   UNL A   1      42.471  27.621  30.591  1.00  0.00     0.074 A 
ATOM     45  C   UNL A   1      40.687  28.549  29.152  1.00  0.00     0.049 A 
ATOM     46  N   UNL A   1      42.222  28.208  31.734  1.00  0.00    -0.248 NA
ATOM     47  C   UNL A   1      43.653  26.745  30.608  1.00  0.00     0.031 C 
ATOM     48  C   UNL A   1      39.921  28.757  27.928  1.00  0.00     0.029 A 
ATOM     49  N   UNL A   1      40.091  29.377  30.071  1.00  0.00    -0.354 N 
ATOM     50  C   UNL A   1      43.209  27.766  32.604  1.00  0.00     0.074 A 
ATOM     51  C   UNL A   1      44.041  26.837  31.870  1.00  0.00     0.031 C 
ATOM     52  C   UNL A   1      38.942  29.647  28.174  1.00  0.00     0.029 A 
ATOM     53  C   UNL A   1      38.993  30.040  29.582  1.00  0.00     0.049 A 
ATOM     54  H   UNL A   1      40.419  29.485  30.993  1.00  0.00     0.167 HD
ATOM     55  C   UNL A   1      43.410  28.110  33.898  1.00  0.00     0.037 A 
ATOM     56  C   UNL A   1      38.117  30.847  30.211  1.00  0.00     0.037 A 
ATOM     57  C   UNL A   1      42.578  29.032  34.624  1.00  0.00     0.049 A 
ATOM     58  C   UNL A   1      38.313  31.152  31.676  1.00  0.00     0.074 A 
ATOM     59  C   UNL A   1      42.705  29.461  35.934  1.00  0.00     0.029 A 
ATOM     60  N   UNL A   1      41.454  29.659  34.105  1.00  0.00    -0.354 N 
ATOM     61  N   UNL A   1      39.262  30.752  32.489  1.00  0.00    -0.248 NA
ATOM     62  C   UNL A   1      37.313  32.024  32.311  1.00  0.00     0.031 C 
ATOM     63  C   UNL A   1      41.621  30.296  36.226  1.00  0.00     0.029 A 
ATOM     64  C   UNL A   1      40.860  30.446  35.078  1.00  0.00     0.049 A 
ATOM     65  H   UNL A   1      41.127  29.559  33.181  1.00  0.00     0.167 HD
ATOM     66  C   UNL A   1      38.995  31.350  33.715  1.00  0.00     0.074 A 
ATOM     67  C   UNL A   1      37.803  32.150  33.537  1.00  0.00     0.031 C 
ATOM     68  C   UNL A   1      39.678  31.247  34.882  1.00  0.00     0.037 A 
BRANCH  55  69
ATOM     69  C   UNL A   1      44.553  27.459  34.621  1.00  0.00     0.064 A 
ATOM     70  C   UNL A   1      44.413  26.226  35.275  1.00  0.00     0.173 A 
ATOM     71  C   UNL A   1      45.819  28.066  34.634  1.00  0.00     0.173 A 
ATOM     72  F   UNL A   1      43.221  25.610  35.307  1.00  0.00    -0.203 F 
ATOM     73  C   UNL A   1      45.489  25.639  35.937  1.00  0.00     0.198 A 
ATOM     74  C   UNL A   1      46.899  27.461  35.267  1.00  0.00     0.198 A 
ATOM     75  F   UNL A   1      46.009  29.246  34.024  1.00  0.00    -0.203 F 
ATOM     76  F   UNL A   1      45.317  24.487  36.600  1.00  0.00    -0.200 F 
ATOM     77  C   UNL A   1      46.732  26.253  35.925  1.00  0.00     0.200 A 
ATOM     78  F   UNL A   1      48.104  28.048  35.242  1.00  0.00    -0.200 F 
ATOM     79  F   UNL A   1      47.768  25.683  36.556  1.00  0.00    -0.200 F 
ENDBRANCH  55  69
BRANCH  56  80
ATOM     80  C   UNL A   1      36.960  31.417  29.468  1.00  0.00     0.064 A 
ATOM     81  C   UNL A   1      35.869  30.618  29.100  1.00  0.00     0.173 A 
ATOM     82  C   UNL A   1      36.939  32.766  29.081  1.00  0.00     0.173 A 
ATOM     83  F   UNL A   1      35.855  29.316  29.421  1.00  0.00    -0.203 F 
ATOM     84  C   UNL A   1      34.812  31.139  28.355  1.00  0.00     0.198 A 
ATOM     85  C   UNL A   1      35.866  33.294  28.365  1.00  0.00     0.198 A 
ATOM     86  F   UNL A   1      37.959  33.575  29.403  1.00  0.00    -0.203 F 
ATOM     87  F   UNL A   1      33.810  30.338  27.967  1.00  0.00    -0.200 F 
ATOM     88  C   UNL A   1      34.808  32.478  27.993  1.00  0.00     0.200 A 
ATOM     89  F   UNL A   1      35.861  34.591  28.030  1.00  0.00    -0.200 F 
ATOM     90  F   UNL A   1      33.792  32.978  27.278  1.00  0.00    -0.200 F 
ENDBRANCH  56  80
BRANCH  68  91
ATOM     91  C   UNL A   1      39.185  32.058  36.050  1.00  0.00     0.064 A 
ATOM     92  C   UNL A   1      39.599  33.380  36.264  1.00  0.00     0.173 A 
ATOM     93  C   UNL A   1      38.247  31.513  36.941  1.00  0.00     0.173 A 
ATOM     94  F   UNL A   1      40.502  33.946  35.449  1.00  0.00    -0.203 F 
ATOM     95  C   UNL A   1      39.118  34.116  37.345  1.00  0.00     0.198 A 
ATOM     96  C   UNL A   1      37.739  32.264  37.999  1.00  0.00     0.198 A 
ATOM     97  F   UNL A   1      37.807  30.256  36.779  1.00  0.00    -0.203 F 
ATOM     98  F   UNL A   1      39.571  35.359  37.561  1.00  0.00    -0.200 F 
ATOM     99  C   UNL A   1      38.182  33.560  38.205  1.00  0.00     0.200 A 
ATOM    100  F   UNL A   1      36.820  31.731  38.817  1.00  0.00    -0.200 F 
ATOM    101  F   UNL A   1      37.713  34.274  39.238  1.00  0.00    -0.200 F 
ENDBRANCH  68  91
ENDBRANCH  42  43
ENDBRANCH  35  37
ENDBRANCH  34  35
ENDBRANCH  33  34
ENDBRANCH  32  33
ENDBRANCH  31  32
ENDBRANCH  30  31
ENDBRANCH  29  30
ENDBRANCH  28  29
ENDBRANCH   1  28
TORSDOF 23
ENDMDL
MODEL 2
REMARK VINA RESULT:     -10.6      4.157      6.509
REMARK SMILES COc1cccc(NC(=O)[C@@H]2[C@@H](C(=O)OCCOCCOCCOCCOC(=O)c3ccc(-c4c5nc(c(-c6c(F)c(F)c(F)c(F)c6F)c6ccc([nH]6)c(-c6c(F)c(F)c(F)c(F)c6F)c6nc(c(-c7c(F)c(F)c(F)c(F)c7F)c7ccc4[nH]7)C=C6)C=C5)cc3)[C@H]3C=C[C@@H]2C3)c1
REMARK SMILES IDX 20 1 19 2 18 3 17 4 16 5 15 6 13 7 14 8 12 9 11 10 96 11
REMARK SMILES IDX 93 12 95 13 97 14 94 15 9 16 8 17 10 19 7 20 3 21 4 22 98 23
REMARK SMILES IDX 5 24 6 25 2 26 1 27 21 28 22 29 23 30 24 31 25 32 26 33
REMARK SMILES IDX 27 34 28 35 29 36 30 37 31 38 92 39 32 40 91 41 33 42 34 43
REMARK SMILES IDX 35 44 85 45 36 46 90 47 84 48 86 49 37 50 89 51 83 52 82 53
REMARK SMILES IDX 38 55 70 56 50 57 69 58 51 59 54 60 68 61 87 62 52 63 53 64
REMARK SMILES IDX 67 66 88 67 55 68 39 69 40 70 48 71 41 72 42 73 46 74 49 75
REMARK SMILES IDX 43 76 44 77 47 78 45 79 71 80 72 81 80 82 73 83 74 84 78 85
REMARK SMILES IDX 81 86 75 87 76 88 79 89 77 90 56 91 57 92 65 93 58 94 59 95
REMARK SMILES IDX 63 96 66 97 60 98 61 99 64 100 62 101
REMARK H PARENT 8 18 86 54 54 65
REMARK Flexibility Score: inf
ROOT
ATOM      1  C   UNL A   1      33.188  20.205  25.695  1.00  0.00     0.188 C 
ENDROOT
BRANCH   1   2
ATOM      2  C   UNL A   1      32.119  20.822  24.774  1.00  0.00     0.188 C 
BRANCH   2   3
ATOM      3  O   UNL A   1      32.669  21.601  23.723  1.00  0.00    -0.376 OA
BRANCH   3   4
ATOM      4  C   UNL A   1      32.012  22.731  23.181  1.00  0.00     0.202 C 
BRANCH   4   5
ATOM      5  C   UNL A   1      31.368  23.839  24.031  1.00  0.00     0.261 C 
BRANCH   5   6
ATOM      6  O   UNL A   1      32.226  24.607  24.868  1.00  0.00    -0.463 OA
BRANCH   6   7
ATOM      7  C   UNL A   1      31.649  25.463  25.750  1.00  0.00     0.310 C 
ATOM      8  O   UNL A   1      31.375  25.201  26.910  1.00  0.00    -0.252 OA
BRANCH   7   9
ATOM      9  C   UNL A   1      31.522  26.805  25.047  1.00  0.00     0.119 C 
ATOM     10  C   UNL A   1      32.654  27.180  24.086  1.00  0.00     0.100 C 
ATOM     11  C   UNL A   1      33.281  28.421  24.770  1.00  0.00     0.025 C 
ATOM     12  C   UNL A   1      31.504  27.984  26.050  1.00  0.00     0.027 C 
ATOM     13  C   UNL A   1      33.787  28.029  26.150  1.00  0.00    -0.027 C 
ATOM     14  C   UNL A   1      32.034  29.168  25.231  1.00  0.00     0.017 C 
ATOM     15  C   UNL A   1      32.714  27.823  26.933  1.00  0.00    -0.027 C 
BRANCH  10  16
ATOM     16  C   UNL A   1      32.290  27.432  22.609  1.00  0.00     0.228 C 
ATOM     17  N   UNL A   1      31.264  28.112  22.031  1.00  0.00    -0.326 N 
ATOM     18  H   UNL A   1      31.455  28.209  21.071  1.00  0.00     0.169 HD
ATOM     19  O   UNL A   1      33.112  27.013  21.771  1.00  0.00    -0.274 OA
BRANCH  17  20
ATOM     20  C   UNL A   1      30.020  28.734  22.307  1.00  0.00     0.044 A 
ATOM     21  C   UNL A   1      28.720  30.799  22.154  1.00  0.00     0.120 A 
ATOM     22  C   UNL A   1      27.643  30.224  22.813  1.00  0.00     0.046 A 
ATOM     23  C   UNL A   1      29.898  30.078  21.913  1.00  0.00     0.072 A 
ATOM     24  C   UNL A   1      27.726  28.892  23.167  1.00  0.00     0.006 A 
ATOM     25  C   UNL A   1      28.894  28.167  22.901  1.00  0.00     0.026 A 
BRANCH  21  26
ATOM     26  O   UNL A   1      28.643  32.113  21.784  1.00  0.00    -0.497 OA
ATOM     27  C   UNL A   1      28.030  32.232  20.500  1.00  0.00     0.278 C 
ENDBRANCH  21  26
ENDBRANCH  17  20
ENDBRANCH  10  16
ENDBRANCH   7   9
ENDBRANCH   6   7
ENDBRANCH   5   6
ENDBRANCH   4   5
ENDBRANCH   3   4
ENDBRANCH   2   3
ENDBRANCH   1   2
BRANCH   1  28
ATOM     28  O   UNL A   1      33.523  21.054  26.783  1.00  0.00    -0.377 OA
BRANCH  28  29
ATOM     29  C   UNL A   1      34.365  22.174  26.491  1.00  0.00     0.188 C 
BRANCH  29  30
ATOM     30  C   UNL A   1      35.732  22.009  25.773  1.00  0.00     0.188 C 
BRANCH  30  31
ATOM     31  O   UNL A   1      36.235  20.681  25.762  1.00  0.00    -0.376 OA
BRANCH  31  32
ATOM     32  C   UNL A   1      37.123  20.282  24.737  1.00  0.00     0.202 C 
BRANCH  32  33
ATOM     33  C   UNL A   1      38.609  20.560  24.989  1.00  0.00     0.261 C 
BRANCH  33  34
ATOM     34  O   UNL A   1      39.001  20.617  26.369  1.00  0.00    -0.460 OA
BRANCH  34  35
ATOM     35  C   UNL A   1      40.321  20.714  26.624  1.00  0.00     0.338 C 
ATOM     36  O   UNL A   1      41.186  19.883  26.384  1.00  0.00    -0.246 OA
BRANCH  35  37
ATOM     37  C   UNL A   1      40.592  22.092  27.076  1.00  0.00     0.060 A 
ATOM     38  C   UNL A   1      39.810  23.142  26.573  1.00  0.00     0.016 A 
ATOM     39  C   UNL A   1      41.607  22.344  28.000  1.00  0.00     0.016 A 
ATOM     40  C   UNL A   1      40.069  24.454  26.966  1.00  0.00     0.010 A 
ATOM     41  C   UNL A   1      41.881  23.660  28.376  1.00  0.00     0.010 A 
ATOM     42  C   UNL A   1      41.136  24.723  27.831  1.00  0.00    -0.014 A 
BRANCH  42  43
ATOM     43  C   UNL A   1      41.612  26.116  27.998  1.00  0.00     0.031 A 
ATOM     44  C   UNL A   1      42.968  26.471  27.453  1.00  0.00     0.074 A 
ATOM     45  C   UNL A   1      40.855  27.051  28.598  1.00  0.00     0.049 A 
ATOM     46  N   UNL A   1      43.628  27.598  27.527  1.00  0.00    -0.248 NA
ATOM     47  C   UNL A   1      43.677  25.404  26.729  1.00  0.00     0.031 C 
ATOM     48  C   UNL A   1      39.509  26.841  29.122  1.00  0.00     0.029 A 
ATOM     49  N   UNL A   1      41.126  28.368  28.876  1.00  0.00    -0.354 N 
ATOM     50  C   UNL A   1      44.830  27.372  26.870  1.00  0.00     0.074 A 
ATOM     51  C   UNL A   1      44.824  25.993  26.432  1.00  0.00     0.031 C 
ATOM     52  C   UNL A   1      39.074  27.988  29.673  1.00  0.00     0.029 A 
ATOM     53  C   UNL A   1      40.126  28.998  29.573  1.00  0.00     0.049 A 
ATOM     54  H   UNL A   1      41.958  28.817  28.601  1.00  0.00     0.167 HD
ATOM     55  C   UNL A   1      45.845  28.239  26.644  1.00  0.00     0.037 A 
ATOM     56  C   UNL A   1      40.083  30.241  30.092  1.00  0.00     0.037 A 
ATOM     57  C   UNL A   1      45.847  29.609  27.084  1.00  0.00     0.049 A 
ATOM     58  C   UNL A   1      41.262  31.164  29.899  1.00  0.00     0.074 A 
ATOM     59  C   UNL A   1      46.819  30.575  26.892  1.00  0.00     0.029 A 
ATOM     60  N   UNL A   1      44.830  30.204  27.817  1.00  0.00    -0.354 N 
ATOM     61  N   UNL A   1      42.385  30.955  29.256  1.00  0.00    -0.248 NA
ATOM     62  C   UNL A   1      41.163  32.501  30.506  1.00  0.00     0.031 C 
ATOM     63  C   UNL A   1      46.419  31.734  27.565  1.00  0.00     0.029 A 
ATOM     64  C   UNL A   1      45.166  31.515  28.114  1.00  0.00     0.049 A 
ATOM     65  H   UNL A   1      43.993  29.759  28.087  1.00  0.00     0.167 HD
ATOM     66  C   UNL A   1      43.107  32.139  29.349  1.00  0.00     0.074 A 
ATOM     67  C   UNL A   1      42.290  33.067  30.100  1.00  0.00     0.031 C 
ATOM     68  C   UNL A   1      44.336  32.431  28.854  1.00  0.00     0.037 A 
BRANCH  55  69
ATOM     69  C   UNL A   1      47.052  27.721  25.917  1.00  0.00     0.064 A 
ATOM     70  C   UNL A   1      47.148  27.754  24.518  1.00  0.00     0.173 A 
ATOM     71  C   UNL A   1      48.144  27.210  26.636  1.00  0.00     0.173 A 
ATOM     72  F   UNL A   1      46.126  28.218  23.782  1.00  0.00    -0.203 F 
ATOM     73  C   UNL A   1      48.279  27.270  23.865  1.00  0.00     0.198 A 
ATOM     74  C   UNL A   1      49.287  26.759  25.982  1.00  0.00     0.198 A 
ATOM     75  F   UNL A   1      48.106  27.156  27.976  1.00  0.00    -0.203 F 
ATOM     76  F   UNL A   1      48.325  27.263  22.525  1.00  0.00    -0.200 F 
ATOM     77  C   UNL A   1      49.350  26.781  24.597  1.00  0.00     0.200 A 
ATOM     78  F   UNL A   1      50.326  26.300  26.692  1.00  0.00    -0.200 F 
ATOM     79  F   UNL A   1      50.441  26.324  23.968  1.00  0.00    -0.200 F 
ENDBRANCH  55  69
BRANCH  56  80
ATOM     80  C   UNL A   1      38.890  30.688  30.862  1.00  0.00     0.064 A 
ATOM     81  C   UNL A   1      37.810  31.317  30.227  1.00  0.00     0.173 A 
ATOM     82  C   UNL A   1      38.820  30.524  32.254  1.00  0.00     0.173 A 
ATOM     83  F   UNL A   1      37.841  31.523  28.902  1.00  0.00    -0.203 F 
ATOM     84  C   UNL A   1      36.719  31.786  30.956  1.00  0.00     0.198 A 
ATOM     85  C   UNL A   1      37.713  30.963  32.977  1.00  0.00     0.198 A 
ATOM     86  F   UNL A   1      39.827  29.932  32.913  1.00  0.00    -0.203 F 
ATOM     87  F   UNL A   1      35.728  32.435  30.330  1.00  0.00    -0.200 F 
ATOM     88  C   UNL A   1      36.668  31.603  32.329  1.00  0.00     0.200 A 
ATOM     89  F   UNL A   1      37.663  30.772  34.303  1.00  0.00    -0.200 F 
ATOM     90  F   UNL A   1      35.618  32.053  33.029  1.00  0.00    -0.200 F 
ENDBRANCH  56  80
BRANCH  68  91
ATOM     91  C   UNL A   1      44.856  33.828  29.063  1.00  0.00     0.064 A 
ATOM     92  C   UNL A   1      44.573  34.868  28.165  1.00  0.00     0.173 A 
ATOM     93  C   UNL A   1      45.610  34.137  30.206  1.00  0.00     0.173 A 
ATOM     94  F   UNL A   1      43.865  34.626  27.052  1.00  0.00    -0.203 F 
ATOM     95  C   UNL A   1      45.054  36.156  28.388  1.00  0.00     0.198 A 
ATOM     96  C   UNL A   1      46.057  35.434  30.444  1.00  0.00     0.198 A 
ATOM     97  F   UNL A   1      45.902  33.183  31.104  1.00  0.00    -0.203 F 
ATOM     98  F   UNL A   1      44.818  37.121  27.488  1.00  0.00    -0.200 F 
ATOM     99  C   UNL A   1      45.787  36.440  29.531  1.00  0.00     0.200 A 
ATOM    100  F   UNL A   1      46.749  35.708  31.559  1.00  0.00    -0.200 F 
ATOM    101  F   UNL A   1      46.240  37.683  29.747  1.00  0.00    -0.200 F 
ENDBRANCH  68  91
ENDBRANCH  42  43
ENDBRANCH  35  37
ENDBRANCH  34  35
ENDBRANCH  33  34
ENDBRANCH  32  33
ENDBRANCH  31  32
ENDBRANCH  30  31
ENDBRANCH  29  30
ENDBRANCH  28  29
ENDBRANCH   1  28
TORSDOF 23
ENDMDL
MODEL 3
REMARK VINA RESULT:     -10.5      5.399     11.167
REMARK SMILES COc1cccc(NC(=O)[C@@H]2[C@@H](C(=O)OCCOCCOCCOCCOC(=O)c3ccc(-c4c5nc(c(-c6c(F)c(F)c(F)c(F)c6F)c6ccc([nH]6)c(-c6c(F)c(F)c(F)c(F)c6F)c6nc(c(-c7c(F)c(F)c(F)c(F)c7F)c7ccc4[nH]7)C=C6)C=C5)cc3)[C@H]3C=C[C@@H]2C3)c1
REMARK SMILES IDX 20 1 19 2 18 3 17 4 16 5 15 6 13 7 14 8 12 9 11 10 96 11
REMARK SMILES IDX 93 12 95 13 97 14 94 15 9 16 8 17 10 19 7 20 3 21 4 22 98 23
REMARK SMILES IDX 5 24 6 25 2 26 1 27 21 28 22 29 23 30 24 31 25 32 26 33
REMARK SMILES IDX 27 34 28 35 29 36 30 37 31 38 92 39 32 40 91 41 33 42 34 43
REMARK SMILES IDX 35 44 85 45 36 46 90 47 84 48 86 49 37 50 89 51 83 52 82 53
REMARK SMILES IDX 38 55 70 56 50 57 69 58 51 59 54 60 68 61 87 62 52 63 53 64
REMARK SMILES IDX 67 66 88 67 55 68 39 69 40 70 48 71 41 72 42 73 46 74 49 75
REMARK SMILES IDX 43 76 44 77 47 78 45 79 71 80 72 81 80 82 73 83 74 84 78 85
REMARK SMILES IDX 81 86 75 87 76 88 79 89 77 90 56 91 57 92 65 93 58 94 59 95
REMARK SMILES IDX 63 96 66 97 60 98 61 99 64 100 62 101
REMARK H PARENT 8 18 86 54 54 65
REMARK Flexibility Score: inf
ROOT
ATOM      1  C   UNL A   1      33.841  33.002  28.359  1.00  0.00     0.188 C 
ENDROOT
BRANCH   1   2
ATOM      2  C   UNL A   1      34.547  31.870  27.587  1.00  0.00     0.188 C 
BRANCH   2   3
ATOM      3  O   UNL A   1      33.901  30.614  27.724  1.00  0.00    -0.376 OA
BRANCH   3   4
ATOM      4  C   UNL A   1      34.500  29.396  27.323  1.00  0.00     0.202 C 
BRANCH   4   5
ATOM      5  C   UNL A   1      33.978  28.522  26.170  1.00  0.00     0.261 C 
BRANCH   5   6
ATOM      6  O   UNL A   1      33.154  27.411  26.509  1.00  0.00    -0.463 OA
BRANCH   6   7
ATOM      7  C   UNL A   1      33.352  26.249  25.837  1.00  0.00     0.310 C 
ATOM      8  O   UNL A   1      34.292  26.015  25.095  1.00  0.00    -0.252 OA
BRANCH   7   9
ATOM      9  C   UNL A   1      32.256  25.291  26.275  1.00  0.00     0.119 C 
ATOM     10  C   UNL A   1      32.228  23.924  25.582  1.00  0.00     0.100 C 
ATOM     11  C   UNL A   1      30.883  23.961  24.816  1.00  0.00     0.025 C 
ATOM     12  C   UNL A   1      30.844  25.859  25.992  1.00  0.00     0.027 C 
ATOM     13  C   UNL A   1      30.900  25.119  23.830  1.00  0.00    -0.027 C 
ATOM     14  C   UNL A   1      29.968  24.608  25.850  1.00  0.00     0.017 C 
ATOM     15  C   UNL A   1      30.819  26.259  24.539  1.00  0.00    -0.027 C 
BRANCH  10  16
ATOM     16  C   UNL A   1      32.380  22.668  26.464  1.00  0.00     0.228 C 
ATOM     17  N   UNL A   1      32.560  21.357  26.152  1.00  0.00    -0.326 N 
ATOM     18  H   UNL A   1      32.792  20.869  26.974  1.00  0.00     0.169 HD
ATOM     19  O   UNL A   1      32.428  22.875  27.692  1.00  0.00    -0.274 OA
BRANCH  17  20
ATOM     20  C   UNL A   1      32.538  20.437  25.074  1.00  0.00     0.044 A 
ATOM     21  C   UNL A   1      32.964  18.130  24.383  1.00  0.00     0.120 A 
ATOM     22  C   UNL A   1      32.644  18.418  23.065  1.00  0.00     0.046 A 
ATOM     23  C   UNL A   1      32.928  19.119  25.376  1.00  0.00     0.072 A 
ATOM     24  C   UNL A   1      32.214  19.693  22.757  1.00  0.00     0.006 A 
ATOM     25  C   UNL A   1      32.154  20.673  23.756  1.00  0.00     0.026 A 
BRANCH  21  26
ATOM     26  O   UNL A   1      33.375  16.866  24.703  1.00  0.00    -0.497 OA
ATOM     27  C   UNL A   1      32.549  16.322  25.733  1.00  0.00     0.278 C 
ENDBRANCH  21  26
ENDBRANCH  17  20
ENDBRANCH  10  16
ENDBRANCH   7   9
ENDBRANCH   6   7
ENDBRANCH   5   6
ENDBRANCH   4   5
ENDBRANCH   3   4
ENDBRANCH   2   3
ENDBRANCH   1   2
BRANCH   1  28
ATOM     28  O   UNL A   1      34.413  34.275  28.099  1.00  0.00    -0.377 OA
BRANCH  28  29
ATOM     29  C   UNL A   1      34.276  35.265  29.123  1.00  0.00     0.188 C 
BRANCH  29  30
ATOM     30  C   UNL A   1      33.072  35.272  30.104  1.00  0.00     0.188 C 
BRANCH  30  31
ATOM     31  O   UNL A   1      33.402  34.927  31.442  1.00  0.00    -0.376 OA
BRANCH  31  32
ATOM     32  C   UNL A   1      34.596  34.217  31.704  1.00  0.00     0.202 C 
BRANCH  32  33
ATOM     33  C   UNL A   1      34.495  33.083  32.729  1.00  0.00     0.261 C 
BRANCH  33  34
ATOM     34  O   UNL A   1      35.373  31.970  32.507  1.00  0.00    -0.460 OA
BRANCH  34  35
ATOM     35  C   UNL A   1      36.550  31.982  33.164  1.00  0.00     0.338 C 
ATOM     36  O   UNL A   1      36.744  32.285  34.333  1.00  0.00    -0.246 OA
BRANCH  35  37
ATOM     37  C   UNL A   1      37.563  31.373  32.281  1.00  0.00     0.060 A 
ATOM     38  C   UNL A   1      38.619  30.649  32.852  1.00  0.00     0.016 A 
ATOM     39  C   UNL A   1      37.465  31.511  30.896  1.00  0.00     0.016 A 
ATOM     40  C   UNL A   1      39.602  30.090  32.036  1.00  0.00     0.010 A 
ATOM     41  C   UNL A   1      38.462  30.973  30.081  1.00  0.00     0.010 A 
ATOM     42  C   UNL A   1      39.553  30.292  30.651  1.00  0.00    -0.014 A 
BRANCH  42  43
ATOM     43  C   UNL A   1      40.743  29.984  29.824  1.00  0.00     0.031 A 
ATOM     44  C   UNL A   1      40.841  28.616  29.205  1.00  0.00     0.074 A 
ATOM     45  C   UNL A   1      41.703  30.898  29.606  1.00  0.00     0.049 A 
ATOM     46  N   UNL A   1      41.806  28.089  28.496  1.00  0.00    -0.248 NA
ATOM     47  C   UNL A   1      39.694  27.721  29.423  1.00  0.00     0.031 C 
ATOM     48  C   UNL A   1      41.697  32.268  30.110  1.00  0.00     0.029 A 
ATOM     49  N   UNL A   1      42.882  30.799  28.908  1.00  0.00    -0.354 N 
ATOM     50  C   UNL A   1      41.385  26.801  28.193  1.00  0.00     0.074 A 
ATOM     51  C   UNL A   1      40.096  26.613  28.821  1.00  0.00     0.031 C 
ATOM     52  C   UNL A   1      42.828  32.881  29.716  1.00  0.00     0.029 A 
ATOM     53  C   UNL A   1      43.651  31.933  28.966  1.00  0.00     0.049 A 
ATOM     54  H   UNL A   1      43.149  29.991  28.413  1.00  0.00     0.167 HD
ATOM     55  C   UNL A   1      42.015  25.860  27.449  1.00  0.00     0.037 A 
ATOM     56  C   UNL A   1      44.891  32.165  28.490  1.00  0.00     0.037 A 
ATOM     57  C   UNL A   1      43.299  26.051  26.829  1.00  0.00     0.049 A 
ATOM     58  C   UNL A   1      45.608  31.073  27.734  1.00  0.00     0.074 A 
ATOM     59  C   UNL A   1      44.016  25.168  26.041  1.00  0.00     0.029 A 
ATOM     60  N   UNL A   1      44.065  27.203  26.937  1.00  0.00    -0.354 N 
ATOM     61  N   UNL A   1      45.197  29.866  27.428  1.00  0.00    -0.248 NA
ATOM     62  C   UNL A   1      46.965  31.380  27.256  1.00  0.00     0.031 C 
ATOM     63  C   UNL A   1      45.244  25.761  25.729  1.00  0.00     0.029 A 
ATOM     64  C   UNL A   1      45.262  27.041  26.258  1.00  0.00     0.049 A 
ATOM     65  H   UNL A   1      43.797  28.017  27.425  1.00  0.00     0.167 HD
ATOM     66  C   UNL A   1      46.225  29.285  26.695  1.00  0.00     0.074 A 
ATOM     67  C   UNL A   1      47.274  30.276  26.590  1.00  0.00     0.031 C 
ATOM     68  C   UNL A   1      46.293  28.043  26.153  1.00  0.00     0.037 A 
BRANCH  55  69
ATOM     69  C   UNL A   1      41.339  24.529  27.296  1.00  0.00     0.064 A 
ATOM     70  C   UNL A   1      41.812  23.377  27.942  1.00  0.00     0.173 A 
ATOM     71  C   UNL A   1      40.181  24.411  26.512  1.00  0.00     0.173 A 
ATOM     72  F   UNL A   1      42.926  23.431  28.690  1.00  0.00    -0.203 F 
ATOM     73  C   UNL A   1      41.168  22.152  27.787  1.00  0.00     0.198 A 
ATOM     74  C   UNL A   1      39.520  23.193  26.387  1.00  0.00     0.198 A 
ATOM     75  F   UNL A   1      39.685  25.481  25.873  1.00  0.00    -0.203 F 
ATOM     76  F   UNL A   1      41.669  21.055  28.371  1.00  0.00    -0.200 F 
ATOM     77  C   UNL A   1      40.018  22.063  27.017  1.00  0.00     0.200 A 
ATOM     78  F   UNL A   1      38.400  23.112  25.655  1.00  0.00    -0.200 F 
ATOM     79  F   UNL A   1      39.394  20.886  26.876  1.00  0.00    -0.200 F 
ENDBRANCH  55  69
BRANCH  56  80
ATOM     80  C   UNL A   1      45.547  33.481  28.724  1.00  0.00     0.064 A 
ATOM     81  C   UNL A   1      45.476  34.507  27.771  1.00  0.00     0.173 A 
ATOM     82  C   UNL A   1      46.286  33.727  29.891  1.00  0.00     0.173 A 
ATOM     83  F   UNL A   1      44.806  34.312  26.626  1.00  0.00    -0.203 F 
ATOM     84  C   UNL A   1      46.139  35.718  27.965  1.00  0.00     0.198 A 
ATOM     85  C   UNL A   1      46.919  34.950  30.099  1.00  0.00     0.198 A 
ATOM     86  F   UNL A   1      46.389  32.779  30.834  1.00  0.00    -0.203 F 
ATOM     87  F   UNL A   1      46.102  36.659  27.012  1.00  0.00    -0.200 F 
ATOM     88  C   UNL A   1      46.854  35.941  29.132  1.00  0.00     0.200 A 
ATOM     89  F   UNL A   1      47.598  35.166  31.234  1.00  0.00    -0.200 F 
ATOM     90  F   UNL A   1      47.489  37.106  29.318  1.00  0.00    -0.200 F 
ENDBRANCH  56  80
BRANCH  68  91
ATOM     91  C   UNL A   1      47.520  27.698  25.355  1.00  0.00     0.064 A 
ATOM     92  C   UNL A   1      48.685  27.203  25.961  1.00  0.00     0.173 A 
ATOM     93  C   UNL A   1      47.512  27.822  23.957  1.00  0.00     0.173 A 
ATOM     94  F   UNL A   1      48.751  27.075  27.294  1.00  0.00    -0.203 F 
ATOM     95  C   UNL A   1      49.804  26.876  25.199  1.00  0.00     0.198 A 
ATOM     96  C   UNL A   1      48.620  27.459  23.196  1.00  0.00     0.198 A 
ATOM     97  F   UNL A   1      46.421  28.280  23.324  1.00  0.00    -0.203 F 
ATOM     98  F   UNL A   1      50.925  26.458  25.805  1.00  0.00    -0.200 F 
ATOM     99  C   UNL A   1      49.768  26.996  23.818  1.00  0.00     0.200 A 
ATOM    100  F   UNL A   1      48.574  27.557  21.860  1.00  0.00    -0.200 F 
ATOM    101  F   UNL A   1      50.844  26.672  23.087  1.00  0.00    -0.200 F 
ENDBRANCH  68  91
ENDBRANCH  42  43
ENDBRANCH  35  37
ENDBRANCH  34  35
ENDBRANCH  33  34
ENDBRANCH  32  33
ENDBRANCH  31  32
ENDBRANCH  30  31
ENDBRANCH  29  30
ENDBRANCH  28  29
ENDBRANCH   1  28
TORSDOF 23
ENDMDL
