MODEL 1
REMARK VINA RESULT:      -9.7      0.000      0.000
REMARK SMILES CC(C)(C(=O)OCCOCCOCCOCCOC(=O)c1ccc(-c2c3nc(c(-c4c(F)c(F)c(F)c(F)c4F)c4ccc([nH]4)c(-c4c(F)c(F)c(F)c(F)c4F)c4nc(c(-c5c(F)c(F)c(F)c(F)c5F)c5ccc2[nH]5)C=C4)C=C3)cc1)c1ccc(C(=O)CCCCl)cc1
REMARK SMILES IDX 10 1 9 2 8 3 7 4 6 5 4 6 5 7 2 8 1 9 3 10 84 11 85 12 95 13
REMARK SMILES IDX 86 14 94 15 87 16 88 17 89 18 90 19 91 20 92 21 93 22 11 23
REMARK SMILES IDX 12 24 13 25 14 26 15 27 16 28 17 29 18 30 19 31 20 32 21 33
REMARK SMILES IDX 22 34 83 35 23 36 82 37 24 38 25 39 26 40 76 41 27 42 81 43
REMARK SMILES IDX 75 44 77 45 28 46 80 47 74 48 73 49 29 51 61 52 41 53 60 54
REMARK SMILES IDX 42 55 45 56 59 57 78 58 43 59 44 60 58 62 79 63 46 64 30 65
REMARK SMILES IDX 31 66 39 67 32 68 33 69 37 70 40 71 34 72 35 73 38 74 36 75
REMARK SMILES IDX 62 76 63 77 71 78 64 79 65 80 69 81 72 82 66 83 67 84 70 85
REMARK SMILES IDX 68 86 47 87 48 88 56 89 49 90 50 91 54 92 57 93 51 94 52 95
REMARK SMILES IDX 55 96 53 97
REMARK H PARENT 77 50 45 61
REMARK Flexibility Score: inf
ROOT
ATOM      1  C   UNL A   1      34.176  32.609  28.406  1.00  0.00     0.188 C 
ENDROOT
BRANCH   1   2
ATOM      2  O   UNL A   1      33.869  31.546  27.516  1.00  0.00    -0.376 OA
BRANCH   2   3
ATOM      3  C   UNL A   1      34.327  30.231  27.780  1.00  0.00     0.202 C 
BRANCH   3   4
ATOM      4  C   UNL A   1      34.255  29.125  26.708  1.00  0.00     0.261 C 
BRANCH   4   5
ATOM      5  O   UNL A   1      33.044  29.008  25.931  1.00  0.00    -0.463 OA
BRANCH   5   6
ATOM      6  C   UNL A   1      33.181  28.450  24.700  1.00  0.00     0.316 C 
ATOM      7  O   UNL A   1      34.022  28.825  23.886  1.00  0.00    -0.251 OA
BRANCH   6   8
ATOM      8  C   UNL A   1      32.141  27.328  24.378  1.00  0.00     0.087 C 
ATOM      9  C   UNL A   1      30.872  27.251  25.267  1.00  0.00     0.028 C 
ATOM     10  C   UNL A   1      31.612  27.756  22.988  1.00  0.00     0.028 C 
BRANCH   8  11
ATOM     11  C   UNL A   1      32.904  25.974  24.377  1.00  0.00    -0.031 A 
ATOM     12  C   UNL A   1      32.724  25.032  23.353  1.00  0.00     0.005 A 
ATOM     13  C   UNL A   1      33.936  25.711  25.304  1.00  0.00     0.005 A 
ATOM     14  C   UNL A   1      33.597  23.946  23.202  1.00  0.00     0.012 A 
ATOM     15  C   UNL A   1      34.809  24.626  25.157  1.00  0.00     0.012 A 
ATOM     16  C   UNL A   1      34.682  23.773  24.066  1.00  0.00     0.018 A 
BRANCH  16  17
ATOM     17  C   UNL A   1      35.690  22.723  23.740  1.00  0.00     0.162 C 
ATOM     18  O   UNL A   1      36.341  22.823  22.700  1.00  0.00    -0.294 OA
BRANCH  17  19
ATOM     19  C   UNL A   1      35.956  21.584  24.713  1.00  0.00     0.082 C 
BRANCH  19  20
ATOM     20  C   UNL A   1      34.845  20.528  24.743  1.00  0.00     0.024 C 
BRANCH  20  21
ATOM     21  C   UNL A   1      33.667  20.809  25.674  1.00  0.00     0.110 C 
ATOM     22  Cl  UNL A   1      32.160  21.107  24.774  1.00  0.00    -0.127 Cl
ENDBRANCH  20  21
ENDBRANCH  19  20
ENDBRANCH  17  19
ENDBRANCH  16  17
ENDBRANCH   8  11
ENDBRANCH   6   8
ENDBRANCH   5   6
ENDBRANCH   4   5
ENDBRANCH   3   4
ENDBRANCH   2   3
ENDBRANCH   1   2
BRANCH   1  23
ATOM     23  C   UNL A   1      33.633  34.028  28.153  1.00  0.00     0.188 C 
BRANCH  23  24
ATOM     24  O   UNL A   1      32.722  34.512  29.119  1.00  0.00    -0.377 OA
BRANCH  24  25
ATOM     25  C   UNL A   1      32.909  35.851  29.542  1.00  0.00     0.188 C 
BRANCH  25  26
ATOM     26  C   UNL A   1      32.560  36.193  31.002  1.00  0.00     0.188 C 
BRANCH  26  27
ATOM     27  O   UNL A   1      33.668  36.116  31.891  1.00  0.00    -0.376 OA
BRANCH  27  28
ATOM     28  C   UNL A   1      34.119  34.846  32.339  1.00  0.00     0.202 C 
BRANCH  28  29
ATOM     29  C   UNL A   1      35.639  34.622  32.420  1.00  0.00     0.261 C 
BRANCH  29  30
ATOM     30  O   UNL A   1      36.136  33.413  31.828  1.00  0.00    -0.460 OA
BRANCH  30  31
ATOM     31  C   UNL A   1      36.622  32.475  32.662  1.00  0.00     0.338 C 
ATOM     32  O   UNL A   1      36.246  32.234  33.799  1.00  0.00    -0.246 OA
BRANCH  31  33
ATOM     33  C   UNL A   1      37.565  31.624  31.909  1.00  0.00     0.060 A 
ATOM     34  C   UNL A   1      38.519  30.893  32.630  1.00  0.00     0.016 A 
ATOM     35  C   UNL A   1      37.528  31.557  30.513  1.00  0.00     0.016 A 
ATOM     36  C   UNL A   1      39.489  30.158  31.956  1.00  0.00     0.010 A 
ATOM     37  C   UNL A   1      38.519  30.839  29.836  1.00  0.00     0.010 A 
ATOM     38  C   UNL A   1      39.537  30.191  30.558  1.00  0.00    -0.014 A 
BRANCH  38  39
ATOM     39  C   UNL A   1      40.810  29.814  29.895  1.00  0.00     0.031 A 
ATOM     40  C   UNL A   1      40.888  28.450  29.259  1.00  0.00     0.074 A 
ATOM     41  C   UNL A   1      41.830  30.680  29.774  1.00  0.00     0.049 A 
ATOM     42  N   UNL A   1      41.860  27.897  28.581  1.00  0.00    -0.248 NA
ATOM     43  C   UNL A   1      39.699  27.593  29.406  1.00  0.00     0.031 C 
ATOM     44  C   UNL A   1      41.848  32.044  30.295  1.00  0.00     0.029 A 
ATOM     45  N   UNL A   1      43.046  30.535  29.157  1.00  0.00    -0.354 N 
ATOM     46  C   UNL A   1      41.403  26.631  28.233  1.00  0.00     0.074 A 
ATOM     47  C   UNL A   1      40.085  26.481  28.804  1.00  0.00     0.031 C 
ATOM     48  C   UNL A   1      43.023  32.615  29.973  1.00  0.00     0.029 A 
ATOM     49  C   UNL A   1      43.846  31.647  29.248  1.00  0.00     0.049 A 
ATOM     50  H   UNL A   1      43.321  29.711  28.693  1.00  0.00     0.167 HD
ATOM     51  C   UNL A   1      42.022  25.682  27.493  1.00  0.00     0.037 A 
ATOM     52  C   UNL A   1      45.100  31.850  28.801  1.00  0.00     0.037 A 
ATOM     53  C   UNL A   1      43.333  25.838  26.922  1.00  0.00     0.049 A 
ATOM     54  C   UNL A   1      45.797  30.749  28.039  1.00  0.00     0.074 A 
ATOM     55  C   UNL A   1      44.048  24.944  26.145  1.00  0.00     0.029 A 
ATOM     56  N   UNL A   1      44.130  26.963  27.076  1.00  0.00    -0.354 N 
ATOM     57  N   UNL A   1      45.352  29.564  27.693  1.00  0.00    -0.248 NA
ATOM     58  C   UNL A   1      47.170  31.023  27.593  1.00  0.00     0.031 C 
ATOM     59  C   UNL A   1      45.305  25.501  25.887  1.00  0.00     0.029 A 
ATOM     60  C   UNL A   1      45.343  26.774  26.433  1.00  0.00     0.049 A 
ATOM     61  H   UNL A   1      43.874  27.774  27.571  1.00  0.00     0.167 HD
ATOM     62  C   UNL A   1      46.368  28.973  26.952  1.00  0.00     0.074 A 
ATOM     63  C   UNL A   1      47.448  29.935  26.891  1.00  0.00     0.031 C 
ATOM     64  C   UNL A   1      46.402  27.749  26.366  1.00  0.00     0.037 A 
BRANCH  51  65
ATOM     65  C   UNL A   1      41.304  24.376  27.299  1.00  0.00     0.064 A 
ATOM     66  C   UNL A   1      41.715  23.196  27.938  1.00  0.00     0.173 A 
ATOM     67  C   UNL A   1      40.177  24.310  26.466  1.00  0.00     0.173 A 
ATOM     68  F   UNL A   1      42.799  23.199  28.730  1.00  0.00    -0.203 F 
ATOM     69  C   UNL A   1      41.045  21.994  27.724  1.00  0.00     0.198 A 
ATOM     70  C   UNL A   1      39.488  23.115  26.283  1.00  0.00     0.198 A 
ATOM     71  F   UNL A   1      39.741  25.408  25.829  1.00  0.00    -0.203 F 
ATOM     72  F   UNL A   1      41.493  20.868  28.296  1.00  0.00    -0.200 F 
ATOM     73  C   UNL A   1      39.928  21.956  26.903  1.00  0.00     0.200 A 
ATOM     74  F   UNL A   1      38.400  23.084  25.501  1.00  0.00    -0.200 F 
ATOM     75  F   UNL A   1      39.281  20.800  26.703  1.00  0.00    -0.200 F 
ENDBRANCH  51  65
BRANCH  52  76
ATOM     76  C   UNL A   1      45.785  33.147  29.053  1.00  0.00     0.064 A 
ATOM     77  C   UNL A   1      45.711  34.198  28.129  1.00  0.00     0.173 A 
ATOM     78  C   UNL A   1      46.561  33.347  30.205  1.00  0.00     0.173 A 
ATOM     79  F   UNL A   1      45.004  34.049  26.999  1.00  0.00    -0.203 F 
ATOM     80  C   UNL A   1      46.406  35.390  28.333  1.00  0.00     0.198 A 
ATOM     81  C   UNL A   1      47.228  34.550  30.425  1.00  0.00     0.198 A 
ATOM     82  F   UNL A   1      46.668  32.373  31.120  1.00  0.00    -0.203 F 
ATOM     83  F   UNL A   1      46.363  36.355  27.405  1.00  0.00    -0.200 F 
ATOM     84  C   UNL A   1      47.160  35.566  29.483  1.00  0.00     0.200 A 
ATOM     85  F   UNL A   1      47.945  34.722  31.544  1.00  0.00    -0.200 F 
ATOM     86  F   UNL A   1      47.828  36.710  29.681  1.00  0.00    -0.200 F 
ENDBRANCH  52  76
BRANCH  64  87
ATOM     87  C   UNL A   1      47.615  27.406  25.545  1.00  0.00     0.064 A 
ATOM     88  C   UNL A   1      48.760  26.825  26.107  1.00  0.00     0.173 A 
ATOM     89  C   UNL A   1      47.617  27.647  24.161  1.00  0.00     0.173 A 
ATOM     90  F   UNL A   1      48.816  26.580  27.425  1.00  0.00    -0.203 F 
ATOM     91  C   UNL A   1      49.878  26.540  25.326  1.00  0.00     0.198 A 
ATOM     92  C   UNL A   1      48.719  27.322  23.376  1.00  0.00     0.198 A 
ATOM     93  F   UNL A   1      46.543  28.189  23.566  1.00  0.00    -0.203 F 
ATOM     94  F   UNL A   1      50.986  26.048  25.898  1.00  0.00    -0.200 F 
ATOM     95  C   UNL A   1      49.853  26.782  23.960  1.00  0.00     0.200 A 
ATOM     96  F   UNL A   1      48.684  27.538  22.053  1.00  0.00    -0.200 F 
ATOM     97  F   UNL A   1      50.928  26.505  23.209  1.00  0.00    -0.200 F 
ENDBRANCH  64  87
ENDBRANCH  38  39
ENDBRANCH  31  33
ENDBRANCH  30  31
ENDBRANCH  29  30
ENDBRANCH  28  29
ENDBRANCH  27  28
ENDBRANCH  26  27
ENDBRANCH  25  26
ENDBRANCH  24  25
ENDBRANCH  23  24
ENDBRANCH   1  23
TORSDOF 25
ENDMDL
MODEL 2
REMARK VINA RESULT:      -9.2      1.256      2.130
REMARK SMILES CC(C)(C(=O)OCCOCCOCCOCCOC(=O)c1ccc(-c2c3nc(c(-c4c(F)c(F)c(F)c(F)c4F)c4ccc([nH]4)c(-c4c(F)c(F)c(F)c(F)c4F)c4nc(c(-c5c(F)c(F)c(F)c(F)c5F)c5ccc2[nH]5)C=C4)C=C3)cc1)c1ccc(C(=O)CCCCl)cc1
REMARK SMILES IDX 10 1 9 2 8 3 7 4 6 5 4 6 5 7 2 8 1 9 3 10 84 11 85 12 95 13
REMARK SMILES IDX 86 14 94 15 87 16 88 17 89 18 90 19 91 20 92 21 93 22 11 23
REMARK SMILES IDX 12 24 13 25 14 26 15 27 16 28 17 29 18 30 19 31 20 32 21 33
REMARK SMILES IDX 22 34 83 35 23 36 82 37 24 38 25 39 26 40 76 41 27 42 81 43
REMARK SMILES IDX 75 44 77 45 28 46 80 47 74 48 73 49 29 51 61 52 41 53 60 54
REMARK SMILES IDX 42 55 45 56 59 57 78 58 43 59 44 60 58 62 79 63 46 64 30 65
REMARK SMILES IDX 31 66 39 67 32 68 33 69 37 70 40 71 34 72 35 73 38 74 36 75
REMARK SMILES IDX 62 76 63 77 71 78 64 79 65 80 69 81 72 82 66 83 67 84 70 85
REMARK SMILES IDX 68 86 47 87 48 88 56 89 49 90 50 91 54 92 57 93 51 94 52 95
REMARK SMILES IDX 55 96 53 97
REMARK H PARENT 77 50 45 61
REMARK Flexibility Score: inf
ROOT
ATOM      1  C   UNL A   1      33.887  32.731  28.153  1.00  0.00     0.188 C 
ENDROOT
BRANCH   1   2
ATOM      2  O   UNL A   1      33.423  31.698  27.295  1.00  0.00    -0.376 OA
BRANCH   2   3
ATOM      3  C   UNL A   1      33.724  30.341  27.574  1.00  0.00     0.202 C 
BRANCH   3   4
ATOM      4  C   UNL A   1      33.854  29.299  26.445  1.00  0.00     0.261 C 
BRANCH   4   5
ATOM      5  O   UNL A   1      33.190  29.567  25.192  1.00  0.00    -0.463 OA
BRANCH   5   6
ATOM      6  C   UNL A   1      33.256  28.578  24.263  1.00  0.00     0.316 C 
ATOM      7  O   UNL A   1      34.272  28.338  23.613  1.00  0.00    -0.251 OA
BRANCH   6   8
ATOM      8  C   UNL A   1      31.915  27.805  24.043  1.00  0.00     0.087 C 
ATOM      9  C   UNL A   1      30.621  28.439  24.615  1.00  0.00     0.028 C 
ATOM     10  C   UNL A   1      31.736  27.883  22.507  1.00  0.00     0.028 C 
BRANCH   8  11
ATOM     11  C   UNL A   1      32.116  26.362  24.586  1.00  0.00    -0.031 A 
ATOM     12  C   UNL A   1      31.672  25.992  25.864  1.00  0.00     0.005 A 
ATOM     13  C   UNL A   1      32.590  25.325  23.756  1.00  0.00     0.005 A 
ATOM     14  C   UNL A   1      31.604  24.646  26.248  1.00  0.00     0.012 A 
ATOM     15  C   UNL A   1      32.526  23.978  24.137  1.00  0.00     0.012 A 
ATOM     16  C   UNL A   1      31.973  23.628  25.364  1.00  0.00     0.018 A 
BRANCH  16  17
ATOM     17  C   UNL A   1      31.691  22.215  25.748  1.00  0.00     0.162 C 
ATOM     18  O   UNL A   1      30.559  21.912  26.123  1.00  0.00    -0.294 OA
BRANCH  17  19
ATOM     19  C   UNL A   1      32.772  21.151  25.615  1.00  0.00     0.082 C 
BRANCH  19  20
ATOM     20  C   UNL A   1      34.080  21.510  26.329  1.00  0.00     0.024 C 
BRANCH  20  21
ATOM     21  C   UNL A   1      35.288  21.786  25.436  1.00  0.00     0.110 C 
ATOM     22  Cl  UNL A   1      36.142  20.290  24.986  1.00  0.00    -0.127 Cl
ENDBRANCH  20  21
ENDBRANCH  19  20
ENDBRANCH  17  19
ENDBRANCH  16  17
ENDBRANCH   8  11
ENDBRANCH   6   8
ENDBRANCH   5   6
ENDBRANCH   4   5
ENDBRANCH   3   4
ENDBRANCH   2   3
ENDBRANCH   1   2
BRANCH   1  23
ATOM     23  C   UNL A   1      33.406  34.182  27.966  1.00  0.00     0.188 C 
BRANCH  23  24
ATOM     24  O   UNL A   1      32.596  34.693  29.005  1.00  0.00    -0.377 OA
BRANCH  24  25
ATOM     25  C   UNL A   1      32.996  35.934  29.560  1.00  0.00     0.188 C 
BRANCH  25  26
ATOM     26  C   UNL A   1      32.843  36.119  31.081  1.00  0.00     0.188 C 
BRANCH  26  27
ATOM     27  O   UNL A   1      34.010  35.782  31.821  1.00  0.00    -0.376 OA
BRANCH  27  28
ATOM     28  C   UNL A   1      34.334  34.417  32.035  1.00  0.00     0.202 C 
BRANCH  28  29
ATOM     29  C   UNL A   1      35.793  33.989  31.803  1.00  0.00     0.261 C 
BRANCH  29  30
ATOM     30  O   UNL A   1      35.990  32.728  31.149  1.00  0.00    -0.460 OA
BRANCH  30  31
ATOM     31  C   UNL A   1      36.243  31.662  31.932  1.00  0.00     0.338 C 
ATOM     32  O   UNL A   1      35.625  31.315  32.926  1.00  0.00    -0.246 OA
BRANCH  31  33
ATOM     33  C   UNL A   1      37.282  30.840  31.280  1.00  0.00     0.060 A 
ATOM     34  C   UNL A   1      38.390  30.445  32.042  1.00  0.00     0.016 A 
ATOM     35  C   UNL A   1      37.182  30.476  29.934  1.00  0.00     0.016 A 
ATOM     36  C   UNL A   1      39.439  29.756  31.442  1.00  0.00     0.010 A 
ATOM     37  C   UNL A   1      38.247  29.805  29.325  1.00  0.00     0.010 A 
ATOM     38  C   UNL A   1      39.404  29.501  30.066  1.00  0.00    -0.014 A 
BRANCH  38  39
ATOM     39  C   UNL A   1      40.685  29.209  29.378  1.00  0.00     0.031 A 
ATOM     40  C   UNL A   1      40.873  27.826  28.811  1.00  0.00     0.074 A 
ATOM     41  C   UNL A   1      41.614  30.159  29.176  1.00  0.00     0.049 A 
ATOM     42  N   UNL A   1      41.873  27.329  28.129  1.00  0.00    -0.248 NA
ATOM     43  C   UNL A   1      39.777  26.871  29.044  1.00  0.00     0.031 C 
ATOM     44  C   UNL A   1      41.518  31.545  29.625  1.00  0.00     0.029 A 
ATOM     45  N   UNL A   1      42.819  30.095  28.524  1.00  0.00    -0.354 N 
ATOM     46  C   UNL A   1      41.528  26.009  27.863  1.00  0.00     0.074 A 
ATOM     47  C   UNL A   1      40.248  25.768  28.488  1.00  0.00     0.031 C 
ATOM     48  C   UNL A   1      42.623  32.205  29.232  1.00  0.00     0.029 A 
ATOM     49  C   UNL A   1      43.511  31.280  28.529  1.00  0.00     0.049 A 
ATOM     50  H   UNL A   1      43.157  29.275  28.093  1.00  0.00     0.167 HD
ATOM     51  C   UNL A   1      42.211  25.083  27.152  1.00  0.00     0.037 A 
ATOM     52  C   UNL A   1      44.727  31.574  28.027  1.00  0.00     0.037 A 
ATOM     53  C   UNL A   1      43.483  25.329  26.526  1.00  0.00     0.049 A 
ATOM     54  C   UNL A   1      45.501  30.503  27.298  1.00  0.00     0.074 A 
ATOM     55  C   UNL A   1      44.256  24.465  25.771  1.00  0.00     0.029 A 
ATOM     56  N   UNL A   1      44.174  26.530  26.594  1.00  0.00    -0.354 N 
ATOM     57  N   UNL A   1      45.161  29.264  27.031  1.00  0.00    -0.248 NA
ATOM     58  C   UNL A   1      46.828  30.879  26.790  1.00  0.00     0.031 C 
ATOM     59  C   UNL A   1      45.445  25.121  25.440  1.00  0.00     0.029 A 
ATOM     60  C   UNL A   1      45.378  26.421  25.918  1.00  0.00     0.049 A 
ATOM     61  H   UNL A   1      43.857  27.340  27.055  1.00  0.00     0.167 HD
ATOM     62  C   UNL A   1      46.205  28.731  26.285  1.00  0.00     0.074 A 
ATOM     63  C   UNL A   1      47.187  29.785  26.135  1.00  0.00     0.031 C 
ATOM     64  C   UNL A   1      46.337  27.485  25.762  1.00  0.00     0.037 A 
BRANCH  51  65
ATOM     65  C   UNL A   1      41.616  23.707  27.051  1.00  0.00     0.064 A 
ATOM     66  C   UNL A   1      40.410  23.463  26.374  1.00  0.00     0.173 A 
ATOM     67  C   UNL A   1      42.271  22.612  27.633  1.00  0.00     0.173 A 
ATOM     68  F   UNL A   1      39.732  24.478  25.816  1.00  0.00    -0.203 F 
ATOM     69  C   UNL A   1      39.868  22.181  26.314  1.00  0.00     0.198 A 
ATOM     70  C   UNL A   1      41.745  21.327  27.540  1.00  0.00     0.198 A 
ATOM     71  F   UNL A   1      43.426  22.788  28.294  1.00  0.00    -0.203 F 
ATOM     72  F   UNL A   1      38.685  21.984  25.716  1.00  0.00    -0.200 F 
ATOM     73  C   UNL A   1      40.539  21.114  26.890  1.00  0.00     0.200 A 
ATOM     74  F   UNL A   1      42.404  20.295  28.085  1.00  0.00    -0.200 F 
ATOM     75  F   UNL A   1      40.020  19.880  26.827  1.00  0.00    -0.200 F 
ENDBRANCH  51  65
BRANCH  52  76
ATOM     76  C   UNL A   1      45.292  32.941  28.186  1.00  0.00     0.064 A 
ATOM     77  C   UNL A   1      46.046  33.288  29.316  1.00  0.00     0.173 A 
ATOM     78  C   UNL A   1      45.058  33.940  27.229  1.00  0.00     0.173 A 
ATOM     79  F   UNL A   1      46.277  32.378  30.273  1.00  0.00    -0.203 F 
ATOM     80  C   UNL A   1      46.521  34.587  29.496  1.00  0.00     0.198 A 
ATOM     81  C   UNL A   1      45.561  35.229  27.393  1.00  0.00     0.198 A 
ATOM     82  F   UNL A   1      44.341  33.662  26.130  1.00  0.00    -0.203 F 
ATOM     83  F   UNL A   1      47.188  34.905  30.613  1.00  0.00    -0.200 F 
ATOM     84  C   UNL A   1      46.282  35.555  28.532  1.00  0.00     0.200 A 
ATOM     85  F   UNL A   1      45.339  36.157  26.453  1.00  0.00    -0.200 F 
ATOM     86  F   UNL A   1      46.737  36.803  28.704  1.00  0.00    -0.200 F 
ENDBRANCH  52  76
BRANCH  64  87
ATOM     87  C   UNL A   1      47.552  27.213  24.917  1.00  0.00     0.064 A 
ATOM     88  C   UNL A   1      48.681  26.550  25.419  1.00  0.00     0.173 A 
ATOM     89  C   UNL A   1      47.571  27.607  23.569  1.00  0.00     0.173 A 
ATOM     90  F   UNL A   1      48.720  26.159  26.702  1.00  0.00    -0.203 F 
ATOM     91  C   UNL A   1      49.800  26.332  24.619  1.00  0.00     0.198 A 
ATOM     92  C   UNL A   1      48.675  27.350  22.761  1.00  0.00     0.198 A 
ATOM     93  F   UNL A   1      46.513  28.233  23.030  1.00  0.00    -0.203 F 
ATOM     94  F   UNL A   1      50.893  25.758  25.141  1.00  0.00    -0.200 F 
ATOM     95  C   UNL A   1      49.793  26.726  23.289  1.00  0.00     0.200 A 
ATOM     96  F   UNL A   1      48.657  27.714  21.470  1.00  0.00    -0.200 F 
ATOM     97  F   UNL A   1      50.870  26.515  22.520  1.00  0.00    -0.200 F 
ENDBRANCH  64  87
ENDBRANCH  38  39
ENDBRANCH  31  33
ENDBRANCH  30  31
ENDBRANCH  29  30
ENDBRANCH  28  29
ENDBRANCH  27  28
ENDBRANCH  26  27
ENDBRANCH  25  26
ENDBRANCH  24  25
ENDBRANCH  23  24
ENDBRANCH   1  23
TORSDOF 25
ENDMDL
MODEL 3
REMARK VINA RESULT:      -8.8      1.687      7.551
REMARK SMILES CC(C)(C(=O)OCCOCCOCCOCCOC(=O)c1ccc(-c2c3nc(c(-c4c(F)c(F)c(F)c(F)c4F)c4ccc([nH]4)c(-c4c(F)c(F)c(F)c(F)c4F)c4nc(c(-c5c(F)c(F)c(F)c(F)c5F)c5ccc2[nH]5)C=C4)C=C3)cc1)c1ccc(C(=O)CCCCl)cc1
REMARK SMILES IDX 10 1 9 2 8 3 7 4 6 5 4 6 5 7 2 8 1 9 3 10 84 11 85 12 95 13
REMARK SMILES IDX 86 14 94 15 87 16 88 17 89 18 90 19 91 20 92 21 93 22 11 23
REMARK SMILES IDX 12 24 13 25 14 26 15 27 16 28 17 29 18 30 19 31 20 32 21 33
REMARK SMILES IDX 22 34 83 35 23 36 82 37 24 38 25 39 26 40 76 41 27 42 81 43
REMARK SMILES IDX 75 44 77 45 28 46 80 47 74 48 73 49 29 51 61 52 41 53 60 54
REMARK SMILES IDX 42 55 45 56 59 57 78 58 43 59 44 60 58 62 79 63 46 64 30 65
REMARK SMILES IDX 31 66 39 67 32 68 33 69 37 70 40 71 34 72 35 73 38 74 36 75
REMARK SMILES IDX 62 76 63 77 71 78 64 79 65 80 69 81 72 82 66 83 67 84 70 85
REMARK SMILES IDX 68 86 47 87 48 88 56 89 49 90 50 91 54 92 57 93 51 94 52 95
REMARK SMILES IDX 55 96 53 97
REMARK H PARENT 77 50 45 61
REMARK Flexibility Score: inf
ROOT
ATOM      1  C   UNL A   1      35.483  30.985  28.411  1.00  0.00     0.188 C 
ENDROOT
BRANCH   1   2
ATOM      2  O   UNL A   1      34.687  30.282  27.468  1.00  0.00    -0.376 OA
BRANCH   2   3
ATOM      3  C   UNL A   1      33.290  30.508  27.395  1.00  0.00     0.202 C 
BRANCH   3   4
ATOM      4  C   UNL A   1      32.364  29.564  26.601  1.00  0.00     0.261 C 
BRANCH   4   5
ATOM      5  O   UNL A   1      32.945  28.770  25.546  1.00  0.00    -0.463 OA
BRANCH   5   6
ATOM      6  C   UNL A   1      32.070  28.049  24.796  1.00  0.00     0.316 C 
ATOM      7  O   UNL A   1      30.907  27.846  25.137  1.00  0.00    -0.251 OA
BRANCH   6   8
ATOM      8  C   UNL A   1      32.682  27.446  23.490  1.00  0.00     0.087 C 
ATOM      9  C   UNL A   1      31.832  27.529  22.195  1.00  0.00     0.028 C 
ATOM     10  C   UNL A   1      33.883  28.386  23.223  1.00  0.00     0.028 C 
BRANCH   8  11
ATOM     11  C   UNL A   1      33.083  25.976  23.800  1.00  0.00    -0.031 A 
ATOM     12  C   UNL A   1      34.041  25.670  24.778  1.00  0.00     0.005 A 
ATOM     13  C   UNL A   1      32.378  24.889  23.242  1.00  0.00     0.005 A 
ATOM     14  C   UNL A   1      34.206  24.359  25.248  1.00  0.00     0.012 A 
ATOM     15  C   UNL A   1      32.541  23.578  23.708  1.00  0.00     0.012 A 
ATOM     16  C   UNL A   1      33.413  23.317  24.759  1.00  0.00     0.018 A 
BRANCH  16  17
ATOM     17  C   UNL A   1      33.489  21.989  25.434  1.00  0.00     0.162 C 
ATOM     18  O   UNL A   1      33.264  21.919  26.642  1.00  0.00    -0.294 OA
BRANCH  17  19
ATOM     19  C   UNL A   1      33.772  20.731  24.626  1.00  0.00     0.082 C 
BRANCH  19  20
ATOM     20  C   UNL A   1      35.090  20.043  25.002  1.00  0.00     0.024 C 
BRANCH  20  21
ATOM     21  C   UNL A   1      36.333  20.930  25.036  1.00  0.00     0.110 C 
ATOM     22  Cl  UNL A   1      37.830  19.993  24.806  1.00  0.00    -0.127 Cl
ENDBRANCH  20  21
ENDBRANCH  19  20
ENDBRANCH  17  19
ENDBRANCH  16  17
ENDBRANCH   8  11
ENDBRANCH   6   8
ENDBRANCH   5   6
ENDBRANCH   4   5
ENDBRANCH   3   4
ENDBRANCH   2   3
ENDBRANCH   1   2
BRANCH   1  23
ATOM     23  C   UNL A   1      36.446  30.229  29.346  1.00  0.00     0.188 C 
BRANCH  23  24
ATOM     24  O   UNL A   1      35.923  29.890  30.614  1.00  0.00    -0.377 OA
BRANCH  24  25
ATOM     25  C   UNL A   1      36.768  30.133  31.725  1.00  0.00     0.188 C 
BRANCH  25  26
ATOM     26  C   UNL A   1      36.256  31.094  32.814  1.00  0.00     0.188 C 
BRANCH  26  27
ATOM     27  O   UNL A   1      35.498  32.185  32.307  1.00  0.00    -0.376 OA
BRANCH  27  28
ATOM     28  C   UNL A   1      34.880  33.089  33.210  1.00  0.00     0.202 C 
BRANCH  28  29
ATOM     29  C   UNL A   1      35.553  34.457  33.417  1.00  0.00     0.261 C 
BRANCH  29  30
ATOM     30  O   UNL A   1      36.668  34.753  32.565  1.00  0.00    -0.460 OA
BRANCH  30  31
ATOM     31  C   UNL A   1      37.899  34.538  33.068  1.00  0.00     0.338 C 
ATOM     32  O   UNL A   1      38.351  34.967  34.118  1.00  0.00    -0.246 OA
BRANCH  31  33
ATOM     33  C   UNL A   1      38.570  33.517  32.239  1.00  0.00     0.060 A 
ATOM     34  C   UNL A   1      39.471  32.643  32.864  1.00  0.00     0.016 A 
ATOM     35  C   UNL A   1      38.337  33.428  30.864  1.00  0.00     0.016 A 
ATOM     36  C   UNL A   1      40.199  31.733  32.105  1.00  0.00     0.010 A 
ATOM     37  C   UNL A   1      39.087  32.531  30.098  1.00  0.00     0.010 A 
ATOM     38  C   UNL A   1      40.065  31.727  30.712  1.00  0.00    -0.014 A 
BRANCH  38  39
ATOM     39  C   UNL A   1      41.152  31.115  29.910  1.00  0.00     0.031 A 
ATOM     40  C   UNL A   1      42.367  31.958  29.622  1.00  0.00     0.074 A 
ATOM     41  C   UNL A   1      41.113  29.827  29.530  1.00  0.00     0.049 A 
ATOM     42  N   UNL A   1      43.469  31.650  28.988  1.00  0.00    -0.248 NA
ATOM     43  C   UNL A   1      42.333  33.343  30.123  1.00  0.00     0.031 C 
ATOM     44  C   UNL A   1      40.020  28.897  29.800  1.00  0.00     0.029 A 
ATOM     45  N   UNL A   1      42.033  29.078  28.841  1.00  0.00    -0.354 N 
ATOM     46  C   UNL A   1      44.249  32.801  29.008  1.00  0.00     0.074 A 
ATOM     47  C   UNL A   1      43.483  33.825  29.681  1.00  0.00     0.031 C 
ATOM     48  C   UNL A   1      40.334  27.696  29.283  1.00  0.00     0.029 A 
ATOM     49  C   UNL A   1      41.637  27.782  28.623  1.00  0.00     0.049 A 
ATOM     50  H   UNL A   1      42.897  29.437  28.531  1.00  0.00     0.167 HD
ATOM     51  C   UNL A   1      45.497  32.986  28.520  1.00  0.00     0.037 A 
ATOM     52  C   UNL A   1      42.257  26.788  27.959  1.00  0.00     0.037 A 
ATOM     53  C   UNL A   1      46.259  31.962  27.856  1.00  0.00     0.049 A 
ATOM     54  C   UNL A   1      43.621  27.040  27.362  1.00  0.00     0.074 A 
ATOM     55  C   UNL A   1      47.538  32.039  27.335  1.00  0.00     0.029 A 
ATOM     56  N   UNL A   1      45.803  30.674  27.614  1.00  0.00    -0.354 N 
ATOM     57  N   UNL A   1      44.362  28.122  27.404  1.00  0.00    -0.248 NA
ATOM     58  C   UNL A   1      44.238  25.922  26.634  1.00  0.00     0.031 C 
ATOM     59  C   UNL A   1      47.830  30.819  26.717  1.00  0.00     0.029 A 
ATOM     60  C   UNL A   1      46.766  29.955  26.924  1.00  0.00     0.049 A 
ATOM     61  H   UNL A   1      44.926  30.324  27.889  1.00  0.00     0.167 HD
ATOM     62  C   UNL A   1      45.547  27.801  26.753  1.00  0.00     0.074 A 
ATOM     63  C   UNL A   1      45.429  26.420  26.335  1.00  0.00     0.031 C 
ATOM     64  C   UNL A   1      46.640  28.575  26.530  1.00  0.00     0.037 A 
BRANCH  51  65
ATOM     65  C   UNL A   1      46.097  34.358  28.649  1.00  0.00     0.064 A 
ATOM     66  C   UNL A   1      45.920  35.345  27.666  1.00  0.00     0.173 A 
ATOM     67  C   UNL A   1      46.851  34.693  29.784  1.00  0.00     0.173 A 
ATOM     68  F   UNL A   1      45.224  35.072  26.552  1.00  0.00    -0.203 F 
ATOM     69  C   UNL A   1      46.505  36.602  27.800  1.00  0.00     0.198 A 
ATOM     70  C   UNL A   1      47.403  35.962  29.931  1.00  0.00     0.198 A 
ATOM     71  F   UNL A   1      47.052  33.787  30.753  1.00  0.00    -0.203 F 
ATOM     72  F   UNL A   1      46.374  37.507  26.820  1.00  0.00    -0.200 F 
ATOM     73  C   UNL A   1      47.239  36.912  28.935  1.00  0.00     0.200 A 
ATOM     74  F   UNL A   1      48.100  36.262  31.036  1.00  0.00    -0.200 F 
ATOM     75  F   UNL A   1      47.795  38.123  29.066  1.00  0.00    -0.200 F 
ENDBRANCH  51  65
BRANCH  52  76
ATOM     76  C   UNL A   1      41.606  25.456  27.824  1.00  0.00     0.064 A 
ATOM     77  C   UNL A   1      42.066  24.347  28.546  1.00  0.00     0.173 A 
ATOM     78  C   UNL A   1      40.535  25.259  26.939  1.00  0.00     0.173 A 
ATOM     79  F   UNL A   1      43.104  24.476  29.385  1.00  0.00    -0.203 F 
ATOM     80  C   UNL A   1      41.498  23.086  28.370  1.00  0.00     0.198 A 
ATOM     81  C   UNL A   1      39.945  24.005  26.789  1.00  0.00     0.198 A 
ATOM     82  F   UNL A   1      40.057  26.286  26.222  1.00  0.00    -0.203 F 
ATOM     83  F   UNL A   1      41.996  22.031  29.030  1.00  0.00    -0.200 F 
ATOM     84  C   UNL A   1      40.435  22.917  27.496  1.00  0.00     0.200 A 
ATOM     85  F   UNL A   1      38.910  23.850  25.953  1.00  0.00    -0.200 F 
ATOM     86  F   UNL A   1      39.889  21.706  27.326  1.00  0.00    -0.200 F 
ENDBRANCH  52  76
BRANCH  64  87
ATOM     87  C   UNL A   1      47.825  27.927  25.866  1.00  0.00     0.064 A 
ATOM     88  C   UNL A   1      47.916  27.781  24.475  1.00  0.00     0.173 A 
ATOM     89  C   UNL A   1      48.899  27.465  26.644  1.00  0.00     0.173 A 
ATOM     90  F   UNL A   1      46.915  28.197  23.684  1.00  0.00    -0.203 F 
ATOM     91  C   UNL A   1      49.015  27.156  23.890  1.00  0.00     0.198 A 
ATOM     92  C   UNL A   1      50.015  26.879  26.053  1.00  0.00     0.198 A 
ATOM     93  F   UNL A   1      48.872  27.591  27.980  1.00  0.00    -0.203 F 
ATOM     94  F   UNL A   1      49.048  26.966  22.563  1.00  0.00    -0.200 F 
ATOM     95  C   UNL A   1      50.067  26.713  24.679  1.00  0.00     0.200 A 
ATOM     96  F   UNL A   1      51.038  26.471  26.817  1.00  0.00    -0.200 F 
ATOM     97  F   UNL A   1      51.124  26.114  24.115  1.00  0.00    -0.200 F 
ENDBRANCH  64  87
ENDBRANCH  38  39
ENDBRANCH  31  33
ENDBRANCH  30  31
ENDBRANCH  29  30
ENDBRANCH  28  29
ENDBRANCH  27  28
ENDBRANCH  26  27
ENDBRANCH  25  26
ENDBRANCH  24  25
ENDBRANCH  23  24
ENDBRANCH   1  23
TORSDOF 25
ENDMDL
