MODEL 1
REMARK VINA RESULT:      -8.9      0.000      0.000
REMARK SMILES CC[C@H](C)CN(CC)C(=O)NC[C@@](C)(O)C(=O)OCCOCCOCCOCCOC(=O)c1ccc(-c2c3nc(c(-c4c(F)c(F)c(F)c(F)c4F)c4ccc([nH]4)c(-c4c(F)c(F)c(F)c(F)c4F)c4nc(c(-c5c(F)c(F)c(F)c(F)c5F)c5ccc2[nH]5)C=C4)C=C3)cc1
REMARK SMILES IDX 22 1 21 2 20 3 19 4 18 5 16 6 17 7 13 8 14 9 12 10 11 11
REMARK SMILES IDX 9 12 10 13 6 15 5 16 3 17 4 18 2 19 1 20 7 21 8 22 15 23
REMARK SMILES IDX 23 25 24 26 25 27 26 28 27 29 28 30 29 31 30 32 31 33 32 34
REMARK SMILES IDX 33 35 34 36 95 37 35 38 94 39 36 40 37 41 38 42 88 43 39 44
REMARK SMILES IDX 93 45 87 46 89 47 40 48 92 49 86 50 85 51 41 53 73 54 53 55
REMARK SMILES IDX 72 56 54 57 57 58 71 59 90 60 55 61 56 62 70 64 91 65 58 66
REMARK SMILES IDX 42 67 43 68 51 69 44 70 45 71 49 72 52 73 46 74 47 75 50 76
REMARK SMILES IDX 48 77 74 78 75 79 83 80 76 81 77 82 81 83 84 84 78 85 79 86
REMARK SMILES IDX 82 87 80 88 59 89 60 90 68 91 61 92 62 93 66 94 69 95 63 96
REMARK SMILES IDX 64 97 67 98 65 99
REMARK H PARENT 11 14 15 24 89 52 57 63
REMARK Flexibility Score: inf
ROOT
ATOM      1  C   UNL A   1      37.790  21.771  25.670  1.00  0.00     0.188 C 
ENDROOT
BRANCH   1   2
ATOM      2  O   UNL A   1      37.192  22.253  24.478  1.00  0.00    -0.376 OA
BRANCH   2   3
ATOM      3  C   UNL A   1      35.780  22.208  24.387  1.00  0.00     0.202 C 
BRANCH   3   4
ATOM      4  C   UNL A   1      35.005  23.384  23.770  1.00  0.00     0.261 C 
BRANCH   4   5
ATOM      5  O   UNL A   1      33.578  23.252  23.727  1.00  0.00    -0.461 OA
BRANCH   5   6
ATOM      6  C   UNL A   1      32.821  24.270  24.206  1.00  0.00     0.339 C 
ATOM      7  O   UNL A   1      33.048  24.859  25.258  1.00  0.00    -0.249 OA
BRANCH   6   8
ATOM      8  C   UNL A   1      31.612  24.591  23.276  1.00  0.00     0.176 C 
ATOM      9  C   UNL A   1      30.471  25.022  24.198  1.00  0.00     0.057 C 
BRANCH   8  10
ATOM     10  C   UNL A   1      31.978  25.699  22.230  1.00  0.00     0.164 C 
BRANCH  10  11
ATOM     11  N   UNL A   1      32.697  26.840  22.763  1.00  0.00    -0.334 N 
ATOM     12  C   UNL A   1      32.426  28.157  22.828  1.00  0.00     0.317 C 
ATOM     13  O   UNL A   1      33.407  28.885  22.653  1.00  0.00    -0.249 OA
ATOM     14  H   UNL A   1      33.566  26.602  23.159  1.00  0.00     0.165 HD
BRANCH  12  15
ATOM     15  N   UNL A   1      31.189  28.666  23.132  1.00  0.00    -0.325 N 
BRANCH  15  16
ATOM     16  C   UNL A   1      30.818  28.648  24.562  1.00  0.00     0.124 C 
BRANCH  16  17
ATOM     17  C   UNL A   1      31.783  29.450  25.487  1.00  0.00     0.005 C 
ATOM     18  C   UNL A   1      31.296  30.881  25.748  1.00  0.00     0.009 C 
BRANCH  17  19
ATOM     19  C   UNL A   1      32.007  28.654  26.796  1.00  0.00     0.002 C 
ATOM     20  C   UNL A   1      31.316  27.297  26.871  1.00  0.00     0.004 C 
ENDBRANCH  17  19
ENDBRANCH  16  17
ENDBRANCH  15  16
BRANCH  15  21
ATOM     21  C   UNL A   1      30.118  29.055  22.212  1.00  0.00     0.118 C 
ATOM     22  C   UNL A   1      29.592  30.459  22.482  1.00  0.00     0.027 C 
ENDBRANCH  15  21
ENDBRANCH  12  15
ENDBRANCH  10  11
ENDBRANCH   8  10
BRANCH   8  23
ATOM     23  O   UNL A   1      31.097  23.449  22.576  1.00  0.00    -0.377 OA
ATOM     24  H   UNL A   1      30.176  23.615  22.319  1.00  0.00     0.212 HD
ENDBRANCH   8  23
ENDBRANCH   6   8
ENDBRANCH   5   6
ENDBRANCH   4   5
ENDBRANCH   3   4
ENDBRANCH   2   3
ENDBRANCH   1   2
BRANCH   1  25
ATOM     25  C   UNL A   1      38.842  20.678  25.395  1.00  0.00     0.188 C 
BRANCH  25  26
ATOM     26  O   UNL A   1      39.880  20.502  26.341  1.00  0.00    -0.377 OA
BRANCH  26  27
ATOM     27  C   UNL A   1      41.075  19.859  25.922  1.00  0.00     0.188 C 
BRANCH  27  28
ATOM     28  C   UNL A   1      42.467  20.324  26.419  1.00  0.00     0.188 C 
BRANCH  28  29
ATOM     29  O   UNL A   1      42.608  21.719  26.645  1.00  0.00    -0.376 OA
BRANCH  29  30
ATOM     30  C   UNL A   1      42.373  22.592  25.552  1.00  0.00     0.202 C 
BRANCH  30  31
ATOM     31  C   UNL A   1      43.627  23.101  24.830  1.00  0.00     0.261 C 
BRANCH  31  32
ATOM     32  O   UNL A   1      43.600  24.488  24.464  1.00  0.00    -0.460 OA
BRANCH  32  33
ATOM     33  C   UNL A   1      44.397  25.318  25.169  1.00  0.00     0.338 C 
ATOM     34  O   UNL A   1      45.576  25.559  24.974  1.00  0.00    -0.246 OA
BRANCH  33  35
ATOM     35  C   UNL A   1      43.542  26.059  26.113  1.00  0.00     0.060 A 
ATOM     36  C   UNL A   1      43.649  27.456  26.160  1.00  0.00     0.016 A 
ATOM     37  C   UNL A   1      42.624  25.385  26.921  1.00  0.00     0.016 A 
ATOM     38  C   UNL A   1      42.866  28.181  27.050  1.00  0.00     0.010 A 
ATOM     39  C   UNL A   1      41.860  26.109  27.836  1.00  0.00     0.010 A 
ATOM     40  C   UNL A   1      42.016  27.504  27.934  1.00  0.00    -0.014 A 
BRANCH  40  41
ATOM     41  C   UNL A   1      41.515  28.227  29.123  1.00  0.00     0.031 A 
ATOM     42  C   UNL A   1      42.260  28.043  30.415  1.00  0.00     0.074 A 
ATOM     43  C   UNL A   1      40.466  29.061  29.051  1.00  0.00     0.049 A 
ATOM     44  N   UNL A   1      42.039  28.569  31.590  1.00  0.00    -0.248 NA
ATOM     45  C   UNL A   1      43.416  27.132  30.370  1.00  0.00     0.031 C 
ATOM     46  C   UNL A   1      39.690  29.339  27.847  1.00  0.00     0.029 A 
ATOM     47  N   UNL A   1      39.873  29.823  30.025  1.00  0.00    -0.354 N 
ATOM     48  C   UNL A   1      43.019  28.047  32.424  1.00  0.00     0.074 A 
ATOM     49  C   UNL A   1      43.813  27.134  31.632  1.00  0.00     0.031 C 
ATOM     50  C   UNL A   1      38.705  30.201  28.158  1.00  0.00     0.029 A 
ATOM     51  C   UNL A   1      38.772  30.511  29.586  1.00  0.00     0.049 A 
ATOM     52  H   UNL A   1      40.207  29.873  30.950  1.00  0.00     0.167 HD
ATOM     53  C   UNL A   1      43.243  28.311  33.732  1.00  0.00     0.037 A 
ATOM     54  C   UNL A   1      37.906  31.284  30.271  1.00  0.00     0.037 A 
ATOM     55  C   UNL A   1      42.442  29.216  34.512  1.00  0.00     0.049 A 
ATOM     56  C   UNL A   1      38.141  31.529  31.739  1.00  0.00     0.074 A 
ATOM     57  C   UNL A   1      42.597  29.584  35.837  1.00  0.00     0.029 A 
ATOM     58  N   UNL A   1      41.319  29.882  34.040  1.00  0.00    -0.354 N 
ATOM     59  N   UNL A   1      39.095  31.071  32.515  1.00  0.00    -0.248 NA
ATOM     60  C   UNL A   1      37.188  32.413  32.424  1.00  0.00     0.031 C 
ATOM     61  C   UNL A   1      41.527  30.414  36.185  1.00  0.00     0.029 A 
ATOM     62  C   UNL A   1      40.749  30.630  35.058  1.00  0.00     0.049 A 
ATOM     63  H   UNL A   1      40.978  29.831  33.118  1.00  0.00     0.167 HD
ATOM     64  C   UNL A   1      38.872  31.625  33.770  1.00  0.00     0.074 A 
ATOM     65  C   UNL A   1      37.701  32.469  33.646  1.00  0.00     0.031 C 
ATOM     66  C   UNL A   1      39.575  31.458  34.918  1.00  0.00     0.037 A 
BRANCH  53  67
ATOM     67  C   UNL A   1      44.364  27.567  34.400  1.00  0.00     0.064 A 
ATOM     68  C   UNL A   1      45.701  27.983  34.303  1.00  0.00     0.173 A 
ATOM     69  C   UNL A   1      44.093  26.402  35.135  1.00  0.00     0.173 A 
ATOM     70  F   UNL A   1      46.018  29.079  33.597  1.00  0.00    -0.203 F 
ATOM     71  C   UNL A   1      46.728  27.235  34.876  1.00  0.00     0.198 A 
ATOM     72  C   UNL A   1      45.119  25.680  35.739  1.00  0.00     0.198 A 
ATOM     73  F   UNL A   1      42.834  25.958  35.262  1.00  0.00    -0.203 F 
ATOM     74  F   UNL A   1      48.003  27.612  34.705  1.00  0.00    -0.200 F 
ATOM     75  C   UNL A   1      46.435  26.089  35.597  1.00  0.00     0.200 A 
ATOM     76  F   UNL A   1      44.832  24.578  36.446  1.00  0.00    -0.200 F 
ATOM     77  F   UNL A   1      47.424  25.369  36.144  1.00  0.00    -0.200 F 
ENDBRANCH  53  67
BRANCH  54  78
ATOM     78  C   UNL A   1      36.733  31.865  29.568  1.00  0.00     0.064 A 
ATOM     79  C   UNL A   1      36.674  33.227  29.244  1.00  0.00     0.173 A 
ATOM     80  C   UNL A   1      35.649  31.058  29.191  1.00  0.00     0.173 A 
ATOM     81  F   UNL A   1      37.674  34.045  29.605  1.00  0.00    -0.203 F 
ATOM     82  C   UNL A   1      35.573  33.761  28.577  1.00  0.00     0.198 A 
ATOM     83  C   UNL A   1      34.562  31.587  28.498  1.00  0.00     0.198 A 
ATOM     84  F   UNL A   1      35.654  29.748  29.480  1.00  0.00    -0.203 F 
ATOM     85  F   UNL A   1      35.525  35.074  28.311  1.00  0.00    -0.200 F 
ATOM     86  C   UNL A   1      34.523  32.939  28.196  1.00  0.00     0.200 A 
ATOM     87  F   UNL A   1      33.556  30.786  28.121  1.00  0.00    -0.200 F 
ATOM     88  F   UNL A   1      33.470  33.451  27.542  1.00  0.00    -0.200 F 
ENDBRANCH  54  78
BRANCH  66  89
ATOM     89  C   UNL A   1      39.119  32.227  36.127  1.00  0.00     0.064 A 
ATOM     90  C   UNL A   1      38.240  31.674  37.070  1.00  0.00     0.173 A 
ATOM     91  C   UNL A   1      39.601  33.524  36.364  1.00  0.00     0.173 A 
ATOM     92  F   UNL A   1      37.740  30.442  36.888  1.00  0.00    -0.203 F 
ATOM     93  C   UNL A   1      37.833  32.404  38.185  1.00  0.00     0.198 A 
ATOM     94  C   UNL A   1      39.222  34.236  37.499  1.00  0.00     0.198 A 
ATOM     95  F   UNL A   1      40.454  34.098  35.502  1.00  0.00    -0.203 F 
ATOM     96  F   UNL A   1      36.946  31.877  39.040  1.00  0.00    -0.200 F 
ATOM     97  C   UNL A   1      38.330  33.681  38.403  1.00  0.00     0.200 A 
ATOM     98  F   UNL A   1      39.720  35.461  37.717  1.00  0.00    -0.200 F 
ATOM     99  F   UNL A   1      37.943  34.378  39.479  1.00  0.00    -0.200 F 
ENDBRANCH  66  89
ENDBRANCH  40  41
ENDBRANCH  33  35
ENDBRANCH  32  33
ENDBRANCH  31  32
ENDBRANCH  30  31
ENDBRANCH  29  30
ENDBRANCH  28  29
ENDBRANCH  27  28
ENDBRANCH  26  27
ENDBRANCH  25  26
ENDBRANCH   1  25
TORSDOF 28
ENDMDL
MODEL 2
REMARK VINA RESULT:      -8.0      2.308      7.398
REMARK SMILES CC[C@H](C)CN(CC)C(=O)NC[C@@](C)(O)C(=O)OCCOCCOCCOCCOC(=O)c1ccc(-c2c3nc(c(-c4c(F)c(F)c(F)c(F)c4F)c4ccc([nH]4)c(-c4c(F)c(F)c(F)c(F)c4F)c4nc(c(-c5c(F)c(F)c(F)c(F)c5F)c5ccc2[nH]5)C=C4)C=C3)cc1
REMARK SMILES IDX 22 1 21 2 20 3 19 4 18 5 16 6 17 7 13 8 14 9 12 10 11 11
REMARK SMILES IDX 9 12 10 13 6 15 5 16 3 17 4 18 2 19 1 20 7 21 8 22 15 23
REMARK SMILES IDX 23 25 24 26 25 27 26 28 27 29 28 30 29 31 30 32 31 33 32 34
REMARK SMILES IDX 33 35 34 36 95 37 35 38 94 39 36 40 37 41 38 42 88 43 39 44
REMARK SMILES IDX 93 45 87 46 89 47 40 48 92 49 86 50 85 51 41 53 73 54 53 55
REMARK SMILES IDX 72 56 54 57 57 58 71 59 90 60 55 61 56 62 70 64 91 65 58 66
REMARK SMILES IDX 42 67 43 68 51 69 44 70 45 71 49 72 52 73 46 74 47 75 50 76
REMARK SMILES IDX 48 77 74 78 75 79 83 80 76 81 77 82 81 83 84 84 78 85 79 86
REMARK SMILES IDX 82 87 80 88 59 89 60 90 68 91 61 92 62 93 66 94 69 95 63 96
REMARK SMILES IDX 64 97 67 98 65 99
REMARK H PARENT 11 14 15 24 89 52 57 63
REMARK Flexibility Score: inf
ROOT
ATOM      1  C   UNL A   1      37.777  21.644  25.293  1.00  0.00     0.188 C 
ENDROOT
BRANCH   1   2
ATOM      2  O   UNL A   1      36.457  21.363  25.732  1.00  0.00    -0.376 OA
BRANCH   2   3
ATOM      3  C   UNL A   1      35.389  21.946  25.009  1.00  0.00     0.202 C 
BRANCH   3   4
ATOM      4  C   UNL A   1      34.133  22.439  25.747  1.00  0.00     0.261 C 
BRANCH   4   5
ATOM      5  O   UNL A   1      33.199  23.202  24.972  1.00  0.00    -0.461 OA
BRANCH   5   6
ATOM      6  C   UNL A   1      32.423  24.113  25.610  1.00  0.00     0.339 C 
ATOM      7  O   UNL A   1      32.851  24.946  26.403  1.00  0.00    -0.249 OA
BRANCH   6   8
ATOM      8  C   UNL A   1      30.916  23.966  25.238  1.00  0.00     0.176 C 
ATOM      9  C   UNL A   1      30.183  25.079  25.989  1.00  0.00     0.057 C 
BRANCH   8  10
ATOM     10  C   UNL A   1      30.702  24.056  23.689  1.00  0.00     0.164 C 
BRANCH  10  11
ATOM     11  N   UNL A   1      31.696  24.829  22.971  1.00  0.00    -0.334 N 
ATOM     12  C   UNL A   1      31.705  26.070  22.449  1.00  0.00     0.317 C 
ATOM     13  O   UNL A   1      32.307  26.164  21.376  1.00  0.00    -0.249 OA
ATOM     14  H   UNL A   1      32.541  24.344  22.834  1.00  0.00     0.165 HD
BRANCH  12  15
ATOM     15  N   UNL A   1      31.159  27.163  23.073  1.00  0.00    -0.325 N 
BRANCH  15  16
ATOM     16  C   UNL A   1      31.830  27.596  24.316  1.00  0.00     0.124 C 
BRANCH  16  17
ATOM     17  C   UNL A   1      33.361  27.849  24.166  1.00  0.00     0.005 C 
ATOM     18  C   UNL A   1      33.679  28.989  23.192  1.00  0.00     0.009 C 
BRANCH  17  19
ATOM     19  C   UNL A   1      33.975  28.082  25.569  1.00  0.00     0.002 C 
ATOM     20  C   UNL A   1      33.096  28.842  26.557  1.00  0.00     0.004 C 
ENDBRANCH  17  19
ENDBRANCH  16  17
ENDBRANCH  15  16
BRANCH  15  21
ATOM     21  C   UNL A   1      29.898  27.843  22.772  1.00  0.00     0.118 C 
ATOM     22  C   UNL A   1      29.899  29.303  23.203  1.00  0.00     0.027 C 
ENDBRANCH  15  21
ENDBRANCH  12  15
ENDBRANCH  10  11
ENDBRANCH   8  10
BRANCH   8  23
ATOM     23  O   UNL A   1      30.315  22.753  25.717  1.00  0.00    -0.377 OA
ATOM     24  H   UNL A   1      29.498  22.965  26.195  1.00  0.00     0.212 HD
ENDBRANCH   8  23
ENDBRANCH   6   8
ENDBRANCH   5   6
ENDBRANCH   4   5
ENDBRANCH   3   4
ENDBRANCH   2   3
ENDBRANCH   1   2
BRANCH   1  25
ATOM     25  C   UNL A   1      38.409  22.821  26.062  1.00  0.00     0.188 C 
BRANCH  25  26
ATOM     26  O   UNL A   1      39.426  22.530  27.003  1.00  0.00    -0.377 OA
BRANCH  26  27
ATOM     27  C   UNL A   1      40.280  21.422  26.755  1.00  0.00     0.188 C 
BRANCH  27  28
ATOM     28  C   UNL A   1      41.703  21.608  26.169  1.00  0.00     0.188 C 
BRANCH  28  29
ATOM     29  O   UNL A   1      42.205  22.937  26.173  1.00  0.00    -0.376 OA
BRANCH  29  30
ATOM     30  C   UNL A   1      42.939  23.367  25.037  1.00  0.00     0.202 C 
BRANCH  30  31
ATOM     31  C   UNL A   1      43.409  24.827  25.068  1.00  0.00     0.261 C 
BRANCH  31  32
ATOM     32  O   UNL A   1      44.513  25.095  25.943  1.00  0.00    -0.460 OA
BRANCH  32  33
ATOM     33  C   UNL A   1      45.197  26.238  25.728  1.00  0.00     0.338 C 
ATOM     34  O   UNL A   1      45.722  26.604  24.690  1.00  0.00    -0.246 OA
BRANCH  33  35
ATOM     35  C   UNL A   1      45.034  27.086  26.922  1.00  0.00     0.060 A 
ATOM     36  C   UNL A   1      44.853  26.465  28.165  1.00  0.00     0.016 A 
ATOM     37  C   UNL A   1      45.088  28.477  26.819  1.00  0.00     0.016 A 
ATOM     38  C   UNL A   1      44.682  27.238  29.307  1.00  0.00     0.010 A 
ATOM     39  C   UNL A   1      44.885  29.254  27.959  1.00  0.00     0.010 A 
ATOM     40  C   UNL A   1      44.635  28.633  29.197  1.00  0.00    -0.014 A 
BRANCH  40  41
ATOM     41  C   UNL A   1      44.054  29.409  30.314  1.00  0.00     0.031 A 
ATOM     42  C   UNL A   1      42.624  29.852  30.184  1.00  0.00     0.074 A 
ATOM     43  C   UNL A   1      44.752  29.669  31.431  1.00  0.00     0.049 A 
ATOM     44  N   UNL A   1      41.878  30.527  31.019  1.00  0.00    -0.248 NA
ATOM     45  C   UNL A   1      41.944  29.482  28.932  1.00  0.00     0.031 C 
ATOM     46  C   UNL A   1      46.132  29.263  31.677  1.00  0.00     0.029 A 
ATOM     47  N   UNL A   1      44.386  30.347  32.565  1.00  0.00    -0.354 N 
ATOM     48  C   UNL A   1      40.649  30.670  30.390  1.00  0.00     0.074 A 
ATOM     49  C   UNL A   1      40.758  30.047  29.089  1.00  0.00     0.031 C 
ATOM     50  C   UNL A   1      46.506  29.718  32.887  1.00  0.00     0.029 A 
ATOM     51  C   UNL A   1      45.398  30.466  33.482  1.00  0.00     0.049 A 
ATOM     52  H   UNL A   1      43.483  30.714  32.708  1.00  0.00     0.167 HD
ATOM     53  C   UNL A   1      39.524  31.261  30.858  1.00  0.00     0.037 A 
ATOM     54  C   UNL A   1      45.428  31.125  34.657  1.00  0.00     0.037 A 
ATOM     55  C   UNL A   1      39.430  31.885  32.150  1.00  0.00     0.049 A 
ATOM     56  C   UNL A   1      44.182  31.820  35.141  1.00  0.00     0.074 A 
ATOM     57  C   UNL A   1      38.332  32.485  32.740  1.00  0.00     0.029 A 
ATOM     58  N   UNL A   1      40.482  32.004  33.047  1.00  0.00    -0.354 N 
ATOM     59  N   UNL A   1      43.007  31.916  34.566  1.00  0.00    -0.248 NA
ATOM     60  C   UNL A   1      44.262  32.488  36.448  1.00  0.00     0.031 C 
ATOM     61  C   UNL A   1      38.740  33.031  33.961  1.00  0.00     0.029 A 
ATOM     62  C   UNL A   1      40.071  32.702  34.170  1.00  0.00     0.049 A 
ATOM     63  H   UNL A   1      41.388  31.645  32.906  1.00  0.00     0.167 HD
ATOM     64  C   UNL A   1      42.202  32.630  35.445  1.00  0.00     0.074 A 
ATOM     65  C   UNL A   1      43.021  32.930  36.602  1.00  0.00     0.031 C 
ATOM     66  C   UNL A   1      40.903  33.000  35.312  1.00  0.00     0.037 A 
BRANCH  53  67
ATOM     67  C   UNL A   1      38.338  31.303  29.938  1.00  0.00     0.064 A 
ATOM     68  C   UNL A   1      37.990  32.457  29.217  1.00  0.00     0.173 A 
ATOM     69  C   UNL A   1      37.522  30.170  29.791  1.00  0.00     0.173 A 
ATOM     70  F   UNL A   1      38.724  33.573  29.334  1.00  0.00    -0.203 F 
ATOM     71  C   UNL A   1      36.845  32.489  28.424  1.00  0.00     0.198 A 
ATOM     72  C   UNL A   1      36.401  30.195  28.967  1.00  0.00     0.198 A 
ATOM     73  F   UNL A   1      37.806  29.040  30.455  1.00  0.00    -0.203 F 
ATOM     74  F   UNL A   1      36.493  33.625  27.806  1.00  0.00    -0.200 F 
ATOM     75  C   UNL A   1      36.056  31.357  28.295  1.00  0.00     0.200 A 
ATOM     76  F   UNL A   1      35.646  29.096  28.834  1.00  0.00    -0.200 F 
ATOM     77  F   UNL A   1      34.953  31.390  27.534  1.00  0.00    -0.200 F 
ENDBRANCH  53  67
BRANCH  54  78
ATOM     78  C   UNL A   1      46.690  31.163  35.440  1.00  0.00     0.064 A 
ATOM     79  C   UNL A   1      46.982  30.191  36.406  1.00  0.00     0.173 A 
ATOM     80  C   UNL A   1      47.640  32.173  35.224  1.00  0.00     0.173 A 
ATOM     81  F   UNL A   1      46.095  29.220  36.667  1.00  0.00    -0.203 F 
ATOM     82  C   UNL A   1      48.173  30.231  37.130  1.00  0.00     0.198 A 
ATOM     83  C   UNL A   1      48.842  32.195  35.927  1.00  0.00     0.198 A 
ATOM     84  F   UNL A   1      47.407  33.130  34.313  1.00  0.00    -0.203 F 
ATOM     85  F   UNL A   1      48.412  29.310  38.073  1.00  0.00    -0.200 F 
ATOM     86  C   UNL A   1      49.105  31.227  36.882  1.00  0.00     0.200 A 
ATOM     87  F   UNL A   1      49.746  33.152  35.675  1.00  0.00    -0.200 F 
ATOM     88  F   UNL A   1      50.256  31.257  37.570  1.00  0.00    -0.200 F 
ENDBRANCH  54  78
BRANCH  66  89
ATOM     89  C   UNL A   1      40.274  33.741  36.458  1.00  0.00     0.064 A 
ATOM     90  C   UNL A   1      40.473  35.116  36.652  1.00  0.00     0.173 A 
ATOM     91  C   UNL A   1      39.426  33.070  37.353  1.00  0.00     0.173 A 
ATOM     92  F   UNL A   1      41.281  35.804  35.832  1.00  0.00    -0.203 F 
ATOM     93  C   UNL A   1      39.876  35.783  37.720  1.00  0.00     0.198 A 
ATOM     94  C   UNL A   1      38.801  33.748  38.397  1.00  0.00     0.198 A 
ATOM     95  F   UNL A   1      39.190  31.757  37.209  1.00  0.00    -0.203 F 
ATOM     96  F   UNL A   1      40.128  37.084  37.919  1.00  0.00    -0.200 F 
ATOM     97  C   UNL A   1      39.035  35.100  38.586  1.00  0.00     0.200 A 
ATOM     98  F   UNL A   1      37.973  33.090  39.221  1.00  0.00    -0.200 F 
ATOM     99  F   UNL A   1      38.456  35.746  39.608  1.00  0.00    -0.200 F 
ENDBRANCH  66  89
ENDBRANCH  40  41
ENDBRANCH  33  35
ENDBRANCH  32  33
ENDBRANCH  31  32
ENDBRANCH  30  31
ENDBRANCH  29  30
ENDBRANCH  28  29
ENDBRANCH  27  28
ENDBRANCH  26  27
ENDBRANCH  25  26
ENDBRANCH   1  25
TORSDOF 28
ENDMDL
MODEL 3
REMARK VINA RESULT:      -8.0      4.777      6.159
REMARK SMILES CC[C@H](C)CN(CC)C(=O)NC[C@@](C)(O)C(=O)OCCOCCOCCOCCOC(=O)c1ccc(-c2c3nc(c(-c4c(F)c(F)c(F)c(F)c4F)c4ccc([nH]4)c(-c4c(F)c(F)c(F)c(F)c4F)c4nc(c(-c5c(F)c(F)c(F)c(F)c5F)c5ccc2[nH]5)C=C4)C=C3)cc1
REMARK SMILES IDX 22 1 21 2 20 3 19 4 18 5 16 6 17 7 13 8 14 9 12 10 11 11
REMARK SMILES IDX 9 12 10 13 6 15 5 16 3 17 4 18 2 19 1 20 7 21 8 22 15 23
REMARK SMILES IDX 23 25 24 26 25 27 26 28 27 29 28 30 29 31 30 32 31 33 32 34
REMARK SMILES IDX 33 35 34 36 95 37 35 38 94 39 36 40 37 41 38 42 88 43 39 44
REMARK SMILES IDX 93 45 87 46 89 47 40 48 92 49 86 50 85 51 41 53 73 54 53 55
REMARK SMILES IDX 72 56 54 57 57 58 71 59 90 60 55 61 56 62 70 64 91 65 58 66
REMARK SMILES IDX 42 67 43 68 51 69 44 70 45 71 49 72 52 73 46 74 47 75 50 76
REMARK SMILES IDX 48 77 74 78 75 79 83 80 76 81 77 82 81 83 84 84 78 85 79 86
REMARK SMILES IDX 82 87 80 88 59 89 60 90 68 91 61 92 62 93 66 94 69 95 63 96
REMARK SMILES IDX 64 97 67 98 65 99
REMARK H PARENT 11 14 15 24 89 52 57 63
REMARK Flexibility Score: inf
ROOT
ATOM      1  C   UNL A   1      37.435  22.944  25.762  1.00  0.00     0.188 C 
ENDROOT
BRANCH   1   2
ATOM      2  O   UNL A   1      36.765  23.378  24.589  1.00  0.00    -0.376 OA
BRANCH   2   3
ATOM      3  C   UNL A   1      35.366  23.177  24.522  1.00  0.00     0.202 C 
BRANCH   3   4
ATOM      4  C   UNL A   1      34.447  24.296  24.005  1.00  0.00     0.261 C 
BRANCH   4   5
ATOM      5  O   UNL A   1      33.043  24.004  23.976  1.00  0.00    -0.461 OA
BRANCH   5   6
ATOM      6  C   UNL A   1      32.189  24.880  24.559  1.00  0.00     0.339 C 
ATOM      7  O   UNL A   1      32.379  25.401  25.654  1.00  0.00    -0.249 OA
BRANCH   6   8
ATOM      8  C   UNL A   1      30.921  25.134  23.688  1.00  0.00     0.176 C 
ATOM      9  C   UNL A   1      29.858  25.689  24.638  1.00  0.00     0.057 C 
BRANCH   8  10
ATOM     10  C   UNL A   1      31.230  26.116  22.507  1.00  0.00     0.164 C 
BRANCH  10  11
ATOM     11  N   UNL A   1      32.316  27.047  22.745  1.00  0.00    -0.334 N 
ATOM     12  C   UNL A   1      32.364  28.366  23.008  1.00  0.00     0.317 C 
ATOM     13  O   UNL A   1      33.304  28.956  22.469  1.00  0.00    -0.249 OA
ATOM     14  H   UNL A   1      33.205  26.627  22.704  1.00  0.00     0.165 HD
BRANCH  12  15
ATOM     15  N   UNL A   1      31.495  29.006  23.854  1.00  0.00    -0.325 N 
BRANCH  15  16
ATOM     16  C   UNL A   1      31.728  28.793  25.298  1.00  0.00     0.124 C 
BRANCH  16  17
ATOM     17  C   UNL A   1      32.922  29.607  25.884  1.00  0.00     0.005 C 
ATOM     18  C   UNL A   1      32.499  30.536  27.028  1.00  0.00     0.009 C 
BRANCH  17  19
ATOM     19  C   UNL A   1      34.045  28.626  26.303  1.00  0.00     0.002 C 
ATOM     20  C   UNL A   1      34.801  28.993  27.576  1.00  0.00     0.004 C 
ENDBRANCH  17  19
ENDBRANCH  16  17
ENDBRANCH  15  16
BRANCH  15  21
ATOM     21  C   UNL A   1      30.263  29.722  23.518  1.00  0.00     0.118 C 
ATOM     22  C   UNL A   1      29.571  29.155  22.286  1.00  0.00     0.027 C 
ENDBRANCH  15  21
ENDBRANCH  12  15
ENDBRANCH  10  11
ENDBRANCH   8  10
BRANCH   8  23
ATOM     23  O   UNL A   1      30.336  23.938  23.152  1.00  0.00    -0.377 OA
ATOM     24  H   UNL A   1      30.890  23.176  23.382  1.00  0.00     0.212 HD
ENDBRANCH   8  23
ENDBRANCH   6   8
ENDBRANCH   5   6
ENDBRANCH   4   5
ENDBRANCH   3   4
ENDBRANCH   2   3
ENDBRANCH   1   2
BRANCH   1  25
ATOM     25  C   UNL A   1      38.388  21.764  25.487  1.00  0.00     0.188 C 
BRANCH  25  26
ATOM     26  O   UNL A   1      39.353  21.446  26.472  1.00  0.00    -0.377 OA
BRANCH  26  27
ATOM     27  C   UNL A   1      40.360  20.496  26.151  1.00  0.00     0.188 C 
BRANCH  27  28
ATOM     28  C   UNL A   1      41.756  20.533  26.822  1.00  0.00     0.188 C 
BRANCH  28  29
ATOM     29  O   UNL A   1      42.354  21.817  26.935  1.00  0.00    -0.376 OA
BRANCH  29  30
ATOM     30  C   UNL A   1      42.522  22.574  25.748  1.00  0.00     0.202 C 
BRANCH  30  31
ATOM     31  C   UNL A   1      43.835  22.337  24.991  1.00  0.00     0.261 C 
BRANCH  31  32
ATOM     32  O   UNL A   1      44.410  23.503  24.385  1.00  0.00    -0.460 OA
BRANCH  32  33
ATOM     33  C   UNL A   1      45.483  24.042  25.000  1.00  0.00     0.338 C 
ATOM     34  O   UNL A   1      46.655  23.747  24.841  1.00  0.00    -0.246 OA
BRANCH  33  35
ATOM     35  C   UNL A   1      45.015  25.211  25.765  1.00  0.00     0.060 A 
ATOM     36  C   UNL A   1      44.418  26.272  25.070  1.00  0.00     0.016 A 
ATOM     37  C   UNL A   1      45.139  25.247  27.155  1.00  0.00     0.016 A 
ATOM     38  C   UNL A   1      43.980  27.395  25.763  1.00  0.00     0.010 A 
ATOM     39  C   UNL A   1      44.727  26.386  27.847  1.00  0.00     0.010 A 
ATOM     40  C   UNL A   1      44.191  27.480  27.144  1.00  0.00    -0.014 A 
BRANCH  40  41
ATOM     41  C   UNL A   1      44.105  28.809  27.789  1.00  0.00     0.031 A 
ATOM     42  C   UNL A   1      45.322  29.690  27.733  1.00  0.00     0.074 A 
ATOM     43  C   UNL A   1      42.971  29.244  28.360  1.00  0.00     0.049 A 
ATOM     44  N   UNL A   1      45.504  30.895  28.204  1.00  0.00    -0.248 NA
ATOM     45  C   UNL A   1      46.498  29.125  27.052  1.00  0.00     0.031 C 
ATOM     46  C   UNL A   1      41.725  28.489  28.444  1.00  0.00     0.029 A 
ATOM     47  N   UNL A   1      42.695  30.434  28.983  1.00  0.00    -0.354 N 
ATOM     48  C   UNL A   1      46.814  31.227  27.884  1.00  0.00     0.074 A 
ATOM     49  C   UNL A   1      47.394  30.084  27.215  1.00  0.00     0.031 C 
ATOM     50  C   UNL A   1      40.816  29.230  29.103  1.00  0.00     0.029 A 
ATOM     51  C   UNL A   1      41.428  30.497  29.504  1.00  0.00     0.049 A 
ATOM     52  H   UNL A   1      43.343  31.173  29.050  1.00  0.00     0.167 HD
ATOM     53  C   UNL A   1      47.473  32.385  28.121  1.00  0.00     0.037 A 
ATOM     54  C   UNL A   1      40.843  31.461  30.241  1.00  0.00     0.037 A 
ATOM     55  C   UNL A   1      46.888  33.513  28.795  1.00  0.00     0.049 A 
ATOM     56  C   UNL A   1      41.608  32.725  30.538  1.00  0.00     0.074 A 
ATOM     57  C   UNL A   1      47.453  34.748  29.059  1.00  0.00     0.029 A 
ATOM     58  N   UNL A   1      45.606  33.535  29.328  1.00  0.00    -0.354 N 
ATOM     59  N   UNL A   1      42.831  33.056  30.197  1.00  0.00    -0.248 NA
ATOM     60  C   UNL A   1      40.905  33.758  31.311  1.00  0.00     0.031 C 
ATOM     61  C   UNL A   1      46.539  35.490  29.816  1.00  0.00     0.029 A 
ATOM     62  C   UNL A   1      45.375  34.749  29.954  1.00  0.00     0.049 A 
ATOM     63  H   UNL A   1      44.958  32.797  29.269  1.00  0.00     0.167 HD
ATOM     64  C   UNL A   1      43.038  34.338  30.690  1.00  0.00     0.074 A 
ATOM     65  C   UNL A   1      41.805  34.733  31.341  1.00  0.00     0.031 C 
ATOM     66  C   UNL A   1      44.143  35.122  30.607  1.00  0.00     0.037 A 
BRANCH  53  67
ATOM     67  C   UNL A   1      48.912  32.455  27.694  1.00  0.00     0.064 A 
ATOM     68  C   UNL A   1      49.949  31.912  28.469  1.00  0.00     0.173 A 
ATOM     69  C   UNL A   1      49.258  33.096  26.495  1.00  0.00     0.173 A 
ATOM     70  F   UNL A   1      49.676  31.304  29.633  1.00  0.00    -0.203 F 
ATOM     71  C   UNL A   1      51.281  32.051  28.083  1.00  0.00     0.198 A 
ATOM     72  C   UNL A   1      50.588  33.198  26.094  1.00  0.00     0.198 A 
ATOM     73  F   UNL A   1      48.309  33.633  25.714  1.00  0.00    -0.203 F 
ATOM     74  F   UNL A   1      52.257  31.591  28.877  1.00  0.00    -0.200 F 
ATOM     75  C   UNL A   1      51.598  32.689  26.894  1.00  0.00     0.200 A 
ATOM     76  F   UNL A   1      50.891  33.805  24.938  1.00  0.00    -0.200 F 
ATOM     77  F   UNL A   1      52.879  32.824  26.525  1.00  0.00    -0.200 F 
ENDBRANCH  53  67
BRANCH  54  78
ATOM     78  C   UNL A   1      39.465  31.252  30.756  1.00  0.00     0.064 A 
ATOM     79  C   UNL A   1      39.229  30.618  31.983  1.00  0.00     0.173 A 
ATOM     80  C   UNL A   1      38.352  31.701  30.029  1.00  0.00     0.173 A 
ATOM     81  F   UNL A   1      40.259  30.149  32.702  1.00  0.00    -0.203 F 
ATOM     82  C   UNL A   1      37.933  30.435  32.460  1.00  0.00     0.198 A 
ATOM     83  C   UNL A   1      37.058  31.544  30.521  1.00  0.00     0.198 A 
ATOM     84  F   UNL A   1      38.522  32.311  28.847  1.00  0.00    -0.203 F 
ATOM     85  F   UNL A   1      37.733  29.793  33.619  1.00  0.00    -0.200 F 
ATOM     86  C   UNL A   1      36.849  30.906  31.733  1.00  0.00     0.200 A 
ATOM     87  F   UNL A   1      36.016  32.013  29.822  1.00  0.00    -0.200 F 
ATOM     88  F   UNL A   1      35.603  30.741  32.200  1.00  0.00    -0.200 F 
ENDBRANCH  54  78
BRANCH  66  89
ATOM     89  C   UNL A   1      44.061  36.499  31.206  1.00  0.00     0.064 A 
ATOM     90  C   UNL A   1      43.780  37.631  30.427  1.00  0.00     0.173 A 
ATOM     91  C   UNL A   1      44.228  36.679  32.588  1.00  0.00     0.173 A 
ATOM     92  F   UNL A   1      43.621  37.518  29.100  1.00  0.00    -0.203 F 
ATOM     93  C   UNL A   1      43.705  38.897  31.005  1.00  0.00     0.198 A 
ATOM     94  C   UNL A   1      44.115  37.941  33.167  1.00  0.00     0.198 A 
ATOM     95  F   UNL A   1      44.487  35.630  33.382  1.00  0.00    -0.203 F 
ATOM     96  F   UNL A   1      43.494  39.971  30.233  1.00  0.00    -0.200 F 
ATOM     97  C   UNL A   1      43.865  39.049  32.375  1.00  0.00     0.200 A 
ATOM     98  F   UNL A   1      44.251  38.082  34.493  1.00  0.00    -0.200 F 
ATOM     99  F   UNL A   1      43.786  40.267  32.929  1.00  0.00    -0.200 F 
ENDBRANCH  66  89
ENDBRANCH  40  41
ENDBRANCH  33  35
ENDBRANCH  32  33
ENDBRANCH  31  32
ENDBRANCH  30  31
ENDBRANCH  29  30
ENDBRANCH  28  29
ENDBRANCH  27  28
ENDBRANCH  26  27
ENDBRANCH  25  26
ENDBRANCH   1  25
TORSDOF 28
ENDMDL
