MODEL 1
REMARK VINA RESULT:     -10.3      0.000      0.000
REMARK SMILES COc1c(Cl)cc(C(=O)OCCOCCOCCOCCOC(=O)c2ccc(-c3c4nc(c(-c5c(F)c(F)c(F)c(F)c5F)c5ccc([nH]5)c(-c5c(F)c(F)c(F)c(F)c5F)c5nc(c(-c6c(F)c(F)c(F)c(F)c6F)c6ccc3[nH]6)C=C5)C=C4)cc2)cc1NC(=S)NC(=O)c1ccccc1F
REMARK SMILES IDX 15 1 14 2 13 3 12 4 11 5 10 6 8 7 9 8 7 9 3 10 4 11 89 12
REMARK SMILES IDX 5 13 6 14 88 15 2 16 1 17 90 18 91 20 92 21 93 22 94 23
REMARK SMILES IDX 95 25 96 26 97 27 101 28 98 29 100 30 102 31 99 32 16 33
REMARK SMILES IDX 17 34 18 35 19 36 20 37 21 38 22 39 23 40 24 41 25 42 26 43
REMARK SMILES IDX 87 44 27 45 86 46 28 47 29 48 30 49 80 50 31 51 85 52 79 53
REMARK SMILES IDX 81 54 32 55 84 56 78 57 77 58 33 60 65 61 45 62 64 63 46 64
REMARK SMILES IDX 49 65 63 66 82 67 47 68 48 69 62 71 83 72 50 73 34 74 35 75
REMARK SMILES IDX 43 76 36 77 37 78 41 79 44 80 38 81 39 82 42 83 40 84 66 85
REMARK SMILES IDX 67 86 75 87 68 88 69 89 73 90 76 91 70 92 71 93 74 94 72 95
REMARK SMILES IDX 51 96 52 97 60 98 53 99 54 100 58 101 61 102 55 103 56 104
REMARK SMILES IDX 59 105 57 106
REMARK H PARENT 90 19 93 24 81 59 49 70
REMARK Flexibility Score: inf
ROOT
ATOM      1  C   UNL A   1      33.265  30.375  26.731  1.00  0.00     0.188 C 
ENDROOT
BRANCH   1   2
ATOM      2  C   UNL A   1      33.267  28.997  27.402  1.00  0.00     0.188 C 
BRANCH   2   3
ATOM      3  O   UNL A   1      32.033  28.326  27.567  1.00  0.00    -0.376 OA
BRANCH   3   4
ATOM      4  C   UNL A   1      31.837  27.069  26.918  1.00  0.00     0.202 C 
BRANCH   4   5
ATOM      5  C   UNL A   1      30.811  26.837  25.779  1.00  0.00     0.261 C 
BRANCH   5   6
ATOM      6  O   UNL A   1      30.086  25.582  25.826  1.00  0.00    -0.460 OA
BRANCH   6   7
ATOM      7  C   UNL A   1      30.611  24.352  26.534  1.00  0.00     0.338 C 
ATOM      8  O   UNL A   1      29.619  24.057  27.251  1.00  0.00    -0.246 OA
BRANCH   7   9
ATOM      9  C   UNL A   1      32.555  23.458  26.291  1.00  0.00     0.063 A 
ATOM     10  C   UNL A   1      35.196  21.900  25.843  1.00  0.00     0.160 A 
ATOM     11  C   UNL A   1      35.187  23.269  26.117  1.00  0.00     0.086 A 
ATOM     12  C   UNL A   1      33.968  21.291  25.947  1.00  0.00     0.085 A 
ATOM     13  Cl  UNL A   1      36.576  24.183  26.635  1.00  0.00    -0.080 Cl
ATOM     14  C   UNL A   1      33.951  23.997  26.194  1.00  0.00     0.040 A 
ATOM     15  C   UNL A   1      32.937  22.049  26.428  1.00  0.00     0.045 A 
BRANCH  10  16
ATOM     16  O   UNL A   1      36.254  21.077  25.607  1.00  0.00    -0.493 OA
ATOM     17  C   UNL A   1      37.278  21.555  24.740  1.00  0.00     0.278 C 
ENDBRANCH  10  16
BRANCH  12  18
ATOM     18  N   UNL A   1      33.642  19.938  25.758  1.00  0.00    -0.329 N 
ATOM     19  H   UNL A   1      33.964  19.345  26.475  1.00  0.00     0.169 HD
BRANCH  18  20
ATOM     20  C   UNL A   1      32.961  19.292  24.763  1.00  0.00     0.177 C 
ATOM     21  S   UNL A   1      32.535  17.694  25.061  1.00  0.00    -0.040 S 
BRANCH  20  22
ATOM     22  N   UNL A   1      32.528  19.813  23.528  1.00  0.00    -0.299 N 
ATOM     23  C   UNL A   1      32.225  20.912  22.642  1.00  0.00     0.260 C 
ATOM     24  H   UNL A   1      32.333  19.012  22.988  1.00  0.00     0.172 HD
ATOM     25  O   UNL A   1      31.536  20.708  21.645  1.00  0.00    -0.269 OA
BRANCH  23  26
ATOM     26  C   UNL A   1      32.612  22.310  22.921  1.00  0.00     0.075 A 
ATOM     27  C   UNL A   1      34.371  22.824  22.704  1.00  0.00     0.017 A 
ATOM     28  C   UNL A   1      31.342  23.576  22.999  1.00  0.00     0.135 A 
ATOM     29  C   UNL A   1      34.811  24.611  22.816  1.00  0.00     0.001 A 
ATOM     30  C   UNL A   1      31.757  25.335  23.005  1.00  0.00     0.040 A 
ATOM     31  F   UNL A   1      30.054  23.212  23.025  1.00  0.00    -0.206 F 
ATOM     32  C   UNL A   1      33.500  25.859  23.050  1.00  0.00     0.003 A 
ENDBRANCH  23  26
ENDBRANCH  20  22
ENDBRANCH  18  20
ENDBRANCH  12  18
ENDBRANCH   7   9
ENDBRANCH   6   7
ENDBRANCH   5   6
ENDBRANCH   4   5
ENDBRANCH   3   4
ENDBRANCH   2   3
ENDBRANCH   1   2
BRANCH   1  33
ATOM     33  O   UNL A   1      33.361  31.468  27.611  1.00  0.00    -0.377 OA
BRANCH  33  34
ATOM     34  C   UNL A   1      34.661  31.769  28.094  1.00  0.00     0.188 C 
BRANCH  34  35
ATOM     35  C   UNL A   1      35.220  33.214  28.001  1.00  0.00     0.188 C 
BRANCH  35  36
ATOM     36  O   UNL A   1      34.711  34.189  28.897  1.00  0.00    -0.376 OA
BRANCH  36  37
ATOM     37  C   UNL A   1      33.350  34.604  28.890  1.00  0.00     0.202 C 
BRANCH  37  38
ATOM     38  C   UNL A   1      32.906  35.983  29.420  1.00  0.00     0.261 C 
BRANCH  38  39
ATOM     39  O   UNL A   1      33.319  36.334  30.741  1.00  0.00    -0.460 OA
BRANCH  39  40
ATOM     40  C   UNL A   1      32.846  35.570  31.747  1.00  0.00     0.338 C 
ATOM     41  O   UNL A   1      31.682  35.324  32.002  1.00  0.00    -0.246 OA
BRANCH  40  42
ATOM     42  C   UNL A   1      34.002  34.917  32.392  1.00  0.00     0.060 A 
ATOM     43  C   UNL A   1      35.255  35.540  32.318  1.00  0.00     0.016 A 
ATOM     44  C   UNL A   1      33.850  33.705  33.070  1.00  0.00     0.016 A 
ATOM     45  C   UNL A   1      36.369  34.939  32.892  1.00  0.00     0.010 A 
ATOM     46  C   UNL A   1      34.978  33.081  33.609  1.00  0.00     0.010 A 
ATOM     47  C   UNL A   1      36.244  33.680  33.487  1.00  0.00    -0.014 A 
BRANCH  47  48
ATOM     48  C   UNL A   1      37.470  32.900  33.764  1.00  0.00     0.031 A 
ATOM     49  C   UNL A   1      38.197  33.165  35.052  1.00  0.00     0.074 A 
ATOM     50  C   UNL A   1      37.897  31.945  32.921  1.00  0.00     0.049 A 
ATOM     51  N   UNL A   1      39.314  32.652  35.501  1.00  0.00    -0.248 NA
ATOM     52  C   UNL A   1      37.580  34.147  35.959  1.00  0.00     0.031 C 
ATOM     53  C   UNL A   1      37.234  31.556  31.680  1.00  0.00     0.029 A 
ATOM     54  N   UNL A   1      39.002  31.134  32.988  1.00  0.00    -0.354 N 
ATOM     55  C   UNL A   1      39.536  33.256  36.731  1.00  0.00     0.074 A 
ATOM     56  C   UNL A   1      38.459  34.197  36.946  1.00  0.00     0.031 C 
ATOM     57  C   UNL A   1      37.956  30.587  31.090  1.00  0.00     0.029 A 
ATOM     58  C   UNL A   1      39.149  30.321  31.893  1.00  0.00     0.049 A 
ATOM     59  H   UNL A   1      39.628  31.137  33.747  1.00  0.00     0.167 HD
ATOM     60  C   UNL A   1      40.547  33.040  37.604  1.00  0.00     0.037 A 
ATOM     61  C   UNL A   1      40.151  29.481  31.569  1.00  0.00     0.037 A 
ATOM     62  C   UNL A   1      41.616  32.105  37.378  1.00  0.00     0.049 A 
ATOM     63  C   UNL A   1      41.318  29.331  32.515  1.00  0.00     0.074 A 
ATOM     64  C   UNL A   1      42.685  31.801  38.203  1.00  0.00     0.029 A 
ATOM     65  N   UNL A   1      41.760  31.330  36.235  1.00  0.00    -0.354 N 
ATOM     66  N   UNL A   1      41.520  29.890  33.684  1.00  0.00    -0.248 NA
ATOM     67  C   UNL A   1      42.398  28.427  32.094  1.00  0.00     0.031 C 
ATOM     68  C   UNL A   1      43.513  30.898  37.528  1.00  0.00     0.029 A 
ATOM     69  C   UNL A   1      42.919  30.576  36.318  1.00  0.00     0.049 A 
ATOM     70  H   UNL A   1      41.131  31.318  35.479  1.00  0.00     0.167 HD
ATOM     71  C   UNL A   1      42.724  29.380  34.153  1.00  0.00     0.074 A 
ATOM     72  C   UNL A   1      43.202  28.454  33.147  1.00  0.00     0.031 C 
ATOM     73  C   UNL A   1      43.375  29.649  35.312  1.00  0.00     0.037 A 
BRANCH  60  74
ATOM     74  C   UNL A   1      40.566  33.861  38.861  1.00  0.00     0.064 A 
ATOM     75  C   UNL A   1      39.869  33.474  40.016  1.00  0.00     0.173 A 
ATOM     76  C   UNL A   1      41.317  35.046  38.917  1.00  0.00     0.173 A 
ATOM     77  F   UNL A   1      39.122  32.359  40.012  1.00  0.00    -0.203 F 
ATOM     78  C   UNL A   1      39.897  34.258  41.167  1.00  0.00     0.198 A 
ATOM     79  C   UNL A   1      41.372  35.807  40.081  1.00  0.00     0.198 A 
ATOM     80  F   UNL A   1      42.004  35.463  37.843  1.00  0.00    -0.203 F 
ATOM     81  F   UNL A   1      39.175  33.898  42.238  1.00  0.00    -0.200 F 
ATOM     82  C   UNL A   1      40.654  35.419  41.201  1.00  0.00     0.200 A 
ATOM     83  F   UNL A   1      42.118  36.921  40.116  1.00  0.00    -0.200 F 
ATOM     84  F   UNL A   1      40.688  36.167  42.312  1.00  0.00    -0.200 F 
ENDBRANCH  60  74
BRANCH  61  85
ATOM     85  C   UNL A   1      40.112  28.733  30.285  1.00  0.00     0.064 A 
ATOM     86  C   UNL A   1      40.681  29.266  29.119  1.00  0.00     0.173 A 
ATOM     87  C   UNL A   1      39.477  27.485  30.188  1.00  0.00     0.173 A 
ATOM     88  F   UNL A   1      41.274  30.468  29.153  1.00  0.00    -0.203 F 
ATOM     89  C   UNL A   1      40.592  28.593  27.902  1.00  0.00     0.198 A 
ATOM     90  C   UNL A   1      39.421  26.797  28.977  1.00  0.00     0.198 A 
ATOM     91  F   UNL A   1      38.912  26.932  31.271  1.00  0.00    -0.203 F 
ATOM     92  F   UNL A   1      41.090  29.154  26.792  1.00  0.00    -0.200 F 
ATOM     93  C   UNL A   1      39.969  27.356  27.833  1.00  0.00     0.200 A 
ATOM     94  F   UNL A   1      38.827  25.598  28.918  1.00  0.00    -0.200 F 
ATOM     95  F   UNL A   1      39.883  26.710  26.662  1.00  0.00    -0.200 F 
ENDBRANCH  61  85
BRANCH  73  96
ATOM     96  C   UNL A   1      44.649  28.896  35.586  1.00  0.00     0.064 A 
ATOM     97  C   UNL A   1      45.898  29.365  35.153  1.00  0.00     0.173 A 
ATOM     98  C   UNL A   1      44.620  27.708  36.335  1.00  0.00     0.173 A 
ATOM     99  F   UNL A   1      45.983  30.489  34.425  1.00  0.00    -0.203 F 
ATOM    100  C   UNL A   1      47.064  28.655  35.428  1.00  0.00     0.198 A 
ATOM    101  C   UNL A   1      45.791  27.023  36.642  1.00  0.00     0.198 A 
ATOM    102  F   UNL A   1      43.454  27.220  36.785  1.00  0.00    -0.203 F 
ATOM    103  F   UNL A   1      48.240  29.091  34.954  1.00  0.00    -0.200 F 
ATOM    104  C   UNL A   1      47.012  27.490  36.180  1.00  0.00     0.200 A 
ATOM    105  F   UNL A   1      45.739  25.911  37.387  1.00  0.00    -0.200 F 
ATOM    106  F   UNL A   1      48.136  26.815  36.454  1.00  0.00    -0.200 F 
ENDBRANCH  73  96
ENDBRANCH  47  48
ENDBRANCH  40  42
ENDBRANCH  39  40
ENDBRANCH  38  39
ENDBRANCH  37  38
ENDBRANCH  36  37
ENDBRANCH  35  36
ENDBRANCH  34  35
ENDBRANCH  33  34
ENDBRANCH   1  33
TORSDOF 25
ENDMDL
MODEL 2
REMARK VINA RESULT:      -9.9      3.690     10.018
REMARK SMILES COc1c(Cl)cc(C(=O)OCCOCCOCCOCCOC(=O)c2ccc(-c3c4nc(c(-c5c(F)c(F)c(F)c(F)c5F)c5ccc([nH]5)c(-c5c(F)c(F)c(F)c(F)c5F)c5nc(c(-c6c(F)c(F)c(F)c(F)c6F)c6ccc3[nH]6)C=C5)C=C4)cc2)cc1NC(=S)NC(=O)c1ccccc1F
REMARK SMILES IDX 15 1 14 2 13 3 12 4 11 5 10 6 8 7 9 8 7 9 3 10 4 11 89 12
REMARK SMILES IDX 5 13 6 14 88 15 2 16 1 17 90 18 91 20 92 21 93 22 94 23
REMARK SMILES IDX 95 25 96 26 97 27 101 28 98 29 100 30 102 31 99 32 16 33
REMARK SMILES IDX 17 34 18 35 19 36 20 37 21 38 22 39 23 40 24 41 25 42 26 43
REMARK SMILES IDX 87 44 27 45 86 46 28 47 29 48 30 49 80 50 31 51 85 52 79 53
REMARK SMILES IDX 81 54 32 55 84 56 78 57 77 58 33 60 65 61 45 62 64 63 46 64
REMARK SMILES IDX 49 65 63 66 82 67 47 68 48 69 62 71 83 72 50 73 34 74 35 75
REMARK SMILES IDX 43 76 36 77 37 78 41 79 44 80 38 81 39 82 42 83 40 84 66 85
REMARK SMILES IDX 67 86 75 87 68 88 69 89 73 90 76 91 70 92 71 93 74 94 72 95
REMARK SMILES IDX 51 96 52 97 60 98 53 99 54 100 58 101 61 102 55 103 56 104
REMARK SMILES IDX 59 105 57 106
REMARK H PARENT 90 19 93 24 81 59 49 70
REMARK Flexibility Score: inf
ROOT
ATOM      1  C   UNL A   1      42.223  21.404  27.493  1.00  0.00     0.188 C 
ENDROOT
BRANCH   1   2
ATOM      2  C   UNL A   1      40.773  20.955  27.283  1.00  0.00     0.188 C 
BRANCH   2   3
ATOM      3  O   UNL A   1      40.503  19.997  26.277  1.00  0.00    -0.376 OA
BRANCH   3   4
ATOM      4  C   UNL A   1      39.384  20.197  25.413  1.00  0.00     0.202 C 
BRANCH   4   5
ATOM      5  C   UNL A   1      38.155  21.066  25.780  1.00  0.00     0.261 C 
BRANCH   5   6
ATOM      6  O   UNL A   1      37.993  22.290  25.018  1.00  0.00    -0.460 OA
BRANCH   6   7
ATOM      7  C   UNL A   1      37.169  23.462  25.506  1.00  0.00     0.338 C 
ATOM      8  O   UNL A   1      37.764  23.730  26.583  1.00  0.00    -0.246 OA
BRANCH   7   9
ATOM      9  C   UNL A   1      35.461  24.332  24.526  1.00  0.00     0.063 A 
ATOM     10  C   UNL A   1      32.999  25.805  23.356  1.00  0.00     0.160 A 
ATOM     11  C   UNL A   1      33.661  24.802  22.647  1.00  0.00     0.086 A 
ATOM     12  C   UNL A   1      33.428  25.963  24.652  1.00  0.00     0.085 A 
ATOM     13  Cl  UNL A   1      33.007  23.976  21.260  1.00  0.00    -0.080 Cl
ATOM     14  C   UNL A   1      34.875  24.222  23.150  1.00  0.00     0.040 A 
ATOM     15  C   UNL A   1      34.333  25.052  25.123  1.00  0.00     0.045 A 
BRANCH  10  16
ATOM     16  O   UNL A   1      31.924  26.555  22.986  1.00  0.00    -0.493 OA
ATOM     17  C   UNL A   1      32.138  27.945  22.764  1.00  0.00     0.278 C 
ENDBRANCH  10  16
BRANCH  12  18
ATOM     18  N   UNL A   1      32.960  26.858  25.628  1.00  0.00    -0.329 N 
ATOM     19  H   UNL A   1      33.445  27.715  25.651  1.00  0.00     0.169 HD
BRANCH  18  20
ATOM     20  C   UNL A   1      31.956  26.761  26.551  1.00  0.00     0.177 C 
ATOM     21  S   UNL A   1      31.498  28.187  27.315  1.00  0.00    -0.040 S 
BRANCH  20  22
ATOM     22  N   UNL A   1      31.218  25.617  26.916  1.00  0.00    -0.299 N 
ATOM     23  C   UNL A   1      30.927  24.206  26.829  1.00  0.00     0.260 C 
ATOM     24  H   UNL A   1      30.564  25.955  27.570  1.00  0.00     0.172 HD
ATOM     25  O   UNL A   1      29.847  23.789  27.243  1.00  0.00    -0.269 OA
BRANCH  23  26
ATOM     26  C   UNL A   1      31.819  23.232  26.167  1.00  0.00     0.075 A 
ATOM     27  C   UNL A   1      32.959  22.205  27.192  1.00  0.00     0.017 A 
ATOM     28  C   UNL A   1      31.467  22.719  24.484  1.00  0.00     0.135 A 
ATOM     29  C   UNL A   1      33.893  20.827  26.400  1.00  0.00     0.001 A 
ATOM     30  C   UNL A   1      32.303  21.305  23.730  1.00  0.00     0.040 A 
ATOM     31  F   UNL A   1      30.543  23.381  23.775  1.00  0.00    -0.206 F 
ATOM     32  C   UNL A   1      33.619  20.435  24.639  1.00  0.00     0.003 A 
ENDBRANCH  23  26
ENDBRANCH  20  22
ENDBRANCH  18  20
ENDBRANCH  12  18
ENDBRANCH   7   9
ENDBRANCH   6   7
ENDBRANCH   5   6
ENDBRANCH   4   5
ENDBRANCH   3   4
ENDBRANCH   2   3
ENDBRANCH   1   2
BRANCH   1  33
ATOM     33  O   UNL A   1      43.003  21.475  26.326  1.00  0.00    -0.377 OA
BRANCH  33  34
ATOM     34  C   UNL A   1      42.708  22.546  25.442  1.00  0.00     0.188 C 
BRANCH  34  35
ATOM     35  C   UNL A   1      43.784  23.068  24.454  1.00  0.00     0.188 C 
BRANCH  35  36
ATOM     36  O   UNL A   1      45.018  22.373  24.377  1.00  0.00    -0.376 OA
BRANCH  36  37
ATOM     37  C   UNL A   1      46.154  22.735  25.153  1.00  0.00     0.202 C 
BRANCH  37  38
ATOM     38  C   UNL A   1      46.030  23.500  26.487  1.00  0.00     0.261 C 
BRANCH  38  39
ATOM     39  O   UNL A   1      46.536  24.835  26.519  1.00  0.00    -0.460 OA
BRANCH  39  40
ATOM     40  C   UNL A   1      45.840  25.763  25.831  1.00  0.00     0.338 C 
ATOM     41  O   UNL A   1      45.825  25.932  24.626  1.00  0.00    -0.246 OA
BRANCH  40  42
ATOM     42  C   UNL A   1      44.935  26.438  26.783  1.00  0.00     0.060 A 
ATOM     43  C   UNL A   1      45.115  27.806  27.029  1.00  0.00     0.016 A 
ATOM     44  C   UNL A   1      43.915  25.730  27.422  1.00  0.00     0.016 A 
ATOM     45  C   UNL A   1      44.299  28.466  27.939  1.00  0.00     0.010 A 
ATOM     46  C   UNL A   1      43.122  26.384  28.368  1.00  0.00     0.010 A 
ATOM     47  C   UNL A   1      43.338  27.744  28.655  1.00  0.00    -0.014 A 
BRANCH  47  48
ATOM     48  C   UNL A   1      42.735  28.360  29.857  1.00  0.00     0.031 A 
ATOM     49  C   UNL A   1      41.368  28.970  29.724  1.00  0.00     0.074 A 
ATOM     50  C   UNL A   1      43.360  28.332  31.046  1.00  0.00     0.049 A 
ATOM     51  N   UNL A   1      40.650  29.609  30.611  1.00  0.00    -0.248 NA
ATOM     52  C   UNL A   1      40.722  28.841  28.408  1.00  0.00     0.031 C 
ATOM     53  C   UNL A   1      44.654  27.709  31.306  1.00  0.00     0.029 A 
ATOM     54  N   UNL A   1      42.981  28.853  32.257  1.00  0.00    -0.354 N 
ATOM     55  C   UNL A   1      39.479  29.968  29.958  1.00  0.00     0.074 A 
ATOM     56  C   UNL A   1      39.592  29.505  28.592  1.00  0.00     0.031 C 
ATOM     57  C   UNL A   1      44.972  27.898  32.598  1.00  0.00     0.029 A 
ATOM     58  C   UNL A   1      43.923  28.687  33.240  1.00  0.00     0.049 A 
ATOM     59  H   UNL A   1      42.118  29.303  32.406  1.00  0.00     0.167 HD
ATOM     60  C   UNL A   1      38.403  30.621  30.456  1.00  0.00     0.037 A 
ATOM     61  C   UNL A   1      43.942  29.151  34.505  1.00  0.00     0.037 A 
ATOM     62  C   UNL A   1      38.302  31.081  31.815  1.00  0.00     0.049 A 
ATOM     63  C   UNL A   1      42.772  29.962  35.008  1.00  0.00     0.074 A 
ATOM     64  C   UNL A   1      37.253  31.744  32.425  1.00  0.00     0.029 A 
ATOM     65  N   UNL A   1      39.296  30.937  32.773  1.00  0.00    -0.354 N 
ATOM     66  N   UNL A   1      41.660  30.287  34.394  1.00  0.00    -0.248 NA
ATOM     67  C   UNL A   1      42.863  30.469  36.384  1.00  0.00     0.031 C 
ATOM     68  C   UNL A   1      37.640  32.066  33.729  1.00  0.00     0.029 A 
ATOM     69  C   UNL A   1      38.898  31.532  33.959  1.00  0.00     0.049 A 
ATOM     70  H   UNL A   1      40.156  30.481  32.631  1.00  0.00     0.167 HD
ATOM     71  C   UNL A   1      40.905  31.001  35.318  1.00  0.00     0.074 A 
ATOM     72  C   UNL A   1      41.682  31.049  36.539  1.00  0.00     0.031 C 
ATOM     73  C   UNL A   1      39.679  31.562  35.171  1.00  0.00     0.037 A 
BRANCH  60  74
ATOM     74  C   UNL A   1      37.271  30.914  29.513  1.00  0.00     0.064 A 
ATOM     75  C   UNL A   1      37.101  32.175  28.922  1.00  0.00     0.173 A 
ATOM     76  C   UNL A   1      36.356  29.905  29.176  1.00  0.00     0.173 A 
ATOM     77  F   UNL A   1      37.937  33.180  29.223  1.00  0.00    -0.203 F 
ATOM     78  C   UNL A   1      36.038  32.423  28.056  1.00  0.00     0.198 A 
ATOM     79  C   UNL A   1      35.318  30.146  28.281  1.00  0.00     0.198 A 
ATOM     80  F   UNL A   1      36.472  28.680  29.710  1.00  0.00    -0.203 F 
ATOM     81  F   UNL A   1      35.861  33.653  27.551  1.00  0.00    -0.200 F 
ATOM     82  C   UNL A   1      35.153  31.407  27.730  1.00  0.00     0.200 A 
ATOM     83  F   UNL A   1      34.472  29.158  27.955  1.00  0.00    -0.200 F 
ATOM     84  F   UNL A   1      34.137  31.645  26.890  1.00  0.00    -0.200 F 
ENDBRANCH  60  74
BRANCH  61  85
ATOM     85  C   UNL A   1      45.112  28.881  35.382  1.00  0.00     0.064 A 
ATOM     86  C   UNL A   1      46.259  29.687  35.326  1.00  0.00     0.173 A 
ATOM     87  C   UNL A   1      45.124  27.794  36.268  1.00  0.00     0.173 A 
ATOM     88  F   UNL A   1      46.309  30.723  34.474  1.00  0.00    -0.203 F 
ATOM     89  C   UNL A   1      47.380  29.400  36.103  1.00  0.00     0.198 A 
ATOM     90  C   UNL A   1      46.232  27.529  37.071  1.00  0.00     0.198 A 
ATOM     91  F   UNL A   1      44.057  26.987  36.356  1.00  0.00    -0.203 F 
ATOM     92  F   UNL A   1      48.483  30.150  35.984  1.00  0.00    -0.200 F 
ATOM     93  C   UNL A   1      47.363  28.325  36.980  1.00  0.00     0.200 A 
ATOM     94  F   UNL A   1      46.207  26.495  37.923  1.00  0.00    -0.200 F 
ATOM     95  F   UNL A   1      48.442  28.049  37.726  1.00  0.00    -0.200 F 
ENDBRANCH  61  85
BRANCH  73  96
ATOM     96  C   UNL A   1      39.072  32.233  36.373  1.00  0.00     0.064 A 
ATOM     97  C   UNL A   1      38.193  31.561  37.236  1.00  0.00     0.173 A 
ATOM     98  C   UNL A   1      39.412  33.558  36.689  1.00  0.00     0.173 A 
ATOM     99  F   UNL A   1      37.825  30.297  36.976  1.00  0.00    -0.203 F 
ATOM    100  C   UNL A   1      37.651  32.201  38.348  1.00  0.00     0.198 A 
ATOM    101  C   UNL A   1      38.902  34.181  37.824  1.00  0.00     0.198 A 
ATOM    102  F   UNL A   1      40.258  34.245  35.906  1.00  0.00    -0.203 F 
ATOM    103  F   UNL A   1      36.769  31.558  39.125  1.00  0.00    -0.200 F 
ATOM    104  C   UNL A   1      38.013  33.507  38.646  1.00  0.00     0.200 A 
ATOM    105  F   UNL A   1      39.270  35.434  38.122  1.00  0.00    -0.200 F 
ATOM    106  F   UNL A   1      37.501  34.117  39.724  1.00  0.00    -0.200 F 
ENDBRANCH  73  96
ENDBRANCH  47  48
ENDBRANCH  40  42
ENDBRANCH  39  40
ENDBRANCH  38  39
ENDBRANCH  37  38
ENDBRANCH  36  37
ENDBRANCH  35  36
ENDBRANCH  34  35
ENDBRANCH  33  34
ENDBRANCH   1  33
TORSDOF 25
ENDMDL
MODEL 3
REMARK VINA RESULT:      -9.7      1.191      2.678
REMARK SMILES COc1c(Cl)cc(C(=O)OCCOCCOCCOCCOC(=O)c2ccc(-c3c4nc(c(-c5c(F)c(F)c(F)c(F)c5F)c5ccc([nH]5)c(-c5c(F)c(F)c(F)c(F)c5F)c5nc(c(-c6c(F)c(F)c(F)c(F)c6F)c6ccc3[nH]6)C=C5)C=C4)cc2)cc1NC(=S)NC(=O)c1ccccc1F
REMARK SMILES IDX 15 1 14 2 13 3 12 4 11 5 10 6 8 7 9 8 7 9 3 10 4 11 89 12
REMARK SMILES IDX 5 13 6 14 88 15 2 16 1 17 90 18 91 20 92 21 93 22 94 23
REMARK SMILES IDX 95 25 96 26 97 27 101 28 98 29 100 30 102 31 99 32 16 33
REMARK SMILES IDX 17 34 18 35 19 36 20 37 21 38 22 39 23 40 24 41 25 42 26 43
REMARK SMILES IDX 87 44 27 45 86 46 28 47 29 48 30 49 80 50 31 51 85 52 79 53
REMARK SMILES IDX 81 54 32 55 84 56 78 57 77 58 33 60 65 61 45 62 64 63 46 64
REMARK SMILES IDX 49 65 63 66 82 67 47 68 48 69 62 71 83 72 50 73 34 74 35 75
REMARK SMILES IDX 43 76 36 77 37 78 41 79 44 80 38 81 39 82 42 83 40 84 66 85
REMARK SMILES IDX 67 86 75 87 68 88 69 89 73 90 76 91 70 92 71 93 74 94 72 95
REMARK SMILES IDX 51 96 52 97 60 98 53 99 54 100 58 101 61 102 55 103 56 104
REMARK SMILES IDX 59 105 57 106
REMARK H PARENT 90 19 93 24 81 59 49 70
REMARK Flexibility Score: inf
ROOT
ATOM      1  C   UNL A   1      34.226  29.549  26.919  1.00  0.00     0.188 C 
ENDROOT
BRANCH   1   2
ATOM      2  C   UNL A   1      33.050  28.679  27.376  1.00  0.00     0.188 C 
BRANCH   2   3
ATOM      3  O   UNL A   1      32.178  28.153  26.395  1.00  0.00    -0.376 OA
BRANCH   3   4
ATOM      4  C   UNL A   1      31.712  26.810  26.531  1.00  0.00     0.202 C 
BRANCH   4   5
ATOM      5  C   UNL A   1      30.469  26.249  25.795  1.00  0.00     0.261 C 
BRANCH   5   6
ATOM      6  O   UNL A   1      29.746  25.197  26.483  1.00  0.00    -0.460 OA
BRANCH   6   7
ATOM      7  C   UNL A   1      30.205  23.755  26.499  1.00  0.00     0.338 C 
ATOM      8  O   UNL A   1      29.913  23.433  27.680  1.00  0.00    -0.246 OA
BRANCH   7   9
ATOM      9  C   UNL A   1      31.105  22.672  24.870  1.00  0.00     0.063 A 
ATOM     10  C   UNL A   1      32.330  20.841  22.692  1.00  0.00     0.160 A 
ATOM     11  C   UNL A   1      32.151  22.209  22.486  1.00  0.00     0.086 A 
ATOM     12  C   UNL A   1      32.071  20.420  23.974  1.00  0.00     0.085 A 
ATOM     13  Cl  UNL A   1      32.918  23.128  21.220  1.00  0.00    -0.080 Cl
ATOM     14  C   UNL A   1      31.465  23.017  23.456  1.00  0.00     0.040 A 
ATOM     15  C   UNL A   1      31.808  21.386  24.904  1.00  0.00     0.045 A 
BRANCH  10  16
ATOM     16  O   UNL A   1      32.833  19.901  21.844  1.00  0.00    -0.493 OA
ATOM     17  C   UNL A   1      32.177  18.639  21.799  1.00  0.00     0.278 C 
ENDBRANCH  10  16
BRANCH  12  18
ATOM     18  N   UNL A   1      32.174  19.125  24.509  1.00  0.00    -0.329 N 
ATOM     19  H   UNL A   1      31.342  18.603  24.457  1.00  0.00     0.169 HD
BRANCH  18  20
ATOM     20  C   UNL A   1      33.217  18.457  25.090  1.00  0.00     0.177 C 
ATOM     21  S   UNL A   1      32.846  17.007  25.856  1.00  0.00    -0.040 S 
BRANCH  20  22
ATOM     22  N   UNL A   1      34.581  18.808  25.090  1.00  0.00    -0.299 N 
ATOM     23  C   UNL A   1      35.649  19.780  25.050  1.00  0.00     0.260 C 
ATOM     24  H   UNL A   1      35.049  17.943  25.151  1.00  0.00     0.172 HD
ATOM     25  O   UNL A   1      36.788  19.409  24.773  1.00  0.00    -0.269 OA
BRANCH  23  26
ATOM     26  C   UNL A   1      35.433  21.231  25.220  1.00  0.00     0.075 A 
ATOM     27  C   UNL A   1      35.603  22.350  23.763  1.00  0.00     0.017 A 
ATOM     28  C   UNL A   1      34.566  21.826  26.675  1.00  0.00     0.135 A 
ATOM     29  C   UNL A   1      35.100  24.117  23.917  1.00  0.00     0.001 A 
ATOM     30  C   UNL A   1      33.977  23.530  26.795  1.00  0.00     0.040 A 
ATOM     31  F   UNL A   1      34.323  20.982  27.685  1.00  0.00    -0.206 F 
ATOM     32  C   UNL A   1      34.360  24.721  25.473  1.00  0.00     0.003 A 
ENDBRANCH  23  26
ENDBRANCH  20  22
ENDBRANCH  18  20
ENDBRANCH  12  18
ENDBRANCH   7   9
ENDBRANCH   6   7
ENDBRANCH   5   6
ENDBRANCH   4   5
ENDBRANCH   3   4
ENDBRANCH   2   3
ENDBRANCH   1   2
BRANCH   1  33
ATOM     33  O   UNL A   1      33.994  30.935  26.954  1.00  0.00    -0.377 OA
BRANCH  33  34
ATOM     34  C   UNL A   1      34.419  31.611  28.127  1.00  0.00     0.188 C 
BRANCH  34  35
ATOM     35  C   UNL A   1      34.946  33.068  28.048  1.00  0.00     0.188 C 
BRANCH  35  36
ATOM     36  O   UNL A   1      34.557  33.978  29.065  1.00  0.00    -0.376 OA
BRANCH  36  37
ATOM     37  C   UNL A   1      33.253  34.542  29.134  1.00  0.00     0.202 C 
BRANCH  37  38
ATOM     38  C   UNL A   1      33.010  36.006  29.557  1.00  0.00     0.261 C 
BRANCH  38  39
ATOM     39  O   UNL A   1      33.371  36.364  30.892  1.00  0.00    -0.460 OA
BRANCH  39  40
ATOM     40  C   UNL A   1      32.920  35.562  31.878  1.00  0.00     0.338 C 
ATOM     41  O   UNL A   1      31.763  35.294  32.140  1.00  0.00    -0.246 OA
BRANCH  40  42
ATOM     42  C   UNL A   1      34.092  34.901  32.485  1.00  0.00     0.060 A 
ATOM     43  C   UNL A   1      35.351  35.500  32.343  1.00  0.00     0.016 A 
ATOM     44  C   UNL A   1      33.950  33.707  33.195  1.00  0.00     0.016 A 
ATOM     45  C   UNL A   1      36.480  34.891  32.879  1.00  0.00     0.010 A 
ATOM     46  C   UNL A   1      35.090  33.074  33.697  1.00  0.00     0.010 A 
ATOM     47  C   UNL A   1      36.360  33.648  33.507  1.00  0.00    -0.014 A 
BRANCH  47  48
ATOM     48  C   UNL A   1      37.583  32.851  33.746  1.00  0.00     0.031 A 
ATOM     49  C   UNL A   1      38.346  33.097  35.018  1.00  0.00     0.074 A 
ATOM     50  C   UNL A   1      37.978  31.899  32.885  1.00  0.00     0.049 A 
ATOM     51  N   UNL A   1      39.467  32.567  35.434  1.00  0.00    -0.248 NA
ATOM     52  C   UNL A   1      37.762  34.077  35.948  1.00  0.00     0.031 C 
ATOM     53  C   UNL A   1      37.280  31.528  31.657  1.00  0.00     0.029 A 
ATOM     54  N   UNL A   1      39.075  31.075  32.917  1.00  0.00    -0.354 N 
ATOM     55  C   UNL A   1      39.727  33.158  36.663  1.00  0.00     0.074 A 
ATOM     56  C   UNL A   1      38.667  34.109  36.913  1.00  0.00     0.031 C 
ATOM     57  C   UNL A   1      37.976  30.557  31.042  1.00  0.00     0.029 A 
ATOM     58  C   UNL A   1      39.185  30.270  31.812  1.00  0.00     0.049 A 
ATOM     59  H   UNL A   1      39.720  31.064  33.660  1.00  0.00     0.167 HD
ATOM     60  C   UNL A   1      40.757  32.923  37.509  1.00  0.00     0.037 A 
ATOM     61  C   UNL A   1      40.170  29.422  31.456  1.00  0.00     0.037 A 
ATOM     62  C   UNL A   1      41.810  31.978  37.248  1.00  0.00     0.049 A 
ATOM     63  C   UNL A   1      41.358  29.250  32.371  1.00  0.00     0.074 A 
ATOM     64  C   UNL A   1      42.896  31.656  38.043  1.00  0.00     0.029 A 
ATOM     65  N   UNL A   1      41.915  31.212  36.096  1.00  0.00    -0.354 N 
ATOM     66  N   UNL A   1      41.595  29.797  33.539  1.00  0.00    -0.248 NA
ATOM     67  C   UNL A   1      42.416  28.338  31.915  1.00  0.00     0.031 C 
ATOM     68  C   UNL A   1      43.696  30.750  37.341  1.00  0.00     0.029 A 
ATOM     69  C   UNL A   1      43.068  30.444  36.143  1.00  0.00     0.049 A 
ATOM     70  H   UNL A   1      41.268  31.214  35.355  1.00  0.00     0.167 HD
ATOM     71  C   UNL A   1      42.805  29.269  33.974  1.00  0.00     0.074 A 
ATOM     72  C   UNL A   1      43.247  28.347  32.948  1.00  0.00     0.031 C 
ATOM     73  C   UNL A   1      43.488  29.521  35.118  1.00  0.00     0.037 A 
BRANCH  60  74
ATOM     74  C   UNL A   1      40.817  33.734  38.772  1.00  0.00     0.064 A 
ATOM     75  C   UNL A   1      41.596  34.896  38.875  1.00  0.00     0.173 A 
ATOM     76  C   UNL A   1      40.060  33.352  39.890  1.00  0.00     0.173 A 
ATOM     77  F   UNL A   1      42.352  35.297  37.842  1.00  0.00    -0.203 F 
ATOM     78  C   UNL A   1      41.640  35.627  40.061  1.00  0.00     0.198 A 
ATOM     79  C   UNL A   1      40.078  34.105  41.060  1.00  0.00     0.198 A 
ATOM     80  F   UNL A   1      39.296  32.250  39.847  1.00  0.00    -0.203 F 
ATOM     81  F   UNL A   1      42.438  36.700  40.155  1.00  0.00    -0.200 F 
ATOM     82  C   UNL A   1      40.875  35.236  41.149  1.00  0.00     0.200 A 
ATOM     83  F   UNL A   1      39.324  33.734  42.106  1.00  0.00    -0.200 F 
ATOM     84  F   UNL A   1      40.911  35.945  42.285  1.00  0.00    -0.200 F 
ENDBRANCH  60  74
BRANCH  61  85
ATOM     85  C   UNL A   1      40.090  28.685  30.167  1.00  0.00     0.064 A 
ATOM     86  C   UNL A   1      39.469  27.430  30.088  1.00  0.00     0.173 A 
ATOM     87  C   UNL A   1      40.662  29.202  28.996  1.00  0.00     0.173 A 
ATOM     88  F   UNL A   1      38.931  26.878  31.187  1.00  0.00    -0.203 F 
ATOM     89  C   UNL A   1      39.446  26.711  28.894  1.00  0.00     0.198 A 
ATOM     90  C   UNL A   1      40.607  28.498  27.794  1.00  0.00     0.198 A 
ATOM     91  F   UNL A   1      41.275  30.395  29.016  1.00  0.00    -0.203 F 
ATOM     92  F   UNL A   1      38.900  25.488  28.863  1.00  0.00    -0.200 F 
ATOM     93  C   UNL A   1      40.009  27.249  27.747  1.00  0.00     0.200 A 
ATOM     94  F   UNL A   1      41.144  29.026  26.686  1.00  0.00    -0.200 F 
ATOM     95  F   UNL A   1      39.988  26.557  26.599  1.00  0.00    -0.200 F 
ENDBRANCH  61  85
BRANCH  73  96
ATOM     96  C   UNL A   1      44.759  28.752  35.354  1.00  0.00     0.064 A 
ATOM     97  C   UNL A   1      44.755  27.442  35.855  1.00  0.00     0.173 A 
ATOM     98  C   UNL A   1      46.001  29.323  35.030  1.00  0.00     0.173 A 
ATOM     99  F   UNL A   1      43.598  26.851  36.191  1.00  0.00    -0.203 F 
ATOM    100  C   UNL A   1      45.945  26.746  36.056  1.00  0.00     0.198 A 
ATOM    101  C   UNL A   1      47.185  28.611  35.193  1.00  0.00     0.198 A 
ATOM    102  F   UNL A   1      46.064  30.569  34.536  1.00  0.00    -0.203 F 
ATOM    103  F   UNL A   1      45.919  25.518  36.590  1.00  0.00    -0.200 F 
ATOM    104  C   UNL A   1      47.158  27.327  35.716  1.00  0.00     0.200 A 
ATOM    105  F   UNL A   1      48.353  29.166  34.843  1.00  0.00    -0.200 F 
ATOM    106  F   UNL A   1      48.301  26.652  35.897  1.00  0.00    -0.200 F 
ENDBRANCH  73  96
ENDBRANCH  47  48
ENDBRANCH  40  42
ENDBRANCH  39  40
ENDBRANCH  38  39
ENDBRANCH  37  38
ENDBRANCH  36  37
ENDBRANCH  35  36
ENDBRANCH  34  35
ENDBRANCH  33  34
ENDBRANCH   1  33
TORSDOF 25
ENDMDL
