MODEL 1
REMARK VINA RESULT:      -8.9      0.000      0.000
REMARK SMILES C[C@@H](NC(=O)CNC(=O)N1CC(=O)Nc2ccccc21)C(=O)OCCOCCOCCOCCOC(=O)c1ccc(-c2c3nc(c(-c4c(F)c(F)c(F)c(F)c4F)c4ccc([nH]4)c(-c4c(F)c(F)c(F)c(F)c4F)c4nc(c(-c5c(F)c(F)c(F)c(F)c5F)c5ccc2[nH]5)C=C4)C=C3)cc1
REMARK SMILES IDX 28 1 27 2 26 3 25 4 24 5 23 6 21 7 22 8 2 9 1 10 3 11 4 12
REMARK SMILES IDX 5 14 6 15 7 16 8 17 9 19 10 20 11 21 20 22 12 23 15 24 19 25
REMARK SMILES IDX 13 26 14 27 16 28 18 29 17 31 29 32 30 33 31 34 32 35 33 36
REMARK SMILES IDX 34 37 35 38 36 39 37 40 38 41 39 42 100 43 40 44 99 45 41 46
REMARK SMILES IDX 42 47 43 48 93 49 44 50 98 51 92 52 94 53 45 54 97 55 91 56
REMARK SMILES IDX 90 57 46 59 78 60 58 61 77 62 59 63 62 64 76 65 95 66 60 67
REMARK SMILES IDX 61 68 75 70 96 71 63 72 47 73 48 74 56 75 49 76 50 77 54 78
REMARK SMILES IDX 57 79 51 80 52 81 55 82 53 83 79 84 80 85 88 86 81 87 82 88
REMARK SMILES IDX 86 89 89 90 83 91 84 92 87 93 85 94 64 95 65 96 73 97 66 98
REMARK SMILES IDX 67 99 71 100 74 101 68 102 69 103 72 104 70 105
REMARK H PARENT 3 13 7 18 14 30 94 58 62 69
REMARK Flexibility Score: inf
ROOT
ATOM      1  C   UNL A   1      38.463  28.819  28.138  1.00  0.00     0.188 C 
ENDROOT
BRANCH   1   2
ATOM      2  C   UNL A   1      37.991  30.167  28.702  1.00  0.00     0.188 C 
BRANCH   2   3
ATOM      3  O   UNL A   1      38.360  30.283  30.111  1.00  0.00    -0.376 OA
BRANCH   3   4
ATOM      4  C   UNL A   1      37.550  29.862  31.249  1.00  0.00     0.202 C 
BRANCH   4   5
ATOM      5  C   UNL A   1      38.252  29.133  32.622  1.00  0.00     0.261 C 
BRANCH   5   6
ATOM      6  O   UNL A   1      38.369  29.737  34.249  1.00  0.00    -0.462 OA
BRANCH   6   7
ATOM      7  C   UNL A   1      38.733  30.613  35.303  1.00  0.00     0.328 C 
ATOM      8  O   UNL A   1      38.505  30.176  36.442  1.00  0.00    -0.250 OA
BRANCH   7   9
ATOM      9  C   UNL A   1      39.244  32.246  35.273  1.00  0.00     0.189 C 
ATOM     10  C   UNL A   1      39.668  33.398  36.240  1.00  0.00     0.043 C 
BRANCH   9  11
ATOM     11  N   UNL A   1      40.193  32.343  34.196  1.00  0.00    -0.341 N 
ATOM     12  C   UNL A   1      39.771  32.602  32.926  1.00  0.00     0.240 C 
ATOM     13  H   UNL A   1      41.153  32.221  34.377  1.00  0.00     0.164 HD
ATOM     14  O   UNL A   1      40.588  32.632  32.011  1.00  0.00    -0.273 OA
BRANCH  12  15
ATOM     15  C   UNL A   1      38.319  33.105  32.781  1.00  0.00     0.218 C 
BRANCH  15  16
ATOM     16  N   UNL A   1      37.875  33.622  31.315  1.00  0.00    -0.329 N 
ATOM     17  C   UNL A   1      37.070  33.499  30.165  1.00  0.00     0.322 C 
ATOM     18  H   UNL A   1      38.444  34.407  31.141  1.00  0.00     0.165 HD
ATOM     19  O   UNL A   1      37.845  33.647  29.200  1.00  0.00    -0.248 OA
BRANCH  17  20
ATOM     20  N   UNL A   1      35.650  33.293  29.909  1.00  0.00    -0.283 N 
ATOM     21  C   UNL A   1      34.557  32.280  29.336  1.00  0.00     0.227 C 
ATOM     22  C   UNL A   1      34.749  34.406  30.225  1.00  0.00     0.070 A 
ATOM     23  C   UNL A   1      33.920  32.870  28.070  1.00  0.00     0.244 C 
ATOM     24  C   UNL A   1      34.079  35.011  29.174  1.00  0.00     0.065 A 
ATOM     25  C   UNL A   1      34.052  34.475  31.442  1.00  0.00     0.028 A 
ATOM     26  O   UNL A   1      33.293  32.185  27.264  1.00  0.00    -0.273 OA
ATOM     27  N   UNL A   1      33.868  34.251  28.009  1.00  0.00    -0.323 N 
ATOM     28  C   UNL A   1      33.253  36.112  29.400  1.00  0.00     0.028 A 
ATOM     29  C   UNL A   1      33.178  35.520  31.722  1.00  0.00     0.002 A 
ATOM     30  H   UNL A   1      33.684  34.701  27.153  1.00  0.00     0.170 HD
ATOM     31  C   UNL A   1      32.854  36.403  30.705  1.00  0.00     0.002 A 
ENDBRANCH  17  20
ENDBRANCH  15  16
ENDBRANCH  12  15
ENDBRANCH   9  11
ENDBRANCH   7   9
ENDBRANCH   6   7
ENDBRANCH   5   6
ENDBRANCH   4   5
ENDBRANCH   3   4
ENDBRANCH   2   3
ENDBRANCH   1   2
BRANCH   1  32
ATOM     32  O   UNL A   1      39.804  28.539  28.480  1.00  0.00    -0.377 OA
BRANCH  32  33
ATOM     33  C   UNL A   1      40.014  27.183  28.813  1.00  0.00     0.188 C 
BRANCH  33  34
ATOM     34  C   UNL A   1      39.585  26.130  27.749  1.00  0.00     0.188 C 
BRANCH  34  35
ATOM     35  O   UNL A   1      40.443  25.562  26.760  1.00  0.00    -0.376 OA
BRANCH  35  36
ATOM     36  C   UNL A   1      41.071  24.294  26.884  1.00  0.00     0.202 C 
BRANCH  36  37
ATOM     37  C   UNL A   1      42.427  24.162  26.167  1.00  0.00     0.261 C 
BRANCH  37  38
ATOM     38  O   UNL A   1      42.682  25.186  25.200  1.00  0.00    -0.460 OA
BRANCH  38  39
ATOM     39  C   UNL A   1      43.917  25.729  25.237  1.00  0.00     0.338 C 
ATOM     40  O   UNL A   1      44.933  25.311  24.685  1.00  0.00    -0.246 OA
BRANCH  39  41
ATOM     41  C   UNL A   1      43.840  27.058  25.880  1.00  0.00     0.060 A 
ATOM     42  C   UNL A   1      45.036  27.610  26.382  1.00  0.00     0.016 A 
ATOM     43  C   UNL A   1      42.669  27.831  25.838  1.00  0.00     0.016 A 
ATOM     44  C   UNL A   1      45.060  28.918  26.854  1.00  0.00     0.010 A 
ATOM     45  C   UNL A   1      42.669  29.110  26.398  1.00  0.00     0.010 A 
ATOM     46  C   UNL A   1      43.853  29.621  26.962  1.00  0.00    -0.014 A 
BRANCH  46  47
ATOM     47  C   UNL A   1      43.769  30.576  28.086  1.00  0.00     0.031 A 
ATOM     48  C   UNL A   1      43.705  29.952  29.457  1.00  0.00     0.074 A 
ATOM     49  C   UNL A   1      43.861  31.904  27.921  1.00  0.00     0.049 A 
ATOM     50  N   UNL A   1      43.693  30.511  30.636  1.00  0.00    -0.248 NA
ATOM     51  C   UNL A   1      43.660  28.477  29.500  1.00  0.00     0.031 C 
ATOM     52  C   UNL A   1      44.000  32.599  26.644  1.00  0.00     0.029 A 
ATOM     53  N   UNL A   1      43.864  32.904  28.856  1.00  0.00    -0.354 N 
ATOM     54  C   UNL A   1      43.638  29.459  31.543  1.00  0.00     0.074 A 
ATOM     55  C   UNL A   1      43.588  28.232  30.793  1.00  0.00     0.031 C 
ATOM     56  C   UNL A   1      44.073  33.923  26.879  1.00  0.00     0.029 A 
ATOM     57  C   UNL A   1      43.960  34.162  28.317  1.00  0.00     0.049 A 
ATOM     58  H   UNL A   1      43.803  32.737  29.825  1.00  0.00     0.167 HD
ATOM     59  C   UNL A   1      43.637  29.511  32.893  1.00  0.00     0.037 A 
ATOM     60  C   UNL A   1      43.947  35.359  28.933  1.00  0.00     0.037 A 
ATOM     61  C   UNL A   1      43.670  30.740  33.628  1.00  0.00     0.049 A 
ATOM     62  C   UNL A   1      43.855  35.396  30.441  1.00  0.00     0.074 A 
ATOM     63  C   UNL A   1      43.659  30.928  34.995  1.00  0.00     0.029 A 
ATOM     64  N   UNL A   1      43.707  31.999  33.043  1.00  0.00    -0.354 N 
ATOM     65  N   UNL A   1      43.813  34.403  31.298  1.00  0.00    -0.248 NA
ATOM     66  C   UNL A   1      43.821  36.725  31.065  1.00  0.00     0.031 C 
ATOM     67  C   UNL A   1      43.622  32.304  35.238  1.00  0.00     0.029 A 
ATOM     68  C   UNL A   1      43.695  32.973  34.024  1.00  0.00     0.049 A 
ATOM     69  H   UNL A   1      43.738  32.172  32.074  1.00  0.00     0.167 HD
ATOM     70  C   UNL A   1      43.796  34.984  32.560  1.00  0.00     0.074 A 
ATOM     71  C   UNL A   1      43.840  36.416  32.354  1.00  0.00     0.031 C 
ATOM     72  C   UNL A   1      43.757  34.391  33.782  1.00  0.00     0.037 A 
BRANCH  59  73
ATOM     73  C   UNL A   1      43.528  28.209  33.630  1.00  0.00     0.064 A 
ATOM     74  C   UNL A   1      44.654  27.437  33.957  1.00  0.00     0.173 A 
ATOM     75  C   UNL A   1      42.267  27.713  33.993  1.00  0.00     0.173 A 
ATOM     76  F   UNL A   1      45.882  27.846  33.603  1.00  0.00    -0.203 F 
ATOM     77  C   UNL A   1      44.518  26.205  34.594  1.00  0.00     0.198 A 
ATOM     78  C   UNL A   1      42.137  26.500  34.661  1.00  0.00     0.198 A 
ATOM     79  F   UNL A   1      41.157  28.403  33.690  1.00  0.00    -0.203 F 
ATOM     80  F   UNL A   1      45.601  25.455  34.837  1.00  0.00    -0.200 F 
ATOM     81  C   UNL A   1      43.261  25.743  34.953  1.00  0.00     0.200 A 
ATOM     82  F   UNL A   1      40.923  26.059  35.014  1.00  0.00    -0.200 F 
ATOM     83  F   UNL A   1      43.131  24.560  35.570  1.00  0.00    -0.200 F 
ENDBRANCH  59  73
BRANCH  60  84
ATOM     84  C   UNL A   1      44.024  36.616  28.140  1.00  0.00     0.064 A 
ATOM     85  C   UNL A   1      45.257  37.215  27.842  1.00  0.00     0.173 A 
ATOM     86  C   UNL A   1      42.864  37.262  27.686  1.00  0.00     0.173 A 
ATOM     87  F   UNL A   1      46.396  36.650  28.271  1.00  0.00    -0.203 F 
ATOM     88  C   UNL A   1      45.325  38.420  27.145  1.00  0.00     0.198 A 
ATOM     89  C   UNL A   1      42.934  38.450  26.962  1.00  0.00     0.198 A 
ATOM     90  F   UNL A   1      41.657  36.735  27.945  1.00  0.00    -0.203 F 
ATOM     91  F   UNL A   1      46.514  38.995  26.921  1.00  0.00    -0.200 F 
ATOM     92  C   UNL A   1      44.164  39.034  26.700  1.00  0.00     0.200 A 
ATOM     93  F   UNL A   1      41.811  39.033  26.523  1.00  0.00    -0.200 F 
ATOM     94  F   UNL A   1      44.230  40.191  26.029  1.00  0.00    -0.200 F 
ENDBRANCH  60  84
BRANCH  72  95
ATOM     95  C   UNL A   1      43.837  35.287  34.985  1.00  0.00     0.064 A 
ATOM     96  C   UNL A   1      42.693  35.825  35.593  1.00  0.00     0.173 A 
ATOM     97  C   UNL A   1      45.085  35.582  35.555  1.00  0.00     0.173 A 
ATOM     98  F   UNL A   1      41.477  35.577  35.084  1.00  0.00    -0.203 F 
ATOM     99  C   UNL A   1      42.801  36.663  36.699  1.00  0.00     0.198 A 
ATOM    100  C   UNL A   1      45.185  36.386  36.686  1.00  0.00     0.198 A 
ATOM    101  F   UNL A   1      46.210  35.080  35.023  1.00  0.00    -0.203 F 
ATOM    102  F   UNL A   1      41.701  37.223  37.222  1.00  0.00    -0.200 F 
ATOM    103  C   UNL A   1      44.045  36.937  37.249  1.00  0.00     0.200 A 
ATOM    104  F   UNL A   1      46.386  36.629  37.229  1.00  0.00    -0.200 F 
ATOM    105  F   UNL A   1      44.145  37.742  38.316  1.00  0.00    -0.200 F 
ENDBRANCH  72  95
ENDBRANCH  46  47
ENDBRANCH  39  41
ENDBRANCH  38  39
ENDBRANCH  37  38
ENDBRANCH  36  37
ENDBRANCH  35  36
ENDBRANCH  34  35
ENDBRANCH  33  34
ENDBRANCH  32  33
ENDBRANCH   1  32
TORSDOF 24
ENDMDL
MODEL 2
REMARK VINA RESULT:      -8.9      1.069      2.064
REMARK SMILES C[C@@H](NC(=O)CNC(=O)N1CC(=O)Nc2ccccc21)C(=O)OCCOCCOCCOCCOC(=O)c1ccc(-c2c3nc(c(-c4c(F)c(F)c(F)c(F)c4F)c4ccc([nH]4)c(-c4c(F)c(F)c(F)c(F)c4F)c4nc(c(-c5c(F)c(F)c(F)c(F)c5F)c5ccc2[nH]5)C=C4)C=C3)cc1
REMARK SMILES IDX 28 1 27 2 26 3 25 4 24 5 23 6 21 7 22 8 2 9 1 10 3 11 4 12
REMARK SMILES IDX 5 14 6 15 7 16 8 17 9 19 10 20 11 21 20 22 12 23 15 24 19 25
REMARK SMILES IDX 13 26 14 27 16 28 18 29 17 31 29 32 30 33 31 34 32 35 33 36
REMARK SMILES IDX 34 37 35 38 36 39 37 40 38 41 39 42 100 43 40 44 99 45 41 46
REMARK SMILES IDX 42 47 43 48 93 49 44 50 98 51 92 52 94 53 45 54 97 55 91 56
REMARK SMILES IDX 90 57 46 59 78 60 58 61 77 62 59 63 62 64 76 65 95 66 60 67
REMARK SMILES IDX 61 68 75 70 96 71 63 72 47 73 48 74 56 75 49 76 50 77 54 78
REMARK SMILES IDX 57 79 51 80 52 81 55 82 53 83 79 84 80 85 88 86 81 87 82 88
REMARK SMILES IDX 86 89 89 90 83 91 84 92 87 93 85 94 64 95 65 96 73 97 66 98
REMARK SMILES IDX 67 99 71 100 74 101 68 102 69 103 72 104 70 105
REMARK H PARENT 3 13 7 18 14 30 94 58 62 69
REMARK Flexibility Score: inf
ROOT
ATOM      1  C   UNL A   1      38.673  29.177  28.658  1.00  0.00     0.188 C 
ENDROOT
BRANCH   1   2
ATOM      2  C   UNL A   1      38.367  30.570  29.225  1.00  0.00     0.188 C 
BRANCH   2   3
ATOM      3  O   UNL A   1      38.660  30.609  30.656  1.00  0.00    -0.376 OA
BRANCH   3   4
ATOM      4  C   UNL A   1      37.678  30.622  31.734  1.00  0.00     0.202 C 
BRANCH   4   5
ATOM      5  C   UNL A   1      37.842  29.616  33.103  1.00  0.00     0.261 C 
BRANCH   5   6
ATOM      6  O   UNL A   1      38.044  30.057  34.773  1.00  0.00    -0.462 OA
BRANCH   6   7
ATOM      7  C   UNL A   1      38.512  30.792  35.892  1.00  0.00     0.328 C 
ATOM      8  O   UNL A   1      37.844  30.641  36.927  1.00  0.00    -0.250 OA
BRANCH   7   9
ATOM      9  C   UNL A   1      39.716  32.002  36.010  1.00  0.00     0.189 C 
ATOM     10  C   UNL A   1      40.653  32.678  37.062  1.00  0.00     0.043 C 
BRANCH   9  11
ATOM     11  N   UNL A   1      40.571  31.821  34.865  1.00  0.00    -0.341 N 
ATOM     12  C   UNL A   1      40.334  32.509  33.712  1.00  0.00     0.240 C 
ATOM     13  H   UNL A   1      41.331  31.198  34.915  1.00  0.00     0.164 HD
ATOM     14  O   UNL A   1      41.042  32.306  32.730  1.00  0.00    -0.273 OA
BRANCH  12  15
ATOM     15  C   UNL A   1      39.350  33.694  33.817  1.00  0.00     0.218 C 
BRANCH  15  16
ATOM     16  N   UNL A   1      38.793  34.297  32.424  1.00  0.00    -0.329 N 
ATOM     17  C   UNL A   1      37.840  34.302  31.386  1.00  0.00     0.322 C 
ATOM     18  H   UNL A   1      39.431  35.008  32.184  1.00  0.00     0.165 HD
ATOM     19  O   UNL A   1      38.499  34.375  30.331  1.00  0.00    -0.248 OA
BRANCH  17  20
ATOM     20  N   UNL A   1      36.384  34.282  31.314  1.00  0.00    -0.283 N 
ATOM     21  C   UNL A   1      35.031  34.598  32.099  1.00  0.00     0.227 C 
ATOM     22  C   UNL A   1      35.788  33.736  30.091  1.00  0.00     0.070 A 
ATOM     23  C   UNL A   1      34.275  33.290  32.372  1.00  0.00     0.244 C 
ATOM     24  C   UNL A   1      35.045  32.571  30.200  1.00  0.00     0.065 A 
ATOM     25  C   UNL A   1      35.372  34.563  29.034  1.00  0.00     0.028 A 
ATOM     26  O   UNL A   1      33.384  33.205  33.215  1.00  0.00    -0.273 OA
ATOM     27  N   UNL A   1      34.469  32.278  31.449  1.00  0.00    -0.323 N 
ATOM     28  C   UNL A   1      34.500  31.969  29.066  1.00  0.00     0.028 A 
ATOM     29  C   UNL A   1      34.781  34.039  27.889  1.00  0.00     0.002 A 
ATOM     30  H   UNL A   1      34.205  31.354  31.666  1.00  0.00     0.170 HD
ATOM     31  C   UNL A   1      34.431  32.699  27.879  1.00  0.00     0.002 A 
ENDBRANCH  17  20
ENDBRANCH  15  16
ENDBRANCH  12  15
ENDBRANCH   9  11
ENDBRANCH   7   9
ENDBRANCH   6   7
ENDBRANCH   5   6
ENDBRANCH   4   5
ENDBRANCH   3   4
ENDBRANCH   2   3
ENDBRANCH   1   2
BRANCH   1  32
ATOM     32  O   UNL A   1      39.991  28.761  28.948  1.00  0.00    -0.377 OA
BRANCH  32  33
ATOM     33  C   UNL A   1      40.074  27.392  29.282  1.00  0.00     0.188 C 
BRANCH  33  34
ATOM     34  C   UNL A   1      39.554  26.383  28.217  1.00  0.00     0.188 C 
BRANCH  34  35
ATOM     35  O   UNL A   1      40.354  25.758  27.213  1.00  0.00    -0.376 OA
BRANCH  35  36
ATOM     36  C   UNL A   1      40.818  24.418  27.286  1.00  0.00     0.202 C 
BRANCH  36  37
ATOM     37  C   UNL A   1      42.077  24.115  26.454  1.00  0.00     0.261 C 
BRANCH  37  38
ATOM     38  O   UNL A   1      42.296  25.022  25.369  1.00  0.00    -0.460 OA
BRANCH  38  39
ATOM     39  C   UNL A   1      43.541  25.533  25.277  1.00  0.00     0.338 C 
ATOM     40  O   UNL A   1      44.480  25.099  24.614  1.00  0.00    -0.246 OA
BRANCH  39  41
ATOM     41  C   UNL A   1      43.568  26.855  25.941  1.00  0.00     0.060 A 
ATOM     42  C   UNL A   1      44.800  27.296  26.467  1.00  0.00     0.016 A 
ATOM     43  C   UNL A   1      42.468  27.725  25.897  1.00  0.00     0.016 A 
ATOM     44  C   UNL A   1      44.928  28.589  26.960  1.00  0.00     0.010 A 
ATOM     45  C   UNL A   1      42.569  28.991  26.477  1.00  0.00     0.010 A 
ATOM     46  C   UNL A   1      43.784  29.390  27.064  1.00  0.00    -0.014 A 
BRANCH  46  47
ATOM     47  C   UNL A   1      43.766  30.333  28.202  1.00  0.00     0.031 A 
ATOM     48  C   UNL A   1      43.753  29.692  29.567  1.00  0.00     0.074 A 
ATOM     49  C   UNL A   1      43.873  31.661  28.050  1.00  0.00     0.049 A 
ATOM     50  N   UNL A   1      43.804  30.236  30.752  1.00  0.00    -0.248 NA
ATOM     51  C   UNL A   1      43.686  28.217  29.594  1.00  0.00     0.031 C 
ATOM     52  C   UNL A   1      43.967  32.370  26.776  1.00  0.00     0.029 A 
ATOM     53  N   UNL A   1      43.935  32.649  28.996  1.00  0.00    -0.354 N 
ATOM     54  C   UNL A   1      43.772  29.174  31.648  1.00  0.00     0.074 A 
ATOM     55  C   UNL A   1      43.668  27.957  30.886  1.00  0.00     0.031 C 
ATOM     56  C   UNL A   1      44.072  33.689  27.023  1.00  0.00     0.029 A 
ATOM     57  C   UNL A   1      44.028  33.912  28.468  1.00  0.00     0.049 A 
ATOM     58  H   UNL A   1      43.915  32.470  29.964  1.00  0.00     0.167 HD
ATOM     59  C   UNL A   1      43.832  29.208  32.997  1.00  0.00     0.037 A 
ATOM     60  C   UNL A   1      44.062  35.101  29.098  1.00  0.00     0.037 A 
ATOM     61  C   UNL A   1      43.919  30.427  33.745  1.00  0.00     0.049 A 
ATOM     62  C   UNL A   1      44.039  35.120  30.609  1.00  0.00     0.074 A 
ATOM     63  C   UNL A   1      43.972  30.597  35.113  1.00  0.00     0.029 A 
ATOM     64  N   UNL A   1      43.950  31.692  33.174  1.00  0.00    -0.354 N 
ATOM     65  N   UNL A   1      44.018  34.116  31.455  1.00  0.00    -0.248 NA
ATOM     66  C   UNL A   1      44.055  36.441  31.251  1.00  0.00     0.031 C 
ATOM     67  C   UNL A   1      43.968  31.970  35.374  1.00  0.00     0.029 A 
ATOM     68  C   UNL A   1      43.998  32.653  34.167  1.00  0.00     0.049 A 
ATOM     69  H   UNL A   1      43.940  31.877  32.207  1.00  0.00     0.167 HD
ATOM     70  C   UNL A   1      44.068  34.681  32.724  1.00  0.00     0.074 A 
ATOM     71  C   UNL A   1      44.126  36.116  32.533  1.00  0.00     0.031 C 
ATOM     72  C   UNL A   1      44.073  34.074  33.939  1.00  0.00     0.037 A 
BRANCH  59  73
ATOM     73  C   UNL A   1      43.734  27.898  33.723  1.00  0.00     0.064 A 
ATOM     74  C   UNL A   1      44.856  27.089  33.960  1.00  0.00     0.173 A 
ATOM     75  C   UNL A   1      42.487  27.435  34.166  1.00  0.00     0.173 A 
ATOM     76  F   UNL A   1      46.068  27.467  33.526  1.00  0.00    -0.203 F 
ATOM     77  C   UNL A   1      44.727  25.851  34.588  1.00  0.00     0.198 A 
ATOM     78  C   UNL A   1      42.366  26.216  34.825  1.00  0.00     0.198 A 
ATOM     79  F   UNL A   1      41.380  28.162  33.950  1.00  0.00    -0.203 F 
ATOM     80  F   UNL A   1      45.800  25.066  34.745  1.00  0.00    -0.200 F 
ATOM     81  C   UNL A   1      43.484  25.421  35.027  1.00  0.00     0.200 A 
ATOM     82  F   UNL A   1      41.166  25.806  35.256  1.00  0.00    -0.200 F 
ATOM     83  F   UNL A   1      43.361  24.234  35.637  1.00  0.00    -0.200 F 
ENDBRANCH  59  73
BRANCH  60  84
ATOM     84  C   UNL A   1      44.124  36.366  28.318  1.00  0.00     0.064 A 
ATOM     85  C   UNL A   1      42.963  36.970  27.815  1.00  0.00     0.173 A 
ATOM     86  C   UNL A   1      45.351  36.985  28.034  1.00  0.00     0.173 A 
ATOM     87  F   UNL A   1      41.765  36.408  28.039  1.00  0.00    -0.203 F 
ATOM     88  C   UNL A   1      43.028  38.126  27.038  1.00  0.00     0.198 A 
ATOM     89  C   UNL A   1      45.413  38.159  27.285  1.00  0.00     0.198 A 
ATOM     90  F   UNL A   1      46.494  36.450  28.487  1.00  0.00    -0.203 F 
ATOM     91  F   UNL A   1      41.906  38.651  26.527  1.00  0.00    -0.200 F 
ATOM     92  C   UNL A   1      44.252  38.723  26.779  1.00  0.00     0.200 A 
ATOM     93  F   UNL A   1      46.597  38.739  27.047  1.00  0.00    -0.200 F 
ATOM     94  F   UNL A   1      44.314  39.835  26.035  1.00  0.00    -0.200 F 
ENDBRANCH  60  84
BRANCH  72  95
ATOM     95  C   UNL A   1      44.221  34.953  35.148  1.00  0.00     0.064 A 
ATOM     96  C   UNL A   1      45.475  35.280  35.684  1.00  0.00     0.173 A 
ATOM     97  C   UNL A   1      43.082  35.502  35.757  1.00  0.00     0.173 A 
ATOM     98  F   UNL A   1      46.595  34.778  35.141  1.00  0.00    -0.203 F 
ATOM     99  C   UNL A   1      45.579  36.087  36.814  1.00  0.00     0.198 A 
ATOM    100  C   UNL A   1      43.193  36.342  36.861  1.00  0.00     0.198 A 
ATOM    101  F   UNL A   1      41.859  35.234  35.275  1.00  0.00    -0.203 F 
ATOM    102  F   UNL A   1      46.783  36.330  37.351  1.00  0.00    -0.200 F 
ATOM    103  C   UNL A   1      44.440  36.622  37.396  1.00  0.00     0.200 A 
ATOM    104  F   UNL A   1      42.092  36.877  37.406  1.00  0.00    -0.200 F 
ATOM    105  F   UNL A   1      44.543  37.401  38.482  1.00  0.00    -0.200 F 
ENDBRANCH  72  95
ENDBRANCH  46  47
ENDBRANCH  39  41
ENDBRANCH  38  39
ENDBRANCH  37  38
ENDBRANCH  36  37
ENDBRANCH  35  36
ENDBRANCH  34  35
ENDBRANCH  33  34
ENDBRANCH  32  33
ENDBRANCH   1  32
TORSDOF 24
ENDMDL
MODEL 3
REMARK VINA RESULT:      -8.4      5.296     11.026
REMARK SMILES C[C@@H](NC(=O)CNC(=O)N1CC(=O)Nc2ccccc21)C(=O)OCCOCCOCCOCCOC(=O)c1ccc(-c2c3nc(c(-c4c(F)c(F)c(F)c(F)c4F)c4ccc([nH]4)c(-c4c(F)c(F)c(F)c(F)c4F)c4nc(c(-c5c(F)c(F)c(F)c(F)c5F)c5ccc2[nH]5)C=C4)C=C3)cc1
REMARK SMILES IDX 28 1 27 2 26 3 25 4 24 5 23 6 21 7 22 8 2 9 1 10 3 11 4 12
REMARK SMILES IDX 5 14 6 15 7 16 8 17 9 19 10 20 11 21 20 22 12 23 15 24 19 25
REMARK SMILES IDX 13 26 14 27 16 28 18 29 17 31 29 32 30 33 31 34 32 35 33 36
REMARK SMILES IDX 34 37 35 38 36 39 37 40 38 41 39 42 100 43 40 44 99 45 41 46
REMARK SMILES IDX 42 47 43 48 93 49 44 50 98 51 92 52 94 53 45 54 97 55 91 56
REMARK SMILES IDX 90 57 46 59 78 60 58 61 77 62 59 63 62 64 76 65 95 66 60 67
REMARK SMILES IDX 61 68 75 70 96 71 63 72 47 73 48 74 56 75 49 76 50 77 54 78
REMARK SMILES IDX 57 79 51 80 52 81 55 82 53 83 79 84 80 85 88 86 81 87 82 88
REMARK SMILES IDX 86 89 89 90 83 91 84 92 87 93 85 94 64 95 65 96 73 97 66 98
REMARK SMILES IDX 67 99 71 100 74 101 68 102 69 103 72 104 70 105
REMARK H PARENT 3 13 7 18 14 30 94 58 62 69
REMARK Flexibility Score: inf
ROOT
ATOM      1  C   UNL A   1      34.677  33.530  28.861  1.00  0.00     0.188 C 
ENDROOT
BRANCH   1   2
ATOM      2  C   UNL A   1      34.280  32.122  28.394  1.00  0.00     0.188 C 
BRANCH   2   3
ATOM      3  O   UNL A   1      35.471  31.301  28.188  1.00  0.00    -0.376 OA
BRANCH   3   4
ATOM      4  C   UNL A   1      35.490  29.902  27.779  1.00  0.00     0.202 C 
BRANCH   4   5
ATOM      5  C   UNL A   1      34.130  29.164  27.059  1.00  0.00     0.261 C 
BRANCH   5   6
ATOM      6  O   UNL A   1      34.012  27.629  26.249  1.00  0.00    -0.462 OA
BRANCH   6   7
ATOM      7  C   UNL A   1      33.395  26.520  25.618  1.00  0.00     0.328 C 
ATOM      8  O   UNL A   1      34.183  25.716  25.095  1.00  0.00    -0.250 OA
BRANCH   7   9
ATOM      9  C   UNL A   1      31.748  26.200  25.281  1.00  0.00     0.189 C 
ATOM     10  C   UNL A   1      30.381  26.000  26.010  1.00  0.00     0.043 C 
BRANCH   9  11
ATOM     11  N   UNL A   1      31.409  27.023  24.149  1.00  0.00    -0.341 N 
ATOM     12  C   UNL A   1      31.048  26.453  22.965  1.00  0.00     0.240 C 
ATOM     13  H   UNL A   1      31.439  28.004  24.232  1.00  0.00     0.164 HD
ATOM     14  O   UNL A   1      30.811  27.169  21.997  1.00  0.00    -0.273 OA
BRANCH  12  15
ATOM     15  C   UNL A   1      30.705  24.949  23.011  1.00  0.00     0.218 C 
BRANCH  15  16
ATOM     16  N   UNL A   1      31.783  23.940  22.353  1.00  0.00    -0.329 N 
ATOM     17  C   UNL A   1      32.905  23.096  22.477  1.00  0.00     0.322 C 
ATOM     18  H   UNL A   1      31.536  23.891  21.401  1.00  0.00     0.165 HD
ATOM     19  O   UNL A   1      33.639  23.376  21.509  1.00  0.00    -0.248 OA
BRANCH  17  20
ATOM     20  N   UNL A   1      33.315  22.042  23.397  1.00  0.00    -0.283 N 
ATOM     21  C   UNL A   1      33.248  20.477  23.705  1.00  0.00     0.227 C 
ATOM     22  C   UNL A   1      34.068  22.453  24.585  1.00  0.00     0.070 A 
ATOM     23  C   UNL A   1      32.448  20.239  24.994  1.00  0.00     0.244 C 
ATOM     24  C   UNL A   1      33.475  22.261  25.822  1.00  0.00     0.065 A 
ATOM     25  C   UNL A   1      35.471  22.405  24.628  1.00  0.00     0.028 A 
ATOM     26  O   UNL A   1      31.980  19.141  25.289  1.00  0.00    -0.273 OA
ATOM     27  N   UNL A   1      32.494  21.258  25.930  1.00  0.00    -0.323 N 
ATOM     28  C   UNL A   1      34.113  22.683  26.988  1.00  0.00     0.028 A 
ATOM     29  C   UNL A   1      36.177  22.770  25.769  1.00  0.00     0.002 A 
ATOM     30  H   UNL A   1      31.843  21.281  26.667  1.00  0.00     0.170 HD
ATOM     31  C   UNL A   1      35.471  23.004  26.938  1.00  0.00     0.002 A 
ENDBRANCH  17  20
ENDBRANCH  15  16
ENDBRANCH  12  15
ENDBRANCH   9  11
ENDBRANCH   7   9
ENDBRANCH   6   7
ENDBRANCH   5   6
ENDBRANCH   4   5
ENDBRANCH   3   4
ENDBRANCH   2   3
ENDBRANCH   1   2
BRANCH   1  32
ATOM     32  O   UNL A   1      33.965  33.929  30.013  1.00  0.00    -0.377 OA
BRANCH  32  33
ATOM     33  C   UNL A   1      34.747  33.877  31.187  1.00  0.00     0.188 C 
BRANCH  33  34
ATOM     34  C   UNL A   1      36.256  33.539  31.004  1.00  0.00     0.188 C 
BRANCH  34  35
ATOM     35  O   UNL A   1      36.891  32.339  31.445  1.00  0.00    -0.376 OA
BRANCH  35  36
ATOM     36  C   UNL A   1      36.232  31.310  32.169  1.00  0.00     0.202 C 
BRANCH  36  37
ATOM     37  C   UNL A   1      36.683  29.878  31.828  1.00  0.00     0.261 C 
BRANCH  37  38
ATOM     38  O   UNL A   1      37.647  29.335  32.735  1.00  0.00    -0.460 OA
BRANCH  38  39
ATOM     39  C   UNL A   1      38.646  28.626  32.169  1.00  0.00     0.338 C 
ATOM     40  O   UNL A   1      38.665  27.420  31.932  1.00  0.00    -0.246 OA
BRANCH  39  41
ATOM     41  C   UNL A   1      39.671  29.562  31.659  1.00  0.00     0.060 A 
ATOM     42  C   UNL A   1      39.712  29.790  30.268  1.00  0.00     0.016 A 
ATOM     43  C   UNL A   1      40.457  30.338  32.524  1.00  0.00     0.016 A 
ATOM     44  C   UNL A   1      40.543  30.774  29.744  1.00  0.00     0.010 A 
ATOM     45  C   UNL A   1      41.360  31.261  31.992  1.00  0.00     0.010 A 
ATOM     46  C   UNL A   1      41.443  31.426  30.597  1.00  0.00    -0.014 A 
BRANCH  46  47
ATOM     47  C   UNL A   1      42.728  31.822  29.987  1.00  0.00     0.031 A 
ATOM     48  C   UNL A   1      42.822  33.267  29.569  1.00  0.00     0.074 A 
ATOM     49  C   UNL A   1      43.784  30.998  29.911  1.00  0.00     0.049 A 
ATOM     50  N   UNL A   1      43.827  33.935  29.071  1.00  0.00    -0.248 NA
ATOM     51  C   UNL A   1      41.603  34.080  29.752  1.00  0.00     0.031 C 
ATOM     52  C   UNL A   1      43.815  29.607  30.356  1.00  0.00     0.029 A 
ATOM     53  N   UNL A   1      45.047  31.233  29.437  1.00  0.00    -0.354 N 
ATOM     54  C   UNL A   1      43.355  35.230  28.886  1.00  0.00     0.074 A 
ATOM     55  C   UNL A   1      41.974  35.258  29.292  1.00  0.00     0.031 C 
ATOM     56  C   UNL A   1      45.045  29.109  30.129  1.00  0.00     0.029 A 
ATOM     57  C   UNL A   1      45.872  30.139  29.503  1.00  0.00     0.049 A 
ATOM     58  H   UNL A   1      45.335  32.106  29.083  1.00  0.00     0.167 HD
ATOM     59  C   UNL A   1      44.020  36.310  28.424  1.00  0.00     0.037 A 
ATOM     60  C   UNL A   1      47.146  30.004  29.088  1.00  0.00     0.037 A 
ATOM     61  C   UNL A   1      45.390  36.266  28.008  1.00  0.00     0.049 A 
ATOM     62  C   UNL A   1      47.844  31.205  28.491  1.00  0.00     0.074 A 
ATOM     63  C   UNL A   1      46.173  37.286  27.508  1.00  0.00     0.029 A 
ATOM     64  N   UNL A   1      46.177  35.122  28.034  1.00  0.00    -0.354 N 
ATOM     65  N   UNL A   1      47.401  32.430  28.326  1.00  0.00    -0.248 NA
ATOM     66  C   UNL A   1      49.225  31.002  28.034  1.00  0.00     0.031 C 
ATOM     67  C   UNL A   1      47.416  36.745  27.168  1.00  0.00     0.029 A 
ATOM     68  C   UNL A   1      47.434  35.407  27.534  1.00  0.00     0.049 A 
ATOM     69  H   UNL A   1      45.883  34.240  28.359  1.00  0.00     0.167 HD
ATOM     70  C   UNL A   1      48.460  33.153  27.792  1.00  0.00     0.074 A 
ATOM     71  C   UNL A   1      49.568  32.229  27.668  1.00  0.00     0.031 C 
ATOM     72  C   UNL A   1      48.520  34.464  27.442  1.00  0.00     0.037 A 
BRANCH  59  73
ATOM     73  C   UNL A   1      43.245  37.588  28.287  1.00  0.00     0.064 A 
ATOM     74  C   UNL A   1      43.256  38.580  29.280  1.00  0.00     0.173 A 
ATOM     75  C   UNL A   1      42.455  37.809  27.150  1.00  0.00     0.173 A 
ATOM     76  F   UNL A   1      43.967  38.405  30.405  1.00  0.00    -0.203 F 
ATOM     77  C   UNL A   1      42.483  39.732  29.151  1.00  0.00     0.198 A 
ATOM     78  C   UNL A   1      41.712  38.977  27.007  1.00  0.00     0.198 A 
ATOM     79  F   UNL A   1      42.395  36.886  26.178  1.00  0.00    -0.203 F 
ATOM     80  F   UNL A   1      42.458  40.636  30.140  1.00  0.00    -0.200 F 
ATOM     81  C   UNL A   1      41.720  39.933  28.011  1.00  0.00     0.200 A 
ATOM     82  F   UNL A   1      40.982  39.172  25.901  1.00  0.00    -0.200 F 
ATOM     83  F   UNL A   1      40.980  41.044  27.884  1.00  0.00    -0.200 F 
ENDBRANCH  59  73
BRANCH  60  84
ATOM     84  C   UNL A   1      47.848  28.699  29.222  1.00  0.00     0.064 A 
ATOM     85  C   UNL A   1      47.764  27.722  28.220  1.00  0.00     0.173 A 
ATOM     86  C   UNL A   1      48.595  28.390  30.368  1.00  0.00     0.173 A 
ATOM     87  F   UNL A   1      47.044  27.958  27.112  1.00  0.00    -0.203 F 
ATOM     88  C   UNL A   1      48.378  26.479  28.370  1.00  0.00     0.198 A 
ATOM     89  C   UNL A   1      49.235  27.159  30.503  1.00  0.00     0.198 A 
ATOM     90  F   UNL A   1      48.707  29.286  31.359  1.00  0.00    -0.203 F 
ATOM     91  F   UNL A   1      48.236  25.546  27.419  1.00  0.00    -0.200 F 
ATOM     92  C   UNL A   1      49.118  26.201  29.509  1.00  0.00     0.200 A 
ATOM     93  F   UNL A   1      49.960  26.899  31.600  1.00  0.00    -0.200 F 
ATOM     94  F   UNL A   1      49.709  25.007  29.651  1.00  0.00    -0.200 F 
ENDBRANCH  60  84
BRANCH  72  95
ATOM     95  C   UNL A   1      49.844  34.991  26.966  1.00  0.00     0.064 A 
ATOM     96  C   UNL A   1      50.100  35.255  25.613  1.00  0.00     0.173 A 
ATOM     97  C   UNL A   1      50.861  35.266  27.894  1.00  0.00     0.173 A 
ATOM     98  F   UNL A   1      49.162  35.005  24.686  1.00  0.00    -0.203 F 
ATOM     99  C   UNL A   1      51.342  35.730  25.202  1.00  0.00     0.198 A 
ATOM    100  C   UNL A   1      52.086  35.781  27.483  1.00  0.00     0.198 A 
ATOM    101  F   UNL A   1      50.663  35.047  29.203  1.00  0.00    -0.203 F 
ATOM    102  F   UNL A   1      51.589  35.909  23.896  1.00  0.00    -0.200 F 
ATOM    103  C   UNL A   1      52.331  36.000  26.137  1.00  0.00     0.200 A 
ATOM    104  F   UNL A   1      53.030  36.063  28.392  1.00  0.00    -0.200 F 
ATOM    105  F   UNL A   1      53.525  36.460  25.738  1.00  0.00    -0.200 F 
ENDBRANCH  72  95
ENDBRANCH  46  47
ENDBRANCH  39  41
ENDBRANCH  38  39
ENDBRANCH  37  38
ENDBRANCH  36  37
ENDBRANCH  35  36
ENDBRANCH  34  35
ENDBRANCH  33  34
ENDBRANCH  32  33
ENDBRANCH   1  32
TORSDOF 24
ENDMDL
