MODEL 1
REMARK VINA RESULT:     -11.6      0.000      0.000
REMARK SMILES Cc1ccccc1-n1nc(Cl)c(C(=O)OCCOCCOCCOCCOC(=O)c2ccc(-c3c4nc(c(-c5c(F)c(F)c(F)c(F)c5F)c5ccc([nH]5)c(-c5c(F)c(F)c(F)c(F)c5F)c5nc(c(-c6c(F)c(F)c(F)c(F)c6F)c6ccc3[nH]6)C=C5)C=C4)cc2)n1
REMARK SMILES IDX 22 1 21 2 20 3 19 4 18 5 17 6 16 7 15 8 13 9 14 10 12 11
REMARK SMILES IDX 8 12 9 13 93 14 10 15 11 16 7 17 1 18 2 19 3 20 4 21 6 22
REMARK SMILES IDX 5 23 23 24 24 25 25 26 26 27 27 28 28 29 29 30 30 31 31 32
REMARK SMILES IDX 92 33 32 34 91 35 33 36 34 37 35 38 85 39 36 40 90 41 84 42
REMARK SMILES IDX 86 43 37 44 89 45 83 46 82 47 38 49 70 50 50 51 69 52 51 53
REMARK SMILES IDX 54 54 68 55 87 56 52 57 53 58 67 60 88 61 55 62 39 63 40 64
REMARK SMILES IDX 48 65 41 66 42 67 46 68 49 69 43 70 44 71 47 72 45 73 71 74
REMARK SMILES IDX 72 75 80 76 73 77 74 78 78 79 81 80 75 81 76 82 79 83 77 84
REMARK SMILES IDX 56 85 57 86 65 87 58 88 59 89 63 90 66 91 60 92 61 93 64 94
REMARK SMILES IDX 62 95
REMARK H PARENT 86 48 54 59
REMARK Flexibility Score: inf
ROOT
ATOM      1  C   UNL A   1      34.218  32.958  27.699  1.00  0.00     0.188 C 
ENDROOT
BRANCH   1   2
ATOM      2  O   UNL A   1      33.785  31.626  27.970  1.00  0.00    -0.377 OA
BRANCH   2   3
ATOM      3  C   UNL A   1      34.788  30.678  27.604  1.00  0.00     0.188 C 
BRANCH   3   4
ATOM      4  C   UNL A   1      34.214  29.288  27.388  1.00  0.00     0.188 C 
BRANCH   4   5
ATOM      5  O   UNL A   1      34.109  28.844  26.037  1.00  0.00    -0.376 OA
BRANCH   5   6
ATOM      6  C   UNL A   1      32.972  29.360  25.336  1.00  0.00     0.202 C 
BRANCH   6   7
ATOM      7  C   UNL A   1      33.056  29.176  23.808  1.00  0.00     0.261 C 
BRANCH   7   8
ATOM      8  O   UNL A   1      32.697  27.826  23.448  1.00  0.00    -0.458 OA
BRANCH   8   9
ATOM      9  C   UNL A   1      33.394  27.279  22.395  1.00  0.00     0.362 C 
ATOM     10  O   UNL A   1      34.153  27.879  21.697  1.00  0.00    -0.244 OA
BRANCH   9  11
ATOM     11  C   UNL A   1      33.294  25.811  22.443  1.00  0.00     0.209 A 
ATOM     12  N   UNL A   1      33.706  23.783  22.884  1.00  0.00    -0.149 N 
ATOM     13  N   UNL A   1      33.344  23.744  21.572  1.00  0.00    -0.135 NA
ATOM     14  N   UNL A   1      33.680  25.017  23.461  1.00  0.00    -0.139 NA
ATOM     15  C   UNL A   1      33.016  25.008  21.325  1.00  0.00     0.186 A 
ATOM     16  Cl  UNL A   1      32.586  25.486  19.759  1.00  0.00    -0.057 Cl
BRANCH  12  17
ATOM     17  C   UNL A   1      34.116  22.583  23.545  1.00  0.00     0.089 A 
ATOM     18  C   UNL A   1      36.595  23.276  23.829  1.00  0.00     0.047 C 
ATOM     19  C   UNL A   1      35.433  22.333  23.985  1.00  0.00    -0.023 A 
ATOM     20  C   UNL A   1      35.667  21.168  24.751  1.00  0.00     0.006 A 
ATOM     21  C   UNL A   1      34.654  20.246  25.018  1.00  0.00     0.000 A 
ATOM     22  C   UNL A   1      33.107  21.626  23.805  1.00  0.00     0.030 A 
ATOM     23  C   UNL A   1      33.377  20.463  24.525  1.00  0.00     0.002 A 
ENDBRANCH  12  17
ENDBRANCH   9  11
ENDBRANCH   8   9
ENDBRANCH   7   8
ENDBRANCH   6   7
ENDBRANCH   5   6
ENDBRANCH   4   5
ENDBRANCH   3   4
ENDBRANCH   2   3
ENDBRANCH   1   2
BRANCH   1  24
ATOM     24  C   UNL A   1      33.251  33.957  28.317  1.00  0.00     0.188 C 
BRANCH  24  25
ATOM     25  O   UNL A   1      33.745  35.281  28.462  1.00  0.00    -0.376 OA
BRANCH  25  26
ATOM     26  C   UNL A   1      32.924  36.239  29.120  1.00  0.00     0.202 C 
BRANCH  26  27
ATOM     27  C   UNL A   1      32.637  35.943  30.600  1.00  0.00     0.261 C 
BRANCH  27  28
ATOM     28  O   UNL A   1      33.439  36.805  31.430  1.00  0.00    -0.460 OA
BRANCH  28  29
ATOM     29  C   UNL A   1      33.945  36.224  32.552  1.00  0.00     0.338 C 
ATOM     30  O   UNL A   1      34.165  36.797  33.606  1.00  0.00    -0.246 OA
BRANCH  29  31
ATOM     31  C   UNL A   1      34.515  34.889  32.196  1.00  0.00     0.060 A 
ATOM     32  C   UNL A   1      34.313  33.805  33.070  1.00  0.00     0.016 A 
ATOM     33  C   UNL A   1      35.523  34.820  31.238  1.00  0.00     0.016 A 
ATOM     34  C   UNL A   1      35.234  32.744  33.107  1.00  0.00     0.010 A 
ATOM     35  C   UNL A   1      36.471  33.814  31.334  1.00  0.00     0.010 A 
ATOM     36  C   UNL A   1      36.374  32.793  32.301  1.00  0.00    -0.014 A 
BRANCH  36  37
ATOM     37  C   UNL A   1      37.612  32.016  32.534  1.00  0.00     0.031 A 
ATOM     38  C   UNL A   1      37.783  30.653  31.926  1.00  0.00     0.074 A 
ATOM     39  C   UNL A   1      38.732  32.669  32.954  1.00  0.00     0.049 A 
ATOM     40  N   UNL A   1      38.875  29.966  32.006  1.00  0.00    -0.248 NA
ATOM     41  C   UNL A   1      36.757  29.929  31.173  1.00  0.00     0.031 C 
ATOM     42  C   UNL A   1      40.108  32.325  32.581  1.00  0.00     0.029 A 
ATOM     43  N   UNL A   1      38.909  33.832  33.732  1.00  0.00    -0.354 N 
ATOM     44  C   UNL A   1      38.851  29.002  31.029  1.00  0.00     0.074 A 
ATOM     45  C   UNL A   1      37.464  28.916  30.649  1.00  0.00     0.031 C 
ATOM     46  C   UNL A   1      40.984  33.139  33.176  1.00  0.00     0.029 A 
ATOM     47  C   UNL A   1      40.248  33.804  34.209  1.00  0.00     0.049 A 
ATOM     48  H   UNL A   1      38.236  34.529  33.910  1.00  0.00     0.167 HD
ATOM     49  C   UNL A   1      40.034  28.509  30.555  1.00  0.00     0.037 A 
ATOM     50  C   UNL A   1      40.542  33.644  35.532  1.00  0.00     0.037 A 
ATOM     51  C   UNL A   1      41.205  28.919  31.358  1.00  0.00     0.049 A 
ATOM     52  C   UNL A   1      41.289  32.362  35.847  1.00  0.00     0.074 A 
ATOM     53  C   UNL A   1      42.491  29.361  31.085  1.00  0.00     0.029 A 
ATOM     54  N   UNL A   1      41.089  28.988  32.748  1.00  0.00    -0.354 N 
ATOM     55  N   UNL A   1      41.485  31.402  34.977  1.00  0.00    -0.248 NA
ATOM     56  C   UNL A   1      41.882  32.037  37.134  1.00  0.00     0.031 C 
ATOM     57  C   UNL A   1      43.139  29.666  32.322  1.00  0.00     0.029 A 
ATOM     58  C   UNL A   1      42.270  29.355  33.352  1.00  0.00     0.049 A 
ATOM     59  H   UNL A   1      40.258  28.796  33.240  1.00  0.00     0.167 HD
ATOM     60  C   UNL A   1      42.161  30.351  35.536  1.00  0.00     0.074 A 
ATOM     61  C   UNL A   1      42.382  30.807  36.898  1.00  0.00     0.031 C 
ATOM     62  C   UNL A   1      42.418  29.217  34.803  1.00  0.00     0.037 A 
BRANCH  49  63
ATOM     63  C   UNL A   1      40.179  27.745  29.244  1.00  0.00     0.064 A 
ATOM     64  C   UNL A   1      40.802  28.344  28.125  1.00  0.00     0.173 A 
ATOM     65  C   UNL A   1      39.620  26.472  28.991  1.00  0.00     0.173 A 
ATOM     66  F   UNL A   1      41.377  29.551  28.218  1.00  0.00    -0.203 F 
ATOM     67  C   UNL A   1      40.852  27.726  26.867  1.00  0.00     0.198 A 
ATOM     68  C   UNL A   1      39.733  25.827  27.753  1.00  0.00     0.198 A 
ATOM     69  F   UNL A   1      38.889  25.830  29.911  1.00  0.00    -0.203 F 
ATOM     70  F   UNL A   1      41.401  28.372  25.828  1.00  0.00    -0.200 F 
ATOM     71  C   UNL A   1      40.335  26.460  26.686  1.00  0.00     0.200 A 
ATOM     72  F   UNL A   1      39.229  24.594  27.598  1.00  0.00    -0.200 F 
ATOM     73  F   UNL A   1      40.400  25.860  25.489  1.00  0.00    -0.200 F 
ENDBRANCH  49  63
BRANCH  50  74
ATOM     74  C   UNL A   1      39.674  34.511  36.374  1.00  0.00     0.064 A 
ATOM     75  C   UNL A   1      38.811  33.791  37.231  1.00  0.00     0.173 A 
ATOM     76  C   UNL A   1      40.156  35.746  36.833  1.00  0.00     0.173 A 
ATOM     77  F   UNL A   1      38.294  32.621  36.824  1.00  0.00    -0.203 F 
ATOM     78  C   UNL A   1      38.667  34.149  38.570  1.00  0.00     0.198 A 
ATOM     79  C   UNL A   1      39.984  36.115  38.171  1.00  0.00     0.198 A 
ATOM     80  F   UNL A   1      40.952  36.491  36.052  1.00  0.00    -0.203 F 
ATOM     81  F   UNL A   1      38.036  33.324  39.417  1.00  0.00    -0.200 F 
ATOM     82  C   UNL A   1      39.299  35.284  39.049  1.00  0.00     0.200 A 
ATOM     83  F   UNL A   1      40.595  37.209  38.648  1.00  0.00    -0.200 F 
ATOM     84  F   UNL A   1      39.304  35.540  40.366  1.00  0.00    -0.200 F 
ENDBRANCH  50  74
BRANCH  62  85
ATOM     85  C   UNL A   1      42.790  27.819  35.308  1.00  0.00     0.064 A 
ATOM     86  C   UNL A   1      42.055  26.647  35.105  1.00  0.00     0.173 A 
ATOM     87  C   UNL A   1      44.021  27.614  36.005  1.00  0.00     0.173 A 
ATOM     88  F   UNL A   1      40.832  26.664  34.572  1.00  0.00    -0.203 F 
ATOM     89  C   UNL A   1      42.535  25.383  35.476  1.00  0.00     0.198 A 
ATOM     90  C   UNL A   1      44.494  26.359  36.383  1.00  0.00     0.198 A 
ATOM     91  F   UNL A   1      44.840  28.618  36.338  1.00  0.00    -0.203 F 
ATOM     92  F   UNL A   1      41.796  24.296  35.215  1.00  0.00    -0.200 F 
ATOM     93  C   UNL A   1      43.758  25.236  36.100  1.00  0.00     0.200 A 
ATOM     94  F   UNL A   1      45.678  26.253  37.003  1.00  0.00    -0.200 F 
ATOM     95  F   UNL A   1      44.220  24.024  36.430  1.00  0.00    -0.200 F 
ENDBRANCH  62  85
ENDBRANCH  36  37
ENDBRANCH  29  31
ENDBRANCH  28  29
ENDBRANCH  27  28
ENDBRANCH  26  27
ENDBRANCH  25  26
ENDBRANCH  24  25
ENDBRANCH   1  24
TORSDOF 21
ENDMDL
MODEL 2
REMARK VINA RESULT:     -11.4      2.021      2.920
REMARK SMILES Cc1ccccc1-n1nc(Cl)c(C(=O)OCCOCCOCCOCCOC(=O)c2ccc(-c3c4nc(c(-c5c(F)c(F)c(F)c(F)c5F)c5ccc([nH]5)c(-c5c(F)c(F)c(F)c(F)c5F)c5nc(c(-c6c(F)c(F)c(F)c(F)c6F)c6ccc3[nH]6)C=C5)C=C4)cc2)n1
REMARK SMILES IDX 22 1 21 2 20 3 19 4 18 5 17 6 16 7 15 8 13 9 14 10 12 11
REMARK SMILES IDX 8 12 9 13 93 14 10 15 11 16 7 17 1 18 2 19 3 20 4 21 6 22
REMARK SMILES IDX 5 23 23 24 24 25 25 26 26 27 27 28 28 29 29 30 30 31 31 32
REMARK SMILES IDX 92 33 32 34 91 35 33 36 34 37 35 38 85 39 36 40 90 41 84 42
REMARK SMILES IDX 86 43 37 44 89 45 83 46 82 47 38 49 70 50 50 51 69 52 51 53
REMARK SMILES IDX 54 54 68 55 87 56 52 57 53 58 67 60 88 61 55 62 39 63 40 64
REMARK SMILES IDX 48 65 41 66 42 67 46 68 49 69 43 70 44 71 47 72 45 73 71 74
REMARK SMILES IDX 72 75 80 76 73 77 74 78 78 79 81 80 75 81 76 82 79 83 77 84
REMARK SMILES IDX 56 85 57 86 65 87 58 88 59 89 63 90 66 91 60 92 61 93 64 94
REMARK SMILES IDX 62 95
REMARK H PARENT 86 48 54 59
REMARK Flexibility Score: inf
ROOT
ATOM      1  C   UNL A   1      34.639  31.342  28.003  1.00  0.00     0.188 C 
ENDROOT
BRANCH   1   2
ATOM      2  O   UNL A   1      34.269  30.023  27.605  1.00  0.00    -0.377 OA
BRANCH   2   3
ATOM      3  C   UNL A   1      33.649  30.034  26.317  1.00  0.00     0.188 C 
BRANCH   3   4
ATOM      4  C   UNL A   1      32.986  28.707  25.989  1.00  0.00     0.188 C 
BRANCH   4   5
ATOM      5  O   UNL A   1      31.564  28.713  25.888  1.00  0.00    -0.376 OA
BRANCH   5   6
ATOM      6  C   UNL A   1      30.992  27.438  25.575  1.00  0.00     0.202 C 
BRANCH   6   7
ATOM      7  C   UNL A   1      31.908  26.250  25.924  1.00  0.00     0.261 C 
BRANCH   7   8
ATOM      8  O   UNL A   1      31.191  25.007  25.782  1.00  0.00    -0.458 OA
BRANCH   8   9
ATOM      9  C   UNL A   1      31.706  23.932  26.470  1.00  0.00     0.362 C 
ATOM     10  O   UNL A   1      31.503  23.703  27.623  1.00  0.00    -0.244 OA
BRANCH   9  11
ATOM     11  C   UNL A   1      32.285  22.968  25.521  1.00  0.00     0.209 A 
ATOM     12  N   UNL A   1      32.832  21.150  24.587  1.00  0.00    -0.149 N 
ATOM     13  N   UNL A   1      33.964  21.899  24.484  1.00  0.00    -0.135 NA
ATOM     14  N   UNL A   1      31.780  21.761  25.200  1.00  0.00    -0.139 NA
ATOM     15  C   UNL A   1      33.588  23.063  25.007  1.00  0.00     0.186 A 
ATOM     16  Cl  UNL A   1      34.712  24.314  25.194  1.00  0.00    -0.057 Cl
BRANCH  12  17
ATOM     17  C   UNL A   1      32.824  19.804  24.103  1.00  0.00     0.089 A 
ATOM     18  C   UNL A   1      31.778  20.362  21.801  1.00  0.00     0.047 C 
ATOM     19  C   UNL A   1      32.347  19.424  22.832  1.00  0.00    -0.023 A 
ATOM     20  C   UNL A   1      32.530  18.082  22.427  1.00  0.00     0.006 A 
ATOM     21  C   UNL A   1      33.104  17.130  23.271  1.00  0.00     0.000 A 
ATOM     22  C   UNL A   1      33.381  18.820  24.954  1.00  0.00     0.030 A 
ATOM     23  C   UNL A   1      33.509  17.494  24.545  1.00  0.00     0.002 A 
ENDBRANCH  12  17
ENDBRANCH   9  11
ENDBRANCH   8   9
ENDBRANCH   7   8
ENDBRANCH   6   7
ENDBRANCH   5   6
ENDBRANCH   4   5
ENDBRANCH   3   4
ENDBRANCH   2   3
ENDBRANCH   1   2
BRANCH   1  24
ATOM     24  C   UNL A   1      33.492  32.308  27.743  1.00  0.00     0.188 C 
BRANCH  24  25
ATOM     25  O   UNL A   1      33.812  33.687  27.859  1.00  0.00    -0.376 OA
BRANCH  25  26
ATOM     26  C   UNL A   1      32.815  34.570  28.359  1.00  0.00     0.202 C 
BRANCH  26  27
ATOM     27  C   UNL A   1      33.294  35.548  29.442  1.00  0.00     0.261 C 
BRANCH  27  28
ATOM     28  O   UNL A   1      33.122  34.953  30.742  1.00  0.00    -0.460 OA
BRANCH  28  29
ATOM     29  C   UNL A   1      34.259  34.837  31.482  1.00  0.00     0.338 C 
ATOM     30  O   UNL A   1      34.720  35.702  32.208  1.00  0.00    -0.246 OA
BRANCH  29  31
ATOM     31  C   UNL A   1      35.032  33.650  31.006  1.00  0.00     0.060 A 
ATOM     32  C   UNL A   1      34.779  32.394  31.586  1.00  0.00     0.016 A 
ATOM     33  C   UNL A   1      36.214  33.855  30.298  1.00  0.00     0.016 A 
ATOM     34  C   UNL A   1      35.786  31.412  31.616  1.00  0.00     0.010 A 
ATOM     35  C   UNL A   1      37.228  32.916  30.402  1.00  0.00     0.010 A 
ATOM     36  C   UNL A   1      37.052  31.708  31.105  1.00  0.00    -0.014 A 
BRANCH  36  37
ATOM     37  C   UNL A   1      38.296  30.983  31.448  1.00  0.00     0.031 A 
ATOM     38  C   UNL A   1      38.660  29.713  30.734  1.00  0.00     0.074 A 
ATOM     39  C   UNL A   1      39.287  31.647  32.108  1.00  0.00     0.049 A 
ATOM     40  N   UNL A   1      39.776  29.086  30.913  1.00  0.00    -0.248 NA
ATOM     41  C   UNL A   1      37.817  29.023  29.755  1.00  0.00     0.031 C 
ATOM     42  C   UNL A   1      40.725  31.430  31.924  1.00  0.00     0.029 A 
ATOM     43  N   UNL A   1      39.255  32.719  33.023  1.00  0.00    -0.354 N 
ATOM     44  C   UNL A   1      39.974  28.243  29.848  1.00  0.00     0.074 A 
ATOM     45  C   UNL A   1      38.670  28.121  29.245  1.00  0.00     0.031 C 
ATOM     46  C   UNL A   1      41.436  32.218  32.734  1.00  0.00     0.029 A 
ATOM     47  C   UNL A   1      40.505  32.714  33.701  1.00  0.00     0.049 A 
ATOM     48  H   UNL A   1      38.512  33.350  33.165  1.00  0.00     0.167 HD
ATOM     49  C   UNL A   1      41.249  27.878  29.518  1.00  0.00     0.037 A 
ATOM     50  C   UNL A   1      40.607  32.418  35.030  1.00  0.00     0.037 A 
ATOM     51  C   UNL A   1      42.250  28.260  30.536  1.00  0.00     0.049 A 
ATOM     52  C   UNL A   1      41.392  31.154  35.322  1.00  0.00     0.074 A 
ATOM     53  C   UNL A   1      43.525  28.805  30.519  1.00  0.00     0.029 A 
ATOM     54  N   UNL A   1      41.920  28.159  31.890  1.00  0.00    -0.354 N 
ATOM     55  N   UNL A   1      41.790  30.316  34.397  1.00  0.00    -0.248 NA
ATOM     56  C   UNL A   1      41.806  30.716  36.645  1.00  0.00     0.031 C 
ATOM     57  C   UNL A   1      43.954  29.001  31.869  1.00  0.00     0.029 A 
ATOM     58  C   UNL A   1      42.964  28.522  32.709  1.00  0.00     0.049 A 
ATOM     59  H   UNL A   1      41.041  27.863  32.220  1.00  0.00     0.167 HD
ATOM     60  C   UNL A   1      42.451  29.248  34.941  1.00  0.00     0.074 A 
ATOM     61  C   UNL A   1      42.428  29.554  36.362  1.00  0.00     0.031 C 
ATOM     62  C   UNL A   1      42.901  28.224  34.143  1.00  0.00     0.037 A 
BRANCH  49  63
ATOM     63  C   UNL A   1      41.648  27.283  28.173  1.00  0.00     0.064 A 
ATOM     64  C   UNL A   1      42.035  25.927  28.070  1.00  0.00     0.173 A 
ATOM     65  C   UNL A   1      41.783  28.023  26.977  1.00  0.00     0.173 A 
ATOM     66  F   UNL A   1      41.959  25.105  29.126  1.00  0.00    -0.203 F 
ATOM     67  C   UNL A   1      42.521  25.369  26.880  1.00  0.00     0.198 A 
ATOM     68  C   UNL A   1      42.201  27.445  25.772  1.00  0.00     0.198 A 
ATOM     69  F   UNL A   1      41.575  29.345  26.941  1.00  0.00    -0.203 F 
ATOM     70  F   UNL A   1      42.934  24.093  26.861  1.00  0.00    -0.200 F 
ATOM     71  C   UNL A   1      42.586  26.122  25.726  1.00  0.00     0.200 A 
ATOM     72  F   UNL A   1      42.252  28.193  24.659  1.00  0.00    -0.200 F 
ATOM     73  F   UNL A   1      43.032  25.584  24.582  1.00  0.00    -0.200 F 
ENDBRANCH  49  63
BRANCH  50  74
ATOM     74  C   UNL A   1      39.557  33.129  35.811  1.00  0.00     0.064 A 
ATOM     75  C   UNL A   1      38.611  32.266  36.409  1.00  0.00     0.173 A 
ATOM     76  C   UNL A   1      39.878  34.310  36.496  1.00  0.00     0.173 A 
ATOM     77  F   UNL A   1      38.244  31.140  35.776  1.00  0.00    -0.203 F 
ATOM     78  C   UNL A   1      38.225  32.435  37.737  1.00  0.00     0.198 A 
ATOM     79  C   UNL A   1      39.463  34.489  37.820  1.00  0.00     0.198 A 
ATOM     80  F   UNL A   1      40.743  35.185  35.964  1.00  0.00    -0.203 F 
ATOM     81  F   UNL A   1      37.515  31.480  38.353  1.00  0.00    -0.200 F 
ATOM     82  C   UNL A   1      38.695  33.521  38.456  1.00  0.00     0.200 A 
ATOM     83  F   UNL A   1      39.916  35.535  38.528  1.00  0.00    -0.200 F 
ATOM     84  F   UNL A   1      38.465  33.599  39.775  1.00  0.00    -0.200 F 
ENDBRANCH  50  74
BRANCH  62  85
ATOM     85  C   UNL A   1      43.298  26.801  34.549  1.00  0.00     0.064 A 
ATOM     86  C   UNL A   1      44.602  26.303  34.639  1.00  0.00     0.173 A 
ATOM     87  C   UNL A   1      42.294  25.863  34.944  1.00  0.00     0.173 A 
ATOM     88  F   UNL A   1      45.654  26.999  34.208  1.00  0.00    -0.203 F 
ATOM     89  C   UNL A   1      44.888  25.031  35.157  1.00  0.00     0.198 A 
ATOM     90  C   UNL A   1      42.577  24.595  35.448  1.00  0.00     0.198 A 
ATOM     91  F   UNL A   1      40.985  26.134  34.879  1.00  0.00    -0.203 F 
ATOM     92  F   UNL A   1      46.163  24.632  35.253  1.00  0.00    -0.200 F 
ATOM     93  C   UNL A   1      43.880  24.184  35.575  1.00  0.00     0.200 A 
ATOM     94  F   UNL A   1      41.574  23.791  35.829  1.00  0.00    -0.200 F 
ATOM     95  F   UNL A   1      44.163  22.981  36.089  1.00  0.00    -0.200 F 
ENDBRANCH  62  85
ENDBRANCH  36  37
ENDBRANCH  29  31
ENDBRANCH  28  29
ENDBRANCH  27  28
ENDBRANCH  26  27
ENDBRANCH  25  26
ENDBRANCH  24  25
ENDBRANCH   1  24
TORSDOF 21
ENDMDL
MODEL 3
REMARK VINA RESULT:     -11.1      2.580      4.664
REMARK SMILES Cc1ccccc1-n1nc(Cl)c(C(=O)OCCOCCOCCOCCOC(=O)c2ccc(-c3c4nc(c(-c5c(F)c(F)c(F)c(F)c5F)c5ccc([nH]5)c(-c5c(F)c(F)c(F)c(F)c5F)c5nc(c(-c6c(F)c(F)c(F)c(F)c6F)c6ccc3[nH]6)C=C5)C=C4)cc2)n1
REMARK SMILES IDX 22 1 21 2 20 3 19 4 18 5 17 6 16 7 15 8 13 9 14 10 12 11
REMARK SMILES IDX 8 12 9 13 93 14 10 15 11 16 7 17 1 18 2 19 3 20 4 21 6 22
REMARK SMILES IDX 5 23 23 24 24 25 25 26 26 27 27 28 28 29 29 30 30 31 31 32
REMARK SMILES IDX 92 33 32 34 91 35 33 36 34 37 35 38 85 39 36 40 90 41 84 42
REMARK SMILES IDX 86 43 37 44 89 45 83 46 82 47 38 49 70 50 50 51 69 52 51 53
REMARK SMILES IDX 54 54 68 55 87 56 52 57 53 58 67 60 88 61 55 62 39 63 40 64
REMARK SMILES IDX 48 65 41 66 42 67 46 68 49 69 43 70 44 71 47 72 45 73 71 74
REMARK SMILES IDX 72 75 80 76 73 77 74 78 78 79 81 80 75 81 76 82 79 83 77 84
REMARK SMILES IDX 56 85 57 86 65 87 58 88 59 89 63 90 66 91 60 92 61 93 64 94
REMARK SMILES IDX 62 95
REMARK H PARENT 86 48 54 59
REMARK Flexibility Score: inf
ROOT
ATOM      1  C   UNL A   1      33.591  27.643  26.458  1.00  0.00     0.188 C 
ENDROOT
BRANCH   1   2
ATOM      2  O   UNL A   1      32.683  27.017  25.554  1.00  0.00    -0.377 OA
BRANCH   2   3
ATOM      3  C   UNL A   1      32.097  25.854  26.141  1.00  0.00     0.188 C 
BRANCH   3   4
ATOM      4  C   UNL A   1      32.934  24.608  25.905  1.00  0.00     0.188 C 
BRANCH   4   5
ATOM      5  O   UNL A   1      32.587  23.811  24.775  1.00  0.00    -0.376 OA
BRANCH   5   6
ATOM      6  C   UNL A   1      33.392  24.054  23.616  1.00  0.00     0.202 C 
BRANCH   6   7
ATOM      7  C   UNL A   1      32.570  24.354  22.348  1.00  0.00     0.261 C 
BRANCH   7   8
ATOM      8  O   UNL A   1      31.541  25.323  22.639  1.00  0.00    -0.458 OA
BRANCH   8   9
ATOM      9  C   UNL A   1      31.896  26.643  22.483  1.00  0.00     0.362 C 
ATOM     10  O   UNL A   1      32.984  27.023  22.175  1.00  0.00    -0.244 OA
BRANCH   9  11
ATOM     11  C   UNL A   1      30.687  27.482  22.461  1.00  0.00     0.209 A 
ATOM     12  N   UNL A   1      29.416  29.173  22.413  1.00  0.00    -0.149 N 
ATOM     13  N   UNL A   1      28.809  28.360  23.321  1.00  0.00    -0.135 NA
ATOM     14  N   UNL A   1      30.555  28.678  21.853  1.00  0.00    -0.139 NA
ATOM     15  C   UNL A   1      29.573  27.272  23.290  1.00  0.00     0.186 A 
ATOM     16  Cl  UNL A   1      29.269  25.989  24.350  1.00  0.00    -0.057 Cl
BRANCH  12  17
ATOM     17  C   UNL A   1      28.868  30.465  22.137  1.00  0.00     0.089 A 
ATOM     18  C   UNL A   1      29.600  31.541  24.376  1.00  0.00     0.047 C 
ATOM     19  C   UNL A   1      28.943  31.561  23.022  1.00  0.00    -0.023 A 
ATOM     20  C   UNL A   1      28.487  32.817  22.563  1.00  0.00     0.006 A 
ATOM     21  C   UNL A   1      27.914  32.977  21.301  1.00  0.00     0.000 A 
ATOM     22  C   UNL A   1      28.263  30.641  20.870  1.00  0.00     0.030 A 
ATOM     23  C   UNL A   1      27.780  31.883  20.461  1.00  0.00     0.002 A 
ENDBRANCH  12  17
ENDBRANCH   9  11
ENDBRANCH   8   9
ENDBRANCH   7   8
ENDBRANCH   6   7
ENDBRANCH   5   6
ENDBRANCH   4   5
ENDBRANCH   3   4
ENDBRANCH   2   3
ENDBRANCH   1   2
BRANCH   1  24
ATOM     24  C   UNL A   1      32.822  28.458  27.489  1.00  0.00     0.188 C 
BRANCH  24  25
ATOM     25  O   UNL A   1      31.942  29.440  26.963  1.00  0.00    -0.376 OA
BRANCH  25  26
ATOM     26  C   UNL A   1      32.408  30.782  26.870  1.00  0.00     0.202 C 
BRANCH  26  27
ATOM     27  C   UNL A   1      33.750  31.054  27.566  1.00  0.00     0.261 C 
BRANCH  27  28
ATOM     28  O   UNL A   1      34.125  32.431  27.372  1.00  0.00    -0.460 OA
BRANCH  28  29
ATOM     29  C   UNL A   1      33.823  33.266  28.404  1.00  0.00     0.338 C 
ATOM     30  O   UNL A   1      32.889  34.050  28.428  1.00  0.00    -0.246 OA
BRANCH  29  31
ATOM     31  C   UNL A   1      34.992  33.333  29.334  1.00  0.00     0.060 A 
ATOM     32  C   UNL A   1      36.229  33.788  28.844  1.00  0.00     0.016 A 
ATOM     33  C   UNL A   1      34.947  32.612  30.525  1.00  0.00     0.016 A 
ATOM     34  C   UNL A   1      37.427  33.363  29.443  1.00  0.00     0.010 A 
ATOM     35  C   UNL A   1      36.131  32.132  31.061  1.00  0.00     0.010 A 
ATOM     36  C   UNL A   1      37.383  32.451  30.500  1.00  0.00    -0.014 A 
BRANCH  36  37
ATOM     37  C   UNL A   1      38.511  31.594  30.930  1.00  0.00     0.031 A 
ATOM     38  C   UNL A   1      38.732  30.250  30.295  1.00  0.00     0.074 A 
ATOM     39  C   UNL A   1      39.557  32.162  31.595  1.00  0.00     0.049 A 
ATOM     40  N   UNL A   1      39.751  29.498  30.551  1.00  0.00    -0.248 NA
ATOM     41  C   UNL A   1      37.841  29.620  29.319  1.00  0.00     0.031 C 
ATOM     42  C   UNL A   1      40.960  31.754  31.480  1.00  0.00     0.029 A 
ATOM     43  N   UNL A   1      39.633  33.278  32.453  1.00  0.00    -0.354 N 
ATOM     44  C   UNL A   1      39.874  28.579  29.538  1.00  0.00     0.074 A 
ATOM     45  C   UNL A   1      38.587  28.591  28.889  1.00  0.00     0.031 C 
ATOM     46  C   UNL A   1      41.740  32.489  32.277  1.00  0.00     0.029 A 
ATOM     47  C   UNL A   1      40.848  33.151  33.180  1.00  0.00     0.049 A 
ATOM     48  H   UNL A   1      38.973  34.005  32.533  1.00  0.00     0.167 HD
ATOM     49  C   UNL A   1      41.102  28.038  29.279  1.00  0.00     0.037 A 
ATOM     50  C   UNL A   1      40.866  32.918  34.525  1.00  0.00     0.037 A 
ATOM     51  C   UNL A   1      42.110  28.345  30.315  1.00  0.00     0.049 A 
ATOM     52  C   UNL A   1      41.472  31.582  34.912  1.00  0.00     0.074 A 
ATOM     53  C   UNL A   1      43.444  28.722  30.323  1.00  0.00     0.029 A 
ATOM     54  N   UNL A   1      41.723  28.361  31.658  1.00  0.00    -0.354 N 
ATOM     55  N   UNL A   1      41.788  30.651  34.047  1.00  0.00    -0.248 NA
ATOM     56  C   UNL A   1      41.781  31.169  36.271  1.00  0.00     0.031 C 
ATOM     57  C   UNL A   1      43.848  28.935  31.678  1.00  0.00     0.029 A 
ATOM     58  C   UNL A   1      42.778  28.632  32.500  1.00  0.00     0.049 A 
ATOM     59  H   UNL A   1      40.803  28.197  31.967  1.00  0.00     0.167 HD
ATOM     60  C   UNL A   1      42.288  29.539  34.670  1.00  0.00     0.074 A 
ATOM     61  C   UNL A   1      42.257  29.923  36.071  1.00  0.00     0.031 C 
ATOM     62  C   UNL A   1      42.629  28.424  33.943  1.00  0.00     0.037 A 
BRANCH  49  63
ATOM     63  C   UNL A   1      41.466  27.324  27.982  1.00  0.00     0.064 A 
ATOM     64  C   UNL A   1      41.507  25.912  27.923  1.00  0.00     0.173 A 
ATOM     65  C   UNL A   1      41.897  27.972  26.803  1.00  0.00     0.173 A 
ATOM     66  F   UNL A   1      41.126  25.165  28.968  1.00  0.00    -0.203 F 
ATOM     67  C   UNL A   1      41.949  25.216  26.789  1.00  0.00     0.198 A 
ATOM     68  C   UNL A   1      42.270  27.274  25.648  1.00  0.00     0.198 A 
ATOM     69  F   UNL A   1      42.034  29.302  26.742  1.00  0.00    -0.203 F 
ATOM     70  F   UNL A   1      42.028  23.877  26.816  1.00  0.00    -0.200 F 
ATOM     71  C   UNL A   1      42.313  25.895  25.645  1.00  0.00     0.200 A 
ATOM     72  F   UNL A   1      42.615  27.953  24.543  1.00  0.00    -0.200 F 
ATOM     73  F   UNL A   1      42.717  25.231  24.553  1.00  0.00    -0.200 F 
ENDBRANCH  49  63
BRANCH  50  74
ATOM     74  C   UNL A   1      39.891  33.798  35.226  1.00  0.00     0.064 A 
ATOM     75  C   UNL A   1      38.789  33.104  35.775  1.00  0.00     0.173 A 
ATOM     76  C   UNL A   1      40.346  34.934  35.914  1.00  0.00     0.173 A 
ATOM     77  F   UNL A   1      38.294  32.032  35.135  1.00  0.00    -0.203 F 
ATOM     78  C   UNL A   1      38.353  33.362  37.072  1.00  0.00     0.198 A 
ATOM     79  C   UNL A   1      39.882  35.206  37.206  1.00  0.00     0.198 A 
ATOM     80  F   UNL A   1      41.366  35.654  35.426  1.00  0.00    -0.203 F 
ATOM     81  F   UNL A   1      37.469  32.540  37.655  1.00  0.00    -0.200 F 
ATOM     82  C   UNL A   1      38.938  34.381  37.804  1.00  0.00     0.200 A 
ATOM     83  F   UNL A   1      40.445  36.187  37.925  1.00  0.00    -0.200 F 
ATOM     84  F   UNL A   1      38.642  34.524  39.105  1.00  0.00    -0.200 F 
ENDBRANCH  50  74
BRANCH  62  85
ATOM     85  C   UNL A   1      42.824  26.987  34.435  1.00  0.00     0.064 A 
ATOM     86  C   UNL A   1      41.839  26.165  34.993  1.00  0.00     0.173 A 
ATOM     87  C   UNL A   1      44.092  26.344  34.283  1.00  0.00     0.173 A 
ATOM     88  F   UNL A   1      40.629  26.630  35.309  1.00  0.00    -0.203 F 
ATOM     89  C   UNL A   1      42.064  24.812  35.286  1.00  0.00     0.198 A 
ATOM     90  C   UNL A   1      44.319  25.003  34.585  1.00  0.00     0.198 A 
ATOM     91  F   UNL A   1      45.173  26.979  33.815  1.00  0.00    -0.203 F 
ATOM     92  F   UNL A   1      41.063  24.072  35.781  1.00  0.00    -0.200 F 
ATOM     93  C   UNL A   1      43.296  24.228  35.070  1.00  0.00     0.200 A 
ATOM     94  F   UNL A   1      45.532  24.470  34.379  1.00  0.00    -0.200 F 
ATOM     95  F   UNL A   1      43.496  22.930  35.331  1.00  0.00    -0.200 F 
ENDBRANCH  62  85
ENDBRANCH  36  37
ENDBRANCH  29  31
ENDBRANCH  28  29
ENDBRANCH  27  28
ENDBRANCH  26  27
ENDBRANCH  25  26
ENDBRANCH  24  25
ENDBRANCH   1  24
TORSDOF 21
ENDMDL
