MODEL 1
REMARK VINA RESULT:     -10.9      0.000      0.000
REMARK SMILES Cc1nnc(-c2ccccc2-c2cc(NCC(=O)OCCOCCOCCOCCOC(=O)c3ccc(-c4c5nc(c(-c6c(F)c(F)c(F)c(F)c6F)c6ccc([nH]6)c(-c6c(F)c(F)c(F)c(F)c6F)c6nc(c(-c7c(F)c(F)c(F)c(F)c7F)c7ccc4[nH]7)C=C6)C=C5)cc3)nc3[nH]ccc23)o1
REMARK SMILES IDX 24 1 23 2 22 3 21 4 20 5 19 6 17 7 18 8 16 9 15 10 14 12
REMARK SMILES IDX 12 13 13 14 102 15 98 16 101 17 97 18 99 19 100 20 11 22
REMARK SMILES IDX 6 23 7 24 8 25 10 26 9 27 5 28 1 29 2 30 3 31 103 32 4 33
REMARK SMILES IDX 25 34 26 35 27 36 28 37 29 38 30 39 31 40 32 41 33 42 34 43
REMARK SMILES IDX 35 44 96 45 36 46 95 47 37 48 38 49 39 50 89 51 40 52 94 53
REMARK SMILES IDX 88 54 90 55 41 56 93 57 87 58 86 59 42 61 74 62 54 63 73 64
REMARK SMILES IDX 55 65 58 66 72 67 91 68 56 69 57 70 71 72 92 73 59 74 43 75
REMARK SMILES IDX 44 76 52 77 45 78 46 79 50 80 53 81 47 82 48 83 51 84 49 85
REMARK SMILES IDX 75 86 76 87 84 88 77 89 78 90 82 91 85 92 79 93 80 94 83 95
REMARK SMILES IDX 81 96 60 97 61 98 69 99 62 100 63 101 67 102 70 103 64 104
REMARK SMILES IDX 65 105 68 106 66 107
REMARK H PARENT 15 11 99 21 90 60 58 71
REMARK Flexibility Score: inf
ROOT
ATOM      1  C   UNL A   1      36.268  29.690  29.019  1.00  0.00     0.188 C 
ENDROOT
BRANCH   1   2
ATOM      2  C   UNL A   1      35.613  29.821  27.630  1.00  0.00     0.188 C 
BRANCH   2   3
ATOM      3  O   UNL A   1      35.012  31.080  27.355  1.00  0.00    -0.376 OA
BRANCH   3   4
ATOM      4  C   UNL A   1      33.675  31.223  27.832  1.00  0.00     0.202 C 
BRANCH   4   5
ATOM      5  C   UNL A   1      32.656  31.619  26.753  1.00  0.00     0.261 C 
BRANCH   5   6
ATOM      6  O   UNL A   1      31.552  30.699  26.655  1.00  0.00    -0.462 OA
BRANCH   6   7
ATOM      7  C   UNL A   1      31.544  29.879  25.574  1.00  0.00     0.325 C 
ATOM      8  O   UNL A   1      30.867  30.088  24.570  1.00  0.00    -0.250 OA
BRANCH   7   9
ATOM      9  C   UNL A   1      32.579  28.756  25.644  1.00  0.00     0.237 C 
BRANCH   9  10
ATOM     10  N   UNL A   1      32.471  27.835  26.780  1.00  0.00    -0.359 N 
ATOM     11  H   UNL A   1      32.528  28.185  27.699  1.00  0.00     0.162 HD
BRANCH  10  12
ATOM     12  C   UNL A   1      32.290  26.474  26.571  1.00  0.00     0.129 A 
ATOM     13  C   UNL A   1      33.224  24.343  25.800  1.00  0.00    -0.003 A 
ATOM     14  C   UNL A   1      33.365  25.720  26.073  1.00  0.00     0.056 A 
ATOM     15  C   UNL A   1      31.971  23.777  26.096  1.00  0.00     0.027 A 
ATOM     16  C   UNL A   1      31.001  24.622  26.620  1.00  0.00     0.140 A 
ATOM     17  C   UNL A   1      31.385  22.481  26.025  1.00  0.00     0.030 A 
ATOM     18  N   UNL A   1      31.096  25.936  26.867  1.00  0.00    -0.213 NA
ATOM     19  N   UNL A   1      29.880  23.879  26.864  1.00  0.00    -0.346 N 
ATOM     20  C   UNL A   1      30.094  22.576  26.499  1.00  0.00     0.085 A 
ATOM     21  H   UNL A   1      29.043  24.229  27.247  1.00  0.00     0.167 HD
BRANCH  13  22
ATOM     22  C   UNL A   1      34.304  23.477  25.298  1.00  0.00    -0.005 A 
ATOM     23  C   UNL A   1      34.709  23.488  23.948  1.00  0.00     0.047 A 
ATOM     24  C   UNL A   1      35.760  22.664  23.502  1.00  0.00     0.014 A 
ATOM     25  C   UNL A   1      36.426  21.829  24.391  1.00  0.00     0.001 A 
ATOM     26  C   UNL A   1      34.991  22.617  26.175  1.00  0.00     0.009 A 
ATOM     27  C   UNL A   1      36.040  21.805  25.727  1.00  0.00     0.001 A 
BRANCH  23  28
ATOM     28  C   UNL A   1      34.001  24.279  22.973  1.00  0.00     0.248 A 
ATOM     29  C   UNL A   1      33.416  27.561  22.015  1.00  0.00     0.113 C 
ATOM     30  C   UNL A   1      33.474  26.109  22.086  1.00  0.00     0.213 A 
ATOM     31  N   UNL A   1      33.023  25.178  21.276  1.00  0.00    -0.113 NA
ATOM     32  O   UNL A   1      34.078  25.618  23.198  1.00  0.00    -0.421 OA
ATOM     33  N   UNL A   1      33.383  23.973  21.852  1.00  0.00    -0.108 NA
ENDBRANCH  23  28
ENDBRANCH  13  22
ENDBRANCH  10  12
ENDBRANCH   9  10
ENDBRANCH   7   9
ENDBRANCH   6   7
ENDBRANCH   5   6
ENDBRANCH   4   5
ENDBRANCH   3   4
ENDBRANCH   2   3
ENDBRANCH   1   2
BRANCH   1  34
ATOM     34  O   UNL A   1      36.616  30.844  29.769  1.00  0.00    -0.377 OA
BRANCH  34  35
ATOM     35  C   UNL A   1      35.862  31.167  30.929  1.00  0.00     0.188 C 
BRANCH  35  36
ATOM     36  C   UNL A   1      35.017  32.451  30.961  1.00  0.00     0.188 C 
BRANCH  36  37
ATOM     37  O   UNL A   1      34.262  32.636  32.148  1.00  0.00    -0.376 OA
BRANCH  37  38
ATOM     38  C   UNL A   1      34.391  33.904  32.781  1.00  0.00     0.202 C 
BRANCH  38  39
ATOM     39  C   UNL A   1      35.290  33.900  34.023  1.00  0.00     0.261 C 
BRANCH  39  40
ATOM     40  O   UNL A   1      36.526  33.185  33.860  1.00  0.00    -0.460 OA
BRANCH  40  41
ATOM     41  C   UNL A   1      37.643  33.919  33.653  1.00  0.00     0.338 C 
ATOM     42  O   UNL A   1      37.975  34.956  34.196  1.00  0.00    -0.246 OA
BRANCH  41  43
ATOM     43  C   UNL A   1      38.482  33.137  32.734  1.00  0.00     0.060 A 
ATOM     44  C   UNL A   1      39.150  32.001  33.197  1.00  0.00     0.016 A 
ATOM     45  C   UNL A   1      38.544  33.506  31.391  1.00  0.00     0.016 A 
ATOM     46  C   UNL A   1      39.895  31.226  32.305  1.00  0.00     0.010 A 
ATOM     47  C   UNL A   1      39.246  32.703  30.493  1.00  0.00     0.010 A 
ATOM     48  C   UNL A   1      39.968  31.586  30.952  1.00  0.00    -0.014 A 
BRANCH  48  49
ATOM     49  C   UNL A   1      40.996  30.976  30.069  1.00  0.00     0.031 A 
ATOM     50  C   UNL A   1      42.198  31.818  29.725  1.00  0.00     0.074 A 
ATOM     51  C   UNL A   1      40.897  29.721  29.596  1.00  0.00     0.049 A 
ATOM     52  N   UNL A   1      43.219  31.547  28.954  1.00  0.00    -0.248 NA
ATOM     53  C   UNL A   1      42.234  33.170  30.308  1.00  0.00     0.031 C 
ATOM     54  C   UNL A   1      39.788  28.800  29.833  1.00  0.00     0.029 A 
ATOM     55  N   UNL A   1      41.765  29.004  28.807  1.00  0.00    -0.354 N 
ATOM     56  C   UNL A   1      43.992  32.699  28.944  1.00  0.00     0.074 A 
ATOM     57  C   UNL A   1      43.286  33.699  29.710  1.00  0.00     0.031 C 
ATOM     58  C   UNL A   1      40.055  27.628  29.226  1.00  0.00     0.029 A 
ATOM     59  C   UNL A   1      41.346  27.723  28.542  1.00  0.00     0.049 A 
ATOM     60  H   UNL A   1      42.610  29.374  28.464  1.00  0.00     0.167 HD
ATOM     61  C   UNL A   1      45.210  32.903  28.394  1.00  0.00     0.037 A 
ATOM     62  C   UNL A   1      41.946  26.744  27.836  1.00  0.00     0.037 A 
ATOM     63  C   UNL A   1      45.946  31.903  27.677  1.00  0.00     0.049 A 
ATOM     64  C   UNL A   1      43.296  26.998  27.209  1.00  0.00     0.074 A 
ATOM     65  C   UNL A   1      47.204  31.996  27.111  1.00  0.00     0.029 A 
ATOM     66  N   UNL A   1      45.489  30.616  27.439  1.00  0.00    -0.354 N 
ATOM     67  N   UNL A   1      44.047  28.073  27.253  1.00  0.00    -0.248 NA
ATOM     68  C   UNL A   1      43.888  25.892  26.440  1.00  0.00     0.031 C 
ATOM     69  C   UNL A   1      47.496  30.773  26.500  1.00  0.00     0.029 A 
ATOM     70  C   UNL A   1      46.438  29.906  26.726  1.00  0.00     0.049 A 
ATOM     71  H   UNL A   1      44.619  30.262  27.732  1.00  0.00     0.167 HD
ATOM     72  C   UNL A   1      45.210  27.758  26.559  1.00  0.00     0.074 A 
ATOM     73  C   UNL A   1      45.070  26.391  26.107  1.00  0.00     0.031 C 
ATOM     74  C   UNL A   1      46.297  28.532  26.318  1.00  0.00     0.037 A 
BRANCH  61  75
ATOM     75  C   UNL A   1      45.812  34.265  28.570  1.00  0.00     0.064 A 
ATOM     76  C   UNL A   1      45.603  35.286  27.629  1.00  0.00     0.173 A 
ATOM     77  C   UNL A   1      46.639  34.540  29.668  1.00  0.00     0.173 A 
ATOM     78  F   UNL A   1      44.841  35.062  26.547  1.00  0.00    -0.203 F 
ATOM     79  C   UNL A   1      46.239  36.517  27.757  1.00  0.00     0.198 A 
ATOM     80  C   UNL A   1      47.244  35.785  29.810  1.00  0.00     0.198 A 
ATOM     81  F   UNL A   1      46.872  33.598  30.593  1.00  0.00    -0.203 F 
ATOM     82  F   UNL A   1      46.088  37.448  26.804  1.00  0.00    -0.200 F 
ATOM     83  C   UNL A   1      47.055  36.767  28.849  1.00  0.00     0.200 A 
ATOM     84  F   UNL A   1      48.027  36.029  30.870  1.00  0.00    -0.200 F 
ATOM     85  F   UNL A   1      47.674  37.949  28.967  1.00  0.00    -0.200 F 
ENDBRANCH  61  75
BRANCH  62  86
ATOM     86  C   UNL A   1      41.312  25.405  27.712  1.00  0.00     0.064 A 
ATOM     87  C   UNL A   1      41.850  24.294  28.380  1.00  0.00     0.173 A 
ATOM     88  C   UNL A   1      40.200  25.191  26.886  1.00  0.00     0.173 A 
ATOM     89  F   UNL A   1      42.934  24.442  29.157  1.00  0.00    -0.203 F 
ATOM     90  C   UNL A   1      41.318  23.018  28.204  1.00  0.00     0.198 A 
ATOM     91  C   UNL A   1      39.652  23.918  26.730  1.00  0.00     0.198 A 
ATOM     92  F   UNL A   1      39.654  26.217  26.216  1.00  0.00    -0.203 F 
ATOM     93  F   UNL A   1      41.891  21.968  28.808  1.00  0.00    -0.200 F 
ATOM     94  C   UNL A   1      40.218  22.832  27.382  1.00  0.00     0.200 A 
ATOM     95  F   UNL A   1      38.590  23.740  25.935  1.00  0.00    -0.200 F 
ATOM     96  F   UNL A   1      39.714  21.603  27.204  1.00  0.00    -0.200 F 
ENDBRANCH  62  86
BRANCH  74  97
ATOM     97  C   UNL A   1      47.453  27.910  25.591  1.00  0.00     0.064 A 
ATOM     98  C   UNL A   1      47.485  27.821  24.192  1.00  0.00     0.173 A 
ATOM     99  C   UNL A   1      48.577  27.464  26.304  1.00  0.00     0.173 A 
ATOM    100  F   UNL A   1      46.431  28.224  23.466  1.00  0.00    -0.203 F 
ATOM    101  C   UNL A   1      48.593  27.291  23.535  1.00  0.00     0.198 A 
ATOM    102  C   UNL A   1      49.694  26.963  25.643  1.00  0.00     0.198 A 
ATOM    103  F   UNL A   1      48.600  27.539  27.643  1.00  0.00    -0.203 F 
ATOM    104  F   UNL A   1      48.587  27.182  22.199  1.00  0.00    -0.200 F 
ATOM    105  C   UNL A   1      49.698  26.872  24.259  1.00  0.00     0.200 A 
ATOM    106  F   UNL A   1      50.768  26.575  26.343  1.00  0.00    -0.200 F 
ATOM    107  F   UNL A   1      50.770  26.377  23.623  1.00  0.00    -0.200 F 
ENDBRANCH  74  97
ENDBRANCH  48  49
ENDBRANCH  41  43
ENDBRANCH  40  41
ENDBRANCH  39  40
ENDBRANCH  38  39
ENDBRANCH  37  38
ENDBRANCH  36  37
ENDBRANCH  35  36
ENDBRANCH  34  35
ENDBRANCH   1  34
TORSDOF 24
ENDMDL
MODEL 2
REMARK VINA RESULT:      -9.5      3.480      6.455
REMARK SMILES Cc1nnc(-c2ccccc2-c2cc(NCC(=O)OCCOCCOCCOCCOC(=O)c3ccc(-c4c5nc(c(-c6c(F)c(F)c(F)c(F)c6F)c6ccc([nH]6)c(-c6c(F)c(F)c(F)c(F)c6F)c6nc(c(-c7c(F)c(F)c(F)c(F)c7F)c7ccc4[nH]7)C=C6)C=C5)cc3)nc3[nH]ccc23)o1
REMARK SMILES IDX 24 1 23 2 22 3 21 4 20 5 19 6 17 7 18 8 16 9 15 10 14 12
REMARK SMILES IDX 12 13 13 14 102 15 98 16 101 17 97 18 99 19 100 20 11 22
REMARK SMILES IDX 6 23 7 24 8 25 10 26 9 27 5 28 1 29 2 30 3 31 103 32 4 33
REMARK SMILES IDX 25 34 26 35 27 36 28 37 29 38 30 39 31 40 32 41 33 42 34 43
REMARK SMILES IDX 35 44 96 45 36 46 95 47 37 48 38 49 39 50 89 51 40 52 94 53
REMARK SMILES IDX 88 54 90 55 41 56 93 57 87 58 86 59 42 61 74 62 54 63 73 64
REMARK SMILES IDX 55 65 58 66 72 67 91 68 56 69 57 70 71 72 92 73 59 74 43 75
REMARK SMILES IDX 44 76 52 77 45 78 46 79 50 80 53 81 47 82 48 83 51 84 49 85
REMARK SMILES IDX 75 86 76 87 84 88 77 89 78 90 82 91 85 92 79 93 80 94 83 95
REMARK SMILES IDX 81 96 60 97 61 98 69 99 62 100 63 101 67 102 70 103 64 104
REMARK SMILES IDX 65 105 68 106 66 107
REMARK H PARENT 15 11 99 21 90 60 58 71
REMARK Flexibility Score: inf
ROOT
ATOM      1  C   UNL A   1      39.973  28.831  30.323  1.00  0.00     0.188 C 
ENDROOT
BRANCH   1   2
ATOM      2  C   UNL A   1      39.075  28.120  29.292  1.00  0.00     0.188 C 
BRANCH   2   3
ATOM      3  O   UNL A   1      38.000  28.897  28.781  1.00  0.00    -0.376 OA
BRANCH   3   4
ATOM      4  C   UNL A   1      38.201  30.309  28.837  1.00  0.00     0.202 C 
BRANCH   4   5
ATOM      5  C   UNL A   1      36.942  31.141  28.550  1.00  0.00     0.261 C 
BRANCH   5   6
ATOM      6  O   UNL A   1      36.093  30.552  27.547  1.00  0.00    -0.462 OA
BRANCH   6   7
ATOM      7  C   UNL A   1      34.767  30.825  27.642  1.00  0.00     0.325 C 
ATOM      8  O   UNL A   1      34.323  31.900  28.038  1.00  0.00    -0.250 OA
BRANCH   7   9
ATOM      9  C   UNL A   1      33.870  29.737  27.050  1.00  0.00     0.237 C 
BRANCH   9  10
ATOM     10  N   UNL A   1      33.673  29.768  25.598  1.00  0.00    -0.359 N 
ATOM     11  H   UNL A   1      33.584  30.632  25.135  1.00  0.00     0.162 HD
BRANCH  10  12
ATOM     12  C   UNL A   1      33.613  28.587  24.868  1.00  0.00     0.129 A 
ATOM     13  C   UNL A   1      33.932  26.158  24.809  1.00  0.00    -0.003 A 
ATOM     14  C   UNL A   1      33.934  27.381  25.512  1.00  0.00     0.056 A 
ATOM     15  C   UNL A   1      33.551  26.220  23.456  1.00  0.00     0.027 A 
ATOM     16  C   UNL A   1      33.221  27.469  22.947  1.00  0.00     0.140 A 
ATOM     17  C   UNL A   1      33.375  25.289  22.393  1.00  0.00     0.030 A 
ATOM     18  N   UNL A   1      33.236  28.651  23.581  1.00  0.00    -0.213 NA
ATOM     19  N   UNL A   1      32.854  27.311  21.640  1.00  0.00    -0.346 N 
ATOM     20  C   UNL A   1      32.951  25.991  21.284  1.00  0.00     0.085 A 
ATOM     21  H   UNL A   1      32.563  28.037  21.042  1.00  0.00     0.167 HD
BRANCH  13  22
ATOM     22  C   UNL A   1      34.235  24.848  25.411  1.00  0.00    -0.005 A 
ATOM     23  C   UNL A   1      33.244  24.059  26.029  1.00  0.00     0.047 A 
ATOM     24  C   UNL A   1      33.561  22.801  26.577  1.00  0.00     0.014 A 
ATOM     25  C   UNL A   1      34.859  22.309  26.508  1.00  0.00     0.001 A 
ATOM     26  C   UNL A   1      35.542  24.329  25.360  1.00  0.00     0.009 A 
ATOM     27  C   UNL A   1      35.849  23.074  25.901  1.00  0.00     0.001 A 
BRANCH  23  28
ATOM     28  C   UNL A   1      31.902  24.557  26.194  1.00  0.00     0.248 A 
ATOM     29  C   UNL A   1      29.343  26.147  24.475  1.00  0.00     0.113 C 
ATOM     30  C   UNL A   1      30.142  25.445  25.468  1.00  0.00     0.213 A 
ATOM     31  N   UNL A   1      29.848  25.003  26.670  1.00  0.00    -0.113 NA
ATOM     32  O   UNL A   1      31.433  25.229  25.108  1.00  0.00    -0.421 OA
ATOM     33  N   UNL A   1      31.002  24.405  27.142  1.00  0.00    -0.108 NA
ENDBRANCH  23  28
ENDBRANCH  13  22
ENDBRANCH  10  12
ENDBRANCH   9  10
ENDBRANCH   7   9
ENDBRANCH   6   7
ENDBRANCH   5   6
ENDBRANCH   4   5
ENDBRANCH   3   4
ENDBRANCH   2   3
ENDBRANCH   1   2
BRANCH   1  34
ATOM     34  O   UNL A   1      39.997  28.408  31.679  1.00  0.00    -0.377 OA
BRANCH  34  35
ATOM     35  C   UNL A   1      38.766  28.199  32.358  1.00  0.00     0.188 C 
BRANCH  35  36
ATOM     36  C   UNL A   1      37.962  29.401  32.876  1.00  0.00     0.188 C 
BRANCH  36  37
ATOM     37  O   UNL A   1      36.650  29.512  32.347  1.00  0.00    -0.376 OA
BRANCH  37  38
ATOM     38  C   UNL A   1      36.198  30.831  32.060  1.00  0.00     0.202 C 
BRANCH  38  39
ATOM     39  C   UNL A   1      37.106  31.940  32.605  1.00  0.00     0.261 C 
BRANCH  39  40
ATOM     40  O   UNL A   1      37.970  32.537  31.623  1.00  0.00    -0.460 OA
BRANCH  40  41
ATOM     41  C   UNL A   1      38.052  33.887  31.610  1.00  0.00     0.338 C 
ATOM     42  O   UNL A   1      37.286  34.694  32.101  1.00  0.00    -0.246 OA
BRANCH  41  43
ATOM     43  C   UNL A   1      39.351  34.212  31.004  1.00  0.00     0.060 A 
ATOM     44  C   UNL A   1      39.415  34.599  29.663  1.00  0.00     0.016 A 
ATOM     45  C   UNL A   1      40.496  34.192  31.798  1.00  0.00     0.016 A 
ATOM     46  C   UNL A   1      40.643  34.967  29.108  1.00  0.00     0.010 A 
ATOM     47  C   UNL A   1      41.711  34.609  31.257  1.00  0.00     0.010 A 
ATOM     48  C   UNL A   1      41.803  34.951  29.896  1.00  0.00    -0.014 A 
BRANCH  48  49
ATOM     49  C   UNL A   1      43.143  35.022  29.257  1.00  0.00     0.031 A 
ATOM     50  C   UNL A   1      43.701  36.393  28.974  1.00  0.00     0.074 A 
ATOM     51  C   UNL A   1      43.862  33.928  28.950  1.00  0.00     0.049 A 
ATOM     52  N   UNL A   1      44.823  36.740  28.397  1.00  0.00    -0.248 NA
ATOM     53  C   UNL A   1      42.856  37.534  29.366  1.00  0.00     0.031 C 
ATOM     54  C   UNL A   1      43.445  32.542  29.152  1.00  0.00     0.029 A 
ATOM     55  N   UNL A   1      45.115  33.822  28.395  1.00  0.00    -0.354 N 
ATOM     56  C   UNL A   1      44.797  38.126  28.339  1.00  0.00     0.074 A 
ATOM     57  C   UNL A   1      43.519  38.556  28.855  1.00  0.00     0.031 C 
ATOM     58  C   UNL A   1      44.437  31.724  28.754  1.00  0.00     0.029 A 
ATOM     59  C   UNL A   1      45.552  32.528  28.251  1.00  0.00     0.049 A 
ATOM     60  H   UNL A   1      45.652  34.603  28.127  1.00  0.00     0.167 HD
ATOM     61  C   UNL A   1      45.767  38.981  27.942  1.00  0.00     0.037 A 
ATOM     62  C   UNL A   1      46.722  32.056  27.776  1.00  0.00     0.037 A 
ATOM     63  C   UNL A   1      47.059  38.570  27.478  1.00  0.00     0.049 A 
ATOM     64  C   UNL A   1      47.784  33.025  27.316  1.00  0.00     0.074 A 
ATOM     65  C   UNL A   1      48.126  39.356  27.087  1.00  0.00     0.029 A 
ATOM     66  N   UNL A   1      47.463  37.249  27.356  1.00  0.00    -0.354 N 
ATOM     67  N   UNL A   1      47.773  34.337  27.318  1.00  0.00    -0.248 NA
ATOM     68  C   UNL A   1      49.031  32.443  26.795  1.00  0.00     0.031 C 
ATOM     69  C   UNL A   1      49.168  38.510  26.696  1.00  0.00     0.029 A 
ATOM     70  C   UNL A   1      48.763  37.198  26.886  1.00  0.00     0.049 A 
ATOM     71  H   UNL A   1      46.907  36.466  27.570  1.00  0.00     0.167 HD
ATOM     72  C   UNL A   1      49.019  34.733  26.843  1.00  0.00     0.074 A 
ATOM     73  C   UNL A   1      49.764  33.524  26.566  1.00  0.00     0.031 C 
ATOM     74  C   UNL A   1      49.502  35.985  26.654  1.00  0.00     0.037 A 
BRANCH  61  75
ATOM     75  C   UNL A   1      45.449  40.444  28.014  1.00  0.00     0.064 A 
ATOM     76  C   UNL A   1      44.872  41.123  26.929  1.00  0.00     0.173 A 
ATOM     77  C   UNL A   1      45.760  41.184  29.163  1.00  0.00     0.173 A 
ATOM     78  F   UNL A   1      44.581  40.463  25.797  1.00  0.00    -0.203 F 
ATOM     79  C   UNL A   1      44.665  42.498  26.974  1.00  0.00     0.198 A 
ATOM     80  C   UNL A   1      45.517  42.553  29.217  1.00  0.00     0.198 A 
ATOM     81  F   UNL A   1      46.315  40.583  30.226  1.00  0.00    -0.203 F 
ATOM     82  F   UNL A   1      44.188  43.138  25.896  1.00  0.00    -0.200 F 
ATOM     83  C   UNL A   1      44.983  43.211  28.119  1.00  0.00     0.200 A 
ATOM     84  F   UNL A   1      45.820  43.241  30.327  1.00  0.00    -0.200 F 
ATOM     85  F   UNL A   1      44.791  44.537  28.159  1.00  0.00    -0.200 F 
ENDBRANCH  61  75
BRANCH  62  86
ATOM     86  C   UNL A   1      46.991  30.593  27.748  1.00  0.00     0.064 A 
ATOM     87  C   UNL A   1      46.657  29.827  26.621  1.00  0.00     0.173 A 
ATOM     88  C   UNL A   1      47.528  29.922  28.855  1.00  0.00     0.173 A 
ATOM     89  F   UNL A   1      46.109  30.419  25.548  1.00  0.00    -0.203 F 
ATOM     90  C   UNL A   1      46.824  28.444  26.613  1.00  0.00     0.198 A 
ATOM     91  C   UNL A   1      47.719  28.541  28.837  1.00  0.00     0.198 A 
ATOM     92  F   UNL A   1      47.854  30.607  29.961  1.00  0.00    -0.203 F 
ATOM     93  F   UNL A   1      46.439  27.731  25.545  1.00  0.00    -0.200 F 
ATOM     94  C   UNL A   1      47.357  27.802  27.720  1.00  0.00     0.200 A 
ATOM     95  F   UNL A   1      48.234  27.923  29.907  1.00  0.00    -0.200 F 
ATOM     96  F   UNL A   1      47.507  26.470  27.716  1.00  0.00    -0.200 F 
ENDBRANCH  62  86
BRANCH  74  97
ATOM     97  C   UNL A   1      50.922  36.125  26.187  1.00  0.00     0.064 A 
ATOM     98  C   UNL A   1      52.005  36.028  27.072  1.00  0.00     0.173 A 
ATOM     99  C   UNL A   1      51.202  36.284  24.820  1.00  0.00     0.173 A 
ATOM    100  F   UNL A   1      51.789  35.886  28.389  1.00  0.00    -0.203 F 
ATOM    101  C   UNL A   1      53.316  36.104  26.608  1.00  0.00     0.198 A 
ATOM    102  C   UNL A   1      52.514  36.329  24.357  1.00  0.00     0.198 A 
ATOM    103  F   UNL A   1      50.201  36.369  23.931  1.00  0.00    -0.203 F 
ATOM    104  F   UNL A   1      54.335  36.046  27.477  1.00  0.00    -0.200 F 
ATOM    105  C   UNL A   1      53.569  36.245  25.253  1.00  0.00     0.200 A 
ATOM    106  F   UNL A   1      52.757  36.448  23.045  1.00  0.00    -0.200 F 
ATOM    107  F   UNL A   1      54.832  36.302  24.808  1.00  0.00    -0.200 F 
ENDBRANCH  74  97
ENDBRANCH  48  49
ENDBRANCH  41  43
ENDBRANCH  40  41
ENDBRANCH  39  40
ENDBRANCH  38  39
ENDBRANCH  37  38
ENDBRANCH  36  37
ENDBRANCH  35  36
ENDBRANCH  34  35
ENDBRANCH   1  34
TORSDOF 24
ENDMDL
MODEL 3
REMARK VINA RESULT:      -9.2      2.664      4.242
REMARK SMILES Cc1nnc(-c2ccccc2-c2cc(NCC(=O)OCCOCCOCCOCCOC(=O)c3ccc(-c4c5nc(c(-c6c(F)c(F)c(F)c(F)c6F)c6ccc([nH]6)c(-c6c(F)c(F)c(F)c(F)c6F)c6nc(c(-c7c(F)c(F)c(F)c(F)c7F)c7ccc4[nH]7)C=C6)C=C5)cc3)nc3[nH]ccc23)o1
REMARK SMILES IDX 24 1 23 2 22 3 21 4 20 5 19 6 17 7 18 8 16 9 15 10 14 12
REMARK SMILES IDX 12 13 13 14 102 15 98 16 101 17 97 18 99 19 100 20 11 22
REMARK SMILES IDX 6 23 7 24 8 25 10 26 9 27 5 28 1 29 2 30 3 31 103 32 4 33
REMARK SMILES IDX 25 34 26 35 27 36 28 37 29 38 30 39 31 40 32 41 33 42 34 43
REMARK SMILES IDX 35 44 96 45 36 46 95 47 37 48 38 49 39 50 89 51 40 52 94 53
REMARK SMILES IDX 88 54 90 55 41 56 93 57 87 58 86 59 42 61 74 62 54 63 73 64
REMARK SMILES IDX 55 65 58 66 72 67 91 68 56 69 57 70 71 72 92 73 59 74 43 75
REMARK SMILES IDX 44 76 52 77 45 78 46 79 50 80 53 81 47 82 48 83 51 84 49 85
REMARK SMILES IDX 75 86 76 87 84 88 77 89 78 90 82 91 85 92 79 93 80 94 83 95
REMARK SMILES IDX 81 96 60 97 61 98 69 99 62 100 63 101 67 102 70 103 64 104
REMARK SMILES IDX 65 105 68 106 66 107
REMARK H PARENT 15 11 99 21 90 60 58 71
REMARK Flexibility Score: inf
ROOT
ATOM      1  C   UNL A   1      35.872  30.341  29.030  1.00  0.00     0.188 C 
ENDROOT
BRANCH   1   2
ATOM      2  C   UNL A   1      35.763  30.969  27.627  1.00  0.00     0.188 C 
BRANCH   2   3
ATOM      3  O   UNL A   1      34.951  32.133  27.541  1.00  0.00    -0.376 OA
BRANCH   3   4
ATOM      4  C   UNL A   1      33.611  31.966  28.003  1.00  0.00     0.202 C 
BRANCH   4   5
ATOM      5  C   UNL A   1      32.563  31.862  26.885  1.00  0.00     0.261 C 
BRANCH   5   6
ATOM      6  O   UNL A   1      31.760  30.670  26.974  1.00  0.00    -0.462 OA
BRANCH   6   7
ATOM      7  C   UNL A   1      31.712  29.889  25.865  1.00  0.00     0.325 C 
ATOM      8  O   UNL A   1      30.940  30.088  24.929  1.00  0.00    -0.250 OA
BRANCH   7   9
ATOM      9  C   UNL A   1      32.820  28.837  25.803  1.00  0.00     0.237 C 
BRANCH   9  10
ATOM     10  N   UNL A   1      32.830  27.833  26.872  1.00  0.00    -0.359 N 
ATOM     11  H   UNL A   1      32.954  28.116  27.806  1.00  0.00     0.162 HD
BRANCH  10  12
ATOM     12  C   UNL A   1      32.665  26.486  26.575  1.00  0.00     0.129 A 
ATOM     13  C   UNL A   1      33.645  24.405  25.728  1.00  0.00    -0.003 A 
ATOM     14  C   UNL A   1      33.766  25.765  26.086  1.00  0.00     0.056 A 
ATOM     15  C   UNL A   1      32.382  23.821  25.931  1.00  0.00     0.027 A 
ATOM     16  C   UNL A   1      31.384  24.631  26.457  1.00  0.00     0.140 A 
ATOM     17  C   UNL A   1      31.806  22.529  25.757  1.00  0.00     0.030 A 
ATOM     18  N   UNL A   1      31.461  25.929  26.784  1.00  0.00    -0.213 NA
ATOM     19  N   UNL A   1      30.257  23.873  26.605  1.00  0.00    -0.346 N 
ATOM     20  C   UNL A   1      30.494  22.594  26.175  1.00  0.00     0.085 A 
ATOM     21  H   UNL A   1      29.401  24.198  26.967  1.00  0.00     0.167 HD
BRANCH  13  22
ATOM     22  C   UNL A   1      34.751  23.572  25.227  1.00  0.00    -0.005 A 
ATOM     23  C   UNL A   1      35.010  23.416  23.851  1.00  0.00     0.047 A 
ATOM     24  C   UNL A   1      36.090  22.629  23.405  1.00  0.00     0.014 A 
ATOM     25  C   UNL A   1      36.928  22.000  24.317  1.00  0.00     0.001 A 
ATOM     26  C   UNL A   1      35.612  22.918  26.130  1.00  0.00     0.009 A 
ATOM     27  C   UNL A   1      36.688  22.143  25.679  1.00  0.00     0.001 A 
BRANCH  23  28
ATOM     28  C   UNL A   1      34.127  23.985  22.866  1.00  0.00     0.248 A 
ATOM     29  C   UNL A   1      33.029  27.024  21.605  1.00  0.00     0.113 C 
ATOM     30  C   UNL A   1      33.288  25.611  21.832  1.00  0.00     0.213 A 
ATOM     31  N   UNL A   1      32.903  24.538  21.180  1.00  0.00    -0.113 NA
ATOM     32  O   UNL A   1      34.040  25.341  22.931  1.00  0.00    -0.421 OA
ATOM     33  N   UNL A   1      33.467  23.468  21.851  1.00  0.00    -0.108 NA
ENDBRANCH  23  28
ENDBRANCH  13  22
ENDBRANCH  10  12
ENDBRANCH   9  10
ENDBRANCH   7   9
ENDBRANCH   6   7
ENDBRANCH   5   6
ENDBRANCH   4   5
ENDBRANCH   3   4
ENDBRANCH   2   3
ENDBRANCH   1   2
BRANCH   1  34
ATOM     34  O   UNL A   1      36.437  31.071  30.109  1.00  0.00    -0.377 OA
BRANCH  34  35
ATOM     35  C   UNL A   1      35.645  31.324  31.262  1.00  0.00     0.188 C 
BRANCH  35  36
ATOM     36  C   UNL A   1      34.772  32.587  31.329  1.00  0.00     0.188 C 
BRANCH  36  37
ATOM     37  O   UNL A   1      34.081  32.769  32.555  1.00  0.00    -0.376 OA
BRANCH  37  38
ATOM     38  C   UNL A   1      34.292  34.011  33.216  1.00  0.00     0.202 C 
BRANCH  38  39
ATOM     39  C   UNL A   1      35.281  33.942  34.387  1.00  0.00     0.261 C 
BRANCH  39  40
ATOM     40  O   UNL A   1      36.066  32.739  34.432  1.00  0.00    -0.460 OA
BRANCH  40  41
ATOM     41  C   UNL A   1      37.197  32.765  35.173  1.00  0.00     0.338 C 
ATOM     42  O   UNL A   1      37.307  32.719  36.384  1.00  0.00    -0.246 OA
BRANCH  41  43
ATOM     43  C   UNL A   1      38.313  32.710  34.218  1.00  0.00     0.060 A 
ATOM     44  C   UNL A   1      39.542  32.178  34.616  1.00  0.00     0.016 A 
ATOM     45  C   UNL A   1      38.106  33.131  32.905  1.00  0.00     0.016 A 
ATOM     46  C   UNL A   1      40.581  32.070  33.687  1.00  0.00     0.010 A 
ATOM     47  C   UNL A   1      39.127  32.975  31.969  1.00  0.00     0.010 A 
ATOM     48  C   UNL A   1      40.387  32.491  32.364  1.00  0.00    -0.014 A 
BRANCH  48  49
ATOM     49  C   UNL A   1      41.552  32.684  31.461  1.00  0.00     0.031 A 
ATOM     50  C   UNL A   1      42.316  33.976  31.588  1.00  0.00     0.074 A 
ATOM     51  C   UNL A   1      41.945  31.755  30.572  1.00  0.00     0.049 A 
ATOM     52  N   UNL A   1      43.344  34.414  30.906  1.00  0.00    -0.248 NA
ATOM     53  C   UNL A   1      41.829  34.924  32.605  1.00  0.00     0.031 C 
ATOM     54  C   UNL A   1      41.295  30.469  30.330  1.00  0.00     0.029 A 
ATOM     55  N   UNL A   1      43.007  31.762  29.699  1.00  0.00    -0.354 N 
ATOM     56  C   UNL A   1      43.599  35.686  31.397  1.00  0.00     0.074 A 
ATOM     57  C   UNL A   1      42.574  35.989  32.367  1.00  0.00     0.031 C 
ATOM     58  C   UNL A   1      41.989  29.798  29.392  1.00  0.00     0.029 A 
ATOM     59  C   UNL A   1      43.121  30.615  28.954  1.00  0.00     0.049 A 
ATOM     60  H   UNL A   1      43.630  32.520  29.617  1.00  0.00     0.167 HD
ATOM     61  C   UNL A   1      44.625  36.519  31.111  1.00  0.00     0.037 A 
ATOM     62  C   UNL A   1      44.043  30.268  28.033  1.00  0.00     0.037 A 
ATOM     63  C   UNL A   1      45.679  36.210  30.190  1.00  0.00     0.049 A 
ATOM     64  C   UNL A   1      45.169  31.222  27.710  1.00  0.00     0.074 A 
ATOM     65  C   UNL A   1      46.785  36.969  29.856  1.00  0.00     0.029 A 
ATOM     66  N   UNL A   1      45.761  35.033  29.462  1.00  0.00    -0.354 N 
ATOM     67  N   UNL A   1      45.435  32.400  28.221  1.00  0.00    -0.248 NA
ATOM     68  C   UNL A   1      46.131  30.787  26.685  1.00  0.00     0.031 C 
ATOM     69  C   UNL A   1      47.522  36.265  28.900  1.00  0.00     0.029 A 
ATOM     70  C   UNL A   1      46.897  35.048  28.673  1.00  0.00     0.049 A 
ATOM     71  H   UNL A   1      45.108  34.298  29.501  1.00  0.00     0.167 HD
ATOM     72  C   UNL A   1      46.612  32.825  27.614  1.00  0.00     0.074 A 
ATOM     73  C   UNL A   1      47.013  31.777  26.699  1.00  0.00     0.031 C 
ATOM     74  C   UNL A   1      47.300  33.979  27.797  1.00  0.00     0.037 A 
BRANCH  61  75
ATOM     75  C   UNL A   1      44.645  37.837  31.826  1.00  0.00     0.064 A 
ATOM     76  C   UNL A   1      45.256  37.980  33.082  1.00  0.00     0.173 A 
ATOM     77  C   UNL A   1      44.013  38.958  31.270  1.00  0.00     0.173 A 
ATOM     78  F   UNL A   1      45.850  36.929  33.668  1.00  0.00    -0.203 F 
ATOM     79  C   UNL A   1      45.189  39.184  33.777  1.00  0.00     0.198 A 
ATOM     80  C   UNL A   1      43.981  40.170  31.952  1.00  0.00     0.198 A 
ATOM     81  F   UNL A   1      43.412  38.872  30.074  1.00  0.00    -0.203 F 
ATOM     82  F   UNL A   1      45.710  39.274  35.009  1.00  0.00    -0.200 F 
ATOM     83  C   UNL A   1      44.556  40.278  33.210  1.00  0.00     0.200 A 
ATOM     84  F   UNL A   1      43.374  41.230  31.401  1.00  0.00    -0.200 F 
ATOM     85  F   UNL A   1      44.486  41.436  33.882  1.00  0.00    -0.200 F 
ENDBRANCH  61  75
BRANCH  62  86
ATOM     86  C   UNL A   1      43.986  28.938  27.370  1.00  0.00     0.064 A 
ATOM     87  C   UNL A   1      44.846  27.903  27.768  1.00  0.00     0.173 A 
ATOM     88  C   UNL A   1      43.122  28.688  26.295  1.00  0.00     0.173 A 
ATOM     89  F   UNL A   1      45.714  28.104  28.772  1.00  0.00    -0.203 F 
ATOM     90  C   UNL A   1      44.862  26.681  27.100  1.00  0.00     0.198 A 
ATOM     91  C   UNL A   1      43.121  27.456  25.643  1.00  0.00     0.198 A 
ATOM     92  F   UNL A   1      42.288  29.648  25.867  1.00  0.00    -0.203 F 
ATOM     93  F   UNL A   1      45.737  25.733  27.465  1.00  0.00    -0.200 F 
ATOM     94  C   UNL A   1      43.999  26.457  26.039  1.00  0.00     0.200 A 
ATOM     95  F   UNL A   1      42.287  27.242  24.617  1.00  0.00    -0.200 F 
ATOM     96  F   UNL A   1      44.024  25.285  25.389  1.00  0.00    -0.200 F 
ENDBRANCH  62  86
BRANCH  74  97
ATOM     97  C   UNL A   1      48.590  34.152  27.051  1.00  0.00     0.064 A 
ATOM     98  C   UNL A   1      48.666  34.898  25.867  1.00  0.00     0.173 A 
ATOM     99  C   UNL A   1      49.782  33.623  27.573  1.00  0.00     0.173 A 
ATOM    100  F   UNL A   1      47.554  35.415  25.323  1.00  0.00    -0.203 F 
ATOM    101  C   UNL A   1      49.885  35.093  25.222  1.00  0.00     0.198 A 
ATOM    102  C   UNL A   1      51.002  33.845  26.941  1.00  0.00     0.198 A 
ATOM    103  F   UNL A   1      49.765  32.911  28.710  1.00  0.00    -0.203 F 
ATOM    104  F   UNL A   1      49.928  35.779  24.071  1.00  0.00    -0.200 F 
ATOM    105  C   UNL A   1      51.051  34.575  25.763  1.00  0.00     0.200 A 
ATOM    106  F   UNL A   1      52.131  33.358  27.475  1.00  0.00    -0.200 F 
ATOM    107  F   UNL A   1      52.225  34.777  25.148  1.00  0.00    -0.200 F 
ENDBRANCH  74  97
ENDBRANCH  48  49
ENDBRANCH  41  43
ENDBRANCH  40  41
ENDBRANCH  39  40
ENDBRANCH  38  39
ENDBRANCH  37  38
ENDBRANCH  36  37
ENDBRANCH  35  36
ENDBRANCH  34  35
ENDBRANCH   1  34
TORSDOF 24
ENDMDL
