MODEL 1
REMARK VINA RESULT:     -11.1      0.000      0.000
REMARK SMILES O=C(OCCOCCOCCOCCOC(=O)c1cccnc1Nc1cccc(C(F)(F)F)c1)c1ccc(-c2c3nc(c(-c4c(F)c(F)c(F)c(F)c4F)c4ccc([nH]4)c(-c4c(F)c(F)c(F)c(F)c4F)c4nc(c(-c5c(F)c(F)c(F)c(F)c5F)c5ccc2[nH]5)C=C4)C=C3)cc1
REMARK SMILES IDX 10 1 9 2 8 3 7 4 6 5 5 6 4 7 3 8 2 9 1 10 35 11 36 12 97 13
REMARK SMILES IDX 37 14 96 15 38 16 39 17 40 18 90 19 41 20 95 21 89 22 91 23
REMARK SMILES IDX 42 24 94 25 88 26 87 27 43 29 75 30 55 31 74 32 56 33 59 34
REMARK SMILES IDX 73 35 92 36 57 37 58 38 72 40 93 41 60 42 44 43 45 44 53 45
REMARK SMILES IDX 46 46 47 47 51 48 54 49 48 50 49 51 52 52 50 53 76 54 77 55
REMARK SMILES IDX 85 56 78 57 79 58 83 59 86 60 80 61 81 62 84 63 82 64 61 65
REMARK SMILES IDX 62 66 70 67 63 68 64 69 68 70 71 71 65 72 66 73 69 74 67 75
REMARK SMILES IDX 11 76 12 77 13 78 14 79 15 80 16 81 17 82 18 83 19 84 23 85
REMARK SMILES IDX 20 86 22 87 21 88 24 89 25 91 26 92 34 93 27 94 29 95 28 96
REMARK SMILES IDX 30 97 31 98 32 99 33 100
REMARK H PARENT 91 28 59 39 24 90
REMARK Flexibility Score: inf
ROOT
ATOM      1  C   UNL A   1      33.667  28.648  22.325  1.00  0.00     0.188 C 
ENDROOT
BRANCH   1   2
ATOM      2  O   UNL A   1      32.450  29.379  22.292  1.00  0.00    -0.377 OA
BRANCH   2   3
ATOM      3  C   UNL A   1      31.285  28.667  22.692  1.00  0.00     0.188 C 
BRANCH   3   4
ATOM      4  C   UNL A   1      30.703  29.076  24.045  1.00  0.00     0.188 C 
BRANCH   4   5
ATOM      5  O   UNL A   1      31.062  28.151  25.073  1.00  0.00    -0.376 OA
BRANCH   5   6
ATOM      6  C   UNL A   1      31.835  28.646  26.165  1.00  0.00     0.202 C 
BRANCH   6   7
ATOM      7  C   UNL A   1      32.570  29.957  25.916  1.00  0.00     0.261 C 
BRANCH   7   8
ATOM      8  O   UNL A   1      32.610  30.824  27.051  1.00  0.00    -0.460 OA
BRANCH   8   9
ATOM      9  C   UNL A   1      33.609  31.621  27.490  1.00  0.00     0.338 C 
ATOM     10  O   UNL A   1      33.435  32.838  27.429  1.00  0.00    -0.246 OA
BRANCH   9  11
ATOM     11  C   UNL A   1      34.922  31.150  28.035  1.00  0.00     0.060 A 
ATOM     12  C   UNL A   1      35.252  29.845  28.413  1.00  0.00     0.016 A 
ATOM     13  C   UNL A   1      35.938  32.119  28.086  1.00  0.00     0.016 A 
ATOM     14  C   UNL A   1      36.527  29.498  28.829  1.00  0.00     0.010 A 
ATOM     15  C   UNL A   1      37.217  31.796  28.534  1.00  0.00     0.010 A 
ATOM     16  C   UNL A   1      37.494  30.485  28.932  1.00  0.00    -0.014 A 
BRANCH  16  17
ATOM     17  C   UNL A   1      38.677  30.183  29.740  1.00  0.00     0.031 A 
ATOM     18  C   UNL A   1      39.702  29.303  29.105  1.00  0.00     0.074 A 
ATOM     19  C   UNL A   1      38.860  30.771  30.930  1.00  0.00     0.049 A 
ATOM     20  N   UNL A   1      40.724  28.697  29.634  1.00  0.00    -0.248 NA
ATOM     21  C   UNL A   1      39.545  29.072  27.657  1.00  0.00     0.031 C 
ATOM     22  C   UNL A   1      37.987  31.793  31.509  1.00  0.00     0.029 A 
ATOM     23  N   UNL A   1      39.840  30.590  31.861  1.00  0.00    -0.354 N 
ATOM     24  C   UNL A   1      41.288  27.960  28.602  1.00  0.00     0.074 A 
ATOM     25  C   UNL A   1      40.510  28.204  27.413  1.00  0.00     0.031 C 
ATOM     26  C   UNL A   1      38.459  32.129  32.720  1.00  0.00     0.029 A 
ATOM     27  C   UNL A   1      39.605  31.279  33.023  1.00  0.00     0.049 A 
ATOM     28  H   UNL A   1      40.634  30.026  31.715  1.00  0.00     0.167 HD
ATOM     29  C   UNL A   1      42.352  27.131  28.676  1.00  0.00     0.037 A 
ATOM     30  C   UNL A   1      40.212  31.154  34.216  1.00  0.00     0.037 A 
ATOM     31  C   UNL A   1      43.076  26.937  29.901  1.00  0.00     0.049 A 
ATOM     32  C   UNL A   1      41.326  30.147  34.319  1.00  0.00     0.074 A 
ATOM     33  C   UNL A   1      44.134  26.092  30.165  1.00  0.00     0.029 A 
ATOM     34  N   UNL A   1      42.791  27.616  31.083  1.00  0.00    -0.354 N 
ATOM     35  N   UNL A   1      41.811  29.357  33.386  1.00  0.00    -0.248 NA
ATOM     36  C   UNL A   1      41.967  29.994  35.628  1.00  0.00     0.031 C 
ATOM     37  C   UNL A   1      44.445  26.215  31.524  1.00  0.00     0.029 A 
ATOM     38  C   UNL A   1      43.637  27.195  32.089  1.00  0.00     0.049 A 
ATOM     39  H   UNL A   1      42.088  28.299  31.186  1.00  0.00     0.167 HD
ATOM     40  C   UNL A   1      42.834  28.636  33.980  1.00  0.00     0.074 A 
ATOM     41  C   UNL A   1      42.894  29.082  35.362  1.00  0.00     0.031 C 
ATOM     42  C   UNL A   1      43.656  27.699  33.442  1.00  0.00     0.037 A 
BRANCH  29  43
ATOM     43  C   UNL A   1      42.670  26.321  27.453  1.00  0.00     0.064 A 
ATOM     44  C   UNL A   1      42.058  25.086  27.183  1.00  0.00     0.173 A 
ATOM     45  C   UNL A   1      43.689  26.744  26.585  1.00  0.00     0.173 A 
ATOM     46  F   UNL A   1      41.103  24.614  27.999  1.00  0.00    -0.203 F 
ATOM     47  C   UNL A   1      42.493  24.282  26.130  1.00  0.00     0.198 A 
ATOM     48  C   UNL A   1      44.095  25.956  25.511  1.00  0.00     0.198 A 
ATOM     49  F   UNL A   1      44.319  27.909  26.798  1.00  0.00    -0.203 F 
ATOM     50  F   UNL A   1      41.961  23.064  25.955  1.00  0.00    -0.200 F 
ATOM     51  C   UNL A   1      43.510  24.719  25.295  1.00  0.00     0.200 A 
ATOM     52  F   UNL A   1      45.077  26.381  24.704  1.00  0.00    -0.200 F 
ATOM     53  F   UNL A   1      43.943  23.936  24.297  1.00  0.00    -0.200 F 
ENDBRANCH  29  43
BRANCH  30  54
ATOM     54  C   UNL A   1      39.722  31.940  35.379  1.00  0.00     0.064 A 
ATOM     55  C   UNL A   1      40.196  33.231  35.636  1.00  0.00     0.173 A 
ATOM     56  C   UNL A   1      38.721  31.435  36.226  1.00  0.00     0.173 A 
ATOM     57  F   UNL A   1      41.160  33.757  34.865  1.00  0.00    -0.203 F 
ATOM     58  C   UNL A   1      39.691  33.987  36.694  1.00  0.00     0.198 A 
ATOM     59  C   UNL A   1      38.197  32.201  37.265  1.00  0.00     0.198 A 
ATOM     60  F   UNL A   1      38.226  30.205  36.024  1.00  0.00    -0.203 F 
ATOM     61  F   UNL A   1      40.178  35.212  36.932  1.00  0.00    -0.200 F 
ATOM     62  C   UNL A   1      38.685  33.475  37.501  1.00  0.00     0.200 A 
ATOM     63  F   UNL A   1      37.211  31.709  38.028  1.00  0.00    -0.200 F 
ATOM     64  F   UNL A   1      38.188  34.210  38.505  1.00  0.00    -0.200 F 
ENDBRANCH  30  54
BRANCH  42  65
ATOM     65  C   UNL A   1      44.731  27.151  34.328  1.00  0.00     0.064 A 
ATOM     66  C   UNL A   1      44.553  25.976  35.068  1.00  0.00     0.173 A 
ATOM     67  C   UNL A   1      45.997  27.758  34.335  1.00  0.00     0.173 A 
ATOM     68  F   UNL A   1      43.356  25.371  35.100  1.00  0.00    -0.203 F 
ATOM     69  C   UNL A   1      45.607  25.428  35.791  1.00  0.00     0.198 A 
ATOM     70  C   UNL A   1      47.055  27.189  35.030  1.00  0.00     0.198 A 
ATOM     71  F   UNL A   1      46.213  28.880  33.631  1.00  0.00    -0.203 F 
ATOM     72  F   UNL A   1      45.413  24.318  36.516  1.00  0.00    -0.200 F 
ATOM     73  C   UNL A   1      46.860  26.026  35.759  1.00  0.00     0.200 A 
ATOM     74  F   UNL A   1      48.269  27.754  34.978  1.00  0.00    -0.200 F 
ATOM     75  F   UNL A   1      47.881  25.478  36.430  1.00  0.00    -0.200 F 
ENDBRANCH  42  65
ENDBRANCH  16  17
ENDBRANCH   9  11
ENDBRANCH   8   9
ENDBRANCH   7   8
ENDBRANCH   6   7
ENDBRANCH   5   6
ENDBRANCH   4   5
ENDBRANCH   3   4
ENDBRANCH   2   3
ENDBRANCH   1   2
BRANCH   1  76
ATOM     76  C   UNL A   1      33.598  27.122  22.606  1.00  0.00     0.188 C 
BRANCH  76  77
ATOM     77  O   UNL A   1      33.524  26.340  21.442  1.00  0.00    -0.376 OA
BRANCH  77  78
ATOM     78  C   UNL A   1      32.916  25.068  21.558  1.00  0.00     0.202 C 
BRANCH  78  79
ATOM     79  C   UNL A   1      33.461  23.944  22.473  1.00  0.00     0.261 C 
BRANCH  79  80
ATOM     80  O   UNL A   1      34.874  23.848  22.746  1.00  0.00    -0.460 OA
BRANCH  80  81
ATOM     81  C   UNL A   1      35.332  23.610  24.000  1.00  0.00     0.341 C 
ATOM     82  O   UNL A   1      36.493  23.393  24.310  1.00  0.00    -0.246 OA
BRANCH  81  83
ATOM     83  C   UNL A   1      34.190  23.732  24.951  1.00  0.00     0.102 A 
ATOM     84  C   UNL A   1      33.843  25.024  25.372  1.00  0.00     0.021 A 
ATOM     85  C   UNL A   1      33.490  22.632  25.497  1.00  0.00     0.144 A 
ATOM     86  C   UNL A   1      32.780  25.200  26.248  1.00  0.00     0.021 A 
ATOM     87  N   UNL A   1      32.412  22.821  26.299  1.00  0.00    -0.238 NA
ATOM     88  C   UNL A   1      32.078  24.080  26.650  1.00  0.00     0.113 A 
BRANCH  85  89
ATOM     89  N   UNL A   1      34.008  21.319  25.457  1.00  0.00    -0.340 N 
ATOM     90  H   UNL A   1      34.789  21.153  26.031  1.00  0.00     0.168 HD
BRANCH  89  91
ATOM     91  C   UNL A   1      33.557  20.211  24.707  1.00  0.00     0.040 A 
ATOM     92  C   UNL A   1      32.719  20.403  23.594  1.00  0.00     0.026 A 
ATOM     93  C   UNL A   1      33.913  18.911  25.057  1.00  0.00     0.039 A 
ATOM     94  C   UNL A   1      32.213  19.319  22.874  1.00  0.00     0.003 A 
ATOM     95  C   UNL A   1      33.392  17.808  24.358  1.00  0.00     0.058 A 
ATOM     96  C   UNL A   1      32.537  18.024  23.265  1.00  0.00     0.013 A 
BRANCH  95  97
ATOM     97  C   UNL A   1      33.723  16.401  24.783  1.00  0.00     0.416 C 
ATOM     98  F   UNL A   1      33.499  16.198  26.111  1.00  0.00    -0.166 F 
ATOM     99  F   UNL A   1      32.970  15.471  24.134  1.00  0.00    -0.166 F 
ATOM    100  F   UNL A   1      35.021  16.051  24.568  1.00  0.00    -0.166 F 
ENDBRANCH  95  97
ENDBRANCH  89  91
ENDBRANCH  85  89
ENDBRANCH  81  83
ENDBRANCH  80  81
ENDBRANCH  79  80
ENDBRANCH  78  79
ENDBRANCH  77  78
ENDBRANCH  76  77
ENDBRANCH   1  76
TORSDOF 23
ENDMDL
MODEL 2
REMARK VINA RESULT:     -11.1      1.206      2.187
REMARK SMILES O=C(OCCOCCOCCOCCOC(=O)c1cccnc1Nc1cccc(C(F)(F)F)c1)c1ccc(-c2c3nc(c(-c4c(F)c(F)c(F)c(F)c4F)c4ccc([nH]4)c(-c4c(F)c(F)c(F)c(F)c4F)c4nc(c(-c5c(F)c(F)c(F)c(F)c5F)c5ccc2[nH]5)C=C4)C=C3)cc1
REMARK SMILES IDX 10 1 9 2 8 3 7 4 6 5 5 6 4 7 3 8 2 9 1 10 35 11 36 12 97 13
REMARK SMILES IDX 37 14 96 15 38 16 39 17 40 18 90 19 41 20 95 21 89 22 91 23
REMARK SMILES IDX 42 24 94 25 88 26 87 27 43 29 75 30 55 31 74 32 56 33 59 34
REMARK SMILES IDX 73 35 92 36 57 37 58 38 72 40 93 41 60 42 44 43 45 44 53 45
REMARK SMILES IDX 46 46 47 47 51 48 54 49 48 50 49 51 52 52 50 53 76 54 77 55
REMARK SMILES IDX 85 56 78 57 79 58 83 59 86 60 80 61 81 62 84 63 82 64 61 65
REMARK SMILES IDX 62 66 70 67 63 68 64 69 68 70 71 71 65 72 66 73 69 74 67 75
REMARK SMILES IDX 11 76 12 77 13 78 14 79 15 80 16 81 17 82 18 83 19 84 23 85
REMARK SMILES IDX 20 86 22 87 21 88 24 89 25 91 26 92 34 93 27 94 29 95 28 96
REMARK SMILES IDX 30 97 31 98 32 99 33 100
REMARK H PARENT 91 28 59 39 24 90
REMARK Flexibility Score: inf
ROOT
ATOM      1  C   UNL A   1      31.867  26.028  21.717  1.00  0.00     0.188 C 
ENDROOT
BRANCH   1   2
ATOM      2  O   UNL A   1      32.591  27.175  22.137  1.00  0.00    -0.377 OA
BRANCH   2   3
ATOM      3  C   UNL A   1      33.276  27.058  23.379  1.00  0.00     0.188 C 
BRANCH   3   4
ATOM      4  C   UNL A   1      33.270  28.317  24.247  1.00  0.00     0.188 C 
BRANCH   4   5
ATOM      5  O   UNL A   1      32.158  28.332  25.144  1.00  0.00    -0.376 OA
BRANCH   5   6
ATOM      6  C   UNL A   1      31.765  29.592  25.684  1.00  0.00     0.202 C 
BRANCH   6   7
ATOM      7  C   UNL A   1      32.511  30.039  26.935  1.00  0.00     0.261 C 
BRANCH   7   8
ATOM      8  O   UNL A   1      33.218  31.272  26.778  1.00  0.00    -0.460 OA
BRANCH   8   9
ATOM      9  C   UNL A   1      34.007  31.928  27.658  1.00  0.00     0.338 C 
ATOM     10  O   UNL A   1      33.672  33.068  27.982  1.00  0.00    -0.246 OA
BRANCH   9  11
ATOM     11  C   UNL A   1      35.266  31.391  28.264  1.00  0.00     0.060 A 
ATOM     12  C   UNL A   1      35.505  30.077  28.673  1.00  0.00     0.016 A 
ATOM     13  C   UNL A   1      36.334  32.302  28.345  1.00  0.00     0.016 A 
ATOM     14  C   UNL A   1      36.740  29.664  29.147  1.00  0.00     0.010 A 
ATOM     15  C   UNL A   1      37.573  31.914  28.850  1.00  0.00     0.010 A 
ATOM     16  C   UNL A   1      37.757  30.596  29.278  1.00  0.00    -0.014 A 
BRANCH  16  17
ATOM     17  C   UNL A   1      38.886  30.240  30.139  1.00  0.00     0.031 A 
ATOM     18  C   UNL A   1      39.902  29.320  29.548  1.00  0.00     0.074 A 
ATOM     19  C   UNL A   1      39.036  30.814  31.340  1.00  0.00     0.049 A 
ATOM     20  N   UNL A   1      40.871  28.668  30.122  1.00  0.00    -0.248 NA
ATOM     21  C   UNL A   1      39.805  29.102  28.092  1.00  0.00     0.031 C 
ATOM     22  C   UNL A   1      38.181  31.870  31.884  1.00  0.00     0.029 A 
ATOM     23  N   UNL A   1      39.963  30.588  32.316  1.00  0.00    -0.354 N 
ATOM     24  C   UNL A   1      41.451  27.913  29.112  1.00  0.00     0.074 A 
ATOM     25  C   UNL A   1      40.742  28.195  27.889  1.00  0.00     0.031 C 
ATOM     26  C   UNL A   1      38.609  32.181  33.118  1.00  0.00     0.029 A 
ATOM     27  C   UNL A   1      39.702  31.281  33.470  1.00  0.00     0.049 A 
ATOM     28  H   UNL A   1      40.738  29.990  32.204  1.00  0.00     0.167 HD
ATOM     29  C   UNL A   1      42.474  27.038  29.232  1.00  0.00     0.037 A 
ATOM     30  C   UNL A   1      40.245  31.124  34.690  1.00  0.00     0.037 A 
ATOM     31  C   UNL A   1      43.130  26.807  30.488  1.00  0.00     0.049 A 
ATOM     32  C   UNL A   1      41.309  30.070  34.839  1.00  0.00     0.074 A 
ATOM     33  C   UNL A   1      44.137  25.917  30.797  1.00  0.00     0.029 A 
ATOM     34  N   UNL A   1      42.818  27.493  31.660  1.00  0.00    -0.354 N 
ATOM     35  N   UNL A   1      41.804  29.265  33.925  1.00  0.00    -0.248 NA
ATOM     36  C   UNL A   1      41.879  29.884  36.176  1.00  0.00     0.031 C 
ATOM     37  C   UNL A   1      44.388  26.021  32.170  1.00  0.00     0.029 A 
ATOM     38  C   UNL A   1      43.597  27.032  32.702  1.00  0.00     0.049 A 
ATOM     39  H   UNL A   1      42.141  28.205  31.734  1.00  0.00     0.167 HD
ATOM     40  C   UNL A   1      42.766  28.498  34.563  1.00  0.00     0.074 A 
ATOM     41  C   UNL A   1      42.779  28.934  35.948  1.00  0.00     0.031 C 
ATOM     42  C   UNL A   1      43.572  27.529  34.058  1.00  0.00     0.037 A 
BRANCH  29  43
ATOM     43  C   UNL A   1      42.816  26.220  28.020  1.00  0.00     0.064 A 
ATOM     44  C   UNL A   1      43.795  26.614  27.093  1.00  0.00     0.173 A 
ATOM     45  C   UNL A   1      42.070  25.068  27.727  1.00  0.00     0.173 A 
ATOM     46  F   UNL A   1      44.515  27.727  27.303  1.00  0.00    -0.203 F 
ATOM     47  C   UNL A   1      43.973  25.921  25.897  1.00  0.00     0.198 A 
ATOM     48  C   UNL A   1      42.276  24.356  26.547  1.00  0.00     0.198 A 
ATOM     49  F   UNL A   1      41.112  24.650  28.567  1.00  0.00    -0.203 F 
ATOM     50  F   UNL A   1      44.843  26.375  24.984  1.00  0.00    -0.200 F 
ATOM     51  C   UNL A   1      43.213  24.793  25.626  1.00  0.00     0.200 A 
ATOM     52  F   UNL A   1      41.542  23.265  26.289  1.00  0.00    -0.200 F 
ATOM     53  F   UNL A   1      43.369  24.141  24.465  1.00  0.00    -0.200 F 
ENDBRANCH  29  43
BRANCH  30  54
ATOM     54  C   UNL A   1      39.734  31.926  35.832  1.00  0.00     0.064 A 
ATOM     55  C   UNL A   1      38.582  31.545  36.531  1.00  0.00     0.173 A 
ATOM     56  C   UNL A   1      40.424  33.062  36.287  1.00  0.00     0.173 A 
ATOM     57  F   UNL A   1      37.879  30.475  36.131  1.00  0.00    -0.203 F 
ATOM     58  C   UNL A   1      38.139  32.268  37.638  1.00  0.00     0.198 A 
ATOM     59  C   UNL A   1      39.997  33.767  37.411  1.00  0.00     0.198 A 
ATOM     60  F   UNL A   1      41.536  33.471  35.659  1.00  0.00    -0.203 F 
ATOM     61  F   UNL A   1      37.022  31.896  38.276  1.00  0.00    -0.200 F 
ATOM     62  C   UNL A   1      38.853  33.372  38.084  1.00  0.00     0.200 A 
ATOM     63  F   UNL A   1      40.702  34.820  37.848  1.00  0.00    -0.200 F 
ATOM     64  F   UNL A   1      38.436  34.054  39.159  1.00  0.00    -0.200 F 
ENDBRANCH  30  54
BRANCH  42  65
ATOM     65  C   UNL A   1      44.580  26.931  34.991  1.00  0.00     0.064 A 
ATOM     66  C   UNL A   1      44.279  25.826  35.796  1.00  0.00     0.173 A 
ATOM     67  C   UNL A   1      45.899  27.410  34.981  1.00  0.00     0.173 A 
ATOM     68  F   UNL A   1      43.028  25.345  35.844  1.00  0.00    -0.203 F 
ATOM     69  C   UNL A   1      45.267  25.221  36.565  1.00  0.00     0.198 A 
ATOM     70  C   UNL A   1      46.889  26.782  35.724  1.00  0.00     0.198 A 
ATOM     71  F   UNL A   1      46.231  28.461  34.216  1.00  0.00    -0.203 F 
ATOM     72  F   UNL A   1      44.957  24.181  37.351  1.00  0.00    -0.200 F 
ATOM     73  C   UNL A   1      46.573  25.689  36.516  1.00  0.00     0.200 A 
ATOM     74  F   UNL A   1      48.154  27.221  35.657  1.00  0.00    -0.200 F 
ATOM     75  F   UNL A   1      47.529  25.084  37.233  1.00  0.00    -0.200 F 
ENDBRANCH  42  65
ENDBRANCH  16  17
ENDBRANCH   9  11
ENDBRANCH   8   9
ENDBRANCH   7   8
ENDBRANCH   6   7
ENDBRANCH   5   6
ENDBRANCH   4   5
ENDBRANCH   3   4
ENDBRANCH   2   3
ENDBRANCH   1   2
BRANCH   1  76
ATOM     76  C   UNL A   1      32.100  24.694  22.478  1.00  0.00     0.188 C 
BRANCH  76  77
ATOM     77  O   UNL A   1      30.935  24.171  23.062  1.00  0.00    -0.376 OA
BRANCH  77  78
ATOM     78  C   UNL A   1      30.356  24.913  24.120  1.00  0.00     0.202 C 
BRANCH  78  79
ATOM     79  C   UNL A   1      30.718  24.696  25.610  1.00  0.00     0.261 C 
BRANCH  79  80
ATOM     80  O   UNL A   1      30.984  23.369  26.109  1.00  0.00    -0.460 OA
BRANCH  80  81
ATOM     81  C   UNL A   1      32.142  23.080  26.754  1.00  0.00     0.341 C 
ATOM     82  O   UNL A   1      32.243  22.698  27.909  1.00  0.00    -0.246 OA
BRANCH  81  83
ATOM     83  C   UNL A   1      33.269  23.238  25.791  1.00  0.00     0.102 A 
ATOM     84  C   UNL A   1      34.094  24.361  25.951  1.00  0.00     0.021 A 
ATOM     85  C   UNL A   1      33.512  22.371  24.702  1.00  0.00     0.144 A 
ATOM     86  C   UNL A   1      35.168  24.556  25.090  1.00  0.00     0.021 A 
ATOM     87  N   UNL A   1      34.602  22.535  23.910  1.00  0.00    -0.238 NA
ATOM     88  C   UNL A   1      35.400  23.603  24.118  1.00  0.00     0.113 A 
BRANCH  85  89
ATOM     89  N   UNL A   1      32.532  21.473  24.226  1.00  0.00    -0.340 N 
ATOM     90  H   UNL A   1      31.606  21.805  24.244  1.00  0.00     0.168 HD
BRANCH  89  91
ATOM     91  C   UNL A   1      32.698  20.163  23.727  1.00  0.00     0.040 A 
ATOM     92  C   UNL A   1      32.143  19.801  22.487  1.00  0.00     0.026 A 
ATOM     93  C   UNL A   1      33.396  19.199  24.452  1.00  0.00     0.039 A 
ATOM     94  C   UNL A   1      32.244  18.495  22.002  1.00  0.00     0.003 A 
ATOM     95  C   UNL A   1      33.485  17.874  23.990  1.00  0.00     0.058 A 
ATOM     96  C   UNL A   1      32.901  17.531  22.760  1.00  0.00     0.013 A 
BRANCH  95  97
ATOM     97  C   UNL A   1      34.180  16.819  24.810  1.00  0.00     0.416 C 
ATOM     98  F   UNL A   1      33.473  16.486  25.926  1.00  0.00    -0.166 F 
ATOM     99  F   UNL A   1      34.353  15.657  24.121  1.00  0.00    -0.166 F 
ATOM    100  F   UNL A   1      35.416  17.185  25.247  1.00  0.00    -0.166 F 
ENDBRANCH  95  97
ENDBRANCH  89  91
ENDBRANCH  85  89
ENDBRANCH  81  83
ENDBRANCH  80  81
ENDBRANCH  79  80
ENDBRANCH  78  79
ENDBRANCH  77  78
ENDBRANCH  76  77
ENDBRANCH   1  76
TORSDOF 23
ENDMDL
MODEL 3
REMARK VINA RESULT:     -10.9      2.731      8.357
REMARK SMILES O=C(OCCOCCOCCOCCOC(=O)c1cccnc1Nc1cccc(C(F)(F)F)c1)c1ccc(-c2c3nc(c(-c4c(F)c(F)c(F)c(F)c4F)c4ccc([nH]4)c(-c4c(F)c(F)c(F)c(F)c4F)c4nc(c(-c5c(F)c(F)c(F)c(F)c5F)c5ccc2[nH]5)C=C4)C=C3)cc1
REMARK SMILES IDX 10 1 9 2 8 3 7 4 6 5 5 6 4 7 3 8 2 9 1 10 35 11 36 12 97 13
REMARK SMILES IDX 37 14 96 15 38 16 39 17 40 18 90 19 41 20 95 21 89 22 91 23
REMARK SMILES IDX 42 24 94 25 88 26 87 27 43 29 75 30 55 31 74 32 56 33 59 34
REMARK SMILES IDX 73 35 92 36 57 37 58 38 72 40 93 41 60 42 44 43 45 44 53 45
REMARK SMILES IDX 46 46 47 47 51 48 54 49 48 50 49 51 52 52 50 53 76 54 77 55
REMARK SMILES IDX 85 56 78 57 79 58 83 59 86 60 80 61 81 62 84 63 82 64 61 65
REMARK SMILES IDX 62 66 70 67 63 68 64 69 68 70 71 71 65 72 66 73 69 74 67 75
REMARK SMILES IDX 11 76 12 77 13 78 14 79 15 80 16 81 17 82 18 83 19 84 23 85
REMARK SMILES IDX 20 86 22 87 21 88 24 89 25 91 26 92 34 93 27 94 29 95 28 96
REMARK SMILES IDX 30 97 31 98 32 99 33 100
REMARK H PARENT 91 28 59 39 24 90
REMARK Flexibility Score: inf
ROOT
ATOM      1  C   UNL A   1      35.146  31.708  28.133  1.00  0.00     0.188 C 
ENDROOT
BRANCH   1   2
ATOM      2  O   UNL A   1      34.539  32.490  29.151  1.00  0.00    -0.377 OA
BRANCH   2   3
ATOM      3  C   UNL A   1      33.683  33.535  28.707  1.00  0.00     0.188 C 
BRANCH   3   4
ATOM      4  C   UNL A   1      34.347  34.594  27.828  1.00  0.00     0.188 C 
BRANCH   4   5
ATOM      5  O   UNL A   1      34.222  35.900  28.392  1.00  0.00    -0.376 OA
BRANCH   5   6
ATOM      6  C   UNL A   1      33.051  36.178  29.157  1.00  0.00     0.202 C 
BRANCH   6   7
ATOM      7  C   UNL A   1      33.115  37.418  30.040  1.00  0.00     0.261 C 
BRANCH   7   8
ATOM      8  O   UNL A   1      32.783  37.172  31.409  1.00  0.00    -0.460 OA
BRANCH   8   9
ATOM      9  C   UNL A   1      32.653  35.997  32.065  1.00  0.00     0.338 C 
ATOM     10  O   UNL A   1      31.558  35.744  32.568  1.00  0.00    -0.246 OA
BRANCH   9  11
ATOM     11  C   UNL A   1      33.735  34.978  32.245  1.00  0.00     0.060 A 
ATOM     12  C   UNL A   1      33.574  33.643  32.625  1.00  0.00     0.016 A 
ATOM     13  C   UNL A   1      35.031  35.408  31.913  1.00  0.00     0.016 A 
ATOM     14  C   UNL A   1      34.638  32.759  32.683  1.00  0.00     0.010 A 
ATOM     15  C   UNL A   1      36.119  34.542  31.997  1.00  0.00     0.010 A 
ATOM     16  C   UNL A   1      35.916  33.224  32.413  1.00  0.00    -0.014 A 
BRANCH  16  17
ATOM     17  C   UNL A   1      37.038  32.400  32.867  1.00  0.00     0.031 A 
ATOM     18  C   UNL A   1      37.555  32.688  34.237  1.00  0.00     0.074 A 
ATOM     19  C   UNL A   1      37.478  31.376  32.124  1.00  0.00     0.049 A 
ATOM     20  N   UNL A   1      38.649  32.288  34.817  1.00  0.00    -0.248 NA
ATOM     21  C   UNL A   1      36.711  33.561  35.074  1.00  0.00     0.031 C 
ATOM     22  C   UNL A   1      36.877  30.925  30.868  1.00  0.00     0.029 A 
ATOM     23  N   UNL A   1      38.532  30.532  32.321  1.00  0.00    -0.354 N 
ATOM     24  C   UNL A   1      38.657  32.915  36.055  1.00  0.00     0.074 A 
ATOM     25  C   UNL A   1      37.457  33.708  36.154  1.00  0.00     0.031 C 
ATOM     26  C   UNL A   1      37.596  29.898  30.388  1.00  0.00     0.029 A 
ATOM     27  C   UNL A   1      38.749  29.692  31.259  1.00  0.00     0.049 A 
ATOM     28  H   UNL A   1      39.080  30.526  33.140  1.00  0.00     0.167 HD
ATOM     29  C   UNL A   1      39.618  32.840  37.002  1.00  0.00     0.037 A 
ATOM     30  C   UNL A   1      39.814  28.915  31.001  1.00  0.00     0.037 A 
ATOM     31  C   UNL A   1      40.790  32.029  36.829  1.00  0.00     0.049 A 
ATOM     32  C   UNL A   1      40.932  28.922  32.011  1.00  0.00     0.074 A 
ATOM     33  C   UNL A   1      41.884  31.887  37.657  1.00  0.00     0.029 A 
ATOM     34  N   UNL A   1      41.010  31.216  35.719  1.00  0.00    -0.354 N 
ATOM     35  N   UNL A   1      41.015  29.589  33.141  1.00  0.00    -0.248 NA
ATOM     36  C   UNL A   1      42.103  28.094  31.713  1.00  0.00     0.031 C 
ATOM     37  C   UNL A   1      42.794  31.038  37.017  1.00  0.00     0.029 A 
ATOM     38  C   UNL A   1      42.233  30.585  35.828  1.00  0.00     0.049 A 
ATOM     39  H   UNL A   1      40.384  31.106  34.967  1.00  0.00     0.167 HD
ATOM     40  C   UNL A   1      42.230  29.240  33.709  1.00  0.00     0.074 A 
ATOM     41  C   UNL A   1      42.852  28.303  32.789  1.00  0.00     0.031 C 
ATOM     42  C   UNL A   1      42.784  29.643  34.881  1.00  0.00     0.037 A 
BRANCH  29  43
ATOM     43  C   UNL A   1      39.471  33.743  38.193  1.00  0.00     0.064 A 
ATOM     44  C   UNL A   1      38.785  33.355  39.356  1.00  0.00     0.173 A 
ATOM     45  C   UNL A   1      39.939  35.064  38.125  1.00  0.00     0.173 A 
ATOM     46  F   UNL A   1      38.284  32.115  39.462  1.00  0.00    -0.203 F 
ATOM     47  C   UNL A   1      38.524  34.269  40.375  1.00  0.00     0.198 A 
ATOM     48  C   UNL A   1      39.710  35.965  39.162  1.00  0.00     0.198 A 
ATOM     49  F   UNL A   1      40.591  35.497  37.035  1.00  0.00    -0.203 F 
ATOM     50  F   UNL A   1      37.780  33.902  41.428  1.00  0.00    -0.200 F 
ATOM     51  C   UNL A   1      38.987  35.573  40.277  1.00  0.00     0.200 A 
ATOM     52  F   UNL A   1      40.161  37.223  39.066  1.00  0.00    -0.200 F 
ATOM     53  F   UNL A   1      38.716  36.457  41.247  1.00  0.00    -0.200 F 
ENDBRANCH  29  43
BRANCH  30  54
ATOM     54  C   UNL A   1      39.882  28.155  29.726  1.00  0.00     0.064 A 
ATOM     55  C   UNL A   1      40.572  28.656  28.616  1.00  0.00     0.173 A 
ATOM     56  C   UNL A   1      39.303  26.880  29.609  1.00  0.00     0.173 A 
ATOM     57  F   UNL A   1      41.132  29.873  28.669  1.00  0.00    -0.203 F 
ATOM     58  C   UNL A   1      40.680  27.913  27.440  1.00  0.00     0.198 A 
ATOM     59  C   UNL A   1      39.436  26.127  28.445  1.00  0.00     0.198 A 
ATOM     60  F   UNL A   1      38.633  26.348  30.643  1.00  0.00    -0.203 F 
ATOM     61  F   UNL A   1      41.327  28.425  26.384  1.00  0.00    -0.200 F 
ATOM     62  C   UNL A   1      40.122  26.645  27.359  1.00  0.00     0.200 A 
ATOM     63  F   UNL A   1      38.912  24.895  28.381  1.00  0.00    -0.200 F 
ATOM     64  F   UNL A   1      40.244  25.926  26.235  1.00  0.00    -0.200 F 
ENDBRANCH  30  54
BRANCH  42  65
ATOM     65  C   UNL A   1      44.089  29.019  35.265  1.00  0.00     0.064 A 
ATOM     66  C   UNL A   1      45.316  29.608  34.938  1.00  0.00     0.173 A 
ATOM     67  C   UNL A   1      44.095  27.873  36.076  1.00  0.00     0.173 A 
ATOM     68  F   UNL A   1      45.356  30.696  34.154  1.00  0.00    -0.203 F 
ATOM     69  C   UNL A   1      46.508  29.067  35.407  1.00  0.00     0.198 A 
ATOM     70  C   UNL A   1      45.285  27.357  36.570  1.00  0.00     0.198 A 
ATOM     71  F   UNL A   1      42.939  27.284  36.422  1.00  0.00    -0.203 F 
ATOM     72  F   UNL A   1      47.676  29.627  35.062  1.00  0.00    -0.200 F 
ATOM     73  C   UNL A   1      46.491  27.953  36.235  1.00  0.00     0.200 A 
ATOM     74  F   UNL A   1      45.264  26.296  37.389  1.00  0.00    -0.200 F 
ATOM     75  F   UNL A   1      47.638  27.454  36.712  1.00  0.00    -0.200 F 
ENDBRANCH  42  65
ENDBRANCH  16  17
ENDBRANCH   9  11
ENDBRANCH   8   9
ENDBRANCH   7   8
ENDBRANCH   6   7
ENDBRANCH   5   6
ENDBRANCH   4   5
ENDBRANCH   3   4
ENDBRANCH   2   3
ENDBRANCH   1   2
BRANCH   1  76
ATOM     76  C   UNL A   1      34.223  30.888  27.191  1.00  0.00     0.188 C 
BRANCH  76  77
ATOM     77  O   UNL A   1      33.504  29.878  27.850  1.00  0.00    -0.376 OA
BRANCH  77  78
ATOM     78  C   UNL A   1      32.594  29.122  27.073  1.00  0.00     0.202 C 
BRANCH  78  79
ATOM     79  C   UNL A   1      31.777  27.934  27.635  1.00  0.00     0.261 C 
BRANCH  79  80
ATOM     80  O   UNL A   1      30.959  27.132  26.758  1.00  0.00    -0.460 OA
BRANCH  80  81
ATOM     81  C   UNL A   1      31.391  25.933  26.296  1.00  0.00     0.341 C 
ATOM     82  O   UNL A   1      31.303  24.865  26.881  1.00  0.00    -0.246 OA
BRANCH  81  83
ATOM     83  C   UNL A   1      31.929  26.124  24.919  1.00  0.00     0.102 A 
ATOM     84  C   UNL A   1      31.008  26.448  23.911  1.00  0.00     0.021 A 
ATOM     85  C   UNL A   1      33.283  25.934  24.561  1.00  0.00     0.144 A 
ATOM     86  C   UNL A   1      31.452  26.648  22.610  1.00  0.00     0.021 A 
ATOM     87  N   UNL A   1      33.715  26.199  23.302  1.00  0.00    -0.238 NA
ATOM     88  C   UNL A   1      32.808  26.550  22.366  1.00  0.00     0.113 A 
BRANCH  85  89
ATOM     89  N   UNL A   1      34.187  25.233  25.389  1.00  0.00    -0.340 N 
ATOM     90  H   UNL A   1      34.435  25.687  26.226  1.00  0.00     0.168 HD
BRANCH  89  91
ATOM     91  C   UNL A   1      34.783  23.971  25.181  1.00  0.00     0.040 A 
ATOM     92  C   UNL A   1      36.165  23.870  24.943  1.00  0.00     0.026 A 
ATOM     93  C   UNL A   1      34.021  22.805  25.189  1.00  0.00     0.039 A 
ATOM     94  C   UNL A   1      36.765  22.638  24.676  1.00  0.00     0.003 A 
ATOM     95  C   UNL A   1      34.605  21.560  24.897  1.00  0.00     0.058 A 
ATOM     96  C   UNL A   1      35.984  21.487  24.638  1.00  0.00     0.013 A 
BRANCH  95  97
ATOM     97  C   UNL A   1      33.765  20.310  24.838  1.00  0.00     0.416 C 
ATOM     98  F   UNL A   1      32.681  20.457  24.027  1.00  0.00    -0.166 F 
ATOM     99  F   UNL A   1      34.455  19.244  24.346  1.00  0.00    -0.166 F 
ATOM    100  F   UNL A   1      33.276  19.917  26.046  1.00  0.00    -0.166 F 
ENDBRANCH  95  97
ENDBRANCH  89  91
ENDBRANCH  85  89
ENDBRANCH  81  83
ENDBRANCH  80  81
ENDBRANCH  79  80
ENDBRANCH  78  79
ENDBRANCH  77  78
ENDBRANCH  76  77
ENDBRANCH   1  76
TORSDOF 23
ENDMDL
