MODEL 1
REMARK VINA RESULT:      -7.8      0.000      0.000
REMARK SMILES O=C(Nc1ccc(Br)cc1)Nc1ccc(CC(=O)OCCOCCOCCOCCOC(=O)c2ccc(-c3c4nc(c(-c5c(F)c(F)c(F)c(F)c5F)c5ccc([nH]5)c(-c5c(F)c(F)c(F)c(F)c5F)c5nc(c(-c6c(F)c(F)c(F)c(F)c6F)c6ccc3[nH]6)C=C5)C=C4)cc2)cc1
REMARK SMILES IDX 24 1 23 2 22 3 21 4 20 5 19 6 17 7 18 8 16 9 15 10 12 11
REMARK SMILES IDX 13 12 98 13 14 14 97 15 11 16 1 17 2 18 3 19 4 22 5 23 10 24
REMARK SMILES IDX 6 25 9 26 7 27 8 28 25 29 26 30 27 31 28 32 29 33 30 34
REMARK SMILES IDX 31 35 32 36 33 37 34 38 35 39 96 40 36 41 95 42 37 43 38 44
REMARK SMILES IDX 39 45 89 46 40 47 94 48 88 49 90 50 41 51 93 52 87 53 86 54
REMARK SMILES IDX 42 56 74 57 54 58 73 59 55 60 58 61 72 62 91 63 56 64 57 65
REMARK SMILES IDX 71 67 92 68 59 69 43 70 44 71 52 72 45 73 46 74 50 75 53 76
REMARK SMILES IDX 47 77 48 78 51 79 49 80 75 81 76 82 84 83 77 84 78 85 82 86
REMARK SMILES IDX 85 87 79 88 80 89 83 90 81 91 60 92 61 93 69 94 62 95 63 96
REMARK SMILES IDX 67 97 70 98 64 99 65 100 68 101 66 102
REMARK H PARENT 3 20 11 21 90 55 58 66
REMARK Flexibility Score: inf
ROOT
ATOM      1  C   UNL A   1      32.590  36.320  30.458  1.00  0.00     0.188 C 
ENDROOT
BRANCH   1   2
ATOM      2  C   UNL A   1      33.225  35.035  29.876  1.00  0.00     0.188 C 
BRANCH   2   3
ATOM      3  O   UNL A   1      34.432  35.085  29.116  1.00  0.00    -0.376 OA
BRANCH   3   4
ATOM      4  C   UNL A   1      34.910  33.908  28.490  1.00  0.00     0.202 C 
BRANCH   4   5
ATOM      5  C   UNL A   1      34.465  32.553  29.073  1.00  0.00     0.261 C 
BRANCH   5   6
ATOM      6  O   UNL A   1      35.448  31.822  29.844  1.00  0.00    -0.463 OA
BRANCH   6   7
ATOM      7  C   UNL A   1      36.052  30.781  29.223  1.00  0.00     0.310 C 
ATOM      8  O   UNL A   1      35.835  30.481  28.050  1.00  0.00    -0.252 OA
BRANCH   7   9
ATOM      9  C   UNL A   1      37.023  29.961  30.058  1.00  0.00     0.158 C 
BRANCH   9  10
ATOM     10  C   UNL A   1      38.304  29.351  29.505  1.00  0.00    -0.037 A 
ATOM     11  C   UNL A   1      40.783  28.200  28.692  1.00  0.00     0.042 A 
ATOM     12  C   UNL A   1      39.682  27.390  28.980  1.00  0.00     0.026 A 
ATOM     13  C   UNL A   1      40.636  29.584  28.797  1.00  0.00     0.026 A 
ATOM     14  C   UNL A   1      38.475  27.956  29.428  1.00  0.00     0.006 A 
ATOM     15  C   UNL A   1      39.404  30.153  29.173  1.00  0.00     0.006 A 
BRANCH  11  16
ATOM     16  N   UNL A   1      41.993  27.578  28.308  1.00  0.00    -0.308 N 
ATOM     17  O   UNL A   1      42.838  27.015  30.388  1.00  0.00    -0.248 OA
ATOM     18  C   UNL A   1      42.956  27.101  29.168  1.00  0.00     0.323 C 
ATOM     19  N   UNL A   1      44.044  26.519  28.561  1.00  0.00    -0.308 N 
ATOM     20  H   UNL A   1      44.420  25.744  29.039  1.00  0.00     0.171 HD
ATOM     21  H   UNL A   1      42.160  27.476  27.344  1.00  0.00     0.171 HD
BRANCH  19  22
ATOM     22  C   UNL A   1      44.703  26.857  27.369  1.00  0.00     0.042 A 
ATOM     23  C   UNL A   1      44.962  28.181  27.008  1.00  0.00     0.027 A 
ATOM     24  C   UNL A   1      45.212  25.819  26.577  1.00  0.00     0.027 A 
ATOM     25  C   UNL A   1      45.711  28.463  25.860  1.00  0.00     0.018 A 
ATOM     26  C   UNL A   1      45.925  26.102  25.407  1.00  0.00     0.018 A 
ATOM     27  C   UNL A   1      46.172  27.425  25.055  1.00  0.00     0.018 A 
ATOM     28  Br  UNL A   1      47.153  27.820  23.489  1.00  0.00    -0.051 Br
ENDBRANCH  19  22
ENDBRANCH  11  16
ENDBRANCH   9  10
ENDBRANCH   7   9
ENDBRANCH   6   7
ENDBRANCH   5   6
ENDBRANCH   4   5
ENDBRANCH   3   4
ENDBRANCH   2   3
ENDBRANCH   1   2
BRANCH   1  29
ATOM     29  O   UNL A   1      33.472  37.107  31.237  1.00  0.00    -0.377 OA
BRANCH  29  30
ATOM     30  C   UNL A   1      33.298  37.000  32.635  1.00  0.00     0.188 C 
BRANCH  30  31
ATOM     31  C   UNL A   1      34.278  36.049  33.336  1.00  0.00     0.188 C 
BRANCH  31  32
ATOM     32  O   UNL A   1      35.455  35.833  32.568  1.00  0.00    -0.376 OA
BRANCH  32  33
ATOM     33  C   UNL A   1      36.103  34.576  32.616  1.00  0.00     0.202 C 
BRANCH  33  34
ATOM     34  C   UNL A   1      35.645  33.544  33.661  1.00  0.00     0.261 C 
BRANCH  34  35
ATOM     35  O   UNL A   1      36.429  32.353  33.800  1.00  0.00    -0.460 OA
BRANCH  35  36
ATOM     36  C   UNL A   1      37.270  32.273  34.853  1.00  0.00     0.338 C 
ATOM     37  O   UNL A   1      37.028  32.580  36.008  1.00  0.00    -0.246 OA
BRANCH  36  38
ATOM     38  C   UNL A   1      38.485  31.553  34.406  1.00  0.00     0.060 A 
ATOM     39  C   UNL A   1      39.683  31.749  35.104  1.00  0.00     0.016 A 
ATOM     40  C   UNL A   1      38.437  30.655  33.336  1.00  0.00     0.016 A 
ATOM     41  C   UNL A   1      40.838  31.064  34.721  1.00  0.00     0.010 A 
ATOM     42  C   UNL A   1      39.601  29.993  32.931  1.00  0.00     0.010 A 
ATOM     43  C   UNL A   1      40.814  30.218  33.605  1.00  0.00    -0.014 A 
BRANCH  43  44
ATOM     44  C   UNL A   1      42.092  29.731  33.033  1.00  0.00     0.031 A 
ATOM     45  C   UNL A   1      42.711  30.516  31.908  1.00  0.00     0.074 A 
ATOM     46  C   UNL A   1      42.713  28.643  33.521  1.00  0.00     0.049 A 
ATOM     47  N   UNL A   1      43.812  30.289  31.238  1.00  0.00    -0.248 NA
ATOM     48  C   UNL A   1      41.985  31.723  31.482  1.00  0.00     0.031 C 
ATOM     49  C   UNL A   1      42.236  27.824  34.631  1.00  0.00     0.029 A 
ATOM     50  N   UNL A   1      43.883  28.039  33.133  1.00  0.00    -0.354 N 
ATOM     51  C   UNL A   1      43.908  31.322  30.315  1.00  0.00     0.074 A 
ATOM     52  C   UNL A   1      42.738  32.155  30.484  1.00  0.00     0.031 C 
ATOM     53  C   UNL A   1      43.101  26.815  34.831  1.00  0.00     0.029 A 
ATOM     54  C   UNL A   1      44.176  26.900  33.843  1.00  0.00     0.049 A 
ATOM     55  H   UNL A   1      44.459  28.388  32.415  1.00  0.00     0.167 HD
ATOM     56  C   UNL A   1      44.891  31.560  29.414  1.00  0.00     0.037 A 
ATOM     57  C   UNL A   1      45.186  26.019  33.693  1.00  0.00     0.037 A 
ATOM     58  C   UNL A   1      46.048  30.722  29.240  1.00  0.00     0.049 A 
ATOM     59  C   UNL A   1      46.224  26.262  32.625  1.00  0.00     0.074 A 
ATOM     60  C   UNL A   1      47.106  30.883  28.365  1.00  0.00     0.029 A 
ATOM     61  N   UNL A   1      46.289  29.554  29.950  1.00  0.00    -0.354 N 
ATOM     62  N   UNL A   1      46.329  27.258  31.778  1.00  0.00    -0.248 NA
ATOM     63  C   UNL A   1      47.290  25.257  32.497  1.00  0.00     0.031 C 
ATOM     64  C   UNL A   1      47.955  29.779  28.499  1.00  0.00     0.029 A 
ATOM     65  C   UNL A   1      47.464  28.967  29.508  1.00  0.00     0.049 A 
ATOM     66  H   UNL A   1      45.712  29.195  30.662  1.00  0.00     0.167 HD
ATOM     67  C   UNL A   1      47.483  27.018  31.043  1.00  0.00     0.074 A 
ATOM     68  C   UNL A   1      48.055  25.790  31.556  1.00  0.00     0.031 C 
ATOM     69  C   UNL A   1      48.024  27.745  30.032  1.00  0.00     0.037 A 
BRANCH  56  70
ATOM     70  C   UNL A   1      44.737  32.758  28.521  1.00  0.00     0.064 A 
ATOM     71  C   UNL A   1      44.177  32.659  27.238  1.00  0.00     0.173 A 
ATOM     72  C   UNL A   1      45.129  34.029  28.968  1.00  0.00     0.173 A 
ATOM     73  F   UNL A   1      43.801  31.464  26.755  1.00  0.00    -0.203 F 
ATOM     74  C   UNL A   1      44.042  33.782  26.425  1.00  0.00     0.198 A 
ATOM     75  C   UNL A   1      44.962  35.155  28.166  1.00  0.00     0.198 A 
ATOM     76  F   UNL A   1      45.670  34.180  30.186  1.00  0.00    -0.203 F 
ATOM     77  F   UNL A   1      43.553  33.654  25.184  1.00  0.00    -0.200 F 
ATOM     78  C   UNL A   1      44.426  35.029  26.893  1.00  0.00     0.200 A 
ATOM     79  F   UNL A   1      45.322  36.361  28.625  1.00  0.00    -0.200 F 
ATOM     80  F   UNL A   1      44.288  36.111  26.114  1.00  0.00    -0.200 F 
ENDBRANCH  56  70
BRANCH  57  81
ATOM     81  C   UNL A   1      45.264  24.814  34.564  1.00  0.00     0.064 A 
ATOM     82  C   UNL A   1      45.954  24.843  35.784  1.00  0.00     0.173 A 
ATOM     83  C   UNL A   1      44.679  23.600  34.177  1.00  0.00     0.173 A 
ATOM     84  F   UNL A   1      46.555  25.972  36.187  1.00  0.00    -0.203 F 
ATOM     85  C   UNL A   1      46.077  23.698  36.570  1.00  0.00     0.198 A 
ATOM     86  C   UNL A   1      44.774  22.464  34.979  1.00  0.00     0.198 A 
ATOM     87  F   UNL A   1      44.012  23.515  33.016  1.00  0.00    -0.203 F 
ATOM     88  F   UNL A   1      46.792  23.740  37.703  1.00  0.00    -0.200 F 
ATOM     89  C   UNL A   1      45.481  22.511  36.169  1.00  0.00     0.200 A 
ATOM     90  F   UNL A   1      44.187  21.323  34.593  1.00  0.00    -0.200 F 
ATOM     91  F   UNL A   1      45.599  21.411  36.925  1.00  0.00    -0.200 F 
ENDBRANCH  57  81
BRANCH  69  92
ATOM     92  C   UNL A   1      49.317  27.257  29.442  1.00  0.00     0.064 A 
ATOM     93  C   UNL A   1      50.562  27.691  29.922  1.00  0.00     0.173 A 
ATOM     94  C   UNL A   1      49.311  26.318  28.398  1.00  0.00     0.173 A 
ATOM     95  F   UNL A   1      50.627  28.596  30.911  1.00  0.00    -0.203 F 
ATOM     96  C   UNL A   1      51.750  27.233  29.355  1.00  0.00     0.198 A 
ATOM     97  C   UNL A   1      50.500  25.834  27.859  1.00  0.00     0.198 A 
ATOM     98  F   UNL A   1      48.150  25.860  27.906  1.00  0.00    -0.203 F 
ATOM     99  F   UNL A   1      52.925  27.710  29.789  1.00  0.00    -0.200 F 
ATOM    100  C   UNL A   1      51.718  26.301  28.329  1.00  0.00     0.200 A 
ATOM    101  F   UNL A   1      50.467  24.917  26.881  1.00  0.00    -0.200 F 
ATOM    102  F   UNL A   1      52.861  25.857  27.788  1.00  0.00    -0.200 F 
ENDBRANCH  69  92
ENDBRANCH  43  44
ENDBRANCH  36  38
ENDBRANCH  35  36
ENDBRANCH  34  35
ENDBRANCH  33  34
ENDBRANCH  32  33
ENDBRANCH  31  32
ENDBRANCH  30  31
ENDBRANCH  29  30
ENDBRANCH   1  29
TORSDOF 23
ENDMDL
MODEL 2
REMARK VINA RESULT:      -7.2      3.419      7.064
REMARK SMILES O=C(Nc1ccc(Br)cc1)Nc1ccc(CC(=O)OCCOCCOCCOCCOC(=O)c2ccc(-c3c4nc(c(-c5c(F)c(F)c(F)c(F)c5F)c5ccc([nH]5)c(-c5c(F)c(F)c(F)c(F)c5F)c5nc(c(-c6c(F)c(F)c(F)c(F)c6F)c6ccc3[nH]6)C=C5)C=C4)cc2)cc1
REMARK SMILES IDX 24 1 23 2 22 3 21 4 20 5 19 6 17 7 18 8 16 9 15 10 12 11
REMARK SMILES IDX 13 12 98 13 14 14 97 15 11 16 1 17 2 18 3 19 4 22 5 23 10 24
REMARK SMILES IDX 6 25 9 26 7 27 8 28 25 29 26 30 27 31 28 32 29 33 30 34
REMARK SMILES IDX 31 35 32 36 33 37 34 38 35 39 96 40 36 41 95 42 37 43 38 44
REMARK SMILES IDX 39 45 89 46 40 47 94 48 88 49 90 50 41 51 93 52 87 53 86 54
REMARK SMILES IDX 42 56 74 57 54 58 73 59 55 60 58 61 72 62 91 63 56 64 57 65
REMARK SMILES IDX 71 67 92 68 59 69 43 70 44 71 52 72 45 73 46 74 50 75 53 76
REMARK SMILES IDX 47 77 48 78 51 79 49 80 75 81 76 82 84 83 77 84 78 85 82 86
REMARK SMILES IDX 85 87 79 88 80 89 83 90 81 91 60 92 61 93 69 94 62 95 63 96
REMARK SMILES IDX 67 97 70 98 64 99 65 100 68 101 66 102
REMARK H PARENT 3 20 11 21 90 55 58 66
REMARK Flexibility Score: inf
ROOT
ATOM      1  C   UNL A   1      32.859  36.033  30.598  1.00  0.00     0.188 C 
ENDROOT
BRANCH   1   2
ATOM      2  C   UNL A   1      33.362  34.864  29.719  1.00  0.00     0.188 C 
BRANCH   2   3
ATOM      3  O   UNL A   1      34.391  35.056  28.750  1.00  0.00    -0.376 OA
BRANCH   3   4
ATOM      4  C   UNL A   1      34.863  33.948  28.005  1.00  0.00     0.202 C 
BRANCH   4   5
ATOM      5  C   UNL A   1      34.432  32.540  28.462  1.00  0.00     0.261 C 
BRANCH   5   6
ATOM      6  O   UNL A   1      35.356  31.820  29.312  1.00  0.00    -0.463 OA
BRANCH   6   7
ATOM      7  C   UNL A   1      36.118  30.874  28.712  1.00  0.00     0.310 C 
ATOM      8  O   UNL A   1      35.813  30.342  27.646  1.00  0.00    -0.252 OA
BRANCH   7   9
ATOM      9  C   UNL A   1      37.394  30.469  29.435  1.00  0.00     0.158 C 
BRANCH   9  10
ATOM     10  C   UNL A   1      38.395  29.466  28.880  1.00  0.00    -0.037 A 
ATOM     11  C   UNL A   1      40.441  27.718  27.936  1.00  0.00     0.042 A 
ATOM     12  C   UNL A   1      39.823  27.492  29.168  1.00  0.00     0.026 A 
ATOM     13  C   UNL A   1      40.023  28.810  27.173  1.00  0.00     0.026 A 
ATOM     14  C   UNL A   1      38.849  28.381  29.653  1.00  0.00     0.006 A 
ATOM     15  C   UNL A   1      38.994  29.657  27.627  1.00  0.00     0.006 A 
BRANCH  11  16
ATOM     16  N   UNL A   1      41.461  26.831  27.522  1.00  0.00    -0.308 N 
ATOM     17  O   UNL A   1      42.738  28.256  26.220  1.00  0.00    -0.248 OA
ATOM     18  C   UNL A   1      42.482  27.133  26.650  1.00  0.00     0.323 C 
ATOM     19  N   UNL A   1      43.367  26.110  26.409  1.00  0.00    -0.308 N 
ATOM     20  H   UNL A   1      44.304  26.390  26.293  1.00  0.00     0.171 HD
ATOM     21  H   UNL A   1      41.439  25.918  27.889  1.00  0.00     0.171 HD
BRANCH  19  22
ATOM     22  C   UNL A   1      43.144  24.728  26.300  1.00  0.00     0.042 A 
ATOM     23  C   UNL A   1      43.151  24.065  25.071  1.00  0.00     0.027 A 
ATOM     24  C   UNL A   1      43.023  23.983  27.481  1.00  0.00     0.027 A 
ATOM     25  C   UNL A   1      43.025  22.672  25.024  1.00  0.00     0.018 A 
ATOM     26  C   UNL A   1      42.855  22.594  27.431  1.00  0.00     0.018 A 
ATOM     27  C   UNL A   1      42.859  21.945  26.200  1.00  0.00     0.018 A 
ATOM     28  Br  UNL A   1      42.656  20.069  26.120  1.00  0.00    -0.051 Br
ENDBRANCH  19  22
ENDBRANCH  11  16
ENDBRANCH   9  10
ENDBRANCH   7   9
ENDBRANCH   6   7
ENDBRANCH   5   6
ENDBRANCH   4   5
ENDBRANCH   3   4
ENDBRANCH   2   3
ENDBRANCH   1   2
BRANCH   1  29
ATOM     29  O   UNL A   1      33.822  36.541  31.503  1.00  0.00    -0.377 OA
BRANCH  29  30
ATOM     30  C   UNL A   1      33.670  36.119  32.842  1.00  0.00     0.188 C 
BRANCH  30  31
ATOM     31  C   UNL A   1      34.563  34.940  33.251  1.00  0.00     0.188 C 
BRANCH  31  32
ATOM     32  O   UNL A   1      35.933  35.179  32.954  1.00  0.00    -0.376 OA
BRANCH  32  33
ATOM     33  C   UNL A   1      36.911  34.236  33.350  1.00  0.00     0.202 C 
BRANCH  33  34
ATOM     34  C   UNL A   1      37.298  33.112  32.371  1.00  0.00     0.261 C 
BRANCH  34  35
ATOM     35  O   UNL A   1      38.442  32.316  32.700  1.00  0.00    -0.460 OA
BRANCH  35  36
ATOM     36  C   UNL A   1      38.243  31.008  32.967  1.00  0.00     0.338 C 
ATOM     37  O   UNL A   1      37.172  30.448  33.123  1.00  0.00    -0.246 OA
BRANCH  36  38
ATOM     38  C   UNL A   1      39.548  30.318  32.840  1.00  0.00     0.060 A 
ATOM     39  C   UNL A   1      39.604  28.934  33.042  1.00  0.00     0.016 A 
ATOM     40  C   UNL A   1      40.701  31.020  32.479  1.00  0.00     0.016 A 
ATOM     41  C   UNL A   1      40.815  28.254  32.903  1.00  0.00     0.010 A 
ATOM     42  C   UNL A   1      41.921  30.345  32.371  1.00  0.00     0.010 A 
ATOM     43  C   UNL A   1      41.988  28.961  32.612  1.00  0.00    -0.014 A 
BRANCH  43  44
ATOM     44  C   UNL A   1      43.301  28.287  32.756  1.00  0.00     0.031 A 
ATOM     45  C   UNL A   1      43.836  28.065  34.144  1.00  0.00     0.074 A 
ATOM     46  C   UNL A   1      43.986  27.845  31.687  1.00  0.00     0.049 A 
ATOM     47  N   UNL A   1      44.958  27.512  34.528  1.00  0.00    -0.248 NA
ATOM     48  C   UNL A   1      42.987  28.534  35.250  1.00  0.00     0.031 C 
ATOM     49  C   UNL A   1      43.554  27.963  30.297  1.00  0.00     0.029 A 
ATOM     50  N   UNL A   1      45.201  27.209  31.611  1.00  0.00    -0.354 N 
ATOM     51  C   UNL A   1      44.948  27.567  35.916  1.00  0.00     0.074 A 
ATOM     52  C   UNL A   1      43.728  28.239  36.306  1.00  0.00     0.031 C 
ATOM     53  C   UNL A   1      44.496  27.426  29.502  1.00  0.00     0.029 A 
ATOM     54  C   UNL A   1      45.609  26.954  30.324  1.00  0.00     0.049 A 
ATOM     55  H   UNL A   1      45.729  26.958  32.403  1.00  0.00     0.167 HD
ATOM     56  C   UNL A   1      45.869  27.089  36.786  1.00  0.00     0.037 A 
ATOM     57  C   UNL A   1      46.760  26.421  29.868  1.00  0.00     0.037 A 
ATOM     58  C   UNL A   1      47.087  26.432  36.394  1.00  0.00     0.049 A 
ATOM     59  C   UNL A   1      47.808  25.973  30.857  1.00  0.00     0.074 A 
ATOM     60  C   UNL A   1      48.078  25.900  37.198  1.00  0.00     0.029 A 
ATOM     61  N   UNL A   1      47.486  26.229  35.080  1.00  0.00    -0.354 N 
ATOM     62  N   UNL A   1      47.778  25.996  32.169  1.00  0.00    -0.248 NA
ATOM     63  C   UNL A   1      49.050  25.418  30.301  1.00  0.00     0.031 C 
ATOM     64  C   UNL A   1      49.107  25.433  36.372  1.00  0.00     0.029 A 
ATOM     65  C   UNL A   1      48.725  25.609  35.052  1.00  0.00     0.049 A 
ATOM     66  H   UNL A   1      46.966  26.486  34.285  1.00  0.00     0.167 HD
ATOM     67  C   UNL A   1      48.976  25.432  32.591  1.00  0.00     0.074 A 
ATOM     68  C   UNL A   1      49.704  25.059  31.396  1.00  0.00     0.031 C 
ATOM     69  C   UNL A   1      49.436  25.239  33.854  1.00  0.00     0.037 A 
BRANCH  56  70
ATOM     70  C   UNL A   1      45.608  27.295  38.251  1.00  0.00     0.064 A 
ATOM     71  C   UNL A   1      45.007  26.304  39.043  1.00  0.00     0.173 A 
ATOM     72  C   UNL A   1      45.993  28.490  38.878  1.00  0.00     0.173 A 
ATOM     73  F   UNL A   1      44.604  25.150  38.491  1.00  0.00    -0.203 F 
ATOM     74  C   UNL A   1      44.774  26.514  40.400  1.00  0.00     0.198 A 
ATOM     75  C   UNL A   1      45.789  28.684  40.241  1.00  0.00     0.198 A 
ATOM     76  F   UNL A   1      46.572  29.469  38.168  1.00  0.00    -0.203 F 
ATOM     77  F   UNL A   1      44.150  25.575  41.124  1.00  0.00    -0.200 F 
ATOM     78  C   UNL A   1      45.173  27.699  41.000  1.00  0.00     0.200 A 
ATOM     79  F   UNL A   1      46.187  29.824  40.821  1.00  0.00    -0.200 F 
ATOM     80  F   UNL A   1      44.957  27.897  42.307  1.00  0.00    -0.200 F 
ENDBRANCH  56  70
BRANCH  57  81
ATOM     81  C   UNL A   1      46.998  26.293  28.405  1.00  0.00     0.064 A 
ATOM     82  C   UNL A   1      47.552  27.346  27.663  1.00  0.00     0.173 A 
ATOM     83  C   UNL A   1      46.642  25.127  27.711  1.00  0.00     0.173 A 
ATOM     84  F   UNL A   1      47.883  28.493  28.274  1.00  0.00    -0.203 F 
ATOM     85  C   UNL A   1      47.719  27.246  26.283  1.00  0.00     0.198 A 
ATOM     86  C   UNL A   1      46.841  25.015  26.336  1.00  0.00     0.198 A 
ATOM     87  F   UNL A   1      46.103  24.091  28.370  1.00  0.00    -0.203 F 
ATOM     88  F   UNL A   1      48.197  28.290  25.591  1.00  0.00    -0.200 F 
ATOM     89  C   UNL A   1      47.368  26.079  25.621  1.00  0.00     0.200 A 
ATOM     90  F   UNL A   1      46.511  23.881  25.703  1.00  0.00    -0.200 F 
ATOM     91  F   UNL A   1      47.529  25.983  24.294  1.00  0.00    -0.200 F 
ENDBRANCH  57  81
BRANCH  69  92
ATOM     92  C   UNL A   1      50.768  24.561  34.010  1.00  0.00     0.064 A 
ATOM     93  C   UNL A   1      50.893  23.163  34.017  1.00  0.00     0.173 A 
ATOM     94  C   UNL A   1      51.942  25.321  34.126  1.00  0.00     0.173 A 
ATOM     95  F   UNL A   1      49.801  22.387  33.921  1.00  0.00    -0.203 F 
ATOM     96  C   UNL A   1      52.136  22.554  34.173  1.00  0.00     0.198 A 
ATOM     97  C   UNL A   1      53.188  24.709  34.242  1.00  0.00     0.198 A 
ATOM     98  F   UNL A   1      51.885  26.661  34.114  1.00  0.00    -0.203 F 
ATOM     99  F   UNL A   1      52.221  21.218  34.239  1.00  0.00    -0.200 F 
ATOM    100  C   UNL A   1      53.282  23.327  34.278  1.00  0.00     0.200 A 
ATOM    101  F   UNL A   1      54.296  25.458  34.324  1.00  0.00    -0.200 F 
ATOM    102  F   UNL A   1      54.478  22.739  34.422  1.00  0.00    -0.200 F 
ENDBRANCH  69  92
ENDBRANCH  43  44
ENDBRANCH  36  38
ENDBRANCH  35  36
ENDBRANCH  34  35
ENDBRANCH  33  34
ENDBRANCH  32  33
ENDBRANCH  31  32
ENDBRANCH  30  31
ENDBRANCH  29  30
ENDBRANCH   1  29
TORSDOF 23
ENDMDL
MODEL 3
REMARK VINA RESULT:      -7.2      5.145      9.973
REMARK SMILES O=C(Nc1ccc(Br)cc1)Nc1ccc(CC(=O)OCCOCCOCCOCCOC(=O)c2ccc(-c3c4nc(c(-c5c(F)c(F)c(F)c(F)c5F)c5ccc([nH]5)c(-c5c(F)c(F)c(F)c(F)c5F)c5nc(c(-c6c(F)c(F)c(F)c(F)c6F)c6ccc3[nH]6)C=C5)C=C4)cc2)cc1
REMARK SMILES IDX 24 1 23 2 22 3 21 4 20 5 19 6 17 7 18 8 16 9 15 10 12 11
REMARK SMILES IDX 13 12 98 13 14 14 97 15 11 16 1 17 2 18 3 19 4 22 5 23 10 24
REMARK SMILES IDX 6 25 9 26 7 27 8 28 25 29 26 30 27 31 28 32 29 33 30 34
REMARK SMILES IDX 31 35 32 36 33 37 34 38 35 39 96 40 36 41 95 42 37 43 38 44
REMARK SMILES IDX 39 45 89 46 40 47 94 48 88 49 90 50 41 51 93 52 87 53 86 54
REMARK SMILES IDX 42 56 74 57 54 58 73 59 55 60 58 61 72 62 91 63 56 64 57 65
REMARK SMILES IDX 71 67 92 68 59 69 43 70 44 71 52 72 45 73 46 74 50 75 53 76
REMARK SMILES IDX 47 77 48 78 51 79 49 80 75 81 76 82 84 83 77 84 78 85 82 86
REMARK SMILES IDX 85 87 79 88 80 89 83 90 81 91 60 92 61 93 69 94 62 95 63 96
REMARK SMILES IDX 67 97 70 98 64 99 65 100 68 101 66 102
REMARK H PARENT 3 20 11 21 90 55 58 66
REMARK Flexibility Score: inf
ROOT
ATOM      1  C   UNL A   1      33.150  36.821  31.352  1.00  0.00     0.188 C 
ENDROOT
BRANCH   1   2
ATOM      2  C   UNL A   1      32.998  36.060  30.013  1.00  0.00     0.188 C 
BRANCH   2   3
ATOM      3  O   UNL A   1      34.004  35.157  29.557  1.00  0.00    -0.376 OA
BRANCH   3   4
ATOM      4  C   UNL A   1      33.670  33.801  29.324  1.00  0.00     0.202 C 
BRANCH   4   5
ATOM      5  C   UNL A   1      33.442  33.359  27.865  1.00  0.00     0.261 C 
BRANCH   5   6
ATOM      6  O   UNL A   1      32.074  33.096  27.471  1.00  0.00    -0.463 OA
BRANCH   6   7
ATOM      7  C   UNL A   1      31.851  31.945  26.791  1.00  0.00     0.310 C 
ATOM      8  O   UNL A   1      31.029  31.850  25.882  1.00  0.00    -0.252 OA
BRANCH   7   9
ATOM      9  C   UNL A   1      32.667  30.735  27.219  1.00  0.00     0.158 C 
BRANCH   9  10
ATOM     10  C   UNL A   1      32.576  29.375  26.540  1.00  0.00    -0.037 A 
ATOM     11  C   UNL A   1      32.221  26.912  25.147  1.00  0.00     0.042 A 
ATOM     12  C   UNL A   1      33.092  27.889  24.657  1.00  0.00     0.026 A 
ATOM     13  C   UNL A   1      31.542  27.165  26.340  1.00  0.00     0.026 A 
ATOM     14  C   UNL A   1      33.229  29.121  25.320  1.00  0.00     0.006 A 
ATOM     15  C   UNL A   1      31.738  28.369  27.042  1.00  0.00     0.006 A 
BRANCH  11  16
ATOM     16  N   UNL A   1      32.070  25.716  24.410  1.00  0.00    -0.308 N 
ATOM     17  O   UNL A   1      30.349  26.328  22.989  1.00  0.00    -0.248 OA
ATOM     18  C   UNL A   1      31.114  25.483  23.447  1.00  0.00     0.323 C 
ATOM     19  N   UNL A   1      31.173  24.246  22.852  1.00  0.00    -0.308 N 
ATOM     20  H   UNL A   1      30.945  24.235  21.894  1.00  0.00     0.171 HD
ATOM     21  H   UNL A   1      32.703  24.987  24.600  1.00  0.00     0.171 HD
BRANCH  19  22
ATOM     22  C   UNL A   1      31.507  22.995  23.395  1.00  0.00     0.042 A 
ATOM     23  C   UNL A   1      31.969  21.938  22.608  1.00  0.00     0.027 A 
ATOM     24  C   UNL A   1      31.476  22.849  24.789  1.00  0.00     0.027 A 
ATOM     25  C   UNL A   1      32.384  20.744  23.208  1.00  0.00     0.018 A 
ATOM     26  C   UNL A   1      31.852  21.641  25.386  1.00  0.00     0.018 A 
ATOM     27  C   UNL A   1      32.306  20.594  24.591  1.00  0.00     0.018 A 
ATOM     28  Br  UNL A   1      32.838  18.964  25.386  1.00  0.00    -0.051 Br
ENDBRANCH  19  22
ENDBRANCH  11  16
ENDBRANCH   9  10
ENDBRANCH   7   9
ENDBRANCH   6   7
ENDBRANCH   5   6
ENDBRANCH   4   5
ENDBRANCH   3   4
ENDBRANCH   2   3
ENDBRANCH   1   2
BRANCH   1  29
ATOM     29  O   UNL A   1      34.277  36.436  32.118  1.00  0.00    -0.377 OA
BRANCH  29  30
ATOM     30  C   UNL A   1      34.014  35.512  33.153  1.00  0.00     0.188 C 
BRANCH  30  31
ATOM     31  C   UNL A   1      34.515  34.086  32.886  1.00  0.00     0.188 C 
BRANCH  31  32
ATOM     32  O   UNL A   1      35.719  34.075  32.129  1.00  0.00    -0.376 OA
BRANCH  32  33
ATOM     33  C   UNL A   1      36.776  33.213  32.505  1.00  0.00     0.202 C 
BRANCH  33  34
ATOM     34  C   UNL A   1      36.590  31.694  32.339  1.00  0.00     0.261 C 
BRANCH  34  35
ATOM     35  O   UNL A   1      37.410  30.838  33.143  1.00  0.00    -0.460 OA
BRANCH  35  36
ATOM     36  C   UNL A   1      37.980  29.770  32.545  1.00  0.00     0.338 C 
ATOM     37  O   UNL A   1      37.486  28.666  32.393  1.00  0.00    -0.246 OA
BRANCH  36  38
ATOM     38  C   UNL A   1      39.244  30.225  31.919  1.00  0.00     0.060 A 
ATOM     39  C   UNL A   1      40.244  30.770  32.734  1.00  0.00     0.016 A 
ATOM     40  C   UNL A   1      39.463  30.073  30.548  1.00  0.00     0.016 A 
ATOM     41  C   UNL A   1      41.455  31.182  32.175  1.00  0.00     0.010 A 
ATOM     42  C   UNL A   1      40.663  30.516  29.982  1.00  0.00     0.010 A 
ATOM     43  C   UNL A   1      41.654  31.099  30.791  1.00  0.00    -0.014 A 
BRANCH  43  44
ATOM     44  C   UNL A   1      42.807  31.802  30.177  1.00  0.00     0.031 A 
ATOM     45  C   UNL A   1      44.090  31.038  29.998  1.00  0.00     0.074 A 
ATOM     46  C   UNL A   1      42.711  33.074  29.751  1.00  0.00     0.049 A 
ATOM     47  N   UNL A   1      45.234  31.432  29.500  1.00  0.00    -0.248 NA
ATOM     48  C   UNL A   1      44.079  29.636  30.444  1.00  0.00     0.031 C 
ATOM     49  C   UNL A   1      41.512  33.904  29.832  1.00  0.00     0.029 A 
ATOM     50  N   UNL A   1      43.649  33.889  29.169  1.00  0.00    -0.354 N 
ATOM     51  C   UNL A   1      46.076  30.329  29.574  1.00  0.00     0.074 A 
ATOM     52  C   UNL A   1      45.324  29.262  30.197  1.00  0.00     0.031 C 
ATOM     53  C   UNL A   1      41.790  35.118  29.326  1.00  0.00     0.029 A 
ATOM     54  C   UNL A   1      43.193  35.160  28.915  1.00  0.00     0.049 A 
ATOM     55  H   UNL A   1      44.562  33.592  28.953  1.00  0.00     0.167 HD
ATOM     56  C   UNL A   1      47.356  30.215  29.150  1.00  0.00     0.037 A 
ATOM     57  C   UNL A   1      43.844  36.235  28.428  1.00  0.00     0.037 A 
ATOM     58  C   UNL A   1      48.104  31.283  28.542  1.00  0.00     0.049 A 
ATOM     59  C   UNL A   1      45.297  36.104  28.040  1.00  0.00     0.074 A 
ATOM     60  C   UNL A   1      49.403  31.265  28.065  1.00  0.00     0.029 A 
ATOM     61  N   UNL A   1      47.622  32.568  28.339  1.00  0.00    -0.354 N 
ATOM     62  N   UNL A   1      46.077  35.049  28.080  1.00  0.00    -0.248 NA
ATOM     63  C   UNL A   1      45.958  37.315  27.533  1.00  0.00     0.031 C 
ATOM     64  C   UNL A   1      49.728  32.555  27.634  1.00  0.00     0.029 A 
ATOM     65  C   UNL A   1      48.609  33.360  27.774  1.00  0.00     0.049 A 
ATOM     66  H   UNL A   1      46.713  32.872  28.562  1.00  0.00     0.167 HD
ATOM     67  C   UNL A   1      47.305  35.461  27.575  1.00  0.00     0.074 A 
ATOM     68  C   UNL A   1      47.161  36.857  27.219  1.00  0.00     0.031 C 
ATOM     69  C   UNL A   1      48.450  34.749  27.420  1.00  0.00     0.037 A 
BRANCH  56  70
ATOM     70  C   UNL A   1      48.041  28.895  29.363  1.00  0.00     0.064 A 
ATOM     71  C   UNL A   1      48.756  28.612  30.538  1.00  0.00     0.173 A 
ATOM     72  C   UNL A   1      47.956  27.888  28.390  1.00  0.00     0.173 A 
ATOM     73  F   UNL A   1      48.883  29.546  31.492  1.00  0.00    -0.203 F 
ATOM     74  C   UNL A   1      49.384  27.382  30.717  1.00  0.00     0.198 A 
ATOM     75  C   UNL A   1      48.556  26.647  28.587  1.00  0.00     0.198 A 
ATOM     76  F   UNL A   1      47.285  28.104  27.250  1.00  0.00    -0.203 F 
ATOM     77  F   UNL A   1      50.105  27.154  31.822  1.00  0.00    -0.200 F 
ATOM     78  C   UNL A   1      49.276  26.398  29.746  1.00  0.00     0.200 A 
ATOM     79  F   UNL A   1      48.439  25.693  27.654  1.00  0.00    -0.200 F 
ATOM     80  F   UNL A   1      49.872  25.211  29.923  1.00  0.00    -0.200 F 
ENDBRANCH  56  70
BRANCH  57  81
ATOM     81  C   UNL A   1      43.139  37.538  28.290  1.00  0.00     0.064 A 
ATOM     82  C   UNL A   1      43.185  38.501  29.308  1.00  0.00     0.173 A 
ATOM     83  C   UNL A   1      42.375  37.834  27.152  1.00  0.00     0.173 A 
ATOM     84  F   UNL A   1      43.878  38.256  30.431  1.00  0.00    -0.203 F 
ATOM     85  C   UNL A   1      42.476  39.696  29.204  1.00  0.00     0.198 A 
ATOM     86  C   UNL A   1      41.693  39.043  27.033  1.00  0.00     0.198 A 
ATOM     87  F   UNL A   1      42.291  36.946  26.149  1.00  0.00    -0.203 F 
ATOM     88  F   UNL A   1      42.491  40.573  30.218  1.00  0.00    -0.200 F 
ATOM     89  C   UNL A   1      41.735  39.969  28.063  1.00  0.00     0.200 A 
ATOM     90  F   UNL A   1      40.988  39.307  25.924  1.00  0.00    -0.200 F 
ATOM     91  F   UNL A   1      41.054  41.118  27.963  1.00  0.00    -0.200 F 
ENDBRANCH  57  81
BRANCH  69  92
ATOM     92  C   UNL A   1      49.626  35.454  26.803  1.00  0.00     0.064 A 
ATOM     93  C   UNL A   1      49.746  35.622  25.416  1.00  0.00     0.173 A 
ATOM     94  C   UNL A   1      50.635  35.995  27.616  1.00  0.00     0.173 A 
ATOM     95  F   UNL A   1      48.816  35.116  24.591  1.00  0.00    -0.203 F 
ATOM     96  C   UNL A   1      50.848  36.270  24.864  1.00  0.00     0.198 A 
ATOM     97  C   UNL A   1      51.716  36.676  27.063  1.00  0.00     0.198 A 
ATOM     98  F   UNL A   1      50.567  35.873  28.951  1.00  0.00    -0.203 F 
ATOM     99  F   UNL A   1      50.971  36.364  23.532  1.00  0.00    -0.200 F 
ATOM    100  C   UNL A   1      51.829  36.802  25.688  1.00  0.00     0.200 A 
ATOM    101  F   UNL A   1      52.652  37.207  27.863  1.00  0.00    -0.200 F 
ATOM    102  F   UNL A   1      52.886  37.431  25.155  1.00  0.00    -0.200 F 
ENDBRANCH  69  92
ENDBRANCH  43  44
ENDBRANCH  36  38
ENDBRANCH  35  36
ENDBRANCH  34  35
ENDBRANCH  33  34
ENDBRANCH  32  33
ENDBRANCH  31  32
ENDBRANCH  30  31
ENDBRANCH  29  30
ENDBRANCH   1  29
TORSDOF 23
ENDMDL
