MODEL 1
REMARK VINA RESULT:      -8.6      0.000      0.000
REMARK SMILES COc1ccc(CCn2cc(C(=O)OCCOCCOCCOCCOC(=O)c3ccc(-c4c5nc(c(-c6c(F)c(F)c(F)c(F)c6F)c6ccc([nH]6)c(-c6c(F)c(F)c(F)c(F)c6F)c6nc(c(-c7c(F)c(F)c(F)c(F)c7F)c7ccc4[nH]7)C=C6)C=C5)cc3)ccc2=O)cc1OC
REMARK SMILES IDX 19 1 18 2 17 3 16 4 15 5 14 6 12 7 13 8 11 9 9 10 10 11
REMARK SMILES IDX 94 12 93 13 95 14 92 15 8 16 7 17 6 18 3 19 4 20 97 21 5 22
REMARK SMILES IDX 96 23 2 24 1 25 98 26 99 27 20 28 21 29 22 30 23 31 24 32
REMARK SMILES IDX 25 33 26 34 27 35 28 36 29 37 30 38 91 39 31 40 90 41 32 42
REMARK SMILES IDX 33 43 34 44 84 45 35 46 89 47 83 48 85 49 36 50 88 51 82 52
REMARK SMILES IDX 81 53 37 55 69 56 49 57 68 58 50 59 53 60 67 61 86 62 51 63
REMARK SMILES IDX 52 64 66 66 87 67 54 68 38 69 39 70 47 71 40 72 41 73 45 74
REMARK SMILES IDX 48 75 42 76 43 77 46 78 44 79 70 80 71 81 79 82 72 83 73 84
REMARK SMILES IDX 77 85 80 86 74 87 75 88 78 89 76 90 55 91 56 92 64 93 57 94
REMARK SMILES IDX 58 95 62 96 65 97 59 98 60 99 63 100 61 101
REMARK H PARENT 85 54 53 65
REMARK Flexibility Score: inf
ROOT
ATOM      1  C   UNL A   1      37.697  31.849  34.714  1.00  0.00     0.188 C 
ENDROOT
BRANCH   1   2
ATOM      2  C   UNL A   1      38.112  31.319  36.103  1.00  0.00     0.188 C 
BRANCH   2   3
ATOM      3  O   UNL A   1      39.034  30.243  36.037  1.00  0.00    -0.376 OA
BRANCH   3   4
ATOM      4  C   UNL A   1      40.420  30.478  35.876  1.00  0.00     0.202 C 
BRANCH   4   5
ATOM      5  C   UNL A   1      41.461  29.354  36.005  1.00  0.00     0.261 C 
BRANCH   5   6
ATOM      6  O   UNL A   1      41.240  28.184  35.220  1.00  0.00    -0.460 OA
BRANCH   6   7
ATOM      7  C   UNL A   1      41.622  27.005  35.753  1.00  0.00     0.339 C 
ATOM      8  O   UNL A   1      41.152  26.468  36.742  1.00  0.00    -0.246 OA
BRANCH   7   9
ATOM      9  C   UNL A   1      42.597  26.364  34.836  1.00  0.00     0.076 A 
ATOM     10  N   UNL A   1      43.733  24.397  34.150  1.00  0.00    -0.314 N 
ATOM     11  C   UNL A   1      42.988  25.104  35.083  1.00  0.00     0.104 A 
ATOM     12  C   UNL A   1      44.312  25.008  33.034  1.00  0.00     0.250 A 
ATOM     13  C   UNL A   1      43.954  26.440  32.830  1.00  0.00     0.072 A 
ATOM     14  O   UNL A   1      45.035  24.451  32.215  1.00  0.00    -0.269 OA
ATOM     15  C   UNL A   1      43.099  27.048  33.663  1.00  0.00     0.023 A 
BRANCH  10  16
ATOM     16  C   UNL A   1      43.694  22.933  34.213  1.00  0.00     0.130 C 
BRANCH  16  17
ATOM     17  C   UNL A   1      44.580  22.367  35.354  1.00  0.00     0.057 C 
BRANCH  17  18
ATOM     18  C   UNL A   1      46.073  22.378  35.086  1.00  0.00    -0.042 A 
ATOM     19  C   UNL A   1      48.877  22.326  34.757  1.00  0.00     0.160 A 
ATOM     20  C   UNL A   1      48.221  23.535  34.979  1.00  0.00     0.051 A 
ATOM     21  C   UNL A   1      48.134  21.146  34.636  1.00  0.00     0.160 A 
ATOM     22  C   UNL A   1      46.830  23.558  35.093  1.00  0.00     0.008 A 
ATOM     23  C   UNL A   1      46.744  21.179  34.826  1.00  0.00     0.054 A 
BRANCH  19  24
ATOM     24  O   UNL A   1      50.245  22.289  34.792  1.00  0.00    -0.493 OA
ATOM     25  C   UNL A   1      50.841  22.233  33.497  1.00  0.00     0.278 C 
ENDBRANCH  19  24
BRANCH  21  26
ATOM     26  O   UNL A   1      48.616  19.891  34.372  1.00  0.00    -0.493 OA
ATOM     27  C   UNL A   1      48.453  19.429  33.037  1.00  0.00     0.278 C 
ENDBRANCH  21  26
ENDBRANCH  17  18
ENDBRANCH  16  17
ENDBRANCH  10  16
ENDBRANCH   7   9
ENDBRANCH   6   7
ENDBRANCH   5   6
ENDBRANCH   4   5
ENDBRANCH   3   4
ENDBRANCH   2   3
ENDBRANCH   1   2
BRANCH   1  28
ATOM     28  O   UNL A   1      36.470  32.558  34.679  1.00  0.00    -0.377 OA
BRANCH  28  29
ATOM     29  C   UNL A   1      35.946  32.972  33.417  1.00  0.00     0.188 C 
BRANCH  29  30
ATOM     30  C   UNL A   1      34.428  33.127  33.138  1.00  0.00     0.188 C 
BRANCH  30  31
ATOM     31  O   UNL A   1      34.095  33.539  31.823  1.00  0.00    -0.376 OA
BRANCH  31  32
ATOM     32  C   UNL A   1      34.898  33.094  30.746  1.00  0.00     0.202 C 
BRANCH  32  33
ATOM     33  C   UNL A   1      34.199  32.921  29.391  1.00  0.00     0.261 C 
BRANCH  33  34
ATOM     34  O   UNL A   1      34.976  32.291  28.363  1.00  0.00    -0.460 OA
BRANCH  34  35
ATOM     35  C   UNL A   1      34.788  30.969  28.168  1.00  0.00     0.338 C 
ATOM     36  O   UNL A   1      33.779  30.416  27.760  1.00  0.00    -0.246 OA
BRANCH  35  37
ATOM     37  C   UNL A   1      36.090  30.302  28.357  1.00  0.00     0.060 A 
ATOM     38  C   UNL A   1      36.373  29.686  29.584  1.00  0.00     0.016 A 
ATOM     39  C   UNL A   1      37.021  30.272  27.316  1.00  0.00     0.016 A 
ATOM     40  C   UNL A   1      37.608  29.068  29.785  1.00  0.00     0.010 A 
ATOM     41  C   UNL A   1      38.264  29.673  27.527  1.00  0.00     0.010 A 
ATOM     42  C   UNL A   1      38.575  29.099  28.773  1.00  0.00    -0.014 A 
BRANCH  42  43
ATOM     43  C   UNL A   1      39.976  28.723  29.078  1.00  0.00     0.031 A 
ATOM     44  C   UNL A   1      40.823  29.701  29.843  1.00  0.00     0.074 A 
ATOM     45  C   UNL A   1      40.485  27.541  28.694  1.00  0.00     0.049 A 
ATOM     46  N   UNL A   1      42.087  29.633  30.172  1.00  0.00    -0.248 NA
ATOM     47  C   UNL A   1      40.148  30.929  30.295  1.00  0.00     0.031 C 
ATOM     48  C   UNL A   1      39.754  26.495  27.986  1.00  0.00     0.029 A 
ATOM     49  N   UNL A   1      41.751  27.030  28.839  1.00  0.00    -0.354 N 
ATOM     50  C   UNL A   1      42.361  30.811  30.856  1.00  0.00     0.074 A 
ATOM     51  C   UNL A   1      41.143  31.589  30.866  1.00  0.00     0.031 C 
ATOM     52  C   UNL A   1      40.588  25.469  27.744  1.00  0.00     0.029 A 
ATOM     53  C   UNL A   1      41.920  25.804  28.247  1.00  0.00     0.049 A 
ATOM     54  H   UNL A   1      42.470  27.499  29.323  1.00  0.00     0.167 HD
ATOM     55  C   UNL A   1      43.523  31.202  31.431  1.00  0.00     0.037 A 
ATOM     56  C   UNL A   1      43.032  25.055  28.105  1.00  0.00     0.037 A 
ATOM     57  C   UNL A   1      44.734  30.425  31.410  1.00  0.00     0.049 A 
ATOM     58  C   UNL A   1      44.335  25.547  28.682  1.00  0.00     0.074 A 
ATOM     59  C   UNL A   1      45.959  30.723  31.978  1.00  0.00     0.029 A 
ATOM     60  N   UNL A   1      44.874  29.201  30.773  1.00  0.00    -0.354 N 
ATOM     61  N   UNL A   1      44.583  26.647  29.353  1.00  0.00    -0.248 NA
ATOM     62  C   UNL A   1      45.514  24.691  28.485  1.00  0.00     0.031 C 
ATOM     63  C   UNL A   1      46.860  29.711  31.628  1.00  0.00     0.029 A 
ATOM     64  C   UNL A   1      46.176  28.745  30.906  1.00  0.00     0.049 A 
ATOM     65  H   UNL A   1      44.156  28.725  30.297  1.00  0.00     0.167 HD
ATOM     66  C   UNL A   1      45.931  26.599  29.687  1.00  0.00     0.074 A 
ATOM     67  C   UNL A   1      46.447  25.355  29.154  1.00  0.00     0.031 C 
ATOM     68  C   UNL A   1      46.675  27.500  30.377  1.00  0.00     0.037 A 
BRANCH  55  69
ATOM     69  C   UNL A   1      43.545  32.549  32.094  1.00  0.00     0.064 A 
ATOM     70  C   UNL A   1      43.268  32.711  33.460  1.00  0.00     0.173 A 
ATOM     71  C   UNL A   1      43.862  33.698  31.352  1.00  0.00     0.173 A 
ATOM     72  F   UNL A   1      42.944  31.648  34.213  1.00  0.00    -0.203 F 
ATOM     73  C   UNL A   1      43.273  33.973  34.049  1.00  0.00     0.198 A 
ATOM     74  C   UNL A   1      43.902  34.953  31.952  1.00  0.00     0.198 A 
ATOM     75  F   UNL A   1      44.138  33.603  30.042  1.00  0.00    -0.203 F 
ATOM     76  F   UNL A   1      42.945  34.108  35.342  1.00  0.00    -0.200 F 
ATOM     77  C   UNL A   1      43.596  35.092  33.297  1.00  0.00     0.200 A 
ATOM     78  F   UNL A   1      44.229  36.031  31.225  1.00  0.00    -0.200 F 
ATOM     79  F   UNL A   1      43.604  36.304  33.866  1.00  0.00    -0.200 F 
ENDBRANCH  55  69
BRANCH  56  80
ATOM     80  C   UNL A   1      42.965  23.761  27.374  1.00  0.00     0.064 A 
ATOM     81  C   UNL A   1      42.501  22.597  28.000  1.00  0.00     0.173 A 
ATOM     82  C   UNL A   1      43.377  23.659  26.036  1.00  0.00     0.173 A 
ATOM     83  F   UNL A   1      42.120  22.636  29.286  1.00  0.00    -0.203 F 
ATOM     84  C   UNL A   1      42.466  21.378  27.325  1.00  0.00     0.198 A 
ATOM     85  C   UNL A   1      43.312  22.447  25.351  1.00  0.00     0.198 A 
ATOM     86  F   UNL A   1      43.833  24.742  25.388  1.00  0.00    -0.203 F 
ATOM     87  F   UNL A   1      42.061  20.272  27.964  1.00  0.00    -0.200 F 
ATOM     88  C   UNL A   1      42.864  21.306  25.999  1.00  0.00     0.200 A 
ATOM     89  F   UNL A   1      43.684  22.386  24.065  1.00  0.00    -0.200 F 
ATOM     90  F   UNL A   1      42.823  20.136  25.347  1.00  0.00    -0.200 F 
ENDBRANCH  56  80
BRANCH  68  91
ATOM     91  C   UNL A   1      48.114  27.157  30.642  1.00  0.00     0.064 A 
ATOM     92  C   UNL A   1      48.507  26.410  31.762  1.00  0.00     0.173 A 
ATOM     93  C   UNL A   1      49.112  27.542  29.732  1.00  0.00     0.173 A 
ATOM     94  F   UNL A   1      47.598  26.025  32.670  1.00  0.00    -0.203 F 
ATOM     95  C   UNL A   1      49.846  26.087  31.976  1.00  0.00     0.198 A 
ATOM     96  C   UNL A   1      50.443  27.187  29.929  1.00  0.00     0.198 A 
ATOM     97  F   UNL A   1      48.792  28.251  28.638  1.00  0.00    -0.203 F 
ATOM     98  F   UNL A   1      50.204  25.417  33.080  1.00  0.00    -0.200 F 
ATOM     99  C   UNL A   1      50.810  26.467  31.055  1.00  0.00     0.200 A 
ATOM    100  F   UNL A   1      51.370  27.540  29.027  1.00  0.00    -0.200 F 
ATOM    101  F   UNL A   1      52.095  26.147  31.256  1.00  0.00    -0.200 F 
ENDBRANCH  68  91
ENDBRANCH  42  43
ENDBRANCH  35  37
ENDBRANCH  34  35
ENDBRANCH  33  34
ENDBRANCH  32  33
ENDBRANCH  31  32
ENDBRANCH  30  31
ENDBRANCH  29  30
ENDBRANCH  28  29
ENDBRANCH   1  28
TORSDOF 25
ENDMDL
MODEL 2
REMARK VINA RESULT:      -8.0      4.811     12.119
REMARK SMILES COc1ccc(CCn2cc(C(=O)OCCOCCOCCOCCOC(=O)c3ccc(-c4c5nc(c(-c6c(F)c(F)c(F)c(F)c6F)c6ccc([nH]6)c(-c6c(F)c(F)c(F)c(F)c6F)c6nc(c(-c7c(F)c(F)c(F)c(F)c7F)c7ccc4[nH]7)C=C6)C=C5)cc3)ccc2=O)cc1OC
REMARK SMILES IDX 19 1 18 2 17 3 16 4 15 5 14 6 12 7 13 8 11 9 9 10 10 11
REMARK SMILES IDX 94 12 93 13 95 14 92 15 8 16 7 17 6 18 3 19 4 20 97 21 5 22
REMARK SMILES IDX 96 23 2 24 1 25 98 26 99 27 20 28 21 29 22 30 23 31 24 32
REMARK SMILES IDX 25 33 26 34 27 35 28 36 29 37 30 38 91 39 31 40 90 41 32 42
REMARK SMILES IDX 33 43 34 44 84 45 35 46 89 47 83 48 85 49 36 50 88 51 82 52
REMARK SMILES IDX 81 53 37 55 69 56 49 57 68 58 50 59 53 60 67 61 86 62 51 63
REMARK SMILES IDX 52 64 66 66 87 67 54 68 38 69 39 70 47 71 40 72 41 73 45 74
REMARK SMILES IDX 48 75 42 76 43 77 46 78 44 79 70 80 71 81 79 82 72 83 73 84
REMARK SMILES IDX 77 85 80 86 74 87 75 88 78 89 76 90 55 91 56 92 64 93 57 94
REMARK SMILES IDX 58 95 62 96 65 97 59 98 60 99 63 100 61 101
REMARK H PARENT 85 54 53 65
REMARK Flexibility Score: inf
ROOT
ATOM      1  C   UNL A   1      33.601  35.885  32.400  1.00  0.00     0.188 C 
ENDROOT
BRANCH   1   2
ATOM      2  C   UNL A   1      33.096  36.724  31.207  1.00  0.00     0.188 C 
BRANCH   2   3
ATOM      3  O   UNL A   1      32.659  35.933  30.114  1.00  0.00    -0.376 OA
BRANCH   3   4
ATOM      4  C   UNL A   1      33.064  36.228  28.791  1.00  0.00     0.202 C 
BRANCH   4   5
ATOM      5  C   UNL A   1      34.278  35.547  28.137  1.00  0.00     0.261 C 
BRANCH   5   6
ATOM      6  O   UNL A   1      34.220  34.129  28.001  1.00  0.00    -0.460 OA
BRANCH   6   7
ATOM      7  C   UNL A   1      35.060  33.404  28.767  1.00  0.00     0.339 C 
ATOM      8  O   UNL A   1      35.662  33.791  29.754  1.00  0.00    -0.246 OA
BRANCH   7   9
ATOM      9  C   UNL A   1      35.005  31.988  28.324  1.00  0.00     0.076 A 
ATOM     10  N   UNL A   1      33.688  30.126  27.668  1.00  0.00    -0.314 N 
ATOM     11  C   UNL A   1      33.814  31.372  28.267  1.00  0.00     0.104 A 
ATOM     12  C   UNL A   1      34.795  29.349  27.314  1.00  0.00     0.250 A 
ATOM     13  C   UNL A   1      36.121  30.008  27.484  1.00  0.00     0.072 A 
ATOM     14  O   UNL A   1      34.747  28.216  26.849  1.00  0.00    -0.269 OA
ATOM     15  C   UNL A   1      36.196  31.275  27.912  1.00  0.00     0.023 A 
BRANCH  10  16
ATOM     16  C   UNL A   1      32.365  29.737  27.173  1.00  0.00     0.130 C 
BRANCH  16  17
ATOM     17  C   UNL A   1      32.000  30.446  25.842  1.00  0.00     0.057 C 
BRANCH  17  18
ATOM     18  C   UNL A   1      31.828  29.534  24.642  1.00  0.00    -0.042 A 
ATOM     19  C   UNL A   1      31.382  27.742  22.506  1.00  0.00     0.160 A 
ATOM     20  C   UNL A   1      32.544  27.647  23.268  1.00  0.00     0.051 A 
ATOM     21  C   UNL A   1      30.466  28.769  22.765  1.00  0.00     0.160 A 
ATOM     22  C   UNL A   1      32.780  28.566  24.292  1.00  0.00     0.008 A 
ATOM     23  C   UNL A   1      30.686  29.638  23.844  1.00  0.00     0.054 A 
BRANCH  19  24
ATOM     24  O   UNL A   1      31.087  26.756  21.605  1.00  0.00    -0.493 OA
ATOM     25  C   UNL A   1      32.162  25.841  21.397  1.00  0.00     0.278 C 
ENDBRANCH  19  24
BRANCH  21  26
ATOM     26  O   UNL A   1      29.307  29.030  22.084  1.00  0.00    -0.493 OA
ATOM     27  C   UNL A   1      29.050  30.398  21.791  1.00  0.00     0.278 C 
ENDBRANCH  21  26
ENDBRANCH  17  18
ENDBRANCH  16  17
ENDBRANCH  10  16
ENDBRANCH   7   9
ENDBRANCH   6   7
ENDBRANCH   5   6
ENDBRANCH   4   5
ENDBRANCH   3   4
ENDBRANCH   2   3
ENDBRANCH   1   2
BRANCH   1  28
ATOM     28  O   UNL A   1      33.258  34.510  32.361  1.00  0.00    -0.377 OA
BRANCH  28  29
ATOM     29  C   UNL A   1      33.996  33.590  33.164  1.00  0.00     0.188 C 
BRANCH  29  30
ATOM     30  C   UNL A   1      35.306  33.971  33.904  1.00  0.00     0.188 C 
BRANCH  30  31
ATOM     31  O   UNL A   1      36.463  34.032  33.088  1.00  0.00    -0.376 OA
BRANCH  31  32
ATOM     32  C   UNL A   1      37.442  33.018  33.217  1.00  0.00     0.202 C 
BRANCH  32  33
ATOM     33  C   UNL A   1      36.934  31.600  33.506  1.00  0.00     0.261 C 
BRANCH  33  34
ATOM     34  O   UNL A   1      36.977  30.683  32.404  1.00  0.00    -0.460 OA
BRANCH  34  35
ATOM     35  C   UNL A   1      37.818  29.632  32.507  1.00  0.00     0.338 C 
ATOM     36  O   UNL A   1      37.560  28.517  32.930  1.00  0.00    -0.246 OA
BRANCH  35  37
ATOM     37  C   UNL A   1      39.079  30.004  31.838  1.00  0.00     0.060 A 
ATOM     38  C   UNL A   1      40.212  30.280  32.615  1.00  0.00     0.016 A 
ATOM     39  C   UNL A   1      39.143  30.063  30.444  1.00  0.00     0.016 A 
ATOM     40  C   UNL A   1      41.407  30.652  31.999  1.00  0.00     0.010 A 
ATOM     41  C   UNL A   1      40.333  30.457  29.830  1.00  0.00     0.010 A 
ATOM     42  C   UNL A   1      41.459  30.786  30.606  1.00  0.00    -0.014 A 
BRANCH  42  43
ATOM     43  C   UNL A   1      42.613  31.466  29.972  1.00  0.00     0.031 A 
ATOM     44  C   UNL A   1      43.780  30.626  29.534  1.00  0.00     0.074 A 
ATOM     45  C   UNL A   1      42.627  32.796  29.781  1.00  0.00     0.049 A 
ATOM     46  N   UNL A   1      44.926  30.990  29.021  1.00  0.00    -0.248 NA
ATOM     47  C   UNL A   1      43.631  29.171  29.706  1.00  0.00     0.031 C 
ATOM     48  C   UNL A   1      41.542  33.711  30.123  1.00  0.00     0.029 A 
ATOM     49  N   UNL A   1      43.604  33.608  29.260  1.00  0.00    -0.354 N 
ATOM     50  C   UNL A   1      45.638  29.813  28.820  1.00  0.00     0.074 A 
ATOM     51  C   UNL A   1      44.810  28.729  29.298  1.00  0.00     0.031 C 
ATOM     52  C   UNL A   1      41.918  34.965  29.817  1.00  0.00     0.029 A 
ATOM     53  C   UNL A   1      43.284  34.943  29.292  1.00  0.00     0.049 A 
ATOM     54  H   UNL A   1      44.453  33.266  28.898  1.00  0.00     0.167 HD
ATOM     55  C   UNL A   1      46.868  29.654  28.279  1.00  0.00     0.037 A 
ATOM     56  C   UNL A   1      44.022  36.020  28.962  1.00  0.00     0.037 A 
ATOM     57  C   UNL A   1      47.690  30.739  27.812  1.00  0.00     0.049 A 
ATOM     58  C   UNL A   1      45.422  35.824  28.436  1.00  0.00     0.074 A 
ATOM     59  C   UNL A   1      48.944  30.684  27.231  1.00  0.00     0.029 A 
ATOM     60  N   UNL A   1      47.344  32.080  27.890  1.00  0.00    -0.354 N 
ATOM     61  N   UNL A   1      46.081  34.710  28.221  1.00  0.00    -0.248 NA
ATOM     62  C   UNL A   1      46.182  37.039  28.104  1.00  0.00     0.031 C 
ATOM     63  C   UNL A   1      49.385  31.993  27.017  1.00  0.00     0.029 A 
ATOM     64  C   UNL A   1      48.375  32.864  27.396  1.00  0.00     0.049 A 
ATOM     65  H   UNL A   1      46.492  32.425  28.242  1.00  0.00     0.167 HD
ATOM     66  C   UNL A   1      47.313  35.085  27.698  1.00  0.00     0.074 A 
ATOM     67  C   UNL A   1      47.306  36.531  27.618  1.00  0.00     0.031 C 
ATOM     68  C   UNL A   1      48.353  34.304  27.314  1.00  0.00     0.037 A 
BRANCH  55  69
ATOM     69  C   UNL A   1      47.413  28.256  28.201  1.00  0.00     0.064 A 
ATOM     70  C   UNL A   1      47.217  27.443  27.074  1.00  0.00     0.173 A 
ATOM     71  C   UNL A   1      48.154  27.726  29.269  1.00  0.00     0.173 A 
ATOM     72  F   UNL A   1      46.503  27.895  26.032  1.00  0.00    -0.203 F 
ATOM     73  C   UNL A   1      47.712  26.142  27.034  1.00  0.00     0.198 A 
ATOM     74  C   UNL A   1      48.678  26.438  29.210  1.00  0.00     0.198 A 
ATOM     75  F   UNL A   1      48.374  28.459  30.371  1.00  0.00    -0.203 F 
ATOM     76  F   UNL A   1      47.459  25.364  25.972  1.00  0.00    -0.200 F 
ATOM     77  C   UNL A   1      48.447  25.642  28.098  1.00  0.00     0.200 A 
ATOM     78  F   UNL A   1      49.401  25.963  30.234  1.00  0.00    -0.200 F 
ATOM     79  F   UNL A   1      48.927  24.393  28.056  1.00  0.00    -0.200 F 
ENDBRANCH  55  69
BRANCH  56  80
ATOM     80  C   UNL A   1      43.457  37.386  29.129  1.00  0.00     0.064 A 
ATOM     81  C   UNL A   1      42.599  37.937  28.168  1.00  0.00     0.173 A 
ATOM     82  C   UNL A   1      43.774  38.173  30.246  1.00  0.00     0.173 A 
ATOM     83  F   UNL A   1      42.285  37.235  27.069  1.00  0.00    -0.203 F 
ATOM     84  C   UNL A   1      42.092  39.228  28.308  1.00  0.00     0.198 A 
ATOM     85  C   UNL A   1      43.242  39.452  30.402  1.00  0.00     0.198 A 
ATOM     86  F   UNL A   1      44.594  37.696  31.194  1.00  0.00    -0.203 F 
ATOM     87  F   UNL A   1      41.311  39.747  27.352  1.00  0.00    -0.200 F 
ATOM     88  C   UNL A   1      42.408  39.981  29.429  1.00  0.00     0.200 A 
ATOM     89  F   UNL A   1      43.538  40.170  31.495  1.00  0.00    -0.200 F 
ATOM     90  F   UNL A   1      41.914  41.219  29.569  1.00  0.00    -0.200 F 
ENDBRANCH  56  80
BRANCH  68  91
ATOM     91  C   UNL A   1      49.556  34.986  26.724  1.00  0.00     0.064 A 
ATOM     92  C   UNL A   1      50.721  35.216  27.470  1.00  0.00     0.173 A 
ATOM     93  C   UNL A   1      49.558  35.371  25.374  1.00  0.00     0.173 A 
ATOM     94  F   UNL A   1      50.770  34.878  28.768  1.00  0.00    -0.203 F 
ATOM     95  C   UNL A   1      51.831  35.831  26.895  1.00  0.00     0.198 A 
ATOM     96  C   UNL A   1      50.681  35.953  24.793  1.00  0.00     0.198 A 
ATOM     97  F   UNL A   1      48.474  35.167  24.610  1.00  0.00    -0.203 F 
ATOM     98  F   UNL A   1      52.914  36.088  27.642  1.00  0.00    -0.200 F 
ATOM     99  C   UNL A   1      51.814  36.190  25.556  1.00  0.00     0.200 A 
ATOM    100  F   UNL A   1      50.668  36.281  23.493  1.00  0.00    -0.200 F 
ATOM    101  F   UNL A   1      52.886  36.772  25.002  1.00  0.00    -0.200 F 
ENDBRANCH  68  91
ENDBRANCH  42  43
ENDBRANCH  35  37
ENDBRANCH  34  35
ENDBRANCH  33  34
ENDBRANCH  32  33
ENDBRANCH  31  32
ENDBRANCH  30  31
ENDBRANCH  29  30
ENDBRANCH  28  29
ENDBRANCH   1  28
TORSDOF 25
ENDMDL
MODEL 3
REMARK VINA RESULT:      -7.6      1.678      2.611
REMARK SMILES COc1ccc(CCn2cc(C(=O)OCCOCCOCCOCCOC(=O)c3ccc(-c4c5nc(c(-c6c(F)c(F)c(F)c(F)c6F)c6ccc([nH]6)c(-c6c(F)c(F)c(F)c(F)c6F)c6nc(c(-c7c(F)c(F)c(F)c(F)c7F)c7ccc4[nH]7)C=C6)C=C5)cc3)ccc2=O)cc1OC
REMARK SMILES IDX 19 1 18 2 17 3 16 4 15 5 14 6 12 7 13 8 11 9 9 10 10 11
REMARK SMILES IDX 94 12 93 13 95 14 92 15 8 16 7 17 6 18 3 19 4 20 97 21 5 22
REMARK SMILES IDX 96 23 2 24 1 25 98 26 99 27 20 28 21 29 22 30 23 31 24 32
REMARK SMILES IDX 25 33 26 34 27 35 28 36 29 37 30 38 91 39 31 40 90 41 32 42
REMARK SMILES IDX 33 43 34 44 84 45 35 46 89 47 83 48 85 49 36 50 88 51 82 52
REMARK SMILES IDX 81 53 37 55 69 56 49 57 68 58 50 59 53 60 67 61 86 62 51 63
REMARK SMILES IDX 52 64 66 66 87 67 54 68 38 69 39 70 47 71 40 72 41 73 45 74
REMARK SMILES IDX 48 75 42 76 43 77 46 78 44 79 70 80 71 81 79 82 72 83 73 84
REMARK SMILES IDX 77 85 80 86 74 87 75 88 78 89 76 90 55 91 56 92 64 93 57 94
REMARK SMILES IDX 58 95 62 96 65 97 59 98 60 99 63 100 61 101
REMARK H PARENT 85 54 53 65
REMARK Flexibility Score: inf
ROOT
ATOM      1  C   UNL A   1      37.877  32.035  35.339  1.00  0.00     0.188 C 
ENDROOT
BRANCH   1   2
ATOM      2  C   UNL A   1      38.267  32.195  36.824  1.00  0.00     0.188 C 
BRANCH   2   3
ATOM      3  O   UNL A   1      39.603  31.803  37.095  1.00  0.00    -0.376 OA
BRANCH   3   4
ATOM      4  C   UNL A   1      40.578  32.753  37.481  1.00  0.00     0.202 C 
BRANCH   4   5
ATOM      5  C   UNL A   1      41.901  32.342  38.147  1.00  0.00     0.261 C 
BRANCH   5   6
ATOM      6  O   UNL A   1      42.995  32.060  37.277  1.00  0.00    -0.460 OA
BRANCH   6   7
ATOM      7  C   UNL A   1      43.291  30.761  37.064  1.00  0.00     0.339 C 
ATOM      8  O   UNL A   1      42.532  29.814  37.180  1.00  0.00    -0.246 OA
BRANCH   7   9
ATOM      9  C   UNL A   1      44.655  30.674  36.484  1.00  0.00     0.076 A 
ATOM     10  N   UNL A   1      46.339  29.344  35.474  1.00  0.00    -0.314 N 
ATOM     11  C   UNL A   1      45.163  29.465  36.200  1.00  0.00     0.104 A 
ATOM     12  C   UNL A   1      47.173  30.434  35.207  1.00  0.00     0.250 A 
ATOM     13  C   UNL A   1      46.643  31.762  35.625  1.00  0.00     0.072 A 
ATOM     14  O   UNL A   1      48.255  30.376  34.633  1.00  0.00    -0.269 OA
ATOM     15  C   UNL A   1      45.426  31.861  36.179  1.00  0.00     0.023 A 
BRANCH  10  16
ATOM     16  C   UNL A   1      46.574  28.084  34.761  1.00  0.00     0.130 C 
BRANCH  16  17
ATOM     17  C   UNL A   1      45.312  27.586  34.009  1.00  0.00     0.057 C 
BRANCH  17  18
ATOM     18  C   UNL A   1      44.895  26.159  34.307  1.00  0.00    -0.042 A 
ATOM     19  C   UNL A   1      44.297  23.459  34.879  1.00  0.00     0.160 A 
ATOM     20  C   UNL A   1      44.176  23.942  33.579  1.00  0.00     0.051 A 
ATOM     21  C   UNL A   1      44.657  24.334  35.912  1.00  0.00     0.160 A 
ATOM     22  C   UNL A   1      44.427  25.290  33.312  1.00  0.00     0.008 A 
ATOM     23  C   UNL A   1      44.976  25.667  35.613  1.00  0.00     0.054 A 
BRANCH  19  24
ATOM     24  O   UNL A   1      44.193  22.114  35.109  1.00  0.00    -0.493 OA
ATOM     25  C   UNL A   1      45.328  21.375  34.661  1.00  0.00     0.278 C 
ENDBRANCH  19  24
BRANCH  21  26
ATOM     26  O   UNL A   1      44.774  24.032  37.244  1.00  0.00    -0.493 OA
ATOM     27  C   UNL A   1      46.022  23.488  37.653  1.00  0.00     0.278 C 
ENDBRANCH  21  26
ENDBRANCH  17  18
ENDBRANCH  16  17
ENDBRANCH  10  16
ENDBRANCH   7   9
ENDBRANCH   6   7
ENDBRANCH   5   6
ENDBRANCH   4   5
ENDBRANCH   3   4
ENDBRANCH   2   3
ENDBRANCH   1   2
BRANCH   1  28
ATOM     28  O   UNL A   1      36.665  32.665  34.961  1.00  0.00    -0.377 OA
BRANCH  28  29
ATOM     29  C   UNL A   1      36.364  32.811  33.573  1.00  0.00     0.188 C 
BRANCH  29  30
ATOM     30  C   UNL A   1      34.917  32.935  33.027  1.00  0.00     0.188 C 
BRANCH  30  31
ATOM     31  O   UNL A   1      34.794  33.632  31.799  1.00  0.00    -0.376 OA
BRANCH  31  32
ATOM     32  C   UNL A   1      35.363  33.067  30.634  1.00  0.00     0.202 C 
BRANCH  32  33
ATOM     33  C   UNL A   1      34.423  32.858  29.439  1.00  0.00     0.261 C 
BRANCH  33  34
ATOM     34  O   UNL A   1      35.011  32.253  28.279  1.00  0.00    -0.460 OA
BRANCH  34  35
ATOM     35  C   UNL A   1      34.817  30.929  28.107  1.00  0.00     0.338 C 
ATOM     36  O   UNL A   1      33.801  30.372  27.724  1.00  0.00    -0.246 OA
BRANCH  35  37
ATOM     37  C   UNL A   1      36.121  30.261  28.285  1.00  0.00     0.060 A 
ATOM     38  C   UNL A   1      36.407  29.629  29.504  1.00  0.00     0.016 A 
ATOM     39  C   UNL A   1      37.050  30.247  27.243  1.00  0.00     0.016 A 
ATOM     40  C   UNL A   1      37.643  29.011  29.695  1.00  0.00     0.010 A 
ATOM     41  C   UNL A   1      38.294  29.647  27.444  1.00  0.00     0.010 A 
ATOM     42  C   UNL A   1      38.609  29.058  28.682  1.00  0.00    -0.014 A 
BRANCH  42  43
ATOM     43  C   UNL A   1      40.010  28.680  28.980  1.00  0.00     0.031 A 
ATOM     44  C   UNL A   1      40.870  29.667  29.718  1.00  0.00     0.074 A 
ATOM     45  C   UNL A   1      40.510  27.488  28.612  1.00  0.00     0.049 A 
ATOM     46  N   UNL A   1      42.137  29.598  30.035  1.00  0.00    -0.248 NA
ATOM     47  C   UNL A   1      40.206  30.906  30.154  1.00  0.00     0.031 C 
ATOM     48  C   UNL A   1      39.766  26.433  27.931  1.00  0.00     0.029 A 
ATOM     49  N   UNL A   1      41.775  26.973  28.754  1.00  0.00    -0.354 N 
ATOM     50  C   UNL A   1      42.423  30.786  30.696  1.00  0.00     0.074 A 
ATOM     51  C   UNL A   1      41.210  31.571  30.703  1.00  0.00     0.031 C 
ATOM     52  C   UNL A   1      40.593  25.399  27.699  1.00  0.00     0.029 A 
ATOM     53  C   UNL A   1      41.932  25.735  28.182  1.00  0.00     0.049 A 
ATOM     54  H   UNL A   1      42.500  27.447  29.222  1.00  0.00     0.167 HD
ATOM     55  C   UNL A   1      43.593  31.182  31.251  1.00  0.00     0.037 A 
ATOM     56  C   UNL A   1      43.038  24.978  28.043  1.00  0.00     0.037 A 
ATOM     57  C   UNL A   1      44.800  30.399  31.233  1.00  0.00     0.049 A 
ATOM     58  C   UNL A   1      44.349  25.474  28.598  1.00  0.00     0.074 A 
ATOM     59  C   UNL A   1      46.033  30.700  31.782  1.00  0.00     0.029 A 
ATOM     60  N   UNL A   1      44.928  29.162  30.617  1.00  0.00    -0.354 N 
ATOM     61  N   UNL A   1      44.610  26.585  29.246  1.00  0.00    -0.248 NA
ATOM     62  C   UNL A   1      45.521  24.608  28.405  1.00  0.00     0.031 C 
ATOM     63  C   UNL A   1      46.924  29.678  31.442  1.00  0.00     0.029 A 
ATOM     64  C   UNL A   1      46.229  28.703  30.745  1.00  0.00     0.049 A 
ATOM     65  H   UNL A   1      44.202  28.681  30.157  1.00  0.00     0.167 HD
ATOM     66  C   UNL A   1      45.961  26.536  29.568  1.00  0.00     0.074 A 
ATOM     67  C   UNL A   1      46.464  25.279  29.052  1.00  0.00     0.031 C 
ATOM     68  C   UNL A   1      46.716  27.445  30.234  1.00  0.00     0.037 A 
BRANCH  55  69
ATOM     69  C   UNL A   1      43.629  32.541  31.890  1.00  0.00     0.064 A 
ATOM     70  C   UNL A   1      43.261  32.744  33.228  1.00  0.00     0.173 A 
ATOM     71  C   UNL A   1      44.051  33.659  31.151  1.00  0.00     0.173 A 
ATOM     72  F   UNL A   1      42.836  31.714  33.975  1.00  0.00    -0.203 F 
ATOM     73  C   UNL A   1      43.281  34.017  33.793  1.00  0.00     0.198 A 
ATOM     74  C   UNL A   1      44.105  34.923  31.730  1.00  0.00     0.198 A 
ATOM     75  F   UNL A   1      44.417  33.523  29.868  1.00  0.00    -0.203 F 
ATOM     76  F   UNL A   1      42.867  34.194  35.055  1.00  0.00    -0.200 F 
ATOM     77  C   UNL A   1      43.709  35.105  33.046  1.00  0.00     0.200 A 
ATOM     78  F   UNL A   1      44.533  35.969  31.010  1.00  0.00    -0.200 F 
ATOM     79  F   UNL A   1      43.732  36.327  33.592  1.00  0.00    -0.200 F 
ENDBRANCH  55  69
BRANCH  56  80
ATOM     80  C   UNL A   1      42.957  23.672  27.336  1.00  0.00     0.064 A 
ATOM     81  C   UNL A   1      42.448  22.532  27.974  1.00  0.00     0.173 A 
ATOM     82  C   UNL A   1      43.399  23.532  26.012  1.00  0.00     0.173 A 
ATOM     83  F   UNL A   1      42.037  22.607  29.248  1.00  0.00    -0.203 F 
ATOM     84  C   UNL A   1      42.400  21.301  27.323  1.00  0.00     0.198 A 
ATOM     85  C   UNL A   1      43.322  22.308  25.350  1.00  0.00     0.198 A 
ATOM     86  F   UNL A   1      43.899  24.590  25.355  1.00  0.00    -0.203 F 
ATOM     87  F   UNL A   1      41.953  20.219  27.972  1.00  0.00    -0.200 F 
ATOM     88  C   UNL A   1      42.829  21.192  26.009  1.00  0.00     0.200 A 
ATOM     89  F   UNL A   1      43.724  22.212  24.075  1.00  0.00    -0.200 F 
ATOM     90  F   UNL A   1      42.775  20.011  25.379  1.00  0.00    -0.200 F 
ENDBRANCH  56  80
BRANCH  68  91
ATOM     91  C   UNL A   1      48.156  27.100  30.491  1.00  0.00     0.064 A 
ATOM     92  C   UNL A   1      48.543  26.258  31.544  1.00  0.00     0.173 A 
ATOM     93  C   UNL A   1      49.162  27.581  29.637  1.00  0.00     0.173 A 
ATOM     94  F   UNL A   1      47.625  25.778  32.397  1.00  0.00    -0.203 F 
ATOM     95  C   UNL A   1      49.883  25.935  31.749  1.00  0.00     0.198 A 
ATOM     96  C   UNL A   1      50.495  27.229  29.823  1.00  0.00     0.198 A 
ATOM     97  F   UNL A   1      48.848  28.383  28.608  1.00  0.00    -0.203 F 
ATOM     98  F   UNL A   1      50.234  25.172  32.793  1.00  0.00    -0.200 F 
ATOM     99  C   UNL A   1      50.855  26.413  30.884  1.00  0.00     0.200 A 
ATOM    100  F   UNL A   1      51.431  27.676  28.974  1.00  0.00    -0.200 F 
ATOM    101  F   UNL A   1      52.142  26.093  31.077  1.00  0.00    -0.200 F 
ENDBRANCH  68  91
ENDBRANCH  42  43
ENDBRANCH  35  37
ENDBRANCH  34  35
ENDBRANCH  33  34
ENDBRANCH  32  33
ENDBRANCH  31  32
ENDBRANCH  30  31
ENDBRANCH  29  30
ENDBRANCH  28  29
ENDBRANCH   1  28
TORSDOF 25
ENDMDL
