MODEL 1
REMARK VINA RESULT:      -9.0      0.000      0.000
REMARK SMILES CC(C)[C@@H]1SC[C@@H](C(=O)OCCOCCOCCOCCOC(=O)c2ccc(-c3c4nc(c(-c5c(F)c(F)c(F)c(F)c5F)c5ccc([nH]5)c(-c5c(F)c(F)c(F)c(F)c5F)c5nc(c(-c6c(F)c(F)c(F)c(F)c6F)c6ccc3[nH]6)C=C5)C=C4)cc2)N1C(=O)COCC[NH3+]
REMARK SMILES IDX 14 1 13 2 12 3 11 4 10 5 8 6 9 7 7 8 4 9 5 10 88 11 6 12
REMARK SMILES IDX 2 13 1 14 3 15 89 16 90 17 91 18 92 19 93 20 94 21 95 22
REMARK SMILES IDX 15 26 16 27 17 28 18 29 19 30 20 31 21 32 22 33 23 34 24 35
REMARK SMILES IDX 25 36 26 37 87 38 27 39 86 40 28 41 29 42 30 43 80 44 31 45
REMARK SMILES IDX 85 46 79 47 81 48 32 49 84 50 78 51 77 52 33 54 65 55 45 56
REMARK SMILES IDX 64 57 46 58 49 59 63 60 82 61 47 62 48 63 62 65 83 66 50 67
REMARK SMILES IDX 34 68 35 69 43 70 36 71 37 72 41 73 44 74 38 75 39 76 42 77
REMARK SMILES IDX 40 78 66 79 67 80 75 81 68 82 69 83 73 84 76 85 70 86 71 87
REMARK SMILES IDX 74 88 72 89 51 90 52 91 60 92 53 93 54 94 58 95 61 96 55 97
REMARK SMILES IDX 56 98 59 99 57 100
REMARK H PARENT 95 23 95 24 95 25 81 53 49 64
REMARK Flexibility Score: inf
ROOT
ATOM      1  C   UNL A   1      33.219  29.900  27.300  1.00  0.00     0.188 C 
ENDROOT
BRANCH   1   2
ATOM      2  O   UNL A   1      33.073  28.508  27.163  1.00  0.00    -0.376 OA
BRANCH   2   3
ATOM      3  C   UNL A   1      31.859  27.801  27.211  1.00  0.00     0.202 C 
BRANCH   3   4
ATOM      4  C   UNL A   1      31.481  26.567  26.370  1.00  0.00     0.261 C 
BRANCH   4   5
ATOM      5  O   UNL A   1      32.293  25.387  26.452  1.00  0.00    -0.462 OA
BRANCH   5   6
ATOM      6  C   UNL A   1      31.619  24.207  26.412  1.00  0.00     0.329 C 
ATOM      7  O   UNL A   1      30.707  23.936  27.192  1.00  0.00    -0.250 OA
BRANCH   6   8
ATOM      8  C   UNL A   1      32.181  23.148  25.409  1.00  0.00     0.206 C 
ATOM      9  C   UNL A   1      34.647  23.134  24.998  1.00  0.00     0.146 C 
ATOM     10  S   UNL A   1      34.306  22.297  26.633  1.00  0.00    -0.134 SA
ATOM     11  N   UNL A   1      33.307  23.380  24.427  1.00  0.00    -0.314 N 
ATOM     12  C   UNL A   1      32.568  21.967  26.278  1.00  0.00     0.109 C 
BRANCH   9  13
ATOM     13  C   UNL A   1      35.741  22.246  24.319  1.00  0.00     0.016 C 
ATOM     14  C   UNL A   1      36.652  22.925  23.294  1.00  0.00     0.010 C 
ATOM     15  C   UNL A   1      36.581  21.394  25.261  1.00  0.00     0.010 C 
ENDBRANCH   9  13
BRANCH  11  16
ATOM     16  C   UNL A   1      32.927  23.945  23.218  1.00  0.00     0.250 C 
ATOM     17  O   UNL A   1      32.382  23.209  22.374  1.00  0.00    -0.272 OA
BRANCH  16  18
ATOM     18  C   UNL A   1      33.179  25.414  22.751  1.00  0.00     0.260 C 
BRANCH  18  19
ATOM     19  O   UNL A   1      32.606  26.598  23.243  1.00  0.00    -0.366 OA
BRANCH  19  20
ATOM     20  C   UNL A   1      31.559  27.197  22.492  1.00  0.00     0.222 C 
BRANCH  20  21
ATOM     21  C   UNL A   1      31.179  28.616  22.973  1.00  0.00     0.287 C 
BRANCH  21  22
ATOM     22  N   UNL A   1      31.386  29.695  22.005  1.00  0.00    -0.356 N 
ATOM     23  H   UNL A   1      30.663  30.404  22.127  1.00  0.00     0.344 HD
ATOM     24  H   UNL A   1      31.335  29.317  21.059  1.00  0.00     0.344 HD
ATOM     25  H   UNL A   1      32.304  30.115  22.155  1.00  0.00     0.344 HD
ENDBRANCH  21  22
ENDBRANCH  20  21
ENDBRANCH  19  20
ENDBRANCH  18  19
ENDBRANCH  16  18
ENDBRANCH  11  16
ENDBRANCH   6   8
ENDBRANCH   5   6
ENDBRANCH   4   5
ENDBRANCH   3   4
ENDBRANCH   2   3
ENDBRANCH   1   2
BRANCH   1  26
ATOM     26  C   UNL A   1      34.599  30.579  27.234  1.00  0.00     0.188 C 
BRANCH  26  27
ATOM     27  O   UNL A   1      35.086  31.664  27.999  1.00  0.00    -0.377 OA
BRANCH  27  28
ATOM     28  C   UNL A   1      34.283  32.800  28.178  1.00  0.00     0.188 C 
BRANCH  28  29
ATOM     29  C   UNL A   1      35.106  34.083  28.311  1.00  0.00     0.188 C 
BRANCH  29  30
ATOM     30  O   UNL A   1      34.516  35.011  29.210  1.00  0.00    -0.376 OA
BRANCH  30  31
ATOM     31  C   UNL A   1      33.820  34.482  30.331  1.00  0.00     0.202 C 
BRANCH  31  32
ATOM     32  C   UNL A   1      34.604  34.066  31.589  1.00  0.00     0.261 C 
BRANCH  32  33
ATOM     33  O   UNL A   1      35.208  32.759  31.598  1.00  0.00    -0.460 OA
BRANCH  33  34
ATOM     34  C   UNL A   1      36.100  32.486  32.565  1.00  0.00     0.338 C 
ATOM     35  O   UNL A   1      35.865  32.326  33.754  1.00  0.00    -0.246 OA
BRANCH  34  36
ATOM     36  C   UNL A   1      37.409  32.216  31.931  1.00  0.00     0.060 A 
ATOM     37  C   UNL A   1      37.516  32.372  30.543  1.00  0.00     0.016 A 
ATOM     38  C   UNL A   1      38.520  31.804  32.676  1.00  0.00     0.016 A 
ATOM     39  C   UNL A   1      38.717  32.092  29.891  1.00  0.00     0.010 A 
ATOM     40  C   UNL A   1      39.719  31.495  32.015  1.00  0.00     0.010 A 
ATOM     41  C   UNL A   1      39.811  31.602  30.615  1.00  0.00    -0.014 A 
BRANCH  41  42
ATOM     42  C   UNL A   1      40.950  31.002  29.870  1.00  0.00     0.031 A 
ATOM     43  C   UNL A   1      42.171  31.849  29.633  1.00  0.00     0.074 A 
ATOM     44  C   UNL A   1      40.942  29.716  29.478  1.00  0.00     0.049 A 
ATOM     45  N   UNL A   1      43.294  31.549  29.033  1.00  0.00    -0.248 NA
ATOM     46  C   UNL A   1      42.114  33.227  30.148  1.00  0.00     0.031 C 
ATOM     47  C   UNL A   1      39.845  28.775  29.690  1.00  0.00     0.029 A 
ATOM     48  N   UNL A   1      41.896  28.981  28.817  1.00  0.00    -0.354 N 
ATOM     49  C   UNL A   1      44.076  32.695  29.103  1.00  0.00     0.074 A 
ATOM     50  C   UNL A   1      43.284  33.710  29.761  1.00  0.00     0.031 C 
ATOM     51  C   UNL A   1      40.183  27.587  29.158  1.00  0.00     0.029 A 
ATOM     52  C   UNL A   1      41.508  27.692  28.544  1.00  0.00     0.049 A 
ATOM     53  H   UNL A   1      42.775  29.342  28.563  1.00  0.00     0.167 HD
ATOM     54  C   UNL A   1      45.347  32.883  28.671  1.00  0.00     0.037 A 
ATOM     55  C   UNL A   1      42.140  26.717  27.858  1.00  0.00     0.037 A 
ATOM     56  C   UNL A   1      46.130  31.878  28.002  1.00  0.00     0.049 A 
ATOM     57  C   UNL A   1      43.519  26.976  27.303  1.00  0.00     0.074 A 
ATOM     58  C   UNL A   1      47.425  31.969  27.524  1.00  0.00     0.029 A 
ATOM     59  N   UNL A   1      45.683  30.599  27.702  1.00  0.00    -0.354 N 
ATOM     60  N   UNL A   1      44.262  28.053  27.394  1.00  0.00    -0.248 NA
ATOM     61  C   UNL A   1      44.152  25.879  26.556  1.00  0.00     0.031 C 
ATOM     62  C   UNL A   1      47.739  30.769  26.878  1.00  0.00     0.029 A 
ATOM     63  C   UNL A   1      46.666  29.902  27.018  1.00  0.00     0.049 A 
ATOM     64  H   UNL A   1      44.797  30.240  27.939  1.00  0.00     0.167 HD
ATOM     65  C   UNL A   1      45.455  27.755  26.747  1.00  0.00     0.074 A 
ATOM     66  C   UNL A   1      45.344  26.389  26.279  1.00  0.00     0.031 C 
ATOM     67  C   UNL A   1      46.546  28.539  26.561  1.00  0.00     0.037 A 
BRANCH  54  68
ATOM     68  C   UNL A   1      45.950  34.243  28.880  1.00  0.00     0.064 A 
ATOM     69  C   UNL A   1      46.687  34.558  30.034  1.00  0.00     0.173 A 
ATOM     70  C   UNL A   1      45.798  35.244  27.909  1.00  0.00     0.173 A 
ATOM     71  F   UNL A   1      46.851  33.642  31.000  1.00  0.00    -0.203 F 
ATOM     72  C   UNL A   1      47.211  35.834  30.224  1.00  0.00     0.198 A 
ATOM     73  C   UNL A   1      46.355  36.508  28.086  1.00  0.00     0.198 A 
ATOM     74  F   UNL A   1      45.108  34.997  26.785  1.00  0.00    -0.203 F 
ATOM     75  F   UNL A   1      47.853  36.130  31.362  1.00  0.00    -0.200 F 
ATOM     76  C   UNL A   1      47.051  36.806  29.247  1.00  0.00     0.200 A 
ATOM     77  F   UNL A   1      46.212  37.441  27.134  1.00  0.00    -0.200 F 
ATOM     78  F   UNL A   1      47.557  38.033  29.431  1.00  0.00    -0.200 F 
ENDBRANCH  54  68
BRANCH  55  79
ATOM     79  C   UNL A   1      41.467  25.408  27.638  1.00  0.00     0.064 A 
ATOM     80  C   UNL A   1      40.390  25.278  26.750  1.00  0.00     0.173 A 
ATOM     81  C   UNL A   1      41.879  24.258  28.331  1.00  0.00     0.173 A 
ATOM     82  F   UNL A   1      39.939  26.352  26.084  1.00  0.00    -0.203 F 
ATOM     83  C   UNL A   1      39.743  24.056  26.575  1.00  0.00     0.198 A 
ATOM     84  C   UNL A   1      41.252  23.031  28.131  1.00  0.00     0.198 A 
ATOM     85  F   UNL A   1      42.900  24.327  29.198  1.00  0.00    -0.203 F 
ATOM     86  F   UNL A   1      38.685  23.971  25.757  1.00  0.00    -0.200 F 
ATOM     87  C   UNL A   1      40.179  22.932  27.260  1.00  0.00     0.200 A 
ATOM     88  F   UNL A   1      41.687  21.945  28.785  1.00  0.00    -0.200 F 
ATOM     89  F   UNL A   1      39.561  21.756  27.086  1.00  0.00    -0.200 F 
ENDBRANCH  55  79
BRANCH  67  90
ATOM     90  C   UNL A   1      47.731  27.935  25.859  1.00  0.00     0.064 A 
ATOM     91  C   UNL A   1      48.834  27.428  26.563  1.00  0.00     0.173 A 
ATOM     92  C   UNL A   1      47.739  27.817  24.459  1.00  0.00     0.173 A 
ATOM     93  F   UNL A   1      48.884  27.525  27.900  1.00  0.00    -0.203 F 
ATOM     94  C   UNL A   1      49.910  26.851  25.891  1.00  0.00     0.198 A 
ATOM     95  C   UNL A   1      48.799  27.206  23.794  1.00  0.00     0.198 A 
ATOM     96  F   UNL A   1      46.707  28.276  23.735  1.00  0.00    -0.203 F 
ATOM     97  F   UNL A   1      50.974  26.420  26.581  1.00  0.00    -0.200 F 
ATOM     98  C   UNL A   1      49.887  26.732  24.510  1.00  0.00     0.200 A 
ATOM     99  F   UNL A   1      48.766  27.076  22.460  1.00  0.00    -0.200 F 
ATOM    100  F   UNL A   1      50.918  26.166  23.867  1.00  0.00    -0.200 F 
ENDBRANCH  67  90
ENDBRANCH  41  42
ENDBRANCH  34  36
ENDBRANCH  33  34
ENDBRANCH  32  33
ENDBRANCH  31  32
ENDBRANCH  30  31
ENDBRANCH  29  30
ENDBRANCH  28  29
ENDBRANCH  27  28
ENDBRANCH  26  27
ENDBRANCH   1  26
TORSDOF 27
ENDMDL
MODEL 2
REMARK VINA RESULT:      -9.0      0.928      7.318
REMARK SMILES CC(C)[C@@H]1SC[C@@H](C(=O)OCCOCCOCCOCCOC(=O)c2ccc(-c3c4nc(c(-c5c(F)c(F)c(F)c(F)c5F)c5ccc([nH]5)c(-c5c(F)c(F)c(F)c(F)c5F)c5nc(c(-c6c(F)c(F)c(F)c(F)c6F)c6ccc3[nH]6)C=C5)C=C4)cc2)N1C(=O)COCC[NH3+]
REMARK SMILES IDX 14 1 13 2 12 3 11 4 10 5 8 6 9 7 7 8 4 9 5 10 88 11 6 12
REMARK SMILES IDX 2 13 1 14 3 15 89 16 90 17 91 18 92 19 93 20 94 21 95 22
REMARK SMILES IDX 15 26 16 27 17 28 18 29 19 30 20 31 21 32 22 33 23 34 24 35
REMARK SMILES IDX 25 36 26 37 87 38 27 39 86 40 28 41 29 42 30 43 80 44 31 45
REMARK SMILES IDX 85 46 79 47 81 48 32 49 84 50 78 51 77 52 33 54 65 55 45 56
REMARK SMILES IDX 64 57 46 58 49 59 63 60 82 61 47 62 48 63 62 65 83 66 50 67
REMARK SMILES IDX 34 68 35 69 43 70 36 71 37 72 41 73 44 74 38 75 39 76 42 77
REMARK SMILES IDX 40 78 66 79 67 80 75 81 68 82 69 83 73 84 76 85 70 86 71 87
REMARK SMILES IDX 74 88 72 89 51 90 52 91 60 92 53 93 54 94 58 95 61 96 55 97
REMARK SMILES IDX 56 98 59 99 57 100
REMARK H PARENT 95 23 95 24 95 25 81 53 49 64
REMARK Flexibility Score: inf
ROOT
ATOM      1  C   UNL A   1      33.141  29.830  27.286  1.00  0.00     0.188 C 
ENDROOT
BRANCH   1   2
ATOM      2  O   UNL A   1      32.813  28.485  27.040  1.00  0.00    -0.376 OA
BRANCH   2   3
ATOM      3  C   UNL A   1      31.513  27.947  27.021  1.00  0.00     0.202 C 
BRANCH   3   4
ATOM      4  C   UNL A   1      31.033  26.738  26.197  1.00  0.00     0.261 C 
BRANCH   4   5
ATOM      5  O   UNL A   1      31.755  25.501  26.279  1.00  0.00    -0.462 OA
BRANCH   5   6
ATOM      6  C   UNL A   1      31.001  24.374  26.178  1.00  0.00     0.329 C 
ATOM      7  O   UNL A   1      29.980  24.196  26.842  1.00  0.00    -0.250 OA
BRANCH   6   8
ATOM      8  C   UNL A   1      31.599  23.246  25.277  1.00  0.00     0.206 C 
ATOM      9  C   UNL A   1      34.088  23.105  25.094  1.00  0.00     0.146 C 
ATOM     10  S   UNL A   1      33.564  22.362  26.725  1.00  0.00    -0.134 SA
ATOM     11  N   UNL A   1      32.818  23.382  24.393  1.00  0.00    -0.314 N 
ATOM     12  C   UNL A   1      31.851  22.091  26.228  1.00  0.00     0.109 C 
BRANCH   9  13
ATOM     13  C   UNL A   1      35.195  22.141  24.556  1.00  0.00     0.016 C 
ATOM     14  C   UNL A   1      36.255  22.742  23.631  1.00  0.00     0.010 C 
ATOM     15  C   UNL A   1      35.870  21.260  25.599  1.00  0.00     0.010 C 
ENDBRANCH   9  13
BRANCH  11  16
ATOM     16  C   UNL A   1      32.574  23.906  23.131  1.00  0.00     0.250 C 
ATOM     17  O   UNL A   1      32.133  23.139  22.255  1.00  0.00    -0.272 OA
BRANCH  16  18
ATOM     18  C   UNL A   1      32.868  25.362  22.650  1.00  0.00     0.260 C 
BRANCH  18  19
ATOM     19  O   UNL A   1      32.265  26.560  23.067  1.00  0.00    -0.366 OA
BRANCH  19  20
ATOM     20  C   UNL A   1      31.279  27.142  22.225  1.00  0.00     0.222 C 
BRANCH  20  21
ATOM     21  C   UNL A   1      30.859  28.567  22.648  1.00  0.00     0.287 C 
BRANCH  21  22
ATOM     22  N   UNL A   1      31.394  29.659  21.832  1.00  0.00    -0.356 N 
ATOM     23  H   UNL A   1      31.107  29.530  20.862  1.00  0.00     0.344 HD
ATOM     24  H   UNL A   1      32.413  29.659  21.888  1.00  0.00     0.344 HD
ATOM     25  H   UNL A   1      31.035  30.550  22.178  1.00  0.00     0.344 HD
ENDBRANCH  21  22
ENDBRANCH  20  21
ENDBRANCH  19  20
ENDBRANCH  18  19
ENDBRANCH  16  18
ENDBRANCH  11  16
ENDBRANCH   6   8
ENDBRANCH   5   6
ENDBRANCH   4   5
ENDBRANCH   3   4
ENDBRANCH   2   3
ENDBRANCH   1   2
BRANCH   1  26
ATOM     26  C   UNL A   1      34.600  30.322  27.273  1.00  0.00     0.188 C 
BRANCH  26  27
ATOM     27  O   UNL A   1      35.246  31.191  28.182  1.00  0.00    -0.377 OA
BRANCH  27  28
ATOM     28  C   UNL A   1      34.565  32.321  28.662  1.00  0.00     0.188 C 
BRANCH  28  29
ATOM     29  C   UNL A   1      35.510  33.479  28.985  1.00  0.00     0.188 C 
BRANCH  29  30
ATOM     30  O   UNL A   1      34.980  34.348  29.975  1.00  0.00    -0.376 OA
BRANCH  30  31
ATOM     31  C   UNL A   1      34.320  33.749  31.083  1.00  0.00     0.202 C 
BRANCH  31  32
ATOM     32  C   UNL A   1      35.133  33.333  32.322  1.00  0.00     0.261 C 
BRANCH  32  33
ATOM     33  O   UNL A   1      35.649  31.990  32.362  1.00  0.00    -0.460 OA
BRANCH  33  34
ATOM     34  C   UNL A   1      36.761  31.765  33.083  1.00  0.00     0.338 C 
ATOM     35  O   UNL A   1      36.889  31.899  34.291  1.00  0.00    -0.246 OA
BRANCH  34  36
ATOM     36  C   UNL A   1      37.770  31.136  32.202  1.00  0.00     0.060 A 
ATOM     37  C   UNL A   1      38.868  30.505  32.802  1.00  0.00     0.016 A 
ATOM     38  C   UNL A   1      37.657  31.167  30.808  1.00  0.00     0.016 A 
ATOM     39  C   UNL A   1      39.867  29.930  32.017  1.00  0.00     0.010 A 
ATOM     40  C   UNL A   1      38.678  30.615  30.019  1.00  0.00     0.010 A 
ATOM     41  C   UNL A   1      39.806  30.026  30.620  1.00  0.00    -0.014 A 
BRANCH  41  42
ATOM     42  C   UNL A   1      41.024  29.711  29.828  1.00  0.00     0.031 A 
ATOM     43  C   UNL A   1      41.147  28.337  29.227  1.00  0.00     0.074 A 
ATOM     44  C   UNL A   1      41.967  30.637  29.577  1.00  0.00     0.049 A 
ATOM     45  N   UNL A   1      42.096  27.831  28.482  1.00  0.00    -0.248 NA
ATOM     46  C   UNL A   1      40.040  27.407  29.505  1.00  0.00     0.031 C 
ATOM     47  C   UNL A   1      41.944  32.017  30.057  1.00  0.00     0.029 A 
ATOM     48  N   UNL A   1      43.130  30.550  28.851  1.00  0.00    -0.354 N 
ATOM     49  C   UNL A   1      41.700  26.530  28.200  1.00  0.00     0.074 A 
ATOM     50  C   UNL A   1      40.448  26.308  28.891  1.00  0.00     0.031 C 
ATOM     51  C   UNL A   1      43.050  32.646  29.621  1.00  0.00     0.029 A 
ATOM     52  C   UNL A   1      43.871  31.706  28.856  1.00  0.00     0.049 A 
ATOM     53  H   UNL A   1      43.406  29.736  28.372  1.00  0.00     0.167 HD
ATOM     54  C   UNL A   1      42.315  25.605  27.424  1.00  0.00     0.037 A 
ATOM     55  C   UNL A   1      45.082  31.969  28.323  1.00  0.00     0.037 A 
ATOM     56  C   UNL A   1      43.567  25.820  26.749  1.00  0.00     0.049 A 
ATOM     57  C   UNL A   1      45.795  30.894  27.539  1.00  0.00     0.074 A 
ATOM     58  C   UNL A   1      44.273  24.947  25.941  1.00  0.00     0.029 A 
ATOM     59  N   UNL A   1      44.311  26.989  26.818  1.00  0.00    -0.354 N 
ATOM     60  N   UNL A   1      45.404  29.674  27.256  1.00  0.00    -0.248 NA
ATOM     61  C   UNL A   1      47.117  31.236  26.992  1.00  0.00     0.031 C 
ATOM     62  C   UNL A   1      45.473  25.564  25.574  1.00  0.00     0.029 A 
ATOM     63  C   UNL A   1      45.482  26.850  26.092  1.00  0.00     0.049 A 
ATOM     64  H   UNL A   1      44.045  27.800  27.311  1.00  0.00     0.167 HD
ATOM     65  C   UNL A   1      46.411  29.117  26.476  1.00  0.00     0.074 A 
ATOM     66  C   UNL A   1      47.426  30.137  26.319  1.00  0.00     0.031 C 
ATOM     67  C   UNL A   1      46.485  27.875  25.937  1.00  0.00     0.037 A 
BRANCH  54  68
ATOM     68  C   UNL A   1      41.651  24.263  27.297  1.00  0.00     0.064 A 
ATOM     69  C   UNL A   1      40.457  24.091  26.576  1.00  0.00     0.173 A 
ATOM     70  C   UNL A   1      42.221  23.130  27.897  1.00  0.00     0.173 A 
ATOM     71  F   UNL A   1      39.862  25.143  25.995  1.00  0.00    -0.203 F 
ATOM     72  C   UNL A   1      39.841  22.845  26.498  1.00  0.00     0.198 A 
ATOM     73  C   UNL A   1      41.620  21.878  27.784  1.00  0.00     0.198 A 
ATOM     74  F   UNL A   1      43.363  23.234  28.592  1.00  0.00    -0.203 F 
ATOM     75  F   UNL A   1      38.668  22.719  25.861  1.00  0.00    -0.200 F 
ATOM     76  C   UNL A   1      40.425  21.738  27.095  1.00  0.00     0.200 A 
ATOM     77  F   UNL A   1      42.196  20.808  28.349  1.00  0.00    -0.200 F 
ATOM     78  F   UNL A   1      39.831  20.540  27.017  1.00  0.00    -0.200 F 
ENDBRANCH  54  68
BRANCH  55  79
ATOM     79  C   UNL A   1      45.711  33.301  28.530  1.00  0.00     0.064 A 
ATOM     80  C   UNL A   1      46.522  33.564  29.643  1.00  0.00     0.173 A 
ATOM     81  C   UNL A   1      45.497  34.350  27.621  1.00  0.00     0.173 A 
ATOM     82  F   UNL A   1      46.736  32.605  30.556  1.00  0.00    -0.203 F 
ATOM     83  C   UNL A   1      47.080  34.825  29.848  1.00  0.00     0.198 A 
ATOM     84  C   UNL A   1      46.082  35.600  27.809  1.00  0.00     0.198 A 
ATOM     85  F   UNL A   1      44.726  34.156  26.541  1.00  0.00    -0.203 F 
ATOM     86  F   UNL A   1      47.811  35.062  30.945  1.00  0.00    -0.200 F 
ATOM     87  C   UNL A   1      46.866  35.839  28.927  1.00  0.00     0.200 A 
ATOM     88  F   UNL A   1      45.883  36.572  26.909  1.00  0.00    -0.200 F 
ATOM     89  F   UNL A   1      47.409  37.049  29.120  1.00  0.00    -0.200 F 
ENDBRANCH  55  79
BRANCH  67  90
ATOM     90  C   UNL A   1      47.683  27.553  25.085  1.00  0.00     0.064 A 
ATOM     91  C   UNL A   1      47.686  27.760  23.697  1.00  0.00     0.173 A 
ATOM     92  C   UNL A   1      48.864  27.075  25.677  1.00  0.00     0.173 A 
ATOM     93  F   UNL A   1      46.581  28.204  23.079  1.00  0.00    -0.203 F 
ATOM     94  C   UNL A   1      48.816  27.476  22.933  1.00  0.00     0.198 A 
ATOM     95  C   UNL A   1      50.002  26.828  24.915  1.00  0.00     0.198 A 
ATOM     96  F   UNL A   1      48.920  26.867  27.001  1.00  0.00    -0.203 F 
ATOM     97  F   UNL A   1      48.778  27.634  21.603  1.00  0.00    -0.200 F 
ATOM     98  C   UNL A   1      49.974  27.020  23.543  1.00  0.00     0.200 A 
ATOM     99  F   UNL A   1      51.126  26.405  25.510  1.00  0.00    -0.200 F 
ATOM    100  F   UNL A   1      51.063  26.759  22.807  1.00  0.00    -0.200 F 
ENDBRANCH  67  90
ENDBRANCH  41  42
ENDBRANCH  34  36
ENDBRANCH  33  34
ENDBRANCH  32  33
ENDBRANCH  31  32
ENDBRANCH  30  31
ENDBRANCH  29  30
ENDBRANCH  28  29
ENDBRANCH  27  28
ENDBRANCH  26  27
ENDBRANCH   1  26
TORSDOF 27
ENDMDL
MODEL 3
REMARK VINA RESULT:      -9.0      5.086      7.751
REMARK SMILES CC(C)[C@@H]1SC[C@@H](C(=O)OCCOCCOCCOCCOC(=O)c2ccc(-c3c4nc(c(-c5c(F)c(F)c(F)c(F)c5F)c5ccc([nH]5)c(-c5c(F)c(F)c(F)c(F)c5F)c5nc(c(-c6c(F)c(F)c(F)c(F)c6F)c6ccc3[nH]6)C=C5)C=C4)cc2)N1C(=O)COCC[NH3+]
REMARK SMILES IDX 14 1 13 2 12 3 11 4 10 5 8 6 9 7 7 8 4 9 5 10 88 11 6 12
REMARK SMILES IDX 2 13 1 14 3 15 89 16 90 17 91 18 92 19 93 20 94 21 95 22
REMARK SMILES IDX 15 26 16 27 17 28 18 29 19 30 20 31 21 32 22 33 23 34 24 35
REMARK SMILES IDX 25 36 26 37 87 38 27 39 86 40 28 41 29 42 30 43 80 44 31 45
REMARK SMILES IDX 85 46 79 47 81 48 32 49 84 50 78 51 77 52 33 54 65 55 45 56
REMARK SMILES IDX 64 57 46 58 49 59 63 60 82 61 47 62 48 63 62 65 83 66 50 67
REMARK SMILES IDX 34 68 35 69 43 70 36 71 37 72 41 73 44 74 38 75 39 76 42 77
REMARK SMILES IDX 40 78 66 79 67 80 75 81 68 82 69 83 73 84 76 85 70 86 71 87
REMARK SMILES IDX 74 88 72 89 51 90 52 91 60 92 53 93 54 94 58 95 61 96 55 97
REMARK SMILES IDX 56 98 59 99 57 100
REMARK H PARENT 95 23 95 24 95 25 81 53 49 64
REMARK Flexibility Score: inf
ROOT
ATOM      1  C   UNL A   1      33.380  30.267  26.959  1.00  0.00     0.188 C 
ENDROOT
BRANCH   1   2
ATOM      2  O   UNL A   1      33.125  29.334  25.938  1.00  0.00    -0.376 OA
BRANCH   2   3
ATOM      3  C   UNL A   1      32.347  29.566  24.790  1.00  0.00     0.202 C 
BRANCH   3   4
ATOM      4  C   UNL A   1      32.603  29.006  23.379  1.00  0.00     0.261 C 
BRANCH   4   5
ATOM      5  O   UNL A   1      32.672  27.586  23.188  1.00  0.00    -0.462 OA
BRANCH   5   6
ATOM      6  C   UNL A   1      31.563  27.012  22.650  1.00  0.00     0.329 C 
ATOM      7  O   UNL A   1      30.760  27.638  21.959  1.00  0.00    -0.250 OA
BRANCH   6   8
ATOM      8  C   UNL A   1      31.288  25.539  23.095  1.00  0.00     0.206 C 
ATOM      9  C   UNL A   1      32.011  24.868  25.391  1.00  0.00     0.146 C 
ATOM     10  S   UNL A   1      30.426  25.845  25.524  1.00  0.00    -0.134 SA
ATOM     11  N   UNL A   1      32.211  24.690  23.939  1.00  0.00    -0.314 N 
ATOM     12  C   UNL A   1      29.948  25.598  23.802  1.00  0.00     0.109 C 
BRANCH   9  13
ATOM     13  C   UNL A   1      31.836  23.688  26.403  1.00  0.00     0.016 C 
ATOM     14  C   UNL A   1      30.931  22.531  25.976  1.00  0.00     0.010 C 
ATOM     15  C   UNL A   1      33.122  23.134  27.003  1.00  0.00     0.010 C 
ENDBRANCH   9  13
BRANCH  11  16
ATOM     16  C   UNL A   1      33.203  24.020  23.235  1.00  0.00     0.250 C 
ATOM     17  O   UNL A   1      33.777  24.627  22.312  1.00  0.00    -0.272 OA
BRANCH  16  18
ATOM     18  C   UNL A   1      33.639  22.532  23.422  1.00  0.00     0.260 C 
BRANCH  18  19
ATOM     19  O   UNL A   1      34.638  22.012  24.261  1.00  0.00    -0.366 OA
BRANCH  19  20
ATOM     20  C   UNL A   1      35.837  22.758  24.417  1.00  0.00     0.222 C 
BRANCH  20  21
ATOM     21  C   UNL A   1      37.116  21.959  24.081  1.00  0.00     0.287 C 
BRANCH  21  22
ATOM     22  N   UNL A   1      38.108  21.862  25.154  1.00  0.00    -0.356 N 
ATOM     23  H   UNL A   1      38.963  22.340  24.871  1.00  0.00     0.344 HD
ATOM     24  H   UNL A   1      38.313  20.880  25.340  1.00  0.00     0.344 HD
ATOM     25  H   UNL A   1      37.738  22.298  26.000  1.00  0.00     0.344 HD
ENDBRANCH  21  22
ENDBRANCH  20  21
ENDBRANCH  19  20
ENDBRANCH  18  19
ENDBRANCH  16  18
ENDBRANCH  11  16
ENDBRANCH   6   8
ENDBRANCH   5   6
ENDBRANCH   4   5
ENDBRANCH   3   4
ENDBRANCH   2   3
ENDBRANCH   1   2
BRANCH   1  26
ATOM     26  C   UNL A   1      34.763  30.378  27.626  1.00  0.00     0.188 C 
BRANCH  26  27
ATOM     27  O   UNL A   1      35.162  31.212  28.696  1.00  0.00    -0.377 OA
BRANCH  27  28
ATOM     28  C   UNL A   1      34.613  32.498  28.814  1.00  0.00     0.188 C 
BRANCH  28  29
ATOM     29  C   UNL A   1      35.675  33.566  29.079  1.00  0.00     0.188 C 
BRANCH  29  30
ATOM     30  O   UNL A   1      35.225  34.870  28.741  1.00  0.00    -0.376 OA
BRANCH  30  31
ATOM     31  C   UNL A   1      33.846  35.025  28.434  1.00  0.00     0.202 C 
BRANCH  31  32
ATOM     32  C   UNL A   1      32.915  35.731  29.436  1.00  0.00     0.261 C 
BRANCH  32  33
ATOM     33  O   UNL A   1      32.551  35.012  30.629  1.00  0.00    -0.460 OA
BRANCH  33  34
ATOM     34  C   UNL A   1      32.811  35.590  31.815  1.00  0.00     0.338 C 
ATOM     35  O   UNL A   1      32.122  36.417  32.393  1.00  0.00    -0.246 OA
BRANCH  34  36
ATOM     36  C   UNL A   1      33.986  34.919  32.414  1.00  0.00     0.060 A 
ATOM     37  C   UNL A   1      35.234  35.547  32.302  1.00  0.00     0.016 A 
ATOM     38  C   UNL A   1      33.879  33.688  33.070  1.00  0.00     0.016 A 
ATOM     39  C   UNL A   1      36.379  34.938  32.816  1.00  0.00     0.010 A 
ATOM     40  C   UNL A   1      35.036  33.062  33.560  1.00  0.00     0.010 A 
ATOM     41  C   UNL A   1      36.297  33.669  33.402  1.00  0.00    -0.014 A 
BRANCH  41  42
ATOM     42  C   UNL A   1      37.552  32.907  33.634  1.00  0.00     0.031 A 
ATOM     43  C   UNL A   1      38.317  33.165  34.904  1.00  0.00     0.074 A 
ATOM     44  C   UNL A   1      37.970  31.952  32.785  1.00  0.00     0.049 A 
ATOM     45  N   UNL A   1      39.421  32.615  35.343  1.00  0.00    -0.248 NA
ATOM     46  C   UNL A   1      37.755  34.185  35.804  1.00  0.00     0.031 C 
ATOM     47  C   UNL A   1      37.295  31.568  31.547  1.00  0.00     0.029 A 
ATOM     48  N   UNL A   1      39.069  31.129  32.840  1.00  0.00    -0.354 N 
ATOM     49  C   UNL A   1      39.681  33.218  36.567  1.00  0.00     0.074 A 
ATOM     50  C   UNL A   1      38.647  34.208  36.781  1.00  0.00     0.031 C 
ATOM     51  C   UNL A   1      38.002  30.591  30.952  1.00  0.00     0.029 A 
ATOM     52  C   UNL A   1      39.192  30.299  31.752  1.00  0.00     0.049 A 
ATOM     53  H   UNL A   1      39.707  31.132  33.588  1.00  0.00     0.167 HD
ATOM     54  C   UNL A   1      40.682  32.962  37.443  1.00  0.00     0.037 A 
ATOM     55  C   UNL A   1      40.165  29.422  31.430  1.00  0.00     0.037 A 
ATOM     56  C   UNL A   1      41.719  31.989  37.224  1.00  0.00     0.049 A 
ATOM     57  C   UNL A   1      41.323  29.218  32.377  1.00  0.00     0.074 A 
ATOM     58  C   UNL A   1      42.778  31.656  38.049  1.00  0.00     0.029 A 
ATOM     59  N   UNL A   1      41.836  31.202  36.087  1.00  0.00    -0.354 N 
ATOM     60  N   UNL A   1      41.549  29.774  33.543  1.00  0.00    -0.248 NA
ATOM     61  C   UNL A   1      42.357  28.257  31.965  1.00  0.00     0.031 C 
ATOM     62  C   UNL A   1      43.571  30.715  37.384  1.00  0.00     0.029 A 
ATOM     63  C   UNL A   1      42.966  30.406  36.176  1.00  0.00     0.049 A 
ATOM     64  H   UNL A   1      41.208  31.209  35.329  1.00  0.00     0.167 HD
ATOM     65  C   UNL A   1      42.728  29.210  34.016  1.00  0.00     0.074 A 
ATOM     66  C   UNL A   1      43.164  28.258  33.017  1.00  0.00     0.031 C 
ATOM     67  C   UNL A   1      43.388  29.456  35.176  1.00  0.00     0.037 A 
BRANCH  54  68
ATOM     68  C   UNL A   1      40.718  33.779  38.704  1.00  0.00     0.064 A 
ATOM     69  C   UNL A   1      39.963  33.429  39.836  1.00  0.00     0.173 A 
ATOM     70  C   UNL A   1      41.526  34.923  38.786  1.00  0.00     0.173 A 
ATOM     71  F   UNL A   1      39.162  32.353  39.807  1.00  0.00    -0.203 F 
ATOM     72  C   UNL A   1      39.984  34.217  40.984  1.00  0.00     0.198 A 
ATOM     73  C   UNL A   1      41.573  35.688  39.950  1.00  0.00     0.198 A 
ATOM     74  F   UNL A   1      42.272  35.301  37.738  1.00  0.00    -0.203 F 
ATOM     75  F   UNL A   1      39.205  33.900  42.027  1.00  0.00    -0.200 F 
ATOM     76  C   UNL A   1      40.794  35.341  41.043  1.00  0.00     0.200 A 
ATOM     77  F   UNL A   1      42.368  36.765  40.009  1.00  0.00    -0.200 F 
ATOM     78  F   UNL A   1      40.815  36.097  42.149  1.00  0.00    -0.200 F 
ENDBRANCH  54  68
BRANCH  55  79
ATOM     79  C   UNL A   1      40.100  28.683  30.140  1.00  0.00     0.064 A 
ATOM     80  C   UNL A   1      39.473  27.433  30.044  1.00  0.00     0.173 A 
ATOM     81  C   UNL A   1      40.685  29.207  28.976  1.00  0.00     0.173 A 
ATOM     82  F   UNL A   1      38.923  26.875  31.132  1.00  0.00    -0.203 F 
ATOM     83  C   UNL A   1      39.446  26.730  28.840  1.00  0.00     0.198 A 
ATOM     84  C   UNL A   1      40.629  28.519  27.766  1.00  0.00     0.198 A 
ATOM     85  F   UNL A   1      41.303  30.397  29.013  1.00  0.00    -0.203 F 
ATOM     86  F   UNL A   1      38.882  25.516  28.788  1.00  0.00    -0.200 F 
ATOM     87  C   UNL A   1      40.017  27.277  27.701  1.00  0.00     0.200 A 
ATOM     88  F   UNL A   1      41.171  29.059  26.666  1.00  0.00    -0.200 F 
ATOM     89  F   UNL A   1      39.984  26.605  26.542  1.00  0.00    -0.200 F 
ENDBRANCH  55  79
BRANCH  67  90
ATOM     90  C   UNL A   1      44.631  28.656  35.457  1.00  0.00     0.064 A 
ATOM     91  C   UNL A   1      45.907  29.111  35.091  1.00  0.00     0.173 A 
ATOM     92  C   UNL A   1      44.545  27.437  36.149  1.00  0.00     0.173 A 
ATOM     93  F   UNL A   1      46.045  30.264  34.419  1.00  0.00    -0.203 F 
ATOM     94  C   UNL A   1      47.045  28.363  35.383  1.00  0.00     0.198 A 
ATOM     95  C   UNL A   1      45.688  26.711  36.471  1.00  0.00     0.198 A 
ATOM     96  F   UNL A   1      43.352  26.958  36.531  1.00  0.00    -0.203 F 
ATOM     97  F   UNL A   1      48.248  28.793  34.979  1.00  0.00    -0.200 F 
ATOM     98  C   UNL A   1      46.936  27.170  36.080  1.00  0.00     0.200 A 
ATOM     99  F   UNL A   1      45.581  25.567  37.162  1.00  0.00    -0.200 F 
ATOM    100  F   UNL A   1      48.034  26.458  36.371  1.00  0.00    -0.200 F 
ENDBRANCH  67  90
ENDBRANCH  41  42
ENDBRANCH  34  36
ENDBRANCH  33  34
ENDBRANCH  32  33
ENDBRANCH  31  32
ENDBRANCH  30  31
ENDBRANCH  29  30
ENDBRANCH  28  29
ENDBRANCH  27  28
ENDBRANCH  26  27
ENDBRANCH   1  26
TORSDOF 27
ENDMDL
