MODEL 1
REMARK VINA RESULT:     -11.4      0.000      0.000
REMARK SMILES CC[C@H]1CC[C@](C(=O)OCCOCCOCCOCCOC(=O)c2ccc(-c3c4nc(c(-c5c(F)c(F)c(F)c(F)c5F)c5ccc([nH]5)c(-c5c(F)c(F)c(F)c(F)c5F)c5nc(c(-c6c(F)c(F)c(F)c(F)c6F)c6ccc3[nH]6)C=C5)C=C4)cc2)([C@H]2CCC[C@@H](S(C)(=O)=O)C2)CC1
REMARK SMILES IDX 15 1 14 2 13 3 12 4 11 5 10 6 9 7 7 8 8 9 6 10 3 11 98 12
REMARK SMILES IDX 4 13 97 14 5 15 2 16 1 17 87 18 88 19 96 20 89 21 91 22
REMARK SMILES IDX 90 23 92 24 93 25 94 26 95 27 16 28 17 29 18 30 19 31 20 32
REMARK SMILES IDX 21 33 22 34 23 35 24 36 25 37 86 38 26 39 85 40 27 41 28 42
REMARK SMILES IDX 29 43 79 44 30 45 84 46 78 47 80 48 31 49 83 50 77 51 76 52
REMARK SMILES IDX 32 54 64 55 44 56 63 57 45 58 48 59 62 60 81 61 46 62 47 63
REMARK SMILES IDX 61 65 82 66 49 67 33 68 34 69 42 70 35 71 36 72 40 73 43 74
REMARK SMILES IDX 37 75 38 76 41 77 39 78 65 79 66 80 74 81 67 82 68 83 72 84
REMARK SMILES IDX 75 85 69 86 70 87 73 88 71 89 50 90 51 91 59 92 52 93 53 94
REMARK SMILES IDX 57 95 60 96 54 97 55 98 58 99 56 100
REMARK H PARENT 80 53 48 64
REMARK Flexibility Score: inf
ROOT
ATOM      1  O   UNL A   1      40.776  20.361  27.465  1.00  0.00    -0.377 OA
ENDROOT
BRANCH   1   2
ATOM      2  C   UNL A   1      40.493  21.612  26.891  1.00  0.00     0.188 C 
BRANCH   2   3
ATOM      3  C   UNL A   1      39.227  21.700  26.048  1.00  0.00     0.188 C 
BRANCH   3   4
ATOM      4  O   UNL A   1      38.133  22.501  26.481  1.00  0.00    -0.376 OA
BRANCH   4   5
ATOM      5  C   UNL A   1      37.833  23.735  25.832  1.00  0.00     0.202 C 
BRANCH   5   6
ATOM      6  C   UNL A   1      36.523  23.855  24.999  1.00  0.00     0.261 C 
BRANCH   6   7
ATOM      7  O   UNL A   1      35.494  22.866  25.256  1.00  0.00    -0.463 OA
BRANCH   7   8
ATOM      8  C   UNL A   1      34.503  23.217  26.136  1.00  0.00     0.312 C 
ATOM      9  O   UNL A   1      34.508  22.921  27.328  1.00  0.00    -0.252 OA
BRANCH   8  10
ATOM     10  C   UNL A   1      33.308  23.974  25.476  1.00  0.00     0.071 C 
ATOM     11  C   UNL A   1      32.226  21.477  24.046  1.00  0.00    -0.011 C 
ATOM     12  C   UNL A   1      32.001  21.735  25.545  1.00  0.00     0.005 C 
ATOM     13  C   UNL A   1      33.308  22.378  23.434  1.00  0.00     0.005 C 
ATOM     14  C   UNL A   1      32.020  23.221  25.948  1.00  0.00     0.019 C 
ATOM     15  C   UNL A   1      33.277  23.825  23.927  1.00  0.00     0.019 C 
BRANCH  11  16
ATOM     16  C   UNL A   1      32.608  20.000  23.785  1.00  0.00    -0.000 C 
ATOM     17  C   UNL A   1      32.663  19.152  25.044  1.00  0.00     0.004 C 
ENDBRANCH  11  16
BRANCH  10  18
ATOM     18  C   UNL A   1      33.235  25.553  25.860  1.00  0.00     0.008 C 
ATOM     19  C   UNL A   1      33.996  26.533  24.938  1.00  0.00     0.005 C 
ATOM     20  C   UNL A   1      31.859  26.098  26.297  1.00  0.00     0.024 C 
ATOM     21  C   UNL A   1      33.522  27.998  24.813  1.00  0.00     0.002 C 
ATOM     22  C   UNL A   1      31.204  27.194  25.434  1.00  0.00     0.108 C 
ATOM     23  C   UNL A   1      32.144  28.373  25.348  1.00  0.00     0.020 C 
BRANCH  22  24
ATOM     24  S   UNL A   1      30.661  26.641  23.808  1.00  0.00     0.150 S 
ATOM     25  C   UNL A   1      29.300  27.662  23.335  1.00  0.00     0.158 C 
ATOM     26  O   UNL A   1      31.710  26.824  22.825  1.00  0.00    -0.229 OA
ATOM     27  O   UNL A   1      30.071  25.352  24.002  1.00  0.00    -0.229 OA
ENDBRANCH  22  24
ENDBRANCH  10  18
ENDBRANCH   8  10
ENDBRANCH   7   8
ENDBRANCH   6   7
ENDBRANCH   5   6
ENDBRANCH   4   5
ENDBRANCH   3   4
ENDBRANCH   2   3
ENDBRANCH   1   2
BRANCH   1  28
ATOM     28  C   UNL A   1      42.001  19.714  27.205  1.00  0.00     0.188 C 
BRANCH  28  29
ATOM     29  C   UNL A   1      42.540  19.604  25.773  1.00  0.00     0.188 C 
BRANCH  29  30
ATOM     30  O   UNL A   1      43.837  20.078  25.421  1.00  0.00    -0.376 OA
BRANCH  30  31
ATOM     31  C   UNL A   1      44.213  21.435  25.566  1.00  0.00     0.202 C 
BRANCH  31  32
ATOM     32  C   UNL A   1      43.857  22.447  24.464  1.00  0.00     0.261 C 
BRANCH  32  33
ATOM     33  O   UNL A   1      43.107  23.581  24.900  1.00  0.00    -0.460 OA
BRANCH  33  34
ATOM     34  C   UNL A   1      43.834  24.685  25.186  1.00  0.00     0.338 C 
ATOM     35  O   UNL A   1      44.908  25.005  24.714  1.00  0.00    -0.246 OA
BRANCH  34  36
ATOM     36  C   UNL A   1      42.992  25.574  26.023  1.00  0.00     0.060 A 
ATOM     37  C   UNL A   1      43.347  26.927  26.105  1.00  0.00     0.016 A 
ATOM     38  C   UNL A   1      41.840  25.106  26.666  1.00  0.00     0.016 A 
ATOM     39  C   UNL A   1      42.566  27.815  26.837  1.00  0.00     0.010 A 
ATOM     40  C   UNL A   1      41.089  25.981  27.453  1.00  0.00     0.010 A 
ATOM     41  C   UNL A   1      41.480  27.325  27.575  1.00  0.00    -0.014 A 
BRANCH  41  42
ATOM     42  C   UNL A   1      41.027  28.111  28.743  1.00  0.00     0.031 A 
ATOM     43  C   UNL A   1      41.817  27.939  30.011  1.00  0.00     0.074 A 
ATOM     44  C   UNL A   1      39.985  28.954  28.684  1.00  0.00     0.049 A 
ATOM     45  N   UNL A   1      41.663  28.506  31.178  1.00  0.00    -0.248 NA
ATOM     46  C   UNL A   1      42.951  26.997  29.948  1.00  0.00     0.031 C 
ATOM     47  C   UNL A   1      39.178  29.232  27.500  1.00  0.00     0.029 A 
ATOM     48  N   UNL A   1      39.429  29.736  29.665  1.00  0.00    -0.354 N 
ATOM     49  C   UNL A   1      42.687  28.006  31.971  1.00  0.00     0.074 A 
ATOM     50  C   UNL A   1      43.441  27.070  31.173  1.00  0.00     0.031 C 
ATOM     51  C   UNL A   1      38.216  30.115  27.828  1.00  0.00     0.029 A 
ATOM     52  C   UNL A   1      38.330  30.443  29.248  1.00  0.00     0.049 A 
ATOM     53  H   UNL A   1      39.785  29.784  30.582  1.00  0.00     0.167 HD
ATOM     54  C   UNL A   1      42.978  28.301  33.257  1.00  0.00     0.037 A 
ATOM     55  C   UNL A   1      37.508  31.247  29.952  1.00  0.00     0.037 A 
ATOM     56  C   UNL A   1      42.194  29.187  34.067  1.00  0.00     0.049 A 
ATOM     57  C   UNL A   1      37.785  31.474  31.418  1.00  0.00     0.074 A 
ATOM     58  C   UNL A   1      42.377  29.541  35.389  1.00  0.00     0.029 A 
ATOM     59  N   UNL A   1      41.054  29.843  33.623  1.00  0.00    -0.354 N 
ATOM     60  N   UNL A   1      38.771  31.023  32.157  1.00  0.00    -0.248 NA
ATOM     61  C   UNL A   1      36.831  32.322  32.149  1.00  0.00     0.031 C 
ATOM     62  C   UNL A   1      41.317  30.374  35.763  1.00  0.00     0.029 A 
ATOM     63  C   UNL A   1      40.504  30.580  34.657  1.00  0.00     0.049 A 
ATOM     64  H   UNL A   1      40.691  29.792  32.710  1.00  0.00     0.167 HD
ATOM     65  C   UNL A   1      38.573  31.551  33.428  1.00  0.00     0.074 A 
ATOM     66  C   UNL A   1      37.377  32.364  33.357  1.00  0.00     0.031 C 
ATOM     67  C   UNL A   1      39.313  31.382  34.552  1.00  0.00     0.037 A 
BRANCH  54  68
ATOM     68  C   UNL A   1      44.164  27.609  33.858  1.00  0.00     0.064 A 
ATOM     69  C   UNL A   1      45.447  28.175  33.807  1.00  0.00     0.173 A 
ATOM     70  C   UNL A   1      44.022  26.348  34.455  1.00  0.00     0.173 A 
ATOM     71  F   UNL A   1      45.638  29.364  33.216  1.00  0.00    -0.203 F 
ATOM     72  C   UNL A   1      46.550  27.489  34.307  1.00  0.00     0.198 A 
ATOM     73  C   UNL A   1      45.124  25.678  34.978  1.00  0.00     0.198 A 
ATOM     74  F   UNL A   1      42.818  25.760  34.514  1.00  0.00    -0.203 F 
ATOM     75  F   UNL A   1      47.776  28.021  34.195  1.00  0.00    -0.200 F 
ATOM     76  C   UNL A   1      46.388  26.244  34.896  1.00  0.00     0.200 A 
ATOM     77  F   UNL A   1      44.966  24.475  35.545  1.00  0.00    -0.200 F 
ATOM     78  F   UNL A   1      47.452  25.581  35.370  1.00  0.00    -0.200 F 
ENDBRANCH  54  68
BRANCH  55  79
ATOM     79  C   UNL A   1      36.342  31.888  29.289  1.00  0.00     0.064 A 
ATOM     80  C   UNL A   1      35.249  31.127  28.851  1.00  0.00     0.173 A 
ATOM     81  C   UNL A   1      36.307  33.272  29.060  1.00  0.00     0.173 A 
ATOM     82  F   UNL A   1      35.251  29.797  29.020  1.00  0.00    -0.203 F 
ATOM     83  C   UNL A   1      34.172  31.723  28.198  1.00  0.00     0.198 A 
ATOM     84  C   UNL A   1      35.218  33.869  28.428  1.00  0.00     0.198 A 
ATOM     85  F   UNL A   1      37.331  34.044  29.450  1.00  0.00    -0.203 F 
ATOM     86  F   UNL A   1      33.160  30.967  27.751  1.00  0.00    -0.200 F 
ATOM     87  C   UNL A   1      34.154  33.094  27.992  1.00  0.00     0.200 A 
ATOM     88  F   UNL A   1      35.203  35.195  28.234  1.00  0.00    -0.200 F 
ATOM     89  F   UNL A   1      33.118  33.666  27.363  1.00  0.00    -0.200 F 
ENDBRANCH  55  79
BRANCH  67  90
ATOM     90  C   UNL A   1      38.869  32.111  35.786  1.00  0.00     0.064 A 
ATOM     91  C   UNL A   1      38.131  31.472  36.791  1.00  0.00     0.173 A 
ATOM     92  C   UNL A   1      39.248  33.447  35.992  1.00  0.00     0.173 A 
ATOM     93  F   UNL A   1      37.738  30.199  36.634  1.00  0.00    -0.203 F 
ATOM     94  C   UNL A   1      37.768  32.152  37.951  1.00  0.00     0.198 A 
ATOM     95  C   UNL A   1      38.907  34.113  37.164  1.00  0.00     0.198 A 
ATOM     96  F   UNL A   1      39.965  34.098  35.064  1.00  0.00    -0.203 F 
ATOM     97  F   UNL A   1      37.028  31.534  38.883  1.00  0.00    -0.200 F 
ATOM     98  C   UNL A   1      38.164  33.468  38.140  1.00  0.00     0.200 A 
ATOM     99  F   UNL A   1      39.305  35.379  37.353  1.00  0.00    -0.200 F 
ATOM    100  F   UNL A   1      37.824  34.115  39.263  1.00  0.00    -0.200 F 
ENDBRANCH  67  90
ENDBRANCH  41  42
ENDBRANCH  34  36
ENDBRANCH  33  34
ENDBRANCH  32  33
ENDBRANCH  31  32
ENDBRANCH  30  31
ENDBRANCH  29  30
ENDBRANCH  28  29
ENDBRANCH   1  28
TORSDOF 23
ENDMDL
MODEL 2
REMARK VINA RESULT:     -10.5      0.737      6.982
REMARK SMILES CC[C@H]1CC[C@](C(=O)OCCOCCOCCOCCOC(=O)c2ccc(-c3c4nc(c(-c5c(F)c(F)c(F)c(F)c5F)c5ccc([nH]5)c(-c5c(F)c(F)c(F)c(F)c5F)c5nc(c(-c6c(F)c(F)c(F)c(F)c6F)c6ccc3[nH]6)C=C5)C=C4)cc2)([C@H]2CCC[C@@H](S(C)(=O)=O)C2)CC1
REMARK SMILES IDX 15 1 14 2 13 3 12 4 11 5 10 6 9 7 7 8 8 9 6 10 3 11 98 12
REMARK SMILES IDX 4 13 97 14 5 15 2 16 1 17 87 18 88 19 96 20 89 21 91 22
REMARK SMILES IDX 90 23 92 24 93 25 94 26 95 27 16 28 17 29 18 30 19 31 20 32
REMARK SMILES IDX 21 33 22 34 23 35 24 36 25 37 86 38 26 39 85 40 27 41 28 42
REMARK SMILES IDX 29 43 79 44 30 45 84 46 78 47 80 48 31 49 83 50 77 51 76 52
REMARK SMILES IDX 32 54 64 55 44 56 63 57 45 58 48 59 62 60 81 61 46 62 47 63
REMARK SMILES IDX 61 65 82 66 49 67 33 68 34 69 42 70 35 71 36 72 40 73 43 74
REMARK SMILES IDX 37 75 38 76 41 77 39 78 65 79 66 80 74 81 67 82 68 83 72 84
REMARK SMILES IDX 75 85 69 86 70 87 73 88 71 89 50 90 51 91 59 92 52 93 53 94
REMARK SMILES IDX 57 95 60 96 54 97 55 98 58 99 56 100
REMARK H PARENT 80 53 48 64
REMARK Flexibility Score: inf
ROOT
ATOM      1  O   UNL A   1      41.017  20.472  27.458  1.00  0.00    -0.377 OA
ENDROOT
BRANCH   1   2
ATOM      2  C   UNL A   1      40.323  21.648  27.127  1.00  0.00     0.188 C 
BRANCH   2   3
ATOM      3  C   UNL A   1      39.312  21.542  25.993  1.00  0.00     0.188 C 
BRANCH   3   4
ATOM      4  O   UNL A   1      38.025  22.137  26.122  1.00  0.00    -0.376 OA
BRANCH   4   5
ATOM      5  C   UNL A   1      37.852  23.542  25.952  1.00  0.00     0.202 C 
BRANCH   5   6
ATOM      6  C   UNL A   1      36.515  24.076  25.358  1.00  0.00     0.261 C 
BRANCH   6   7
ATOM      7  O   UNL A   1      35.377  23.179  25.407  1.00  0.00    -0.463 OA
BRANCH   7   8
ATOM      8  C   UNL A   1      34.344  23.533  26.236  1.00  0.00     0.312 C 
ATOM      9  O   UNL A   1      34.300  23.260  27.433  1.00  0.00    -0.252 OA
BRANCH   8  10
ATOM     10  C   UNL A   1      33.169  24.261  25.510  1.00  0.00     0.071 C 
ATOM     11  C   UNL A   1      31.876  21.657  24.513  1.00  0.00    -0.011 C 
ATOM     12  C   UNL A   1      31.733  22.150  25.962  1.00  0.00     0.005 C 
ATOM     13  C   UNL A   1      32.983  22.382  23.734  1.00  0.00     0.005 C 
ATOM     14  C   UNL A   1      31.860  23.676  26.134  1.00  0.00     0.019 C 
ATOM     15  C   UNL A   1      33.062  23.885  24.003  1.00  0.00     0.019 C 
BRANCH  11  16
ATOM     16  C   UNL A   1      32.155  20.135  24.466  1.00  0.00    -0.000 C 
ATOM     17  C   UNL A   1      33.616  19.790  24.237  1.00  0.00     0.004 C 
ENDBRANCH  11  16
BRANCH  10  18
ATOM     18  C   UNL A   1      33.210  25.881  25.652  1.00  0.00     0.008 C 
ATOM     19  C   UNL A   1      33.858  26.669  24.491  1.00  0.00     0.005 C 
ATOM     20  C   UNL A   1      31.935  26.563  26.192  1.00  0.00     0.024 C 
ATOM     21  C   UNL A   1      33.422  28.124  24.210  1.00  0.00     0.002 C 
ATOM     22  C   UNL A   1      31.197  27.555  25.272  1.00  0.00     0.108 C 
ATOM     23  C   UNL A   1      32.154  28.653  24.872  1.00  0.00     0.020 C 
BRANCH  22  24
ATOM     24  S   UNL A   1      30.397  26.800  23.845  1.00  0.00     0.150 S 
ATOM     25  C   UNL A   1      29.284  27.996  23.175  1.00  0.00     0.158 C 
ATOM     26  O   UNL A   1      31.369  26.482  22.819  1.00  0.00    -0.229 OA
ATOM     27  O   UNL A   1      29.536  25.782  24.364  1.00  0.00    -0.229 OA
ENDBRANCH  22  24
ENDBRANCH  10  18
ENDBRANCH   8  10
ENDBRANCH   7   8
ENDBRANCH   6   7
ENDBRANCH   5   6
ENDBRANCH   4   5
ENDBRANCH   3   4
ENDBRANCH   2   3
ENDBRANCH   1   2
BRANCH   1  28
ATOM     28  C   UNL A   1      42.416  20.396  27.299  1.00  0.00     0.188 C 
BRANCH  28  29
ATOM     29  C   UNL A   1      43.042  20.341  25.900  1.00  0.00     0.188 C 
BRANCH  29  30
ATOM     30  O   UNL A   1      44.385  20.757  25.661  1.00  0.00    -0.376 OA
BRANCH  30  31
ATOM     31  C   UNL A   1      44.725  22.107  25.408  1.00  0.00     0.202 C 
BRANCH  31  32
ATOM     32  C   UNL A   1      44.064  22.852  24.236  1.00  0.00     0.261 C 
BRANCH  32  33
ATOM     33  O   UNL A   1      43.518  24.131  24.561  1.00  0.00    -0.460 OA
BRANCH  33  34
ATOM     34  C   UNL A   1      44.334  24.953  25.261  1.00  0.00     0.338 C 
ATOM     35  O   UNL A   1      45.505  25.196  25.038  1.00  0.00    -0.246 OA
BRANCH  34  36
ATOM     36  C   UNL A   1      43.498  25.693  26.236  1.00  0.00     0.060 A 
ATOM     37  C   UNL A   1      43.690  27.078  26.345  1.00  0.00     0.016 A 
ATOM     38  C   UNL A   1      42.501  25.058  26.984  1.00  0.00     0.016 A 
ATOM     39  C   UNL A   1      42.900  27.830  27.208  1.00  0.00     0.010 A 
ATOM     40  C   UNL A   1      41.749  25.799  27.898  1.00  0.00     0.010 A 
ATOM     41  C   UNL A   1      41.983  27.176  28.043  1.00  0.00    -0.014 A 
BRANCH  41  42
ATOM     42  C   UNL A   1      41.582  27.855  29.294  1.00  0.00     0.031 A 
ATOM     43  C   UNL A   1      40.334  28.692  29.229  1.00  0.00     0.074 A 
ATOM     44  C   UNL A   1      42.270  27.723  30.439  1.00  0.00     0.049 A 
ATOM     45  N   UNL A   1      39.739  29.384  30.165  1.00  0.00    -0.248 NA
ATOM     46  C   UNL A   1      39.655  28.748  27.921  1.00  0.00     0.031 C 
ATOM     47  C   UNL A   1      43.463  26.904  30.627  1.00  0.00     0.029 A 
ATOM     48  N   UNL A   1      42.048  28.289  31.669  1.00  0.00    -0.354 N 
ATOM     49  C   UNL A   1      38.615  29.932  29.562  1.00  0.00     0.074 A 
ATOM     50  C   UNL A   1      38.618  29.524  28.179  1.00  0.00     0.031 C 
ATOM     51  C   UNL A   1      43.882  27.033  31.900  1.00  0.00     0.029 A 
ATOM     52  C   UNL A   1      42.996  27.959  32.604  1.00  0.00     0.049 A 
ATOM     53  H   UNL A   1      41.283  28.878  31.861  1.00  0.00     0.167 HD
ATOM     54  C   UNL A   1      37.657  30.709  30.114  1.00  0.00     0.037 A 
ATOM     55  C   UNL A   1      43.129  28.381  33.878  1.00  0.00     0.037 A 
ATOM     56  C   UNL A   1      37.686  31.161  31.474  1.00  0.00     0.049 A 
ATOM     57  C   UNL A   1      42.110  29.341  34.441  1.00  0.00     0.074 A 
ATOM     58  C   UNL A   1      36.785  31.974  32.136  1.00  0.00     0.029 A 
ATOM     59  N   UNL A   1      38.693  30.850  32.377  1.00  0.00    -0.354 N 
ATOM     60  N   UNL A   1      41.032  29.834  33.878  1.00  0.00    -0.248 NA
ATOM     61  C   UNL A   1      42.328  29.806  35.819  1.00  0.00     0.031 C 
ATOM     62  C   UNL A   1      37.274  32.196  33.427  1.00  0.00     0.029 A 
ATOM     63  C   UNL A   1      38.452  31.479  33.585  1.00  0.00     0.049 A 
ATOM     64  H   UNL A   1      39.463  30.269  32.187  1.00  0.00     0.167 HD
ATOM     65  C   UNL A   1      40.431  30.642  34.836  1.00  0.00     0.074 A 
ATOM     66  C   UNL A   1      41.260  30.566  36.021  1.00  0.00     0.031 C 
ATOM     67  C   UNL A   1      39.296  31.379  34.748  1.00  0.00     0.037 A 
BRANCH  54  68
ATOM     68  C   UNL A   1      36.542  31.149  29.215  1.00  0.00     0.064 A 
ATOM     69  C   UNL A   1      36.423  32.482  28.790  1.00  0.00     0.173 A 
ATOM     70  C   UNL A   1      35.558  30.237  28.807  1.00  0.00     0.173 A 
ATOM     71  F   UNL A   1      37.322  33.398  29.183  1.00  0.00    -0.203 F 
ATOM     72  C   UNL A   1      35.344  32.890  28.013  1.00  0.00     0.198 A 
ATOM     73  C   UNL A   1      34.494  30.645  28.008  1.00  0.00     0.198 A 
ATOM     74  F   UNL A   1      35.619  28.956  29.200  1.00  0.00    -0.203 F 
ATOM     75  F   UNL A   1      35.217  34.180  27.669  1.00  0.00    -0.200 F 
ATOM     76  C   UNL A   1      34.383  31.971  27.618  1.00  0.00     0.200 A 
ATOM     77  F   UNL A   1      33.566  29.757  27.628  1.00  0.00    -0.200 F 
ATOM     78  F   UNL A   1      33.339  32.368  26.876  1.00  0.00    -0.200 F 
ENDBRANCH  54  68
BRANCH  55  79
ATOM     79  C   UNL A   1      44.271  27.912  34.705  1.00  0.00     0.064 A 
ATOM     80  C   UNL A   1      45.484  28.614  34.730  1.00  0.00     0.173 A 
ATOM     81  C   UNL A   1      44.181  26.738  35.469  1.00  0.00     0.173 A 
ATOM     82  F   UNL A   1      45.629  29.724  33.992  1.00  0.00    -0.203 F 
ATOM     83  C   UNL A   1      46.567  28.154  35.478  1.00  0.00     0.198 A 
ATOM     84  C   UNL A   1      45.257  26.293  36.234  1.00  0.00     0.198 A 
ATOM     85  F   UNL A   1      43.046  26.024  35.472  1.00  0.00    -0.203 F 
ATOM     86  F   UNL A   1      47.729  28.821  35.450  1.00  0.00    -0.200 F 
ATOM     87  C   UNL A   1      46.451  26.997  36.234  1.00  0.00     0.200 A 
ATOM     88  F   UNL A   1      45.139  25.177  36.967  1.00  0.00    -0.200 F 
ATOM     89  F   UNL A   1      47.493  26.556  36.952  1.00  0.00    -0.200 F 
ENDBRANCH  55  79
BRANCH  67  90
ATOM     90  C   UNL A   1      38.869  32.137  35.970  1.00  0.00     0.064 A 
ATOM     91  C   UNL A   1      38.160  31.518  37.008  1.00  0.00     0.173 A 
ATOM     92  C   UNL A   1      39.236  33.482  36.131  1.00  0.00     0.173 A 
ATOM     93  F   UNL A   1      37.779  30.236  36.895  1.00  0.00    -0.203 F 
ATOM     94  C   UNL A   1      37.813  32.225  38.156  1.00  0.00     0.198 A 
ATOM     95  C   UNL A   1      38.912  34.177  37.292  1.00  0.00     0.198 A 
ATOM     96  F   UNL A   1      39.926  34.115  35.170  1.00  0.00    -0.203 F 
ATOM     97  F   UNL A   1      37.101  31.625  39.120  1.00  0.00    -0.200 F 
ATOM     98  C   UNL A   1      38.198  33.551  38.301  1.00  0.00     0.200 A 
ATOM     99  F   UNL A   1      39.299  35.452  37.437  1.00  0.00    -0.200 F 
ATOM    100  F   UNL A   1      37.873  34.225  39.412  1.00  0.00    -0.200 F 
ENDBRANCH  67  90
ENDBRANCH  41  42
ENDBRANCH  34  36
ENDBRANCH  33  34
ENDBRANCH  32  33
ENDBRANCH  31  32
ENDBRANCH  30  31
ENDBRANCH  29  30
ENDBRANCH  28  29
ENDBRANCH   1  28
TORSDOF 23
ENDMDL
MODEL 3
REMARK VINA RESULT:      -9.2      1.413      7.268
REMARK SMILES CC[C@H]1CC[C@](C(=O)OCCOCCOCCOCCOC(=O)c2ccc(-c3c4nc(c(-c5c(F)c(F)c(F)c(F)c5F)c5ccc([nH]5)c(-c5c(F)c(F)c(F)c(F)c5F)c5nc(c(-c6c(F)c(F)c(F)c(F)c6F)c6ccc3[nH]6)C=C5)C=C4)cc2)([C@H]2CCC[C@@H](S(C)(=O)=O)C2)CC1
REMARK SMILES IDX 15 1 14 2 13 3 12 4 11 5 10 6 9 7 7 8 8 9 6 10 3 11 98 12
REMARK SMILES IDX 4 13 97 14 5 15 2 16 1 17 87 18 88 19 96 20 89 21 91 22
REMARK SMILES IDX 90 23 92 24 93 25 94 26 95 27 16 28 17 29 18 30 19 31 20 32
REMARK SMILES IDX 21 33 22 34 23 35 24 36 25 37 86 38 26 39 85 40 27 41 28 42
REMARK SMILES IDX 29 43 79 44 30 45 84 46 78 47 80 48 31 49 83 50 77 51 76 52
REMARK SMILES IDX 32 54 64 55 44 56 63 57 45 58 48 59 62 60 81 61 46 62 47 63
REMARK SMILES IDX 61 65 82 66 49 67 33 68 34 69 42 70 35 71 36 72 40 73 43 74
REMARK SMILES IDX 37 75 38 76 41 77 39 78 65 79 66 80 74 81 67 82 68 83 72 84
REMARK SMILES IDX 75 85 69 86 70 87 73 88 71 89 50 90 51 91 59 92 52 93 53 94
REMARK SMILES IDX 57 95 60 96 54 97 55 98 58 99 56 100
REMARK H PARENT 80 53 48 64
REMARK Flexibility Score: inf
ROOT
ATOM      1  O   UNL A   1      40.562  20.516  27.573  1.00  0.00    -0.377 OA
ENDROOT
BRANCH   1   2
ATOM      2  C   UNL A   1      40.035  21.782  27.267  1.00  0.00     0.188 C 
BRANCH   2   3
ATOM      3  C   UNL A   1      39.062  21.846  26.097  1.00  0.00     0.188 C 
BRANCH   3   4
ATOM      4  O   UNL A   1      38.321  23.036  25.846  1.00  0.00    -0.376 OA
BRANCH   4   5
ATOM      5  C   UNL A   1      37.274  23.051  24.878  1.00  0.00     0.202 C 
BRANCH   5   6
ATOM      6  C   UNL A   1      35.821  22.711  25.325  1.00  0.00     0.261 C 
BRANCH   6   7
ATOM      7  O   UNL A   1      34.779  23.628  24.906  1.00  0.00    -0.463 OA
BRANCH   7   8
ATOM      8  C   UNL A   1      34.413  23.588  23.586  1.00  0.00     0.312 C 
ATOM      9  O   UNL A   1      35.195  23.379  22.662  1.00  0.00    -0.252 OA
BRANCH   8  10
ATOM     10  C   UNL A   1      32.905  23.910  23.336  1.00  0.00     0.071 C 
ATOM     11  C   UNL A   1      31.973  21.030  23.879  1.00  0.00    -0.011 C 
ATOM     12  C   UNL A   1      32.343  22.008  25.007  1.00  0.00     0.005 C 
ATOM     13  C   UNL A   1      32.440  21.502  22.494  1.00  0.00     0.005 C 
ATOM     14  C   UNL A   1      32.164  23.495  24.650  1.00  0.00     0.019 C 
ATOM     15  C   UNL A   1      32.265  23.001  22.246  1.00  0.00     0.019 C 
BRANCH  11  16
ATOM     16  C   UNL A   1      32.560  19.623  24.145  1.00  0.00    -0.000 C 
ATOM     17  C   UNL A   1      33.115  19.449  25.548  1.00  0.00     0.004 C 
ENDBRANCH  11  16
BRANCH  10  18
ATOM     18  C   UNL A   1      32.615  25.467  22.968  1.00  0.00     0.008 C 
ATOM     19  C   UNL A   1      31.144  25.862  22.706  1.00  0.00     0.005 C 
ATOM     20  C   UNL A   1      33.376  26.528  23.792  1.00  0.00     0.024 C 
ATOM     21  C   UNL A   1      30.678  27.312  22.964  1.00  0.00     0.002 C 
ATOM     22  C   UNL A   1      32.553  27.506  24.653  1.00  0.00     0.108 C 
ATOM     23  C   UNL A   1      31.585  28.246  23.760  1.00  0.00     0.020 C 
BRANCH  22  24
ATOM     24  S   UNL A   1      31.729  26.750  26.065  1.00  0.00     0.150 S 
ATOM     25  C   UNL A   1      31.584  27.991  27.313  1.00  0.00     0.158 C 
ATOM     26  O   UNL A   1      30.390  26.324  25.712  1.00  0.00    -0.229 OA
ATOM     27  O   UNL A   1      32.662  25.816  26.617  1.00  0.00    -0.229 OA
ENDBRANCH  22  24
ENDBRANCH  10  18
ENDBRANCH   8  10
ENDBRANCH   7   8
ENDBRANCH   6   7
ENDBRANCH   5   6
ENDBRANCH   4   5
ENDBRANCH   3   4
ENDBRANCH   2   3
ENDBRANCH   1   2
BRANCH   1  28
ATOM     28  C   UNL A   1      41.888  20.188  27.223  1.00  0.00     0.188 C 
BRANCH  28  29
ATOM     29  C   UNL A   1      42.276  19.953  25.759  1.00  0.00     0.188 C 
BRANCH  29  30
ATOM     30  O   UNL A   1      43.542  19.410  25.395  1.00  0.00    -0.376 OA
BRANCH  30  31
ATOM     31  C   UNL A   1      44.759  20.084  25.656  1.00  0.00     0.202 C 
BRANCH  31  32
ATOM     32  C   UNL A   1      45.015  21.464  25.026  1.00  0.00     0.261 C 
BRANCH  32  33
ATOM     33  O   UNL A   1      44.494  22.572  25.759  1.00  0.00    -0.460 OA
BRANCH  33  34
ATOM     34  C   UNL A   1      43.732  23.435  25.049  1.00  0.00     0.338 C 
ATOM     35  O   UNL A   1      43.408  23.343  23.880  1.00  0.00    -0.246 OA
BRANCH  34  36
ATOM     36  C   UNL A   1      43.161  24.419  25.999  1.00  0.00     0.060 A 
ATOM     37  C   UNL A   1      43.655  25.730  25.961  1.00  0.00     0.016 A 
ATOM     38  C   UNL A   1      42.118  24.083  26.870  1.00  0.00     0.016 A 
ATOM     39  C   UNL A   1      43.122  26.706  26.798  1.00  0.00     0.010 A 
ATOM     40  C   UNL A   1      41.624  25.043  27.755  1.00  0.00     0.010 A 
ATOM     41  C   UNL A   1      42.160  26.342  27.749  1.00  0.00    -0.014 A 
BRANCH  41  42
ATOM     42  C   UNL A   1      42.023  27.190  28.953  1.00  0.00     0.031 A 
ATOM     43  C   UNL A   1      40.869  28.155  28.961  1.00  0.00     0.074 A 
ATOM     44  C   UNL A   1      42.859  27.100  29.999  1.00  0.00     0.049 A 
ATOM     45  N   UNL A   1      40.495  29.006  29.879  1.00  0.00    -0.248 NA
ATOM     46  C   UNL A   1      40.010  28.152  27.762  1.00  0.00     0.031 C 
ATOM     47  C   UNL A   1      43.980  26.172  30.117  1.00  0.00     0.029 A 
ATOM     48  N   UNL A   1      42.884  27.815  31.170  1.00  0.00    -0.354 N 
ATOM     49  C   UNL A   1      39.353  29.615  29.376  1.00  0.00     0.074 A 
ATOM     50  C   UNL A   1      39.106  29.066  28.065  1.00  0.00     0.031 C 
ATOM     51  C   UNL A   1      44.596  26.385  31.295  1.00  0.00     0.029 A 
ATOM     52  C   UNL A   1      43.924  27.477  31.998  1.00  0.00     0.049 A 
ATOM     53  H   UNL A   1      42.219  28.505  31.393  1.00  0.00     0.167 HD
ATOM     54  C   UNL A   1      38.572  30.553  29.957  1.00  0.00     0.037 A 
ATOM     55  C   UNL A   1      44.289  28.012  33.180  1.00  0.00     0.037 A 
ATOM     56  C   UNL A   1      38.851  31.139  31.235  1.00  0.00     0.049 A 
ATOM     57  C   UNL A   1      43.468  29.139  33.759  1.00  0.00     0.074 A 
ATOM     58  C   UNL A   1      38.147  32.116  31.911  1.00  0.00     0.029 A 
ATOM     59  N   UNL A   1      39.947  30.809  32.021  1.00  0.00    -0.354 N 
ATOM     60  N   UNL A   1      42.372  29.691  33.294  1.00  0.00    -0.248 NA
ATOM     61  C   UNL A   1      43.937  29.717  35.027  1.00  0.00     0.031 C 
ATOM     62  C   UNL A   1      38.845  32.415  33.086  1.00  0.00     0.029 A 
ATOM     63  C   UNL A   1      39.955  31.586  33.165  1.00  0.00     0.049 A 
ATOM     64  H   UNL A   1      40.617  30.125  31.797  1.00  0.00     0.167 HD
ATOM     65  C   UNL A   1      42.007  30.660  34.222  1.00  0.00     0.074 A 
ATOM     66  C   UNL A   1      42.994  30.614  35.281  1.00  0.00     0.031 C 
ATOM     67  C   UNL A   1      40.951  31.511  34.203  1.00  0.00     0.037 A 
BRANCH  54  68
ATOM     68  C   UNL A   1      37.384  31.023  29.174  1.00  0.00     0.064 A 
ATOM     69  C   UNL A   1      37.289  32.341  28.703  1.00  0.00     0.173 A 
ATOM     70  C   UNL A   1      36.309  30.156  28.928  1.00  0.00     0.173 A 
ATOM     71  F   UNL A   1      38.278  33.216  28.944  1.00  0.00    -0.203 F 
ATOM     72  C   UNL A   1      36.149  32.783  28.039  1.00  0.00     0.198 A 
ATOM     73  C   UNL A   1      35.182  30.595  28.241  1.00  0.00     0.198 A 
ATOM     74  F   UNL A   1      36.346  28.891  29.372  1.00  0.00    -0.203 F 
ATOM     75  F   UNL A   1      36.054  34.063  27.651  1.00  0.00    -0.200 F 
ATOM     76  C   UNL A   1      35.098  31.909  27.804  1.00  0.00     0.200 A 
ATOM     77  F   UNL A   1      34.167  29.750  28.015  1.00  0.00    -0.200 F 
ATOM     78  F   UNL A   1      33.997  32.337  27.171  1.00  0.00    -0.200 F 
ENDBRANCH  54  68
BRANCH  55  79
ATOM     79  C   UNL A   1      45.491  27.503  33.891  1.00  0.00     0.064 A 
ATOM     80  C   UNL A   1      46.773  27.972  33.575  1.00  0.00     0.173 A 
ATOM     81  C   UNL A   1      45.383  26.518  34.886  1.00  0.00     0.173 A 
ATOM     82  F   UNL A   1      46.930  28.890  32.611  1.00  0.00    -0.203 F 
ATOM     83  C   UNL A   1      47.903  27.468  34.218  1.00  0.00     0.198 A 
ATOM     84  C   UNL A   1      46.512  26.033  35.544  1.00  0.00     0.198 A 
ATOM     85  F   UNL A   1      44.180  26.028  35.218  1.00  0.00    -0.203 F 
ATOM     86  F   UNL A   1      49.120  27.903  33.867  1.00  0.00    -0.200 F 
ATOM     87  C   UNL A   1      47.771  26.503  35.205  1.00  0.00     0.200 A 
ATOM     88  F   UNL A   1      46.379  25.103  36.500  1.00  0.00    -0.200 F 
ATOM     89  F   UNL A   1      48.858  26.019  35.822  1.00  0.00    -0.200 F 
ENDBRANCH  55  79
BRANCH  67  90
ATOM     90  C   UNL A   1      40.791  32.438  35.372  1.00  0.00     0.064 A 
ATOM     91  C   UNL A   1      41.410  33.695  35.403  1.00  0.00     0.173 A 
ATOM     92  C   UNL A   1      39.951  32.088  36.441  1.00  0.00     0.173 A 
ATOM     93  F   UNL A   1      42.229  34.069  34.408  1.00  0.00    -0.203 F 
ATOM     94  C   UNL A   1      41.212  34.561  36.475  1.00  0.00     0.198 A 
ATOM     95  C   UNL A   1      39.734  32.968  37.496  1.00  0.00     0.198 A 
ATOM     96  F   UNL A   1      39.327  30.901  36.451  1.00  0.00    -0.203 F 
ATOM     97  F   UNL A   1      41.844  35.743  36.505  1.00  0.00    -0.200 F 
ATOM     98  C   UNL A   1      40.367  34.200  37.515  1.00  0.00     0.200 A 
ATOM     99  F   UNL A   1      38.905  32.625  38.492  1.00  0.00    -0.200 F 
ATOM    100  F   UNL A   1      40.169  35.041  38.540  1.00  0.00    -0.200 F 
ENDBRANCH  67  90
ENDBRANCH  41  42
ENDBRANCH  34  36
ENDBRANCH  33  34
ENDBRANCH  32  33
ENDBRANCH  31  32
ENDBRANCH  30  31
ENDBRANCH  29  30
ENDBRANCH  28  29
ENDBRANCH   1  28
TORSDOF 23
ENDMDL
