MODEL 1
REMARK VINA RESULT:     -10.9      0.000      0.000
REMARK SMILES Cc1noc(C)c1[C@H](C)NC(=O)NC[C@@](C)(O)C(=O)OCCOCCOCCOCCOC(=O)c1ccc(-c2c3nc(c(-c4c(F)c(F)c(F)c(F)c4F)c4ccc([nH]4)c(-c4c(F)c(F)c(F)c(F)c4F)c4nc(c(-c5c(F)c(F)c(F)c(F)c5F)c5ccc2[nH]5)C=C4)C=C3)cc1
REMARK SMILES IDX 25 1 24 2 23 3 22 4 21 5 20 6 18 7 19 8 15 9 16 10 14 11
REMARK SMILES IDX 13 12 10 13 11 14 12 16 8 18 9 19 7 20 1 21 2 22 3 23 4 24
REMARK SMILES IDX 5 25 6 26 17 27 26 29 27 30 28 31 29 32 30 33 31 34 32 35
REMARK SMILES IDX 33 36 34 37 35 38 36 39 97 40 37 41 96 42 38 43 39 44 40 45
REMARK SMILES IDX 90 46 41 47 95 48 89 49 91 50 42 51 94 52 88 53 87 54 43 56
REMARK SMILES IDX 75 57 55 58 74 59 56 60 59 61 73 62 92 63 57 64 58 65 72 67
REMARK SMILES IDX 93 68 60 69 44 70 45 71 53 72 46 73 47 74 51 75 54 76 48 77
REMARK SMILES IDX 49 78 52 79 50 80 76 81 77 82 85 83 78 84 79 85 83 86 86 87
REMARK SMILES IDX 80 88 81 89 84 90 82 91 61 92 62 93 70 94 63 95 64 96 68 97
REMARK SMILES IDX 71 98 65 99 66 100 69 101 67 102
REMARK H PARENT 10 15 13 17 17 28 91 55 59 66
REMARK Flexibility Score: inf
ROOT
ATOM      1  C   UNL A   1      37.070  21.258  25.641  1.00  0.00     0.188 C 
ENDROOT
BRANCH   1   2
ATOM      2  C   UNL A   1      35.642  21.222  25.100  1.00  0.00     0.188 C 
BRANCH   2   3
ATOM      3  O   UNL A   1      34.940  19.998  24.981  1.00  0.00    -0.376 OA
BRANCH   3   4
ATOM      4  C   UNL A   1      33.733  19.859  24.261  1.00  0.00     0.202 C 
BRANCH   4   5
ATOM      5  C   UNL A   1      32.363  19.967  24.938  1.00  0.00     0.261 C 
BRANCH   5   6
ATOM      6  O   UNL A   1      32.309  20.925  25.993  1.00  0.00    -0.461 OA
BRANCH   6   7
ATOM      7  C   UNL A   1      32.041  22.211  25.633  1.00  0.00     0.339 C 
ATOM      8  O   UNL A   1      31.547  22.540  24.561  1.00  0.00    -0.249 OA
BRANCH   7   9
ATOM      9  C   UNL A   1      32.459  23.211  26.741  1.00  0.00     0.176 C 
ATOM     10  C   UNL A   1      32.973  22.360  27.903  1.00  0.00     0.057 C 
BRANCH   9  11
ATOM     11  C   UNL A   1      33.512  24.233  26.220  1.00  0.00     0.164 C 
BRANCH  11  12
ATOM     12  N   UNL A   1      33.893  24.111  24.824  1.00  0.00    -0.335 N 
ATOM     13  N   UNL A   1      33.520  26.148  23.651  1.00  0.00    -0.331 N 
ATOM     14  C   UNL A   1      33.968  24.898  23.752  1.00  0.00     0.315 C 
ATOM     15  H   UNL A   1      33.748  26.542  22.778  1.00  0.00     0.165 HD
ATOM     16  O   UNL A   1      34.492  24.415  22.745  1.00  0.00    -0.249 OA
ATOM     17  H   UNL A   1      34.172  23.192  24.611  1.00  0.00     0.165 HD
BRANCH  13  18
ATOM     18  C   UNL A   1      32.789  27.089  24.484  1.00  0.00     0.116 C 
ATOM     19  C   UNL A   1      33.787  28.056  25.115  1.00  0.00     0.036 C 
BRANCH  18  20
ATOM     20  C   UNL A   1      31.715  27.744  23.646  1.00  0.00     0.040 A 
ATOM     21  C   UNL A   1      31.206  29.954  25.013  1.00  0.00     0.071 C 
ATOM     22  C   UNL A   1      31.044  28.992  23.894  1.00  0.00     0.086 A 
ATOM     23  N   UNL A   1      30.163  29.281  22.930  1.00  0.00    -0.085 NA
ATOM     24  O   UNL A   1      30.276  28.277  22.003  1.00  0.00    -0.361 OA
ATOM     25  C   UNL A   1      31.206  27.375  22.408  1.00  0.00     0.139 A 
ATOM     26  C   UNL A   1      31.438  26.277  21.448  1.00  0.00     0.091 C 
ENDBRANCH  18  20
ENDBRANCH  13  18
ENDBRANCH  11  12
ENDBRANCH   9  11
BRANCH   9  27
ATOM     27  O   UNL A   1      31.355  23.979  27.250  1.00  0.00    -0.377 OA
ATOM     28  H   UNL A   1      30.752  24.200  26.523  1.00  0.00     0.212 HD
ENDBRANCH   9  27
ENDBRANCH   7   9
ENDBRANCH   6   7
ENDBRANCH   5   6
ENDBRANCH   4   5
ENDBRANCH   3   4
ENDBRANCH   2   3
ENDBRANCH   1   2
BRANCH   1  29
ATOM     29  O   UNL A   1      37.613  22.565  25.708  1.00  0.00    -0.377 OA
BRANCH  29  30
ATOM     30  C   UNL A   1      38.961  22.602  26.129  1.00  0.00     0.188 C 
BRANCH  30  31
ATOM     31  C   UNL A   1      39.711  21.254  26.125  1.00  0.00     0.188 C 
BRANCH  31  32
ATOM     32  O   UNL A   1      40.932  21.022  26.820  1.00  0.00    -0.376 OA
BRANCH  32  33
ATOM     33  C   UNL A   1      42.056  20.456  26.177  1.00  0.00     0.202 C 
BRANCH  33  34
ATOM     34  C   UNL A   1      43.097  21.478  25.711  1.00  0.00     0.261 C 
BRANCH  34  35
ATOM     35  O   UNL A   1      42.528  22.714  25.265  1.00  0.00    -0.460 OA
BRANCH  35  36
ATOM     36  C   UNL A   1      43.350  23.791  25.302  1.00  0.00     0.338 C 
ATOM     37  O   UNL A   1      44.390  23.964  24.691  1.00  0.00    -0.246 OA
BRANCH  36  38
ATOM     38  C   UNL A   1      42.690  24.840  26.107  1.00  0.00     0.060 A 
ATOM     39  C   UNL A   1      43.045  26.181  25.883  1.00  0.00     0.016 A 
ATOM     40  C   UNL A   1      41.670  24.516  27.007  1.00  0.00     0.016 A 
ATOM     41  C   UNL A   1      42.395  27.201  26.577  1.00  0.00     0.010 A 
ATOM     42  C   UNL A   1      41.048  25.531  27.730  1.00  0.00     0.010 A 
ATOM     43  C   UNL A   1      41.440  26.869  27.546  1.00  0.00    -0.014 A 
BRANCH  43  44
ATOM     44  C   UNL A   1      41.105  27.841  28.609  1.00  0.00     0.031 A 
ATOM     45  C   UNL A   1      41.911  27.743  29.875  1.00  0.00     0.074 A 
ATOM     46  C   UNL A   1      40.098  28.720  28.487  1.00  0.00     0.049 A 
ATOM     47  N   UNL A   1      41.721  28.318  31.031  1.00  0.00    -0.248 NA
ATOM     48  C   UNL A   1      43.086  26.852  29.831  1.00  0.00     0.031 C 
ATOM     49  C   UNL A   1      39.288  28.925  27.288  1.00  0.00     0.029 A 
ATOM     50  N   UNL A   1      39.566  29.588  29.408  1.00  0.00    -0.354 N 
ATOM     51  C   UNL A   1      42.733  27.837  31.852  1.00  0.00     0.074 A 
ATOM     52  C   UNL A   1      43.531  26.923  31.074  1.00  0.00     0.031 C 
ATOM     53  C   UNL A   1      38.335  29.837  27.559  1.00  0.00     0.029 A 
ATOM     54  C   UNL A   1      38.444  30.242  28.960  1.00  0.00     0.049 A 
ATOM     55  H   UNL A   1      39.951  29.728  30.302  1.00  0.00     0.167 HD
ATOM     56  C   UNL A   1      42.967  28.131  33.149  1.00  0.00     0.037 A 
ATOM     57  C   UNL A   1      37.589  31.040  29.631  1.00  0.00     0.037 A 
ATOM     58  C   UNL A   1      42.162  29.040  33.913  1.00  0.00     0.049 A 
ATOM     59  C   UNL A   1      37.844  31.314  31.096  1.00  0.00     0.074 A 
ATOM     60  C   UNL A   1      42.310  29.423  35.233  1.00  0.00     0.029 A 
ATOM     61  N   UNL A   1      41.051  29.704  33.417  1.00  0.00    -0.354 N 
ATOM     62  N   UNL A   1      38.813  30.875  31.864  1.00  0.00    -0.248 NA
ATOM     63  C   UNL A   1      36.886  32.188  31.787  1.00  0.00     0.031 C 
ATOM     64  C   UNL A   1      41.258  30.285  35.548  1.00  0.00     0.029 A 
ATOM     65  C   UNL A   1      40.491  30.484  34.410  1.00  0.00     0.049 A 
ATOM     66  H   UNL A   1      40.712  29.630  32.495  1.00  0.00     0.167 HD
ATOM     67  C   UNL A   1      38.607  31.453  33.111  1.00  0.00     0.074 A 
ATOM     68  C   UNL A   1      37.420  32.272  32.999  1.00  0.00     0.031 C 
ATOM     69  C   UNL A   1      39.333  31.323  34.248  1.00  0.00     0.037 A 
BRANCH  56  70
ATOM     70  C   UNL A   1      44.108  27.436  33.826  1.00  0.00     0.064 A 
ATOM     71  C   UNL A   1      43.957  26.177  34.423  1.00  0.00     0.173 A 
ATOM     72  C   UNL A   1      45.379  28.029  33.848  1.00  0.00     0.173 A 
ATOM     73  F   UNL A   1      42.755  25.582  34.451  1.00  0.00    -0.203 F 
ATOM     74  C   UNL A   1      45.038  25.540  35.028  1.00  0.00     0.198 A 
ATOM     75  C   UNL A   1      46.463  27.377  34.429  1.00  0.00     0.198 A 
ATOM     76  F   UNL A   1      45.573  29.238  33.298  1.00  0.00    -0.203 F 
ATOM     77  F   UNL A   1      44.863  24.354  35.626  1.00  0.00    -0.200 F 
ATOM     78  C   UNL A   1      46.291  26.135  35.021  1.00  0.00     0.200 A 
ATOM     79  F   UNL A   1      47.674  27.950  34.415  1.00  0.00    -0.200 F 
ATOM     80  F   UNL A   1      47.332  25.514  35.591  1.00  0.00    -0.200 F 
ENDBRANCH  56  70
BRANCH  57  81
ATOM     81  C   UNL A   1      36.393  31.609  28.952  1.00  0.00     0.064 A 
ATOM     82  C   UNL A   1      36.296  32.983  28.685  1.00  0.00     0.173 A 
ATOM     83  C   UNL A   1      35.300  30.803  28.601  1.00  0.00     0.173 A 
ATOM     84  F   UNL A   1      37.302  33.803  29.023  1.00  0.00    -0.203 F 
ATOM     85  C   UNL A   1      35.143  33.530  28.123  1.00  0.00     0.198 A 
ATOM     86  C   UNL A   1      34.160  31.346  28.010  1.00  0.00     0.198 A 
ATOM     87  F   UNL A   1      35.336  29.483  28.835  1.00  0.00    -0.203 F 
ATOM     88  F   UNL A   1      35.055  34.854  27.935  1.00  0.00    -0.200 F 
ATOM     89  C   UNL A   1      34.078  32.711  27.783  1.00  0.00     0.200 A 
ATOM     90  F   UNL A   1      33.137  30.548  27.673  1.00  0.00    -0.200 F 
ATOM     91  F   UNL A   1      32.968  33.238  27.248  1.00  0.00    -0.200 F 
ENDBRANCH  57  81
BRANCH  69  92
ATOM     92  C   UNL A   1      38.922  32.136  35.438  1.00  0.00     0.064 A 
ATOM     93  C   UNL A   1      38.210  31.576  36.506  1.00  0.00     0.173 A 
ATOM     94  C   UNL A   1      39.345  33.470  35.551  1.00  0.00     0.173 A 
ATOM     95  F   UNL A   1      37.778  30.307  36.439  1.00  0.00    -0.203 F 
ATOM     96  C   UNL A   1      37.927  32.327  37.643  1.00  0.00     0.198 A 
ATOM     97  C   UNL A   1      39.085  34.208  36.701  1.00  0.00     0.198 A 
ATOM     98  F   UNL A   1      40.041  34.045  34.558  1.00  0.00    -0.203 F 
ATOM     99  F   UNL A   1      37.221  31.782  38.644  1.00  0.00    -0.200 F 
ATOM    100  C   UNL A   1      38.374  33.636  37.744  1.00  0.00     0.200 A 
ATOM    101  F   UNL A   1      39.535  35.466  36.803  1.00  0.00    -0.200 F 
ATOM    102  F   UNL A   1      38.120  34.349  38.851  1.00  0.00    -0.200 F 
ENDBRANCH  69  92
ENDBRANCH  43  44
ENDBRANCH  36  38
ENDBRANCH  35  36
ENDBRANCH  34  35
ENDBRANCH  33  34
ENDBRANCH  32  33
ENDBRANCH  31  32
ENDBRANCH  30  31
ENDBRANCH  29  30
ENDBRANCH   1  29
TORSDOF 25
ENDMDL
MODEL 2
REMARK VINA RESULT:     -10.2      3.613      9.298
REMARK SMILES Cc1noc(C)c1[C@H](C)NC(=O)NC[C@@](C)(O)C(=O)OCCOCCOCCOCCOC(=O)c1ccc(-c2c3nc(c(-c4c(F)c(F)c(F)c(F)c4F)c4ccc([nH]4)c(-c4c(F)c(F)c(F)c(F)c4F)c4nc(c(-c5c(F)c(F)c(F)c(F)c5F)c5ccc2[nH]5)C=C4)C=C3)cc1
REMARK SMILES IDX 25 1 24 2 23 3 22 4 21 5 20 6 18 7 19 8 15 9 16 10 14 11
REMARK SMILES IDX 13 12 10 13 11 14 12 16 8 18 9 19 7 20 1 21 2 22 3 23 4 24
REMARK SMILES IDX 5 25 6 26 17 27 26 29 27 30 28 31 29 32 30 33 31 34 32 35
REMARK SMILES IDX 33 36 34 37 35 38 36 39 97 40 37 41 96 42 38 43 39 44 40 45
REMARK SMILES IDX 90 46 41 47 95 48 89 49 91 50 42 51 94 52 88 53 87 54 43 56
REMARK SMILES IDX 75 57 55 58 74 59 56 60 59 61 73 62 92 63 57 64 58 65 72 67
REMARK SMILES IDX 93 68 60 69 44 70 45 71 53 72 46 73 47 74 51 75 54 76 48 77
REMARK SMILES IDX 49 78 52 79 50 80 76 81 77 82 85 83 78 84 79 85 83 86 86 87
REMARK SMILES IDX 80 88 81 89 84 90 82 91 61 92 62 93 70 94 63 95 64 96 68 97
REMARK SMILES IDX 71 98 65 99 66 100 69 101 67 102
REMARK H PARENT 10 15 13 17 17 28 91 55 59 66
REMARK Flexibility Score: inf
ROOT
ATOM      1  C   UNL A   1      29.788  25.365  26.124  1.00  0.00     0.188 C 
ENDROOT
BRANCH   1   2
ATOM      2  C   UNL A   1      29.866  25.578  24.613  1.00  0.00     0.188 C 
BRANCH   2   3
ATOM      3  O   UNL A   1      28.846  26.276  23.924  1.00  0.00    -0.376 OA
BRANCH   3   4
ATOM      4  C   UNL A   1      28.836  27.679  23.758  1.00  0.00     0.202 C 
BRANCH   4   5
ATOM      5  C   UNL A   1      29.728  28.385  22.732  1.00  0.00     0.261 C 
BRANCH   5   6
ATOM      6  O   UNL A   1      31.124  28.173  22.932  1.00  0.00    -0.461 OA
BRANCH   6   7
ATOM      7  C   UNL A   1      31.707  27.205  22.171  1.00  0.00     0.339 C 
ATOM      8  O   UNL A   1      31.107  26.503  21.367  1.00  0.00    -0.249 OA
BRANCH   7   9
ATOM      9  C   UNL A   1      33.225  27.088  22.465  1.00  0.00     0.176 C 
ATOM     10  C   UNL A   1      33.600  28.345  23.252  1.00  0.00     0.057 C 
BRANCH   9  11
ATOM     11  C   UNL A   1      33.561  25.770  23.223  1.00  0.00     0.164 C 
BRANCH  11  12
ATOM     12  N   UNL A   1      32.951  24.558  22.707  1.00  0.00    -0.335 N 
ATOM     13  N   UNL A   1      33.322  22.719  24.172  1.00  0.00    -0.331 N 
ATOM     14  C   UNL A   1      32.779  23.297  23.102  1.00  0.00     0.315 C 
ATOM     15  H   UNL A   1      32.996  21.797  24.287  1.00  0.00     0.165 HD
ATOM     16  O   UNL A   1      32.056  22.588  22.397  1.00  0.00    -0.249 OA
ATOM     17  H   UNL A   1      32.554  24.709  21.819  1.00  0.00     0.165 HD
BRANCH  13  18
ATOM     18  C   UNL A   1      34.265  23.083  25.217  1.00  0.00     0.116 C 
ATOM     19  C   UNL A   1      33.521  23.118  26.550  1.00  0.00     0.036 C 
BRANCH  18  20
ATOM     20  C   UNL A   1      35.434  22.127  25.169  1.00  0.00     0.040 A 
ATOM     21  C   UNL A   1      37.476  23.707  25.758  1.00  0.00     0.071 C 
ATOM     22  C   UNL A   1      36.822  22.420  25.411  1.00  0.00     0.086 A 
ATOM     23  N   UNL A   1      37.585  21.327  25.307  1.00  0.00    -0.085 NA
ATOM     24  O   UNL A   1      36.724  20.289  25.060  1.00  0.00    -0.361 OA
ATOM     25  C   UNL A   1      35.449  20.749  24.997  1.00  0.00     0.139 A 
ATOM     26  C   UNL A   1      34.438  19.694  24.783  1.00  0.00     0.091 C 
ENDBRANCH  18  20
ENDBRANCH  13  18
ENDBRANCH  11  12
ENDBRANCH   9  11
BRANCH   9  27
ATOM     27  O   UNL A   1      34.030  27.095  21.272  1.00  0.00    -0.377 OA
ATOM     28  H   UNL A   1      33.505  26.765  20.527  1.00  0.00     0.212 HD
ENDBRANCH   9  27
ENDBRANCH   7   9
ENDBRANCH   6   7
ENDBRANCH   5   6
ENDBRANCH   4   5
ENDBRANCH   3   4
ENDBRANCH   2   3
ENDBRANCH   1   2
BRANCH   1  29
ATOM     29  O   UNL A   1      31.027  25.559  26.784  1.00  0.00    -0.377 OA
BRANCH  29  30
ATOM     30  C   UNL A   1      31.804  26.607  26.242  1.00  0.00     0.188 C 
BRANCH  30  31
ATOM     31  C   UNL A   1      31.612  27.997  26.881  1.00  0.00     0.188 C 
BRANCH  31  32
ATOM     32  O   UNL A   1      31.402  29.193  26.137  1.00  0.00    -0.376 OA
BRANCH  32  33
ATOM     33  C   UNL A   1      32.220  30.331  26.316  1.00  0.00     0.202 C 
BRANCH  33  34
ATOM     34  C   UNL A   1      33.609  30.026  26.884  1.00  0.00     0.261 C 
BRANCH  34  35
ATOM     35  O   UNL A   1      33.953  30.825  28.020  1.00  0.00    -0.460 OA
BRANCH  35  36
ATOM     36  C   UNL A   1      35.085  31.563  27.904  1.00  0.00     0.338 C 
ATOM     37  O   UNL A   1      35.183  32.763  27.713  1.00  0.00    -0.246 OA
BRANCH  36  38
ATOM     38  C   UNL A   1      36.234  30.687  28.214  1.00  0.00     0.060 A 
ATOM     39  C   UNL A   1      36.264  30.035  29.458  1.00  0.00     0.016 A 
ATOM     40  C   UNL A   1      37.223  30.439  27.258  1.00  0.00     0.016 A 
ATOM     41  C   UNL A   1      37.298  29.149  29.757  1.00  0.00     0.010 A 
ATOM     42  C   UNL A   1      38.278  29.586  27.571  1.00  0.00     0.010 A 
ATOM     43  C   UNL A   1      38.338  28.974  28.836  1.00  0.00    -0.014 A 
BRANCH  43  44
ATOM     44  C   UNL A   1      39.646  28.459  29.294  1.00  0.00     0.031 A 
ATOM     45  C   UNL A   1      40.431  29.362  30.206  1.00  0.00     0.074 A 
ATOM     46  C   UNL A   1      40.143  27.286  28.875  1.00  0.00     0.049 A 
ATOM     47  N   UNL A   1      41.670  29.270  30.606  1.00  0.00    -0.248 NA
ATOM     48  C   UNL A   1      39.718  30.547  30.721  1.00  0.00     0.031 C 
ATOM     49  C   UNL A   1      39.446  26.319  28.029  1.00  0.00     0.029 A 
ATOM     50  N   UNL A   1      41.377  26.723  29.085  1.00  0.00    -0.354 N 
ATOM     51  C   UNL A   1      41.888  30.395  31.392  1.00  0.00     0.074 A 
ATOM     52  C   UNL A   1      40.664  31.158  31.413  1.00  0.00     0.031 C 
ATOM     53  C   UNL A   1      40.278  25.296  27.762  1.00  0.00     0.029 A 
ATOM     54  C   UNL A   1      41.576  25.560  28.381  1.00  0.00     0.049 A 
ATOM     55  H   UNL A   1      42.055  27.114  29.682  1.00  0.00     0.167 HD
ATOM     56  C   UNL A   1      43.018  30.759  32.034  1.00  0.00     0.037 A 
ATOM     57  C   UNL A   1      42.699  24.828  28.229  1.00  0.00     0.037 A 
ATOM     58  C   UNL A   1      44.230  29.992  32.002  1.00  0.00     0.049 A 
ATOM     59  C   UNL A   1      43.965  25.285  28.917  1.00  0.00     0.074 A 
ATOM     60  C   UNL A   1      45.435  30.258  32.623  1.00  0.00     0.029 A 
ATOM     61  N   UNL A   1      44.384  28.806  31.301  1.00  0.00    -0.354 N 
ATOM     62  N   UNL A   1      44.163  26.336  29.677  1.00  0.00    -0.248 NA
ATOM     63  C   UNL A   1      45.165  24.457  28.723  1.00  0.00     0.031 C 
ATOM     64  C   UNL A   1      46.335  29.254  32.258  1.00  0.00     0.029 A 
ATOM     65  C   UNL A   1      45.672  28.334  31.460  1.00  0.00     0.049 A 
ATOM     66  H   UNL A   1      43.681  28.368  30.769  1.00  0.00     0.167 HD
ATOM     67  C   UNL A   1      45.489  26.271  30.085  1.00  0.00     0.074 A 
ATOM     68  C   UNL A   1      46.051  25.079  29.488  1.00  0.00     0.031 C 
ATOM     69  C   UNL A   1      46.183  27.118  30.885  1.00  0.00     0.037 A 
BRANCH  56  70
ATOM     70  C   UNL A   1      43.005  32.054  32.787  1.00  0.00     0.064 A 
ATOM     71  C   UNL A   1      42.521  32.140  34.100  1.00  0.00     0.173 A 
ATOM     72  C   UNL A   1      43.515  33.218  32.194  1.00  0.00     0.173 A 
ATOM     73  F   UNL A   1      41.999  31.060  34.699  1.00  0.00    -0.203 F 
ATOM     74  C   UNL A   1      42.537  33.351  34.788  1.00  0.00     0.198 A 
ATOM     75  C   UNL A   1      43.556  34.420  32.895  1.00  0.00     0.198 A 
ATOM     76  F   UNL A   1      43.982  33.189  30.936  1.00  0.00    -0.203 F 
ATOM     77  F   UNL A   1      42.035  33.420  36.028  1.00  0.00    -0.200 F 
ATOM     78  C   UNL A   1      43.065  34.486  34.190  1.00  0.00     0.200 A 
ATOM     79  F   UNL A   1      44.073  35.514  32.318  1.00  0.00    -0.200 F 
ATOM     80  F   UNL A   1      43.093  35.646  34.860  1.00  0.00    -0.200 F 
ENDBRANCH  56  70
BRANCH  57  81
ATOM     81  C   UNL A   1      42.701  23.615  27.367  1.00  0.00     0.064 A 
ATOM     82  C   UNL A   1      42.344  22.359  27.881  1.00  0.00     0.173 A 
ATOM     83  C   UNL A   1      43.108  23.673  26.026  1.00  0.00     0.173 A 
ATOM     84  F   UNL A   1      41.972  22.243  29.164  1.00  0.00    -0.203 F 
ATOM     85  C   UNL A   1      42.424  21.208  27.098  1.00  0.00     0.198 A 
ATOM     86  C   UNL A   1      43.157  22.526  25.234  1.00  0.00     0.198 A 
ATOM     87  F   UNL A   1      43.463  24.846  25.481  1.00  0.00    -0.203 F 
ATOM     88  F   UNL A   1      42.135  20.015  27.634  1.00  0.00    -0.200 F 
ATOM     89  C   UNL A   1      42.827  21.293  25.774  1.00  0.00     0.200 A 
ATOM     90  F   UNL A   1      43.537  22.615  23.951  1.00  0.00    -0.200 F 
ATOM     91  F   UNL A   1      42.908  20.186  25.024  1.00  0.00    -0.200 F 
ENDBRANCH  57  81
BRANCH  69  92
ATOM     92  C   UNL A   1      47.596  26.755  31.230  1.00  0.00     0.064 A 
ATOM     93  C   UNL A   1      47.898  25.862  32.265  1.00  0.00     0.173 A 
ATOM     94  C   UNL A   1      48.652  27.231  30.436  1.00  0.00     0.173 A 
ATOM     95  F   UNL A   1      46.923  25.387  33.055  1.00  0.00    -0.203 F 
ATOM     96  C   UNL A   1      49.211  25.465  32.502  1.00  0.00     0.198 A 
ATOM     97  C   UNL A   1      49.959  26.810  30.657  1.00  0.00     0.198 A 
ATOM     98  F   UNL A   1      48.409  28.079  29.425  1.00  0.00    -0.203 F 
ATOM     99  F   UNL A   1      49.484  24.630  33.514  1.00  0.00    -0.200 F 
ATOM    100  C   UNL A   1      50.237  25.929  31.691  1.00  0.00     0.200 A 
ATOM    101  F   UNL A   1      50.945  27.245  29.861  1.00  0.00    -0.200 F 
ATOM    102  F   UNL A   1      51.497  25.526  31.906  1.00  0.00    -0.200 F 
ENDBRANCH  69  92
ENDBRANCH  43  44
ENDBRANCH  36  38
ENDBRANCH  35  36
ENDBRANCH  34  35
ENDBRANCH  33  34
ENDBRANCH  32  33
ENDBRANCH  31  32
ENDBRANCH  30  31
ENDBRANCH  29  30
ENDBRANCH   1  29
TORSDOF 25
ENDMDL
MODEL 3
REMARK VINA RESULT:     -10.0      4.391      9.776
REMARK SMILES Cc1noc(C)c1[C@H](C)NC(=O)NC[C@@](C)(O)C(=O)OCCOCCOCCOCCOC(=O)c1ccc(-c2c3nc(c(-c4c(F)c(F)c(F)c(F)c4F)c4ccc([nH]4)c(-c4c(F)c(F)c(F)c(F)c4F)c4nc(c(-c5c(F)c(F)c(F)c(F)c5F)c5ccc2[nH]5)C=C4)C=C3)cc1
REMARK SMILES IDX 25 1 24 2 23 3 22 4 21 5 20 6 18 7 19 8 15 9 16 10 14 11
REMARK SMILES IDX 13 12 10 13 11 14 12 16 8 18 9 19 7 20 1 21 2 22 3 23 4 24
REMARK SMILES IDX 5 25 6 26 17 27 26 29 27 30 28 31 29 32 30 33 31 34 32 35
REMARK SMILES IDX 33 36 34 37 35 38 36 39 97 40 37 41 96 42 38 43 39 44 40 45
REMARK SMILES IDX 90 46 41 47 95 48 89 49 91 50 42 51 94 52 88 53 87 54 43 56
REMARK SMILES IDX 75 57 55 58 74 59 56 60 59 61 73 62 92 63 57 64 58 65 72 67
REMARK SMILES IDX 93 68 60 69 44 70 45 71 53 72 46 73 47 74 51 75 54 76 48 77
REMARK SMILES IDX 49 78 52 79 50 80 76 81 77 82 85 83 78 84 79 85 83 86 86 87
REMARK SMILES IDX 80 88 81 89 84 90 82 91 61 92 62 93 70 94 63 95 64 96 68 97
REMARK SMILES IDX 71 98 65 99 66 100 69 101 67 102
REMARK H PARENT 10 15 13 17 17 28 91 55 59 66
REMARK Flexibility Score: inf
ROOT
ATOM      1  C   UNL A   1      29.690  25.523  26.104  1.00  0.00     0.188 C 
ENDROOT
BRANCH   1   2
ATOM      2  C   UNL A   1      29.925  25.458  24.596  1.00  0.00     0.188 C 
BRANCH   2   3
ATOM      3  O   UNL A   1      29.001  26.031  23.691  1.00  0.00    -0.376 OA
BRANCH   3   4
ATOM      4  C   UNL A   1      28.737  27.417  23.619  1.00  0.00     0.202 C 
BRANCH   4   5
ATOM      5  C   UNL A   1      29.612  28.373  22.803  1.00  0.00     0.261 C 
BRANCH   5   6
ATOM      6  O   UNL A   1      31.009  28.248  23.065  1.00  0.00    -0.461 OA
BRANCH   6   7
ATOM      7  C   UNL A   1      31.713  27.433  22.231  1.00  0.00     0.339 C 
ATOM      8  O   UNL A   1      31.210  26.734  21.360  1.00  0.00    -0.249 OA
BRANCH   7   9
ATOM      9  C   UNL A   1      33.233  27.485  22.534  1.00  0.00     0.176 C 
ATOM     10  C   UNL A   1      33.427  28.644  23.513  1.00  0.00     0.057 C 
BRANCH   9  11
ATOM     11  C   UNL A   1      33.751  26.125  23.088  1.00  0.00     0.164 C 
BRANCH  11  12
ATOM     12  N   UNL A   1      33.057  24.936  22.627  1.00  0.00    -0.335 N 
ATOM     13  N   UNL A   1      33.385  23.116  24.125  1.00  0.00    -0.331 N 
ATOM     14  C   UNL A   1      32.833  23.696  23.062  1.00  0.00     0.315 C 
ATOM     15  H   UNL A   1      33.015  22.216  24.277  1.00  0.00     0.165 HD
ATOM     16  O   UNL A   1      32.046  23.011  22.404  1.00  0.00    -0.249 OA
ATOM     17  H   UNL A   1      32.635  25.087  21.751  1.00  0.00     0.165 HD
BRANCH  13  18
ATOM     18  C   UNL A   1      34.386  23.452  25.124  1.00  0.00     0.116 C 
ATOM     19  C   UNL A   1      33.681  23.682  26.459  1.00  0.00     0.036 C 
BRANCH  18  20
ATOM     20  C   UNL A   1      35.438  22.366  25.141  1.00  0.00     0.040 A 
ATOM     21  C   UNL A   1      37.626  23.715  25.775  1.00  0.00     0.071 C 
ATOM     22  C   UNL A   1      36.840  22.504  25.431  1.00  0.00     0.086 A 
ATOM     23  N   UNL A   1      37.475  21.328  25.379  1.00  0.00    -0.085 NA
ATOM     24  O   UNL A   1      36.508  20.390  25.121  1.00  0.00    -0.361 OA
ATOM     25  C   UNL A   1      35.298  20.993  25.000  1.00  0.00     0.139 A 
ATOM     26  C   UNL A   1      34.179  20.056  24.769  1.00  0.00     0.091 C 
ENDBRANCH  18  20
ENDBRANCH  13  18
ENDBRANCH  11  12
ENDBRANCH   9  11
BRANCH   9  27
ATOM     27  O   UNL A   1      34.027  27.789  21.374  1.00  0.00    -0.377 OA
ATOM     28  H   UNL A   1      33.443  27.981  20.624  1.00  0.00     0.212 HD
ENDBRANCH   9  27
ENDBRANCH   7   9
ENDBRANCH   6   7
ENDBRANCH   5   6
ENDBRANCH   4   5
ENDBRANCH   3   4
ENDBRANCH   2   3
ENDBRANCH   1   2
BRANCH   1  29
ATOM     29  O   UNL A   1      30.835  25.926  26.834  1.00  0.00    -0.377 OA
BRANCH  29  30
ATOM     30  C   UNL A   1      31.540  26.998  26.245  1.00  0.00     0.188 C 
BRANCH  30  31
ATOM     31  C   UNL A   1      31.581  28.311  27.054  1.00  0.00     0.188 C 
BRANCH  31  32
ATOM     32  O   UNL A   1      31.671  29.605  26.466  1.00  0.00    -0.376 OA
BRANCH  32  33
ATOM     33  C   UNL A   1      32.795  30.436  26.672  1.00  0.00     0.202 C 
BRANCH  33  34
ATOM     34  C   UNL A   1      33.984  29.735  27.336  1.00  0.00     0.261 C 
BRANCH  34  35
ATOM     35  O   UNL A   1      34.592  30.502  28.380  1.00  0.00    -0.460 OA
BRANCH  35  36
ATOM     36  C   UNL A   1      35.671  31.240  28.022  1.00  0.00     0.338 C 
ATOM     37  O   UNL A   1      35.709  32.422  27.726  1.00  0.00    -0.246 OA
BRANCH  36  38
ATOM     38  C   UNL A   1      36.876  30.403  28.203  1.00  0.00     0.060 A 
ATOM     39  C   UNL A   1      37.087  29.791  29.450  1.00  0.00     0.016 A 
ATOM     40  C   UNL A   1      37.739  30.149  27.132  1.00  0.00     0.016 A 
ATOM     41  C   UNL A   1      38.176  28.941  29.635  1.00  0.00     0.010 A 
ATOM     42  C   UNL A   1      38.850  29.332  27.328  1.00  0.00     0.010 A 
ATOM     43  C   UNL A   1      39.092  28.763  28.591  1.00  0.00    -0.014 A 
BRANCH  43  44
ATOM     44  C   UNL A   1      40.463  28.296  28.888  1.00  0.00     0.031 A 
ATOM     45  C   UNL A   1      41.393  29.312  29.492  1.00  0.00     0.074 A 
ATOM     46  C   UNL A   1      40.882  27.059  28.579  1.00  0.00     0.049 A 
ATOM     47  N   UNL A   1      42.684  29.254  29.676  1.00  0.00    -0.248 NA
ATOM     48  C   UNL A   1      40.778  30.579  29.929  1.00  0.00     0.031 C 
ATOM     49  C   UNL A   1      40.050  25.989  28.034  1.00  0.00     0.029 A 
ATOM     50  N   UNL A   1      42.137  26.507  28.655  1.00  0.00    -0.354 N 
ATOM     51  C   UNL A   1      43.032  30.482  30.223  1.00  0.00     0.074 A 
ATOM     52  C   UNL A   1      41.829  31.268  30.338  1.00  0.00     0.031 C 
ATOM     53  C   UNL A   1      40.826  24.916  27.790  1.00  0.00     0.029 A 
ATOM     54  C   UNL A   1      42.213  25.243  28.121  1.00  0.00     0.049 A 
ATOM     55  H   UNL A   1      42.908  26.971  29.054  1.00  0.00     0.167 HD
ATOM     56  C   UNL A   1      44.258  30.916  30.590  1.00  0.00     0.037 A 
ATOM     57  C   UNL A   1      43.294  24.470  27.892  1.00  0.00     0.037 A 
ATOM     58  C   UNL A   1      45.447  30.125  30.468  1.00  0.00     0.049 A 
ATOM     59  C   UNL A   1      44.660  24.999  28.265  1.00  0.00     0.074 A 
ATOM     60  C   UNL A   1      46.743  30.456  30.816  1.00  0.00     0.029 A 
ATOM     61  N   UNL A   1      45.480  28.840  29.947  1.00  0.00    -0.354 N 
ATOM     62  N   UNL A   1      44.985  26.151  28.802  1.00  0.00    -0.248 NA
ATOM     63  C   UNL A   1      45.810  24.123  27.997  1.00  0.00     0.031 C 
ATOM     64  C   UNL A   1      47.568  29.386  30.463  1.00  0.00     0.029 A 
ATOM     65  C   UNL A   1      46.778  28.368  29.950  1.00  0.00     0.049 A 
ATOM     66  H   UNL A   1      44.695  28.341  29.625  1.00  0.00     0.167 HD
ATOM     67  C   UNL A   1      46.363  26.120  28.975  1.00  0.00     0.074 A 
ATOM     68  C   UNL A   1      46.816  24.836  28.485  1.00  0.00     0.031 C 
ATOM     69  C   UNL A   1      47.184  27.065  29.495  1.00  0.00     0.037 A 
BRANCH  56  70
ATOM     70  C   UNL A   1      44.373  32.314  31.118  1.00  0.00     0.064 A 
ATOM     71  C   UNL A   1      44.296  32.593  32.490  1.00  0.00     0.173 A 
ATOM     72  C   UNL A   1      44.594  33.383  30.238  1.00  0.00     0.173 A 
ATOM     73  F   UNL A   1      44.059  31.608  33.368  1.00  0.00    -0.203 F 
ATOM     74  C   UNL A   1      44.427  33.897  32.960  1.00  0.00     0.198 A 
ATOM     75  C   UNL A   1      44.752  34.681  30.714  1.00  0.00     0.198 A 
ATOM     76  F   UNL A   1      44.666  33.167  28.915  1.00  0.00    -0.203 F 
ATOM     77  F   UNL A   1      44.313  34.149  34.271  1.00  0.00    -0.200 F 
ATOM     78  C   UNL A   1      44.665  34.938  32.074  1.00  0.00     0.200 A 
ATOM     79  F   UNL A   1      44.990  35.683  29.856  1.00  0.00    -0.200 F 
ATOM     80  F   UNL A   1      44.806  36.190  32.530  1.00  0.00    -0.200 F 
ENDBRANCH  56  70
BRANCH  57  81
ATOM     81  C   UNL A   1      43.148  23.137  27.248  1.00  0.00     0.064 A 
ATOM     82  C   UNL A   1      43.576  22.917  25.930  1.00  0.00     0.173 A 
ATOM     83  C   UNL A   1      42.534  22.067  27.915  1.00  0.00     0.173 A 
ATOM     84  F   UNL A   1      44.146  23.914  25.237  1.00  0.00    -0.203 F 
ATOM     85  C   UNL A   1      43.366  21.693  25.296  1.00  0.00     0.198 A 
ATOM     86  C   UNL A   1      42.353  20.833  27.292  1.00  0.00     0.198 A 
ATOM     87  F   UNL A   1      42.103  22.220  29.176  1.00  0.00    -0.203 F 
ATOM     88  F   UNL A   1      43.730  21.532  24.017  1.00  0.00    -0.200 F 
ATOM     89  C   UNL A   1      42.759  20.651  25.979  1.00  0.00     0.200 A 
ATOM     90  F   UNL A   1      41.775  19.825  27.960  1.00  0.00    -0.200 F 
ATOM     91  F   UNL A   1      42.553  19.476  25.368  1.00  0.00    -0.200 F 
ENDBRANCH  57  81
BRANCH  69  92
ATOM     92  C   UNL A   1      48.638  26.727  29.639  1.00  0.00     0.064 A 
ATOM     93  C   UNL A   1      49.585  27.116  28.684  1.00  0.00     0.173 A 
ATOM     94  C   UNL A   1      49.095  26.097  30.807  1.00  0.00     0.173 A 
ATOM     95  F   UNL A   1      49.194  27.714  27.548  1.00  0.00    -0.203 F 
ATOM     96  C   UNL A   1      50.940  26.877  28.888  1.00  0.00     0.198 A 
ATOM     97  C   UNL A   1      50.453  25.886  31.021  1.00  0.00     0.198 A 
ATOM     98  F   UNL A   1      48.225  25.718  31.755  1.00  0.00    -0.203 F 
ATOM     99  F   UNL A   1      51.830  27.233  27.951  1.00  0.00    -0.200 F 
ATOM    100  C   UNL A   1      51.374  26.274  30.061  1.00  0.00     0.200 A 
ATOM    101  F   UNL A   1      50.869  25.321  32.162  1.00  0.00    -0.200 F 
ATOM    102  F   UNL A   1      52.682  26.067  30.265  1.00  0.00    -0.200 F 
ENDBRANCH  69  92
ENDBRANCH  43  44
ENDBRANCH  36  38
ENDBRANCH  35  36
ENDBRANCH  34  35
ENDBRANCH  33  34
ENDBRANCH  32  33
ENDBRANCH  31  32
ENDBRANCH  30  31
ENDBRANCH  29  30
ENDBRANCH   1  29
TORSDOF 25
ENDMDL
