MODEL 1
REMARK VINA RESULT:     -11.8      0.000      0.000
REMARK SMILES Cc1nccn1C1(C(=O)OCCOCCOCCOCCOC(=O)c2ccc(-c3c4nc(c(-c5c(F)c(F)c(F)c(F)c5F)c5ccc([nH]5)c(-c5c(F)c(F)c(F)c(F)c5F)c5nc(c(-c6c(F)c(F)c(F)c(F)c6F)c6ccc3[nH]6)C=C5)C=C4)cc2)CCN(C(=O)[C@@H]2C[C@H]2c2ccccc2)CC1
REMARK SMILES IDX 16 1 15 2 14 3 13 4 12 5 11 6 10 7 8 8 9 9 7 10 88 11 103 12
REMARK SMILES IDX 89 13 102 14 90 15 91 16 92 17 6 18 1 19 2 20 3 21 4 22 5 23
REMARK SMILES IDX 93 24 94 25 95 26 96 27 97 28 101 29 98 30 100 31 99 32
REMARK SMILES IDX 17 33 18 34 19 35 20 36 21 37 22 38 23 39 24 40 25 41 26 42
REMARK SMILES IDX 87 43 27 44 86 45 28 46 29 47 30 48 80 49 31 50 85 51 79 52
REMARK SMILES IDX 81 53 32 54 84 55 78 56 77 57 33 59 65 60 45 61 64 62 46 63
REMARK SMILES IDX 49 64 63 65 82 66 47 67 48 68 62 70 83 71 50 72 34 73 35 74
REMARK SMILES IDX 43 75 36 76 37 77 41 78 44 79 38 80 39 81 42 82 40 83 66 84
REMARK SMILES IDX 67 85 75 86 68 87 69 88 73 89 76 90 70 91 71 92 74 93 72 94
REMARK SMILES IDX 51 95 52 96 60 97 53 98 54 99 58 100 61 101 55 102 56 103
REMARK SMILES IDX 59 104 57 105
REMARK H PARENT 81 58 49 69
REMARK Flexibility Score: inf
ROOT
ATOM      1  O   UNL A   1      36.822  22.902  25.828  1.00  0.00    -0.377 OA
ENDROOT
BRANCH   1   2
ATOM      2  C   UNL A   1      35.548  22.308  26.001  1.00  0.00     0.188 C 
BRANCH   2   3
ATOM      3  C   UNL A   1      34.474  23.214  26.633  1.00  0.00     0.188 C 
BRANCH   3   4
ATOM      4  O   UNL A   1      33.137  22.776  26.848  1.00  0.00    -0.376 OA
BRANCH   4   5
ATOM      5  C   UNL A   1      32.112  23.722  27.099  1.00  0.00     0.202 C 
BRANCH   5   6
ATOM      6  C   UNL A   1      30.805  23.586  26.306  1.00  0.00     0.261 C 
BRANCH   6   7
ATOM      7  O   UNL A   1      30.177  24.833  25.957  1.00  0.00    -0.461 OA
BRANCH   7   8
ATOM      8  C   UNL A   1      30.916  25.966  26.101  1.00  0.00     0.332 C 
ATOM      9  O   UNL A   1      30.919  26.638  27.130  1.00  0.00    -0.249 OA
BRANCH   8  10
ATOM     10  C   UNL A   1      31.721  26.380  24.808  1.00  0.00     0.146 C 
ATOM     11  C   UNL A   1      33.249  26.097  24.974  1.00  0.00     0.062 C 
ATOM     12  C   UNL A   1      31.066  25.436  23.757  1.00  0.00     0.062 C 
ATOM     13  C   UNL A   1      34.005  25.608  23.745  1.00  0.00     0.122 C 
ATOM     14  C   UNL A   1      31.949  24.994  22.605  1.00  0.00     0.122 C 
ATOM     15  N   UNL A   1      33.248  24.566  23.076  1.00  0.00    -0.342 N 
ATOM     16  C   UNL A   1      33.911  23.401  22.704  1.00  0.00     0.226 C 
ATOM     17  O   UNL A   1      35.132  23.378  22.566  1.00  0.00    -0.275 OA
BRANCH  10  18
ATOM     18  N   UNL A   1      31.501  27.837  24.555  1.00  0.00    -0.318 N 
ATOM     19  C   UNL A   1      33.215  29.088  26.033  1.00  0.00     0.087 C 
ATOM     20  C   UNL A   1      31.991  28.960  25.214  1.00  0.00     0.106 A 
ATOM     21  N   UNL A   1      31.255  30.023  24.948  1.00  0.00    -0.242 NA
ATOM     22  C   UNL A   1      30.392  29.660  23.972  1.00  0.00     0.131 A 
ATOM     23  C   UNL A   1      30.570  28.340  23.661  1.00  0.00     0.108 A 
ENDBRANCH  10  18
BRANCH  16  24
ATOM     24  C   UNL A   1      33.204  22.088  22.638  1.00  0.00     0.087 C 
ATOM     25  C   UNL A   1      31.714  21.926  22.539  1.00  0.00     0.023 C 
ATOM     26  C   UNL A   1      32.442  21.440  23.769  1.00  0.00     0.032 C 
BRANCH  26  27
ATOM     27  C   UNL A   1      32.656  19.991  24.101  1.00  0.00    -0.044 A 
ATOM     28  C   UNL A   1      32.495  19.001  23.122  1.00  0.00     0.004 A 
ATOM     29  C   UNL A   1      32.844  19.575  25.430  1.00  0.00     0.004 A 
ATOM     30  C   UNL A   1      32.486  17.647  23.460  1.00  0.00     0.000 A 
ATOM     31  C   UNL A   1      32.840  18.223  25.772  1.00  0.00     0.000 A 
ATOM     32  C   UNL A   1      32.648  17.259  24.787  1.00  0.00     0.000 A 
ENDBRANCH  26  27
ENDBRANCH  16  24
ENDBRANCH   8  10
ENDBRANCH   7   8
ENDBRANCH   6   7
ENDBRANCH   5   6
ENDBRANCH   4   5
ENDBRANCH   3   4
ENDBRANCH   2   3
ENDBRANCH   1   2
BRANCH   1  33
ATOM     33  C   UNL A   1      37.889  21.972  25.727  1.00  0.00     0.188 C 
BRANCH  33  34
ATOM     34  C   UNL A   1      39.216  22.391  26.390  1.00  0.00     0.188 C 
BRANCH  34  35
ATOM     35  O   UNL A   1      40.334  21.590  26.005  1.00  0.00    -0.376 OA
BRANCH  35  36
ATOM     36  C   UNL A   1      40.669  20.452  26.789  1.00  0.00     0.202 C 
BRANCH  36  37
ATOM     37  C   UNL A   1      41.824  19.646  26.199  1.00  0.00     0.261 C 
BRANCH  37  38
ATOM     38  O   UNL A   1      43.090  20.276  26.358  1.00  0.00    -0.460 OA
BRANCH  38  39
ATOM     39  C   UNL A   1      43.806  20.429  25.227  1.00  0.00     0.338 C 
ATOM     40  O   UNL A   1      44.099  19.577  24.412  1.00  0.00    -0.246 OA
BRANCH  39  41
ATOM     41  C   UNL A   1      44.274  21.816  25.151  1.00  0.00     0.060 A 
ATOM     42  C   UNL A   1      45.279  22.165  26.054  1.00  0.00     0.016 A 
ATOM     43  C   UNL A   1      43.524  22.772  24.448  1.00  0.00     0.016 A 
ATOM     44  C   UNL A   1      45.313  23.462  26.491  1.00  0.00     0.010 A 
ATOM     45  C   UNL A   1      43.554  24.069  24.891  1.00  0.00     0.010 A 
ATOM     46  C   UNL A   1      44.357  24.352  25.990  1.00  0.00    -0.014 A 
BRANCH  46  47
ATOM     47  C   UNL A   1      44.119  25.540  26.768  1.00  0.00     0.031 A 
ATOM     48  C   UNL A   1      45.117  26.606  26.617  1.00  0.00     0.074 A 
ATOM     49  C   UNL A   1      43.030  25.650  27.549  1.00  0.00     0.049 A 
ATOM     50  N   UNL A   1      45.907  27.080  27.519  1.00  0.00    -0.248 NA
ATOM     51  C   UNL A   1      45.321  27.146  25.268  1.00  0.00     0.031 C 
ATOM     52  C   UNL A   1      41.832  24.809  27.574  1.00  0.00     0.029 A 
ATOM     53  N   UNL A   1      42.739  26.637  28.433  1.00  0.00    -0.354 N 
ATOM     54  C   UNL A   1      46.618  28.093  26.893  1.00  0.00     0.074 A 
ATOM     55  C   UNL A   1      46.313  28.008  25.486  1.00  0.00     0.031 C 
ATOM     56  C   UNL A   1      40.863  25.451  28.266  1.00  0.00     0.029 A 
ATOM     57  C   UNL A   1      41.411  26.681  28.815  1.00  0.00     0.049 A 
ATOM     58  H   UNL A   1      43.414  27.268  28.773  1.00  0.00     0.167 HD
ATOM     59  C   UNL A   1      47.250  29.061  27.603  1.00  0.00     0.037 A 
ATOM     60  C   UNL A   1      40.809  27.718  29.445  1.00  0.00     0.037 A 
ATOM     61  C   UNL A   1      47.471  28.677  28.970  1.00  0.00     0.049 A 
ATOM     62  C   UNL A   1      41.880  28.548  30.064  1.00  0.00     0.074 A 
ATOM     63  C   UNL A   1      48.145  27.632  29.576  1.00  0.00     0.029 A 
ATOM     64  N   UNL A   1      46.674  29.217  29.950  1.00  0.00    -0.354 N 
ATOM     65  N   UNL A   1      42.589  28.185  31.097  1.00  0.00    -0.248 NA
ATOM     66  C   UNL A   1      42.455  29.623  29.265  1.00  0.00     0.031 C 
ATOM     67  C   UNL A   1      47.368  27.300  30.724  1.00  0.00     0.029 A 
ATOM     68  C   UNL A   1      46.284  28.175  30.756  1.00  0.00     0.049 A 
ATOM     69  H   UNL A   1      46.432  30.165  30.055  1.00  0.00     0.167 HD
ATOM     70  C   UNL A   1      43.860  28.683  30.851  1.00  0.00     0.074 A 
ATOM     71  C   UNL A   1      43.694  29.641  29.763  1.00  0.00     0.031 C 
ATOM     72  C   UNL A   1      44.973  28.070  31.350  1.00  0.00     0.037 A 
BRANCH  59  73
ATOM     73  C   UNL A   1      47.390  30.470  27.111  1.00  0.00     0.064 A 
ATOM     74  C   UNL A   1      48.644  31.101  27.152  1.00  0.00     0.173 A 
ATOM     75  C   UNL A   1      46.283  31.307  26.848  1.00  0.00     0.173 A 
ATOM     76  F   UNL A   1      49.751  30.400  27.440  1.00  0.00    -0.203 F 
ATOM     77  C   UNL A   1      48.774  32.480  26.979  1.00  0.00     0.198 A 
ATOM     78  C   UNL A   1      46.424  32.671  26.614  1.00  0.00     0.198 A 
ATOM     79  F   UNL A   1      45.023  30.857  26.915  1.00  0.00    -0.203 F 
ATOM     80  F   UNL A   1      49.972  33.058  27.136  1.00  0.00    -0.200 F 
ATOM     81  C   UNL A   1      47.666  33.263  26.707  1.00  0.00     0.200 A 
ATOM     82  F   UNL A   1      45.335  33.415  26.373  1.00  0.00    -0.200 F 
ATOM     83  F   UNL A   1      47.785  34.591  26.584  1.00  0.00    -0.200 F 
ENDBRANCH  59  73
BRANCH  60  84
ATOM     84  C   UNL A   1      39.410  28.184  29.311  1.00  0.00     0.064 A 
ATOM     85  C   UNL A   1      38.580  28.293  30.438  1.00  0.00     0.173 A 
ATOM     86  C   UNL A   1      38.925  28.770  28.123  1.00  0.00     0.173 A 
ATOM     87  F   UNL A   1      38.982  27.809  31.622  1.00  0.00    -0.203 F 
ATOM     88  C   UNL A   1      37.353  28.962  30.386  1.00  0.00     0.198 A 
ATOM     89  C   UNL A   1      37.692  29.420  28.067  1.00  0.00     0.198 A 
ATOM     90  F   UNL A   1      39.673  28.810  27.012  1.00  0.00    -0.203 F 
ATOM     91  F   UNL A   1      36.622  29.104  31.500  1.00  0.00    -0.200 F 
ATOM     92  C   UNL A   1      36.912  29.529  29.202  1.00  0.00     0.200 A 
ATOM     93  F   UNL A   1      37.294  29.990  26.921  1.00  0.00    -0.200 F 
ATOM     94  F   UNL A   1      35.761  30.214  29.163  1.00  0.00    -0.200 F 
ENDBRANCH  60  84
BRANCH  72  95
ATOM     95  C   UNL A   1      44.780  27.002  32.387  1.00  0.00     0.064 A 
ATOM     96  C   UNL A   1      44.546  25.653  32.072  1.00  0.00     0.173 A 
ATOM     97  C   UNL A   1      44.984  27.326  33.736  1.00  0.00     0.173 A 
ATOM     98  F   UNL A   1      44.459  25.247  30.799  1.00  0.00    -0.203 F 
ATOM     99  C   UNL A   1      44.461  24.683  33.070  1.00  0.00     0.198 A 
ATOM    100  C   UNL A   1      44.936  26.349  34.726  1.00  0.00     0.198 A 
ATOM    101  F   UNL A   1      45.276  28.588  34.088  1.00  0.00    -0.203 F 
ATOM    102  F   UNL A   1      44.221  23.405  32.745  1.00  0.00    -0.200 F 
ATOM    103  C   UNL A   1      44.661  25.032  34.395  1.00  0.00     0.200 A 
ATOM    104  F   UNL A   1      45.183  26.680  36.002  1.00  0.00    -0.200 F 
ATOM    105  F   UNL A   1      44.620  24.093  35.351  1.00  0.00    -0.200 F 
ENDBRANCH  72  95
ENDBRANCH  46  47
ENDBRANCH  39  41
ENDBRANCH  38  39
ENDBRANCH  37  38
ENDBRANCH  36  37
ENDBRANCH  35  36
ENDBRANCH  34  35
ENDBRANCH  33  34
ENDBRANCH   1  33
TORSDOF 23
ENDMDL
MODEL 2
REMARK VINA RESULT:     -11.8      4.252     10.087
REMARK SMILES Cc1nccn1C1(C(=O)OCCOCCOCCOCCOC(=O)c2ccc(-c3c4nc(c(-c5c(F)c(F)c(F)c(F)c5F)c5ccc([nH]5)c(-c5c(F)c(F)c(F)c(F)c5F)c5nc(c(-c6c(F)c(F)c(F)c(F)c6F)c6ccc3[nH]6)C=C5)C=C4)cc2)CCN(C(=O)[C@@H]2C[C@H]2c2ccccc2)CC1
REMARK SMILES IDX 16 1 15 2 14 3 13 4 12 5 11 6 10 7 8 8 9 9 7 10 88 11 103 12
REMARK SMILES IDX 89 13 102 14 90 15 91 16 92 17 6 18 1 19 2 20 3 21 4 22 5 23
REMARK SMILES IDX 93 24 94 25 95 26 96 27 97 28 101 29 98 30 100 31 99 32
REMARK SMILES IDX 17 33 18 34 19 35 20 36 21 37 22 38 23 39 24 40 25 41 26 42
REMARK SMILES IDX 87 43 27 44 86 45 28 46 29 47 30 48 80 49 31 50 85 51 79 52
REMARK SMILES IDX 81 53 32 54 84 55 78 56 77 57 33 59 65 60 45 61 64 62 46 63
REMARK SMILES IDX 49 64 63 65 82 66 47 67 48 68 62 70 83 71 50 72 34 73 35 74
REMARK SMILES IDX 43 75 36 76 37 77 41 78 44 79 38 80 39 81 42 82 40 83 66 84
REMARK SMILES IDX 67 85 75 86 68 87 69 88 73 89 76 90 70 91 71 92 74 93 72 94
REMARK SMILES IDX 51 95 52 96 60 97 53 98 54 99 58 100 61 101 55 102 56 103
REMARK SMILES IDX 59 104 57 105
REMARK H PARENT 81 58 49 69
REMARK Flexibility Score: inf
ROOT
ATOM      1  O   UNL A   1      34.887  32.136  27.412  1.00  0.00    -0.377 OA
ENDROOT
BRANCH   1   2
ATOM      2  C   UNL A   1      34.252  30.927  27.785  1.00  0.00     0.188 C 
BRANCH   2   3
ATOM      3  C   UNL A   1      32.956  30.594  27.021  1.00  0.00     0.188 C 
BRANCH   3   4
ATOM      4  O   UNL A   1      32.269  29.358  27.186  1.00  0.00    -0.376 OA
BRANCH   4   5
ATOM      5  C   UNL A   1      32.299  28.386  26.157  1.00  0.00     0.202 C 
BRANCH   5   6
ATOM      6  C   UNL A   1      33.624  27.655  25.903  1.00  0.00     0.261 C 
BRANCH   6   7
ATOM      7  O   UNL A   1      33.684  26.314  26.423  1.00  0.00    -0.461 OA
BRANCH   7   8
ATOM      8  C   UNL A   1      33.985  25.318  25.546  1.00  0.00     0.332 C 
ATOM      9  O   UNL A   1      35.118  25.130  25.110  1.00  0.00    -0.249 OA
BRANCH   8  10
ATOM     10  C   UNL A   1      32.740  24.465  25.087  1.00  0.00     0.146 C 
ATOM     11  C   UNL A   1      31.484  24.770  25.968  1.00  0.00     0.062 C 
ATOM     12  C   UNL A   1      32.568  24.983  23.630  1.00  0.00     0.062 C 
ATOM     13  C   UNL A   1      30.130  24.784  25.270  1.00  0.00     0.122 C 
ATOM     14  C   UNL A   1      31.155  24.980  23.075  1.00  0.00     0.122 C 
ATOM     15  N   UNL A   1      30.217  25.531  24.029  1.00  0.00    -0.342 N 
ATOM     16  C   UNL A   1      29.238  26.482  23.757  1.00  0.00     0.226 C 
ATOM     17  O   UNL A   1      28.139  26.441  24.307  1.00  0.00    -0.275 OA
BRANCH  10  18
ATOM     18  N   UNL A   1      33.090  23.015  25.193  1.00  0.00    -0.318 N 
ATOM     19  C   UNL A   1      33.233  22.492  27.721  1.00  0.00     0.087 C 
ATOM     20  C   UNL A   1      33.485  22.250  26.285  1.00  0.00     0.106 A 
ATOM     21  N   UNL A   1      34.082  21.139  25.893  1.00  0.00    -0.242 NA
ATOM     22  C   UNL A   1      33.920  21.067  24.552  1.00  0.00     0.131 A 
ATOM     23  C   UNL A   1      33.251  22.172  24.105  1.00  0.00     0.108 A 
ENDBRANCH  10  18
BRANCH  16  24
ATOM     24  C   UNL A   1      29.534  27.695  22.939  1.00  0.00     0.087 C 
ATOM     25  C   UNL A   1      30.898  28.297  22.770  1.00  0.00     0.023 C 
ATOM     26  C   UNL A   1      29.818  29.075  23.481  1.00  0.00     0.032 C 
BRANCH  26  27
ATOM     27  C   UNL A   1      29.130  30.278  22.903  1.00  0.00    -0.044 A 
ATOM     28  C   UNL A   1      28.874  30.365  21.527  1.00  0.00     0.004 A 
ATOM     29  C   UNL A   1      28.888  31.418  23.688  1.00  0.00     0.004 A 
ATOM     30  C   UNL A   1      28.429  31.554  20.950  1.00  0.00     0.000 A 
ATOM     31  C   UNL A   1      28.437  32.608  23.116  1.00  0.00     0.000 A 
ATOM     32  C   UNL A   1      28.220  32.679  21.744  1.00  0.00     0.000 A 
ENDBRANCH  26  27
ENDBRANCH  16  24
ENDBRANCH   8  10
ENDBRANCH   7   8
ENDBRANCH   6   7
ENDBRANCH   5   6
ENDBRANCH   4   5
ENDBRANCH   3   4
ENDBRANCH   2   3
ENDBRANCH   1   2
BRANCH   1  33
ATOM     33  C   UNL A   1      34.893  33.128  28.427  1.00  0.00     0.188 C 
BRANCH  33  34
ATOM     34  C   UNL A   1      34.209  34.463  28.073  1.00  0.00     0.188 C 
BRANCH  34  35
ATOM     35  O   UNL A   1      33.165  34.836  28.973  1.00  0.00    -0.376 OA
BRANCH  35  36
ATOM     36  C   UNL A   1      33.279  36.057  29.692  1.00  0.00     0.202 C 
BRANCH  36  37
ATOM     37  C   UNL A   1      32.574  36.015  31.047  1.00  0.00     0.261 C 
BRANCH  37  38
ATOM     38  O   UNL A   1      33.086  35.012  31.917  1.00  0.00    -0.460 OA
BRANCH  38  39
ATOM     39  C   UNL A   1      34.080  35.408  32.736  1.00  0.00     0.338 C 
ATOM     40  O   UNL A   1      34.394  36.546  33.027  1.00  0.00    -0.246 OA
BRANCH  39  41
ATOM     41  C   UNL A   1      34.817  34.224  33.188  1.00  0.00     0.060 A 
ATOM     42  C   UNL A   1      35.889  34.472  34.044  1.00  0.00     0.016 A 
ATOM     43  C   UNL A   1      34.639  32.996  32.533  1.00  0.00     0.016 A 
ATOM     44  C   UNL A   1      36.951  33.608  33.993  1.00  0.00     0.010 A 
ATOM     45  C   UNL A   1      35.705  32.135  32.477  1.00  0.00     0.010 A 
ATOM     46  C   UNL A   1      36.880  32.528  33.107  1.00  0.00    -0.014 A 
BRANCH  46  47
ATOM     47  C   UNL A   1      38.132  31.919  32.738  1.00  0.00     0.031 A 
ATOM     48  C   UNL A   1      39.086  31.721  33.836  1.00  0.00     0.074 A 
ATOM     49  C   UNL A   1      38.372  31.541  31.470  1.00  0.00     0.049 A 
ATOM     50  N   UNL A   1      40.250  32.260  33.977  1.00  0.00    -0.248 NA
ATOM     51  C   UNL A   1      38.648  30.888  34.962  1.00  0.00     0.031 C 
ATOM     52  C   UNL A   1      37.429  31.415  30.358  1.00  0.00     0.029 A 
ATOM     53  N   UNL A   1      39.538  31.084  30.947  1.00  0.00    -0.354 N 
ATOM     54  C   UNL A   1      40.767  31.719  35.145  1.00  0.00     0.074 A 
ATOM     55  C   UNL A   1      39.698  30.984  35.775  1.00  0.00     0.031 C 
ATOM     56  C   UNL A   1      38.016  30.707  29.366  1.00  0.00     0.029 A 
ATOM     57  C   UNL A   1      39.397  30.435  29.734  1.00  0.00     0.049 A 
ATOM     58  H   UNL A   1      40.408  31.204  31.392  1.00  0.00     0.167 HD
ATOM     59  C   UNL A   1      42.098  31.745  35.410  1.00  0.00     0.037 A 
ATOM     60  C   UNL A   1      40.333  29.650  29.152  1.00  0.00     0.037 A 
ATOM     61  C   UNL A   1      42.790  32.732  34.628  1.00  0.00     0.049 A 
ATOM     62  C   UNL A   1      41.648  29.989  29.765  1.00  0.00     0.074 A 
ATOM     63  C   UNL A   1      42.674  34.104  34.492  1.00  0.00     0.029 A 
ATOM     64  N   UNL A   1      43.549  32.321  33.559  1.00  0.00    -0.354 N 
ATOM     65  N   UNL A   1      42.291  31.105  29.557  1.00  0.00    -0.248 NA
ATOM     66  C   UNL A   1      42.053  29.252  30.955  1.00  0.00     0.031 C 
ATOM     67  C   UNL A   1      42.945  34.370  33.118  1.00  0.00     0.029 A 
ATOM     68  C   UNL A   1      43.229  33.148  32.510  1.00  0.00     0.049 A 
ATOM     69  H   UNL A   1      44.196  31.580  33.548  1.00  0.00     0.167 HD
ATOM     70  C   UNL A   1      42.877  31.411  30.778  1.00  0.00     0.074 A 
ATOM     71  C   UNL A   1      42.780  30.189  31.568  1.00  0.00     0.031 C 
ATOM     72  C   UNL A   1      43.129  32.703  31.141  1.00  0.00     0.037 A 
BRANCH  59  73
ATOM     73  C   UNL A   1      42.797  30.658  36.169  1.00  0.00     0.064 A 
ATOM     74  C   UNL A   1      43.644  30.988  37.238  1.00  0.00     0.173 A 
ATOM     75  C   UNL A   1      42.868  29.323  35.711  1.00  0.00     0.173 A 
ATOM     76  F   UNL A   1      43.684  32.242  37.715  1.00  0.00    -0.203 F 
ATOM     77  C   UNL A   1      44.528  30.056  37.786  1.00  0.00     0.198 A 
ATOM     78  C   UNL A   1      43.705  28.381  36.300  1.00  0.00     0.198 A 
ATOM     79  F   UNL A   1      42.214  28.915  34.615  1.00  0.00    -0.203 F 
ATOM     80  F   UNL A   1      45.397  30.440  38.730  1.00  0.00    -0.200 F 
ATOM     81  C   UNL A   1      44.555  28.753  37.319  1.00  0.00     0.200 A 
ATOM     82  F   UNL A   1      43.731  27.130  35.819  1.00  0.00    -0.200 F 
ATOM     83  F   UNL A   1      45.432  27.872  37.815  1.00  0.00    -0.200 F 
ENDBRANCH  59  73
BRANCH  60  84
ATOM     84  C   UNL A   1      40.128  28.447  28.311  1.00  0.00     0.064 A 
ATOM     85  C   UNL A   1      40.787  28.313  27.079  1.00  0.00     0.173 A 
ATOM     86  C   UNL A   1      39.482  27.292  28.800  1.00  0.00     0.173 A 
ATOM     87  F   UNL A   1      41.469  29.345  26.562  1.00  0.00    -0.203 F 
ATOM     88  C   UNL A   1      40.814  27.097  26.389  1.00  0.00     0.198 A 
ATOM     89  C   UNL A   1      39.493  26.085  28.101  1.00  0.00     0.198 A 
ATOM     90  F   UNL A   1      38.903  27.279  30.009  1.00  0.00    -0.203 F 
ATOM     91  F   UNL A   1      41.512  26.992  25.250  1.00  0.00    -0.200 F 
ATOM     92  C   UNL A   1      40.171  25.983  26.903  1.00  0.00     0.200 A 
ATOM     93  F   UNL A   1      38.893  25.009  28.629  1.00  0.00    -0.200 F 
ATOM     94  F   UNL A   1      40.241  24.805  26.269  1.00  0.00    -0.200 F 
ENDBRANCH  60  84
BRANCH  72  95
ATOM     95  C   UNL A   1      43.003  33.765  30.088  1.00  0.00     0.064 A 
ATOM     96  C   UNL A   1      44.063  34.151  29.249  1.00  0.00     0.173 A 
ATOM     97  C   UNL A   1      41.737  34.305  29.821  1.00  0.00     0.173 A 
ATOM     98  F   UNL A   1      45.273  33.590  29.366  1.00  0.00    -0.203 F 
ATOM     99  C   UNL A   1      43.873  35.079  28.227  1.00  0.00     0.198 A 
ATOM    100  C   UNL A   1      41.543  35.203  28.776  1.00  0.00     0.198 A 
ATOM    101  F   UNL A   1      40.676  33.923  30.548  1.00  0.00    -0.203 F 
ATOM    102  F   UNL A   1      44.904  35.442  27.450  1.00  0.00    -0.200 F 
ATOM    103  C   UNL A   1      42.613  35.600  27.988  1.00  0.00     0.200 A 
ATOM    104  F   UNL A   1      40.312  35.666  28.514  1.00  0.00    -0.200 F 
ATOM    105  F   UNL A   1      42.421  36.462  26.980  1.00  0.00    -0.200 F 
ENDBRANCH  72  95
ENDBRANCH  46  47
ENDBRANCH  39  41
ENDBRANCH  38  39
ENDBRANCH  37  38
ENDBRANCH  36  37
ENDBRANCH  35  36
ENDBRANCH  34  35
ENDBRANCH  33  34
ENDBRANCH   1  33
TORSDOF 23
ENDMDL
MODEL 3
REMARK VINA RESULT:     -10.4      5.899     11.597
REMARK SMILES Cc1nccn1C1(C(=O)OCCOCCOCCOCCOC(=O)c2ccc(-c3c4nc(c(-c5c(F)c(F)c(F)c(F)c5F)c5ccc([nH]5)c(-c5c(F)c(F)c(F)c(F)c5F)c5nc(c(-c6c(F)c(F)c(F)c(F)c6F)c6ccc3[nH]6)C=C5)C=C4)cc2)CCN(C(=O)[C@@H]2C[C@H]2c2ccccc2)CC1
REMARK SMILES IDX 16 1 15 2 14 3 13 4 12 5 11 6 10 7 8 8 9 9 7 10 88 11 103 12
REMARK SMILES IDX 89 13 102 14 90 15 91 16 92 17 6 18 1 19 2 20 3 21 4 22 5 23
REMARK SMILES IDX 93 24 94 25 95 26 96 27 97 28 101 29 98 30 100 31 99 32
REMARK SMILES IDX 17 33 18 34 19 35 20 36 21 37 22 38 23 39 24 40 25 41 26 42
REMARK SMILES IDX 87 43 27 44 86 45 28 46 29 47 30 48 80 49 31 50 85 51 79 52
REMARK SMILES IDX 81 53 32 54 84 55 78 56 77 57 33 59 65 60 45 61 64 62 46 63
REMARK SMILES IDX 49 64 63 65 82 66 47 67 48 68 62 70 83 71 50 72 34 73 35 74
REMARK SMILES IDX 43 75 36 76 37 77 41 78 44 79 38 80 39 81 42 82 40 83 66 84
REMARK SMILES IDX 67 85 75 86 68 87 69 88 73 89 76 90 70 91 71 92 74 93 72 94
REMARK SMILES IDX 51 95 52 96 60 97 53 98 54 99 58 100 61 101 55 102 56 103
REMARK SMILES IDX 59 104 57 105
REMARK H PARENT 81 58 49 69
REMARK Flexibility Score: inf
ROOT
ATOM      1  O   UNL A   1      33.296  36.855  30.875  1.00  0.00    -0.377 OA
ENDROOT
BRANCH   1   2
ATOM      2  C   UNL A   1      33.013  36.605  32.239  1.00  0.00     0.188 C 
BRANCH   2   3
ATOM      3  C   UNL A   1      34.240  36.371  33.140  1.00  0.00     0.188 C 
BRANCH   3   4
ATOM      4  O   UNL A   1      34.978  35.154  33.123  1.00  0.00    -0.376 OA
BRANCH   4   5
ATOM      5  C   UNL A   1      36.179  35.061  32.378  1.00  0.00     0.202 C 
BRANCH   5   6
ATOM      6  C   UNL A   1      37.167  33.948  32.750  1.00  0.00     0.261 C 
BRANCH   6   7
ATOM      7  O   UNL A   1      38.555  34.284  32.565  1.00  0.00    -0.461 OA
BRANCH   7   8
ATOM      8  C   UNL A   1      39.402  33.275  32.228  1.00  0.00     0.332 C 
ATOM      9  O   UNL A   1      39.203  32.523  31.276  1.00  0.00    -0.249 OA
BRANCH   8  10
ATOM     10  C   UNL A   1      40.631  33.110  33.204  1.00  0.00     0.146 C 
ATOM     11  C   UNL A   1      41.357  31.743  32.979  1.00  0.00     0.062 C 
ATOM     12  C   UNL A   1      41.507  34.315  32.756  1.00  0.00     0.062 C 
ATOM     13  C   UNL A   1      42.875  31.731  33.111  1.00  0.00     0.122 C 
ATOM     14  C   UNL A   1      43.009  34.148  32.904  1.00  0.00     0.122 C 
ATOM     15  N   UNL A   1      43.445  32.863  32.404  1.00  0.00    -0.342 N 
ATOM     16  C   UNL A   1      44.523  32.639  31.554  1.00  0.00     0.226 C 
ATOM     17  O   UNL A   1      45.232  31.642  31.672  1.00  0.00    -0.275 OA
BRANCH  10  18
ATOM     18  N   UNL A   1      40.135  33.192  34.612  1.00  0.00    -0.318 N 
ATOM     19  C   UNL A   1      38.717  31.065  35.002  1.00  0.00     0.087 C 
ATOM     20  C   UNL A   1      39.182  32.439  35.289  1.00  0.00     0.106 A 
ATOM     21  N   UNL A   1      38.750  33.076  36.362  1.00  0.00    -0.242 NA
ATOM     22  C   UNL A   1      39.543  34.162  36.511  1.00  0.00     0.131 A 
ATOM     23  C   UNL A   1      40.450  34.219  35.488  1.00  0.00     0.108 A 
ENDBRANCH  10  18
BRANCH  16  24
ATOM     24  C   UNL A   1      44.758  33.489  30.350  1.00  0.00     0.087 C 
ATOM     25  C   UNL A   1      45.935  34.404  30.169  1.00  0.00     0.023 C 
ATOM     26  C   UNL A   1      44.543  34.982  30.270  1.00  0.00     0.032 C 
BRANCH  26  27
ATOM     27  C   UNL A   1      43.798  35.584  29.115  1.00  0.00    -0.044 A 
ATOM     28  C   UNL A   1      42.433  35.321  28.927  1.00  0.00     0.004 A 
ATOM     29  C   UNL A   1      44.479  36.273  28.097  1.00  0.00     0.004 A 
ATOM     30  C   UNL A   1      41.780  35.699  27.753  1.00  0.00     0.000 A 
ATOM     31  C   UNL A   1      43.830  36.658  26.924  1.00  0.00     0.000 A 
ATOM     32  C   UNL A   1      42.482  36.359  26.747  1.00  0.00     0.000 A 
ENDBRANCH  26  27
ENDBRANCH  16  24
ENDBRANCH   8  10
ENDBRANCH   7   8
ENDBRANCH   6   7
ENDBRANCH   5   6
ENDBRANCH   4   5
ENDBRANCH   3   4
ENDBRANCH   2   3
ENDBRANCH   1   2
BRANCH   1  33
ATOM     33  C   UNL A   1      32.853  35.836  29.992  1.00  0.00     0.188 C 
BRANCH  33  34
ATOM     34  C   UNL A   1      33.957  34.976  29.344  1.00  0.00     0.188 C 
BRANCH  34  35
ATOM     35  O   UNL A   1      33.726  33.570  29.438  1.00  0.00    -0.376 OA
BRANCH  35  36
ATOM     36  C   UNL A   1      34.538  32.796  30.312  1.00  0.00     0.202 C 
BRANCH  36  37
ATOM     37  C   UNL A   1      35.168  31.589  29.620  1.00  0.00     0.261 C 
BRANCH  37  38
ATOM     38  O   UNL A   1      36.469  31.278  30.105  1.00  0.00    -0.460 OA
BRANCH  38  39
ATOM     39  C   UNL A   1      36.532  30.254  30.979  1.00  0.00     0.338 C 
ATOM     40  O   UNL A   1      36.128  30.230  32.125  1.00  0.00    -0.246 OA
BRANCH  39  41
ATOM     41  C   UNL A   1      37.261  29.146  30.355  1.00  0.00     0.060 A 
ATOM     42  C   UNL A   1      38.040  28.375  31.217  1.00  0.00     0.016 A 
ATOM     43  C   UNL A   1      37.403  29.098  28.959  1.00  0.00     0.016 A 
ATOM     44  C   UNL A   1      39.173  27.801  30.702  1.00  0.00     0.010 A 
ATOM     45  C   UNL A   1      38.540  28.530  28.446  1.00  0.00     0.010 A 
ATOM     46  C   UNL A   1      39.459  28.008  29.348  1.00  0.00    -0.014 A 
BRANCH  46  47
ATOM     47  C   UNL A   1      40.826  27.801  28.944  1.00  0.00     0.031 A 
ATOM     48  C   UNL A   1      41.126  26.480  28.381  1.00  0.00     0.074 A 
ATOM     49  C   UNL A   1      41.738  28.782  29.061  1.00  0.00     0.049 A 
ATOM     50  N   UNL A   1      41.918  25.580  28.857  1.00  0.00    -0.248 NA
ATOM     51  C   UNL A   1      40.378  26.075  27.185  1.00  0.00     0.031 C 
ATOM     52  C   UNL A   1      41.524  30.206  29.327  1.00  0.00     0.029 A 
ATOM     53  N   UNL A   1      43.076  28.699  28.852  1.00  0.00    -0.354 N 
ATOM     54  C   UNL A   1      41.890  24.540  27.940  1.00  0.00     0.074 A 
ATOM     55  C   UNL A   1      40.837  24.839  27.001  1.00  0.00     0.031 C 
ATOM     56  C   UNL A   1      42.663  30.878  29.043  1.00  0.00     0.029 A 
ATOM     57  C   UNL A   1      43.699  29.923  28.688  1.00  0.00     0.049 A 
ATOM     58  H   UNL A   1      43.562  27.843  28.821  1.00  0.00     0.167 HD
ATOM     59  C   UNL A   1      42.872  23.604  27.898  1.00  0.00     0.037 A 
ATOM     60  C   UNL A   1      44.946  30.107  28.190  1.00  0.00     0.037 A 
ATOM     61  C   UNL A   1      43.631  23.555  29.118  1.00  0.00     0.049 A 
ATOM     62  C   UNL A   1      45.673  28.814  28.312  1.00  0.00     0.074 A 
ATOM     63  C   UNL A   1      43.305  23.319  30.442  1.00  0.00     0.029 A 
ATOM     64  N   UNL A   1      44.888  24.108  29.142  1.00  0.00    -0.354 N 
ATOM     65  N   UNL A   1      46.078  28.300  29.441  1.00  0.00    -0.248 NA
ATOM     66  C   UNL A   1      45.582  27.875  27.201  1.00  0.00     0.031 C 
ATOM     67  C   UNL A   1      44.158  24.177  31.196  1.00  0.00     0.029 A 
ATOM     68  C   UNL A   1      44.962  24.863  30.287  1.00  0.00     0.049 A 
ATOM     69  H   UNL A   1      45.597  23.986  28.471  1.00  0.00     0.167 HD
ATOM     70  C   UNL A   1      45.899  26.931  29.294  1.00  0.00     0.074 A 
ATOM     71  C   UNL A   1      45.688  26.722  27.866  1.00  0.00     0.031 C 
ATOM     72  C   UNL A   1      45.652  26.127  30.370  1.00  0.00     0.037 A 
BRANCH  59  73
ATOM     73  C   UNL A   1      43.318  22.950  26.625  1.00  0.00     0.064 A 
ATOM     74  C   UNL A   1      43.042  21.591  26.406  1.00  0.00     0.173 A 
ATOM     75  C   UNL A   1      44.236  23.548  25.733  1.00  0.00     0.173 A 
ATOM     76  F   UNL A   1      42.218  20.922  27.227  1.00  0.00    -0.203 F 
ATOM     77  C   UNL A   1      43.670  20.872  25.388  1.00  0.00     0.198 A 
ATOM     78  C   UNL A   1      44.813  22.844  24.681  1.00  0.00     0.198 A 
ATOM     79  F   UNL A   1      44.686  24.797  25.912  1.00  0.00    -0.203 F 
ATOM     80  F   UNL A   1      43.464  19.553  25.282  1.00  0.00    -0.200 F 
ATOM     81  C   UNL A   1      44.552  21.499  24.524  1.00  0.00     0.200 A 
ATOM     82  F   UNL A   1      45.680  23.465  23.869  1.00  0.00    -0.200 F 
ATOM     83  F   UNL A   1      45.188  20.801  23.576  1.00  0.00    -0.200 F 
ENDBRANCH  59  73
BRANCH  60  84
ATOM     84  C   UNL A   1      45.448  31.236  27.373  1.00  0.00     0.064 A 
ATOM     85  C   UNL A   1      44.616  31.869  26.437  1.00  0.00     0.173 A 
ATOM     86  C   UNL A   1      46.668  31.885  27.660  1.00  0.00     0.173 A 
ATOM     87  F   UNL A   1      43.416  31.350  26.139  1.00  0.00    -0.203 F 
ATOM     88  C   UNL A   1      44.971  33.083  25.839  1.00  0.00     0.198 A 
ATOM     89  C   UNL A   1      47.030  33.085  27.049  1.00  0.00     0.198 A 
ATOM     90  F   UNL A   1      47.495  31.422  28.606  1.00  0.00    -0.203 F 
ATOM     91  F   UNL A   1      44.119  33.689  25.002  1.00  0.00    -0.200 F 
ATOM     92  C   UNL A   1      46.176  33.692  26.149  1.00  0.00     0.200 A 
ATOM     93  F   UNL A   1      48.185  33.677  27.384  1.00  0.00    -0.200 F 
ATOM     94  F   UNL A   1      46.494  34.879  25.617  1.00  0.00    -0.200 F 
ENDBRANCH  60  84
BRANCH  72  95
ATOM     95  C   UNL A   1      45.841  26.711  31.740  1.00  0.00     0.064 A 
ATOM     96  C   UNL A   1      44.927  27.598  32.335  1.00  0.00     0.173 A 
ATOM     97  C   UNL A   1      46.900  26.246  32.532  1.00  0.00     0.173 A 
ATOM     98  F   UNL A   1      43.826  27.993  31.682  1.00  0.00    -0.203 F 
ATOM     99  C   UNL A   1      45.101  28.043  33.644  1.00  0.00     0.198 A 
ATOM    100  C   UNL A   1      47.050  26.664  33.851  1.00  0.00     0.198 A 
ATOM    101  F   UNL A   1      47.766  25.348  32.038  1.00  0.00    -0.203 F 
ATOM    102  F   UNL A   1      44.224  28.902  34.183  1.00  0.00    -0.200 F 
ATOM    103  C   UNL A   1      46.159  27.572  34.402  1.00  0.00     0.200 A 
ATOM    104  F   UNL A   1      48.045  26.166  34.599  1.00  0.00    -0.200 F 
ATOM    105  F   UNL A   1      46.305  27.969  35.674  1.00  0.00    -0.200 F 
ENDBRANCH  72  95
ENDBRANCH  46  47
ENDBRANCH  39  41
ENDBRANCH  38  39
ENDBRANCH  37  38
ENDBRANCH  36  37
ENDBRANCH  35  36
ENDBRANCH  34  35
ENDBRANCH  33  34
ENDBRANCH   1  33
TORSDOF 23
ENDMDL
