MODEL 1
REMARK VINA RESULT:     -10.1      0.000      0.000
REMARK SMILES O=C(OCCOCCOCCOCCOC(=O)c1nn(-c2ccc([N+](=O)[O-])cc2)cc1CCO)c1ccc(-c2c3nc(c(-c4c(F)c(F)c(F)c(F)c4F)c4ccc([nH]4)c(-c4c(F)c(F)c(F)c(F)c4F)c4nc(c(-c5c(F)c(F)c(F)c(F)c5F)c5ccc2[nH]5)C=C4)C=C3)cc1
REMARK SMILES IDX 10 1 9 2 8 3 7 4 6 5 5 6 4 7 3 8 2 9 1 10 35 11 36 12 97 13
REMARK SMILES IDX 37 14 96 15 38 16 39 17 40 18 90 19 41 20 95 21 89 22 91 23
REMARK SMILES IDX 42 24 94 25 88 26 87 27 43 29 75 30 55 31 74 32 56 33 59 34
REMARK SMILES IDX 73 35 92 36 57 37 58 38 72 40 93 41 60 42 44 43 45 44 53 45
REMARK SMILES IDX 46 46 47 47 51 48 54 49 48 50 49 51 52 52 50 53 76 54 77 55
REMARK SMILES IDX 85 56 78 57 79 58 83 59 86 60 80 61 81 62 84 63 82 64 61 65
REMARK SMILES IDX 62 66 70 67 63 68 64 69 68 70 71 71 65 72 66 73 69 74 67 75
REMARK SMILES IDX 11 76 12 77 13 78 14 79 15 80 16 81 17 82 18 83 19 84 31 85
REMARK SMILES IDX 20 86 30 87 32 88 33 89 34 90 21 92 22 93 29 94 23 95 28 96
REMARK SMILES IDX 24 97 25 98 26 99 27 100
REMARK H PARENT 91 28 59 39 34 91
REMARK Flexibility Score: inf
ROOT
ATOM      1  C   UNL A   1      33.233  29.479  27.116  1.00  0.00     0.188 C 
ENDROOT
BRANCH   1   2
ATOM      2  O   UNL A   1      33.437  30.868  27.021  1.00  0.00    -0.377 OA
BRANCH   2   3
ATOM      3  C   UNL A   1      34.539  31.322  27.785  1.00  0.00     0.188 C 
BRANCH   3   4
ATOM      4  C   UNL A   1      34.395  32.631  28.594  1.00  0.00     0.188 C 
BRANCH   4   5
ATOM      5  O   UNL A   1      33.926  33.903  28.158  1.00  0.00    -0.376 OA
BRANCH   5   6
ATOM      6  C   UNL A   1      34.054  35.187  28.728  1.00  0.00     0.202 C 
BRANCH   6   7
ATOM      7  C   UNL A   1      33.048  35.761  29.715  1.00  0.00     0.261 C 
BRANCH   7   8
ATOM      8  O   UNL A   1      32.891  35.008  30.906  1.00  0.00    -0.460 OA
BRANCH   8   9
ATOM      9  C   UNL A   1      33.605  35.100  32.043  1.00  0.00     0.338 C 
ATOM     10  O   UNL A   1      33.252  35.933  32.877  1.00  0.00    -0.246 OA
BRANCH   9  11
ATOM     11  C   UNL A   1      34.850  34.333  32.333  1.00  0.00     0.060 A 
ATOM     12  C   UNL A   1      36.129  34.851  32.543  1.00  0.00     0.016 A 
ATOM     13  C   UNL A   1      34.683  32.932  32.337  1.00  0.00     0.016 A 
ATOM     14  C   UNL A   1      37.225  34.008  32.541  1.00  0.00     0.010 A 
ATOM     15  C   UNL A   1      35.771  32.082  32.370  1.00  0.00     0.010 A 
ATOM     16  C   UNL A   1      37.039  32.637  32.364  1.00  0.00    -0.014 A 
BRANCH  16  17
ATOM     17  C   UNL A   1      38.225  31.837  32.128  1.00  0.00     0.031 A 
ATOM     18  C   UNL A   1      39.075  31.608  33.323  1.00  0.00     0.074 A 
ATOM     19  C   UNL A   1      38.530  31.381  30.897  1.00  0.00     0.049 A 
ATOM     20  N   UNL A   1      40.275  32.038  33.534  1.00  0.00    -0.248 NA
ATOM     21  C   UNL A   1      38.465  30.928  34.474  1.00  0.00     0.031 C 
ATOM     22  C   UNL A   1      37.691  31.348  29.695  1.00  0.00     0.029 A 
ATOM     23  N   UNL A   1      39.674  30.779  30.483  1.00  0.00    -0.354 N 
ATOM     24  C   UNL A   1      40.644  31.544  34.782  1.00  0.00     0.074 A 
ATOM     25  C   UNL A   1      39.456  30.976  35.366  1.00  0.00     0.031 C 
ATOM     26  C   UNL A   1      38.270  30.554  28.767  1.00  0.00     0.029 A 
ATOM     27  C   UNL A   1      39.580  30.155  29.247  1.00  0.00     0.049 A 
ATOM     28  H   UNL A   1      40.502  30.783  31.015  1.00  0.00     0.167 HD
ATOM     29  C   UNL A   1      41.952  31.456  35.148  1.00  0.00     0.037 A 
ATOM     30  C   UNL A   1      40.501  29.326  28.699  1.00  0.00     0.037 A 
ATOM     31  C   UNL A   1      42.774  32.356  34.383  1.00  0.00     0.049 A 
ATOM     32  C   UNL A   1      41.796  29.596  29.374  1.00  0.00     0.074 A 
ATOM     33  C   UNL A   1      42.823  33.730  34.245  1.00  0.00     0.029 A 
ATOM     34  N   UNL A   1      43.484  31.854  33.322  1.00  0.00    -0.354 N 
ATOM     35  N   UNL A   1      42.465  30.707  29.233  1.00  0.00    -0.248 NA
ATOM     36  C   UNL A   1      42.104  28.826  30.571  1.00  0.00     0.031 C 
ATOM     37  C   UNL A   1      43.108  33.952  32.866  1.00  0.00     0.029 A 
ATOM     38  C   UNL A   1      43.284  32.705  32.265  1.00  0.00     0.049 A 
ATOM     39  H   UNL A   1      44.033  31.037  33.319  1.00  0.00     0.167 HD
ATOM     40  C   UNL A   1      42.953  30.988  30.501  1.00  0.00     0.074 A 
ATOM     41  C   UNL A   1      42.758  29.759  31.267  1.00  0.00     0.031 C 
ATOM     42  C   UNL A   1      43.206  32.269  30.891  1.00  0.00     0.037 A 
BRANCH  29  43
ATOM     43  C   UNL A   1      42.521  30.308  35.941  1.00  0.00     0.064 A 
ATOM     44  C   UNL A   1      43.418  30.570  36.996  1.00  0.00     0.173 A 
ATOM     45  C   UNL A   1      42.462  28.965  35.510  1.00  0.00     0.173 A 
ATOM     46  F   UNL A   1      43.572  31.816  37.469  1.00  0.00    -0.203 F 
ATOM     47  C   UNL A   1      44.246  29.574  37.522  1.00  0.00     0.198 A 
ATOM     48  C   UNL A   1      43.253  27.966  36.072  1.00  0.00     0.198 A 
ATOM     49  F   UNL A   1      41.729  28.586  34.457  1.00  0.00    -0.203 F 
ATOM     50  F   UNL A   1      45.171  29.895  38.437  1.00  0.00    -0.200 F 
ATOM     51  C   UNL A   1      44.168  28.276  37.055  1.00  0.00     0.200 A 
ATOM     52  F   UNL A   1      43.177  26.718  35.589  1.00  0.00    -0.200 F 
ATOM     53  F   UNL A   1      45.004  27.334  37.512  1.00  0.00    -0.200 F 
ENDBRANCH  29  43
BRANCH  30  54
ATOM     54  C   UNL A   1      40.247  28.086  27.928  1.00  0.00     0.064 A 
ATOM     55  C   UNL A   1      40.905  27.842  26.712  1.00  0.00     0.173 A 
ATOM     56  C   UNL A   1      39.578  26.990  28.509  1.00  0.00     0.173 A 
ATOM     57  F   UNL A   1      41.606  28.819  26.118  1.00  0.00    -0.203 F 
ATOM     58  C   UNL A   1      40.911  26.572  26.124  1.00  0.00     0.198 A 
ATOM     59  C   UNL A   1      39.582  25.725  27.920  1.00  0.00     0.198 A 
ATOM     60  F   UNL A   1      38.990  27.100  29.709  1.00  0.00    -0.203 F 
ATOM     61  F   UNL A   1      41.601  26.362  24.994  1.00  0.00    -0.200 F 
ATOM     62  C   UNL A   1      40.259  25.513  26.734  1.00  0.00     0.200 A 
ATOM     63  F   UNL A   1      38.981  24.701  28.541  1.00  0.00    -0.200 F 
ATOM     64  F   UNL A   1      40.320  24.283  26.205  1.00  0.00    -0.200 F 
ENDBRANCH  30  54
BRANCH  42  65
ATOM     65  C   UNL A   1      43.170  33.346  29.844  1.00  0.00     0.064 A 
ATOM     66  C   UNL A   1      42.038  34.134  29.568  1.00  0.00     0.173 A 
ATOM     67  C   UNL A   1      44.372  33.701  29.218  1.00  0.00     0.173 A 
ATOM     68  F   UNL A   1      40.878  33.921  30.200  1.00  0.00    -0.203 F 
ATOM     69  C   UNL A   1      42.105  35.207  28.678  1.00  0.00     0.198 A 
ATOM     70  C   UNL A   1      44.445  34.794  28.358  1.00  0.00     0.198 A 
ATOM     71  F   UNL A   1      45.496  33.019  29.488  1.00  0.00    -0.203 F 
ATOM     72  F   UNL A   1      41.013  35.945  28.430  1.00  0.00    -0.200 F 
ATOM     73  C   UNL A   1      43.311  35.540  28.082  1.00  0.00     0.200 A 
ATOM     74  F   UNL A   1      45.623  35.145  27.826  1.00  0.00    -0.200 F 
ATOM     75  F   UNL A   1      43.388  36.602  27.267  1.00  0.00    -0.200 F 
ENDBRANCH  42  65
ENDBRANCH  16  17
ENDBRANCH   9  11
ENDBRANCH   8   9
ENDBRANCH   7   8
ENDBRANCH   6   7
ENDBRANCH   5   6
ENDBRANCH   4   5
ENDBRANCH   3   4
ENDBRANCH   2   3
ENDBRANCH   1   2
BRANCH   1  76
ATOM     76  C   UNL A   1      31.747  29.137  27.303  1.00  0.00     0.188 C 
BRANCH  76  77
ATOM     77  O   UNL A   1      31.377  27.821  27.641  1.00  0.00    -0.376 OA
BRANCH  77  78
ATOM     78  C   UNL A   1      31.578  26.751  26.738  1.00  0.00     0.202 C 
BRANCH  78  79
ATOM     79  C   UNL A   1      30.458  25.927  26.065  1.00  0.00     0.261 C 
BRANCH  79  80
ATOM     80  O   UNL A   1      30.171  26.119  24.680  1.00  0.00    -0.458 OA
BRANCH  80  81
ATOM     81  C   UNL A   1      30.666  25.214  23.776  1.00  0.00     0.359 C 
ATOM     82  O   UNL A   1      30.008  24.480  23.075  1.00  0.00    -0.244 OA
BRANCH  81  83
ATOM     83  C   UNL A   1      32.133  25.346  23.684  1.00  0.00     0.174 A 
ATOM     84  N   UNL A   1      32.887  24.315  24.086  1.00  0.00    -0.161 NA
ATOM     85  C   UNL A   1      32.954  26.447  23.259  1.00  0.00     0.008 A 
ATOM     86  N   UNL A   1      34.154  24.761  24.069  1.00  0.00    -0.240 N 
ATOM     87  C   UNL A   1      34.233  26.053  23.623  1.00  0.00     0.119 A 
BRANCH  85  88
ATOM     88  C   UNL A   1      32.632  27.792  22.672  1.00  0.00     0.068 C 
BRANCH  88  89
ATOM     89  C   UNL A   1      32.036  28.827  23.626  1.00  0.00     0.161 C 
BRANCH  89  90
ATOM     90  O   UNL A   1      31.001  29.595  23.038  1.00  0.00    -0.396 OA
ATOM     91  H   UNL A   1      31.194  30.539  23.149  1.00  0.00     0.210 HD
ENDBRANCH  89  90
ENDBRANCH  88  89
ENDBRANCH  85  88
BRANCH  86  92
ATOM     92  C   UNL A   1      35.205  23.902  24.457  1.00  0.00     0.065 A 
ATOM     93  C   UNL A   1      35.278  22.639  23.846  1.00  0.00     0.035 A 
ATOM     94  C   UNL A   1      36.149  24.283  25.418  1.00  0.00     0.035 A 
ATOM     95  C   UNL A   1      36.305  21.760  24.173  1.00  0.00     0.088 A 
ATOM     96  C   UNL A   1      37.156  23.382  25.782  1.00  0.00     0.088 A 
ATOM     97  C   UNL A   1      37.233  22.129  25.151  1.00  0.00     0.269 A 
BRANCH  97  98
ATOM     98  N   UNL A   1      38.294  21.186  25.522  1.00  0.00     0.062 N 
ATOM     99  O   UNL A   1      39.195  21.597  26.267  1.00  0.00    -0.258 OA
ATOM    100  O   UNL A   1      38.224  20.035  25.069  1.00  0.00    -0.258 OA
ENDBRANCH  97  98
ENDBRANCH  86  92
ENDBRANCH  81  83
ENDBRANCH  80  81
ENDBRANCH  79  80
ENDBRANCH  78  79
ENDBRANCH  77  78
ENDBRANCH  76  77
ENDBRANCH   1  76
TORSDOF 25
ENDMDL
MODEL 2
REMARK VINA RESULT:      -9.6      1.825      2.574
REMARK SMILES O=C(OCCOCCOCCOCCOC(=O)c1nn(-c2ccc([N+](=O)[O-])cc2)cc1CCO)c1ccc(-c2c3nc(c(-c4c(F)c(F)c(F)c(F)c4F)c4ccc([nH]4)c(-c4c(F)c(F)c(F)c(F)c4F)c4nc(c(-c5c(F)c(F)c(F)c(F)c5F)c5ccc2[nH]5)C=C4)C=C3)cc1
REMARK SMILES IDX 10 1 9 2 8 3 7 4 6 5 5 6 4 7 3 8 2 9 1 10 35 11 36 12 97 13
REMARK SMILES IDX 37 14 96 15 38 16 39 17 40 18 90 19 41 20 95 21 89 22 91 23
REMARK SMILES IDX 42 24 94 25 88 26 87 27 43 29 75 30 55 31 74 32 56 33 59 34
REMARK SMILES IDX 73 35 92 36 57 37 58 38 72 40 93 41 60 42 44 43 45 44 53 45
REMARK SMILES IDX 46 46 47 47 51 48 54 49 48 50 49 51 52 52 50 53 76 54 77 55
REMARK SMILES IDX 85 56 78 57 79 58 83 59 86 60 80 61 81 62 84 63 82 64 61 65
REMARK SMILES IDX 62 66 70 67 63 68 64 69 68 70 71 71 65 72 66 73 69 74 67 75
REMARK SMILES IDX 11 76 12 77 13 78 14 79 15 80 16 81 17 82 18 83 19 84 31 85
REMARK SMILES IDX 20 86 30 87 32 88 33 89 34 90 21 92 22 93 29 94 23 95 28 96
REMARK SMILES IDX 24 97 25 98 26 99 27 100
REMARK H PARENT 91 28 59 39 34 91
REMARK Flexibility Score: inf
ROOT
ATOM      1  C   UNL A   1      33.992  29.961  27.230  1.00  0.00     0.188 C 
ENDROOT
BRANCH   1   2
ATOM      2  O   UNL A   1      34.737  31.154  27.269  1.00  0.00    -0.377 OA
BRANCH   2   3
ATOM      3  C   UNL A   1      35.006  31.598  28.587  1.00  0.00     0.188 C 
BRANCH   3   4
ATOM      4  C   UNL A   1      34.310  32.881  29.096  1.00  0.00     0.188 C 
BRANCH   4   5
ATOM      5  O   UNL A   1      34.033  34.086  28.391  1.00  0.00    -0.376 OA
BRANCH   5   6
ATOM      6  C   UNL A   1      33.828  35.405  28.848  1.00  0.00     0.202 C 
BRANCH   6   7
ATOM      7  C   UNL A   1      32.786  35.767  29.896  1.00  0.00     0.261 C 
BRANCH   7   8
ATOM      8  O   UNL A   1      32.848  34.995  31.084  1.00  0.00    -0.460 OA
BRANCH   8   9
ATOM      9  C   UNL A   1      33.566  35.243  32.195  1.00  0.00     0.338 C 
ATOM     10  O   UNL A   1      33.193  36.160  32.927  1.00  0.00    -0.246 OA
BRANCH   9  11
ATOM     11  C   UNL A   1      34.834  34.552  32.564  1.00  0.00     0.060 A 
ATOM     12  C   UNL A   1      36.043  35.147  32.927  1.00  0.00     0.016 A 
ATOM     13  C   UNL A   1      34.779  33.145  32.473  1.00  0.00     0.016 A 
ATOM     14  C   UNL A   1      37.198  34.388  32.986  1.00  0.00     0.010 A 
ATOM     15  C   UNL A   1      35.922  32.376  32.567  1.00  0.00     0.010 A 
ATOM     16  C   UNL A   1      37.138  33.022  32.716  1.00  0.00    -0.014 A 
BRANCH  16  17
ATOM     17  C   UNL A   1      38.400  32.327  32.555  1.00  0.00     0.031 A 
ATOM     18  C   UNL A   1      39.261  32.300  33.763  1.00  0.00     0.074 A 
ATOM     19  C   UNL A   1      38.757  31.788  31.372  1.00  0.00     0.049 A 
ATOM     20  N   UNL A   1      40.410  32.868  33.928  1.00  0.00    -0.248 NA
ATOM     21  C   UNL A   1      38.715  31.676  34.976  1.00  0.00     0.031 C 
ATOM     22  C   UNL A   1      37.934  31.556  30.181  1.00  0.00     0.029 A 
ATOM     23  N   UNL A   1      39.959  31.267  31.014  1.00  0.00    -0.354 N 
ATOM     24  C   UNL A   1      40.819  32.535  35.216  1.00  0.00     0.074 A 
ATOM     25  C   UNL A   1      39.691  31.909  35.856  1.00  0.00     0.031 C 
ATOM     26  C   UNL A   1      38.596  30.738  29.332  1.00  0.00     0.029 A 
ATOM     27  C   UNL A   1      39.936  30.522  29.844  1.00  0.00     0.049 A 
ATOM     28  H   UNL A   1      40.778  31.407  31.540  1.00  0.00     0.167 HD
ATOM     29  C   UNL A   1      42.126  32.616  35.584  1.00  0.00     0.037 A 
ATOM     30  C   UNL A   1      40.940  29.741  29.375  1.00  0.00     0.037 A 
ATOM     31  C   UNL A   1      42.858  33.517  34.734  1.00  0.00     0.049 A 
ATOM     32  C   UNL A   1      42.196  30.204  30.017  1.00  0.00     0.074 A 
ATOM     33  C   UNL A   1      42.769  34.869  34.465  1.00  0.00     0.029 A 
ATOM     34  N   UNL A   1      43.622  32.990  33.724  1.00  0.00    -0.354 N 
ATOM     35  N   UNL A   1      42.751  31.359  29.767  1.00  0.00    -0.248 NA
ATOM     36  C   UNL A   1      42.573  29.587  31.281  1.00  0.00     0.031 C 
ATOM     37  C   UNL A   1      43.040  34.985  33.070  1.00  0.00     0.029 A 
ATOM     38  C   UNL A   1      43.344  33.711  32.591  1.00  0.00     0.049 A 
ATOM     39  H   UNL A   1      44.251  32.236  33.797  1.00  0.00     0.167 HD
ATOM     40  C   UNL A   1      43.199  31.807  31.001  1.00  0.00     0.074 A 
ATOM     41  C   UNL A   1      43.124  30.645  31.882  1.00  0.00     0.031 C 
ATOM     42  C   UNL A   1      43.320  33.139  31.266  1.00  0.00     0.037 A 
BRANCH  29  43
ATOM     43  C   UNL A   1      42.804  31.612  36.482  1.00  0.00     0.064 A 
ATOM     44  C   UNL A   1      43.536  32.062  37.599  1.00  0.00     0.173 A 
ATOM     45  C   UNL A   1      43.016  30.266  36.116  1.00  0.00     0.173 A 
ATOM     46  F   UNL A   1      43.429  33.332  38.020  1.00  0.00    -0.203 F 
ATOM     47  C   UNL A   1      44.467  31.246  38.247  1.00  0.00     0.198 A 
ATOM     48  C   UNL A   1      43.908  29.439  36.796  1.00  0.00     0.198 A 
ATOM     49  F   UNL A   1      42.464  29.729  35.022  1.00  0.00    -0.203 F 
ATOM     50  F   UNL A   1      45.231  31.754  39.223  1.00  0.00    -0.200 F 
ATOM     51  C   UNL A   1      44.656  29.938  37.841  1.00  0.00     0.200 A 
ATOM     52  F   UNL A   1      44.093  28.182  36.372  1.00  0.00    -0.200 F 
ATOM     53  F   UNL A   1      45.593  29.173  38.418  1.00  0.00    -0.200 F 
ENDBRANCH  29  43
BRANCH  30  54
ATOM     54  C   UNL A   1      40.817  28.414  28.727  1.00  0.00     0.064 A 
ATOM     55  C   UNL A   1      40.045  27.394  29.307  1.00  0.00     0.173 A 
ATOM     56  C   UNL A   1      41.215  28.215  27.390  1.00  0.00     0.173 A 
ATOM     57  F   UNL A   1      39.585  27.527  30.560  1.00  0.00    -0.203 F 
ATOM     58  C   UNL A   1      39.675  26.254  28.584  1.00  0.00     0.198 A 
ATOM     59  C   UNL A   1      40.848  27.077  26.671  1.00  0.00     0.198 A 
ATOM     60  F   UNL A   1      41.884  29.167  26.723  1.00  0.00    -0.203 F 
ATOM     61  F   UNL A   1      38.886  25.331  29.150  1.00  0.00    -0.200 F 
ATOM     62  C   UNL A   1      40.068  26.103  27.265  1.00  0.00     0.200 A 
ATOM     63  F   UNL A   1      41.202  26.962  25.384  1.00  0.00    -0.200 F 
ATOM     64  F   UNL A   1      39.659  25.043  26.552  1.00  0.00    -0.200 F 
ENDBRANCH  30  54
BRANCH  42  65
ATOM     65  C   UNL A   1      43.182  34.102  30.120  1.00  0.00     0.064 A 
ATOM     66  C   UNL A   1      44.234  34.446  29.253  1.00  0.00     0.173 A 
ATOM     67  C   UNL A   1      41.898  34.559  29.791  1.00  0.00     0.173 A 
ATOM     68  F   UNL A   1      45.470  33.967  29.442  1.00  0.00    -0.203 F 
ATOM     69  C   UNL A   1      44.012  35.241  28.128  1.00  0.00     0.198 A 
ATOM     70  C   UNL A   1      41.673  35.322  28.648  1.00  0.00     0.198 A 
ATOM     71  F   UNL A   1      40.848  34.213  30.552  1.00  0.00    -0.203 F 
ATOM     72  F   UNL A   1      45.030  35.557  27.314  1.00  0.00    -0.200 F 
ATOM     73  C   UNL A   1      42.730  35.669  27.822  1.00  0.00     0.200 A 
ATOM     74  F   UNL A   1      40.425  35.689  28.329  1.00  0.00    -0.200 F 
ATOM     75  F   UNL A   1      42.507  36.390  26.714  1.00  0.00    -0.200 F 
ENDBRANCH  42  65
ENDBRANCH  16  17
ENDBRANCH   9  11
ENDBRANCH   8   9
ENDBRANCH   7   8
ENDBRANCH   6   7
ENDBRANCH   5   6
ENDBRANCH   4   5
ENDBRANCH   3   4
ENDBRANCH   2   3
ENDBRANCH   1   2
BRANCH   1  76
ATOM     76  C   UNL A   1      32.529  30.221  26.839  1.00  0.00     0.188 C 
BRANCH  76  77
ATOM     77  O   UNL A   1      31.534  29.303  27.229  1.00  0.00    -0.376 OA
BRANCH  77  78
ATOM     78  C   UNL A   1      31.781  27.911  27.219  1.00  0.00     0.202 C 
BRANCH  78  79
ATOM     79  C   UNL A   1      31.118  26.893  26.265  1.00  0.00     0.261 C 
BRANCH  79  80
ATOM     80  O   UNL A   1      30.608  27.331  25.005  1.00  0.00    -0.458 OA
BRANCH  80  81
ATOM     81  C   UNL A   1      30.000  26.411  24.188  1.00  0.00     0.359 C 
ATOM     82  O   UNL A   1      28.831  26.403  23.878  1.00  0.00    -0.244 OA
BRANCH  81  83
ATOM     83  C   UNL A   1      31.008  25.490  23.631  1.00  0.00     0.174 A 
ATOM     84  N   UNL A   1      30.870  24.180  23.874  1.00  0.00    -0.161 NA
ATOM     85  C   UNL A   1      32.200  25.747  22.868  1.00  0.00     0.008 A 
ATOM     86  N   UNL A   1      31.995  23.604  23.420  1.00  0.00    -0.240 N 
ATOM     87  C   UNL A   1      32.841  24.518  22.851  1.00  0.00     0.119 A 
BRANCH  85  88
ATOM     88  C   UNL A   1      32.786  27.001  22.286  1.00  0.00     0.068 C 
BRANCH  88  89
ATOM     89  C   UNL A   1      33.901  27.671  23.090  1.00  0.00     0.161 C 
BRANCH  89  90
ATOM     90  O   UNL A   1      33.477  28.846  23.758  1.00  0.00    -0.396 OA
ATOM     91  H   UNL A   1      33.181  29.500  23.105  1.00  0.00     0.210 HD
ENDBRANCH  89  90
ENDBRANCH  88  89
ENDBRANCH  85  88
BRANCH  86  92
ATOM     92  C   UNL A   1      32.166  22.208  23.541  1.00  0.00     0.065 A 
ATOM     93  C   UNL A   1      32.566  21.702  24.788  1.00  0.00     0.035 A 
ATOM     94  C   UNL A   1      31.947  21.344  22.461  1.00  0.00     0.035 A 
ATOM     95  C   UNL A   1      32.728  20.333  24.972  1.00  0.00     0.088 A 
ATOM     96  C   UNL A   1      32.153  19.971  22.631  1.00  0.00     0.088 A 
ATOM     97  C   UNL A   1      32.534  19.472  23.888  1.00  0.00     0.269 A 
BRANCH  97  98
ATOM     98  N   UNL A   1      32.741  18.031  24.073  1.00  0.00     0.062 N 
ATOM     99  O   UNL A   1      32.159  17.484  25.020  1.00  0.00    -0.258 OA
ATOM    100  O   UNL A   1      33.482  17.450  23.269  1.00  0.00    -0.258 OA
ENDBRANCH  97  98
ENDBRANCH  86  92
ENDBRANCH  81  83
ENDBRANCH  80  81
ENDBRANCH  79  80
ENDBRANCH  78  79
ENDBRANCH  77  78
ENDBRANCH  76  77
ENDBRANCH   1  76
TORSDOF 25
ENDMDL
MODEL 3
REMARK VINA RESULT:      -8.9      3.179      4.304
REMARK SMILES O=C(OCCOCCOCCOCCOC(=O)c1nn(-c2ccc([N+](=O)[O-])cc2)cc1CCO)c1ccc(-c2c3nc(c(-c4c(F)c(F)c(F)c(F)c4F)c4ccc([nH]4)c(-c4c(F)c(F)c(F)c(F)c4F)c4nc(c(-c5c(F)c(F)c(F)c(F)c5F)c5ccc2[nH]5)C=C4)C=C3)cc1
REMARK SMILES IDX 10 1 9 2 8 3 7 4 6 5 5 6 4 7 3 8 2 9 1 10 35 11 36 12 97 13
REMARK SMILES IDX 37 14 96 15 38 16 39 17 40 18 90 19 41 20 95 21 89 22 91 23
REMARK SMILES IDX 42 24 94 25 88 26 87 27 43 29 75 30 55 31 74 32 56 33 59 34
REMARK SMILES IDX 73 35 92 36 57 37 58 38 72 40 93 41 60 42 44 43 45 44 53 45
REMARK SMILES IDX 46 46 47 47 51 48 54 49 48 50 49 51 52 52 50 53 76 54 77 55
REMARK SMILES IDX 85 56 78 57 79 58 83 59 86 60 80 61 81 62 84 63 82 64 61 65
REMARK SMILES IDX 62 66 70 67 63 68 64 69 68 70 71 71 65 72 66 73 69 74 67 75
REMARK SMILES IDX 11 76 12 77 13 78 14 79 15 80 16 81 17 82 18 83 19 84 31 85
REMARK SMILES IDX 20 86 30 87 32 88 33 89 34 90 21 92 22 93 29 94 23 95 28 96
REMARK SMILES IDX 24 97 25 98 26 99 27 100
REMARK H PARENT 91 28 59 39 34 91
REMARK Flexibility Score: inf
ROOT
ATOM      1  C   UNL A   1      32.640  30.247  26.218  1.00  0.00     0.188 C 
ENDROOT
BRANCH   1   2
ATOM      2  O   UNL A   1      32.723  30.903  27.459  1.00  0.00    -0.377 OA
BRANCH   2   3
ATOM      3  C   UNL A   1      34.048  31.005  27.948  1.00  0.00     0.188 C 
BRANCH   3   4
ATOM      4  C   UNL A   1      34.789  32.354  27.813  1.00  0.00     0.188 C 
BRANCH   4   5
ATOM      5  O   UNL A   1      34.636  33.539  28.588  1.00  0.00    -0.376 OA
BRANCH   5   6
ATOM      6  C   UNL A   1      34.636  33.743  29.984  1.00  0.00     0.202 C 
BRANCH   6   7
ATOM      7  C   UNL A   1      34.869  32.622  30.986  1.00  0.00     0.261 C 
BRANCH   7   8
ATOM      8  O   UNL A   1      36.176  32.580  31.534  1.00  0.00    -0.460 OA
BRANCH   8   9
ATOM      9  C   UNL A   1      36.591  31.924  32.634  1.00  0.00     0.338 C 
ATOM     10  O   UNL A   1      35.946  32.077  33.671  1.00  0.00    -0.246 OA
BRANCH   9  11
ATOM     11  C   UNL A   1      37.828  31.097  32.718  1.00  0.00     0.060 A 
ATOM     12  C   UNL A   1      39.146  31.554  32.745  1.00  0.00     0.016 A 
ATOM     13  C   UNL A   1      37.599  29.705  32.717  1.00  0.00     0.016 A 
ATOM     14  C   UNL A   1      40.191  30.666  32.561  1.00  0.00     0.010 A 
ATOM     15  C   UNL A   1      38.639  28.809  32.570  1.00  0.00     0.010 A 
ATOM     16  C   UNL A   1      39.917  29.310  32.385  1.00  0.00    -0.014 A 
BRANCH  16  17
ATOM     17  C   UNL A   1      41.017  28.467  31.958  1.00  0.00     0.031 A 
ATOM     18  C   UNL A   1      41.970  28.088  33.030  1.00  0.00     0.074 A 
ATOM     19  C   UNL A   1      41.160  28.101  30.669  1.00  0.00     0.049 A 
ATOM     20  N   UNL A   1      43.212  28.430  33.142  1.00  0.00    -0.248 NA
ATOM     21  C   UNL A   1      41.442  27.348  34.184  1.00  0.00     0.031 C 
ATOM     22  C   UNL A   1      40.200  28.220  29.567  1.00  0.00     0.029 A 
ATOM     23  N   UNL A   1      42.213  27.473  30.085  1.00  0.00    -0.354 N 
ATOM     24  C   UNL A   1      43.676  27.810  34.298  1.00  0.00     0.074 A 
ATOM     25  C   UNL A   1      42.522  27.262  34.962  1.00  0.00     0.031 C 
ATOM     26  C   UNL A   1      40.625  27.477  28.521  1.00  0.00     0.029 A 
ATOM     27  C   UNL A   1      41.949  26.965  28.821  1.00  0.00     0.049 A 
ATOM     28  H   UNL A   1      43.090  27.385  30.521  1.00  0.00     0.167 HD
ATOM     29  C   UNL A   1      45.006  27.618  34.510  1.00  0.00     0.037 A 
ATOM     30  C   UNL A   1      42.751  26.134  28.111  1.00  0.00     0.037 A 
ATOM     31  C   UNL A   1      45.801  28.532  33.733  1.00  0.00     0.049 A 
ATOM     32  C   UNL A   1      44.124  26.271  28.659  1.00  0.00     0.074 A 
ATOM     33  C   UNL A   1      45.925  29.907  33.700  1.00  0.00     0.029 A 
ATOM     34  N   UNL A   1      46.361  28.083  32.564  1.00  0.00    -0.354 N 
ATOM     35  N   UNL A   1      44.846  27.351  28.534  1.00  0.00    -0.248 NA
ATOM     36  C   UNL A   1      44.505  25.385  29.750  1.00  0.00     0.031 C 
ATOM     37  C   UNL A   1      46.079  30.230  32.320  1.00  0.00     0.029 A 
ATOM     38  C   UNL A   1      46.108  29.031  31.606  1.00  0.00     0.049 A 
ATOM     39  H   UNL A   1      46.853  27.240  32.435  1.00  0.00     0.167 HD
ATOM     40  C   UNL A   1      45.481  27.494  29.759  1.00  0.00     0.074 A 
ATOM     41  C   UNL A   1      45.288  26.217  30.442  1.00  0.00     0.031 C 
ATOM     42  C   UNL A   1      45.858  28.720  30.219  1.00  0.00     0.037 A 
BRANCH  29  43
ATOM     43  C   UNL A   1      45.579  26.375  35.142  1.00  0.00     0.064 A 
ATOM     44  C   UNL A   1      46.474  26.495  36.224  1.00  0.00     0.173 A 
ATOM     45  C   UNL A   1      45.526  25.102  34.533  1.00  0.00     0.173 A 
ATOM     46  F   UNL A   1      46.622  27.667  36.861  1.00  0.00    -0.203 F 
ATOM     47  C   UNL A   1      47.305  25.441  36.613  1.00  0.00     0.198 A 
ATOM     48  C   UNL A   1      46.320  24.039  34.957  1.00  0.00     0.198 A 
ATOM     49  F   UNL A   1      44.796  24.866  33.438  1.00  0.00    -0.203 F 
ATOM     50  F   UNL A   1      48.228  25.639  37.564  1.00  0.00    -0.200 F 
ATOM     51  C   UNL A   1      47.232  24.217  35.975  1.00  0.00     0.200 A 
ATOM     52  F   UNL A   1      46.250  22.867  34.310  1.00  0.00    -0.200 F 
ATOM     53  F   UNL A   1      48.072  23.226  36.303  1.00  0.00    -0.200 F 
ENDBRANCH  29  43
BRANCH  30  54
ATOM     54  C   UNL A   1      42.336  24.982  27.277  1.00  0.00     0.064 A 
ATOM     55  C   UNL A   1      43.011  24.671  26.085  1.00  0.00     0.173 A 
ATOM     56  C   UNL A   1      41.462  23.996  27.777  1.00  0.00     0.173 A 
ATOM     57  F   UNL A   1      43.898  25.534  25.568  1.00  0.00    -0.203 F 
ATOM     58  C   UNL A   1      42.838  23.439  25.445  1.00  0.00     0.198 A 
ATOM     59  C   UNL A   1      41.287  22.769  27.136  1.00  0.00     0.198 A 
ATOM     60  F   UNL A   1      40.836  24.164  28.951  1.00  0.00    -0.203 F 
ATOM     61  F   UNL A   1      43.545  23.153  24.343  1.00  0.00    -0.200 F 
ATOM     62  C   UNL A   1      41.985  22.486  25.977  1.00  0.00     0.200 A 
ATOM     63  F   UNL A   1      40.490  21.841  27.684  1.00  0.00    -0.200 F 
ATOM     64  F   UNL A   1      41.868  21.281  25.401  1.00  0.00    -0.200 F 
ENDBRANCH  30  54
BRANCH  42  65
ATOM     65  C   UNL A   1      45.783  29.884  29.271  1.00  0.00     0.064 A 
ATOM     66  C   UNL A   1      44.634  30.674  29.088  1.00  0.00     0.173 A 
ATOM     67  C   UNL A   1      46.966  30.311  28.653  1.00  0.00     0.173 A 
ATOM     68  F   UNL A   1      43.491  30.389  29.724  1.00  0.00    -0.203 F 
ATOM     69  C   UNL A   1      44.666  31.821  28.295  1.00  0.00     0.198 A 
ATOM     70  C   UNL A   1      47.003  31.476  27.891  1.00  0.00     0.198 A 
ATOM     71  F   UNL A   1      48.105  29.626  28.839  1.00  0.00    -0.203 F 
ATOM     72  F   UNL A   1      43.558  32.561  28.135  1.00  0.00    -0.200 F 
ATOM     73  C   UNL A   1      45.853  32.225  27.705  1.00  0.00     0.200 A 
ATOM     74  F   UNL A   1      48.165  31.890  27.366  1.00  0.00    -0.200 F 
ATOM     75  F   UNL A   1      45.897  33.354  26.984  1.00  0.00    -0.200 F 
ENDBRANCH  42  65
ENDBRANCH  16  17
ENDBRANCH   9  11
ENDBRANCH   8   9
ENDBRANCH   7   8
ENDBRANCH   6   7
ENDBRANCH   5   6
ENDBRANCH   4   5
ENDBRANCH   3   4
ENDBRANCH   2   3
ENDBRANCH   1   2
BRANCH   1  76
ATOM     76  C   UNL A   1      31.850  28.934  26.323  1.00  0.00     0.188 C 
BRANCH  76  77
ATOM     77  O   UNL A   1      31.543  28.215  25.152  1.00  0.00    -0.376 OA
BRANCH  77  78
ATOM     78  C   UNL A   1      32.363  28.304  24.003  1.00  0.00     0.202 C 
BRANCH  78  79
ATOM     79  C   UNL A   1      33.753  27.650  23.846  1.00  0.00     0.261 C 
BRANCH  79  80
ATOM     80  O   UNL A   1      33.963  26.314  24.304  1.00  0.00    -0.458 OA
BRANCH  80  81
ATOM     81  C   UNL A   1      33.694  25.276  23.447  1.00  0.00     0.359 C 
ATOM     82  O   UNL A   1      33.852  25.289  22.248  1.00  0.00    -0.244 OA
BRANCH  81  83
ATOM     83  C   UNL A   1      33.294  24.081  24.215  1.00  0.00     0.174 A 
ATOM     84  N   UNL A   1      33.788  22.894  23.840  1.00  0.00    -0.161 NA
ATOM     85  C   UNL A   1      32.395  23.934  25.327  1.00  0.00     0.008 A 
ATOM     86  N   UNL A   1      33.134  21.980  24.574  1.00  0.00    -0.240 N 
ATOM     87  C   UNL A   1      32.254  22.560  25.446  1.00  0.00     0.119 A 
BRANCH  85  88
ATOM     88  C   UNL A   1      31.631  24.925  26.158  1.00  0.00     0.068 C 
BRANCH  88  89
ATOM     89  C   UNL A   1      30.135  24.662  26.331  1.00  0.00     0.161 C 
BRANCH  89  90
ATOM     90  O   UNL A   1      29.326  25.507  25.532  1.00  0.00    -0.396 OA
ATOM     91  H   UNL A   1      28.687  25.972  26.097  1.00  0.00     0.210 HD
ENDBRANCH  89  90
ENDBRANCH  88  89
ENDBRANCH  85  88
BRANCH  86  92
ATOM     92  C   UNL A   1      33.424  20.608  24.403  1.00  0.00     0.065 A 
ATOM     93  C   UNL A   1      32.440  19.800  23.810  1.00  0.00     0.035 A 
ATOM     94  C   UNL A   1      34.647  20.059  24.806  1.00  0.00     0.035 A 
ATOM     95  C   UNL A   1      32.678  18.446  23.596  1.00  0.00     0.088 A 
ATOM     96  C   UNL A   1      34.871  18.689  24.633  1.00  0.00     0.088 A 
ATOM     97  C   UNL A   1      33.889  17.891  24.021  1.00  0.00     0.269 A 
BRANCH  97  98
ATOM     98  N   UNL A   1      34.125  16.456  23.829  1.00  0.00     0.062 N 
ATOM     99  O   UNL A   1      34.291  16.051  22.670  1.00  0.00    -0.258 OA
ATOM    100  O   UNL A   1      34.145  15.738  24.837  1.00  0.00    -0.258 OA
ENDBRANCH  97  98
ENDBRANCH  86  92
ENDBRANCH  81  83
ENDBRANCH  80  81
ENDBRANCH  79  80
ENDBRANCH  78  79
ENDBRANCH  77  78
ENDBRANCH  76  77
ENDBRANCH   1  76
TORSDOF 25
ENDMDL
