MODEL 1
REMARK VINA RESULT:     -10.4      0.000      0.000
REMARK SMILES CC1=C(C)C[C@@H](C(=O)OCCOCCOCCOCCOC(=O)c2ccc(-c3c4nc(c(-c5c(F)c(F)c(F)c(F)c5F)c5ccc([nH]5)c(-c5c(F)c(F)c(F)c(F)c5F)c5nc(c(-c6c(F)c(F)c(F)c(F)c6F)c6ccc3[nH]6)C=C5)C=C4)cc2)[C@@H](C(=O)N2CCN(c3cccc(C(F)(F)F)c3)CC2)C1
REMARK SMILES IDX 14 1 13 2 12 3 11 4 10 5 9 6 7 7 8 8 6 9 1 10 2 11 3 12
REMARK SMILES IDX 106 13 4 14 5 15 87 16 88 17 89 18 90 19 91 20 105 21 92 22
REMARK SMILES IDX 104 23 93 24 94 25 95 26 103 27 96 28 98 29 97 30 99 31
REMARK SMILES IDX 100 32 101 33 102 34 15 35 16 36 17 37 18 38 19 39 20 40
REMARK SMILES IDX 21 41 22 42 23 43 24 44 25 45 86 46 26 47 85 48 27 49 28 50
REMARK SMILES IDX 29 51 79 52 30 53 84 54 78 55 80 56 31 57 83 58 77 59 76 60
REMARK SMILES IDX 32 62 64 63 44 64 63 65 45 66 48 67 62 68 81 69 46 70 47 71
REMARK SMILES IDX 61 73 82 74 49 75 33 76 34 77 42 78 35 79 36 80 40 81 43 82
REMARK SMILES IDX 37 83 38 84 41 85 39 86 65 87 66 88 74 89 67 90 68 91 72 92
REMARK SMILES IDX 75 93 69 94 70 95 73 96 71 97 50 98 51 99 59 100 52 101
REMARK SMILES IDX 53 102 57 103 60 104 54 105 55 106 58 107 56 108
REMARK H PARENT 80 61 48 72
REMARK Flexibility Score: inf
ROOT
ATOM      1  C   UNL A   1      34.687  31.811  28.593  1.00  0.00     0.188 C 
ENDROOT
BRANCH   1   2
ATOM      2  C   UNL A   1      34.963  30.742  27.514  1.00  0.00     0.188 C 
BRANCH   2   3
ATOM      3  O   UNL A   1      34.717  29.366  27.759  1.00  0.00    -0.376 OA
BRANCH   3   4
ATOM      4  C   UNL A   1      33.502  28.799  27.253  1.00  0.00     0.202 C 
BRANCH   4   5
ATOM      5  C   UNL A   1      33.504  28.274  25.797  1.00  0.00     0.261 C 
BRANCH   5   6
ATOM      6  O   UNL A   1      33.719  26.843  25.682  1.00  0.00    -0.463 OA
BRANCH   6   7
ATOM      7  C   UNL A   1      33.425  26.264  24.488  1.00  0.00     0.310 C 
ATOM      8  O   UNL A   1      33.967  26.570  23.428  1.00  0.00    -0.252 OA
BRANCH   7   9
ATOM      9  C   UNL A   1      32.257  25.264  24.530  1.00  0.00     0.116 C 
ATOM     10  C   UNL A   1      31.625  20.982  25.532  1.00  0.00     0.039 C 
ATOM     11  C   UNL A   1      31.717  22.466  25.317  1.00  0.00    -0.074 C 
ATOM     12  C   UNL A   1      32.124  23.337  26.260  1.00  0.00    -0.073 C 
ATOM     13  C   UNL A   1      31.246  22.985  23.988  1.00  0.00     0.045 C 
ATOM     14  C   UNL A   1      32.539  22.958  27.653  1.00  0.00     0.039 C 
ATOM     15  C   UNL A   1      32.123  24.821  25.998  1.00  0.00     0.046 C 
ATOM     16  C   UNL A   1      32.095  24.130  23.450  1.00  0.00     0.097 C 
BRANCH  16  17
ATOM     17  C   UNL A   1      33.405  23.767  22.779  1.00  0.00     0.227 C 
ATOM     18  O   UNL A   1      33.566  24.171  21.633  1.00  0.00    -0.275 OA
ATOM     19  N   UNL A   1      34.410  23.029  23.327  1.00  0.00    -0.339 N 
ATOM     20  C   UNL A   1      35.753  23.318  22.816  1.00  0.00     0.141 C 
ATOM     21  C   UNL A   1      34.293  21.650  23.814  1.00  0.00     0.141 C 
ATOM     22  C   UNL A   1      36.772  23.172  23.938  1.00  0.00     0.138 C 
ATOM     23  C   UNL A   1      35.344  21.352  24.908  1.00  0.00     0.138 C 
ATOM     24  N   UNL A   1      36.684  21.816  24.493  1.00  0.00    -0.368 N 
BRANCH  24  25
ATOM     25  C   UNL A   1      37.826  21.234  25.002  1.00  0.00     0.037 A 
ATOM     26  C   UNL A   1      38.048  19.857  24.934  1.00  0.00     0.026 A 
ATOM     27  C   UNL A   1      38.765  22.013  25.684  1.00  0.00     0.039 A 
ATOM     28  C   UNL A   1      39.148  19.272  25.557  1.00  0.00     0.003 A 
ATOM     29  C   UNL A   1      39.863  21.437  26.345  1.00  0.00     0.058 A 
ATOM     30  C   UNL A   1      40.037  20.052  26.287  1.00  0.00     0.013 A 
BRANCH  29  31
ATOM     31  C   UNL A   1      40.817  22.287  27.139  1.00  0.00     0.416 C 
ATOM     32  F   UNL A   1      41.663  23.004  26.350  1.00  0.00    -0.166 F 
ATOM     33  F   UNL A   1      40.189  23.188  27.939  1.00  0.00    -0.166 F 
ATOM     34  F   UNL A   1      41.627  21.558  27.964  1.00  0.00    -0.166 F 
ENDBRANCH  29  31
ENDBRANCH  24  25
ENDBRANCH  16  17
ENDBRANCH   7   9
ENDBRANCH   6   7
ENDBRANCH   5   6
ENDBRANCH   4   5
ENDBRANCH   3   4
ENDBRANCH   2   3
ENDBRANCH   1   2
BRANCH   1  35
ATOM     35  O   UNL A   1      35.740  32.606  29.120  1.00  0.00    -0.377 OA
BRANCH  35  36
ATOM     36  C   UNL A   1      35.675  34.000  28.899  1.00  0.00     0.188 C 
BRANCH  36  37
ATOM     37  C   UNL A   1      34.353  34.559  28.360  1.00  0.00     0.188 C 
BRANCH  37  38
ATOM     38  O   UNL A   1      34.375  35.939  28.033  1.00  0.00    -0.376 OA
BRANCH  38  39
ATOM     39  C   UNL A   1      33.591  36.785  28.871  1.00  0.00     0.202 C 
BRANCH  39  40
ATOM     40  C   UNL A   1      32.670  36.084  29.884  1.00  0.00     0.261 C 
BRANCH  40  41
ATOM     41  O   UNL A   1      32.817  36.487  31.259  1.00  0.00    -0.460 OA
BRANCH  41  42
ATOM     42  C   UNL A   1      32.726  35.531  32.198  1.00  0.00     0.338 C 
ATOM     43  O   UNL A   1      31.757  35.255  32.896  1.00  0.00    -0.246 OA
BRANCH  42  44
ATOM     44  C   UNL A   1      33.995  34.790  32.242  1.00  0.00     0.060 A 
ATOM     45  C   UNL A   1      33.991  33.410  32.472  1.00  0.00     0.016 A 
ATOM     46  C   UNL A   1      35.197  35.492  32.169  1.00  0.00     0.016 A 
ATOM     47  C   UNL A   1      35.198  32.730  32.670  1.00  0.00     0.010 A 
ATOM     48  C   UNL A   1      36.396  34.811  32.384  1.00  0.00     0.010 A 
ATOM     49  C   UNL A   1      36.410  33.434  32.674  1.00  0.00    -0.014 A 
BRANCH  49  50
ATOM     50  C   UNL A   1      37.652  32.795  33.194  1.00  0.00     0.031 A 
ATOM     51  C   UNL A   1      38.331  31.744  32.346  1.00  0.00     0.074 A 
ATOM     52  C   UNL A   1      38.181  33.115  34.391  1.00  0.00     0.049 A 
ATOM     53  N   UNL A   1      39.409  31.040  32.588  1.00  0.00    -0.248 NA
ATOM     54  C   UNL A   1      37.692  31.438  31.055  1.00  0.00     0.031 C 
ATOM     55  C   UNL A   1      37.637  34.093  35.329  1.00  0.00     0.029 A 
ATOM     56  N   UNL A   1      39.298  32.626  35.027  1.00  0.00    -0.354 N 
ATOM     57  C   UNL A   1      39.562  30.197  31.492  1.00  0.00     0.074 A 
ATOM     58  C   UNL A   1      38.445  30.445  30.608  1.00  0.00     0.031 C 
ATOM     59  C   UNL A   1      38.417  34.126  36.427  1.00  0.00     0.029 A 
ATOM     60  C   UNL A   1      39.507  33.163  36.274  1.00  0.00     0.049 A 
ATOM     61  H   UNL A   1      39.893  31.952  34.627  1.00  0.00     0.167 HD
ATOM     62  C   UNL A   1      40.554  29.313  31.229  1.00  0.00     0.037 A 
ATOM     63  C   UNL A   1      40.462  32.901  37.189  1.00  0.00     0.037 A 
ATOM     64  C   UNL A   1      41.676  29.066  32.094  1.00  0.00     0.049 A 
ATOM     65  C   UNL A   1      41.541  31.896  36.888  1.00  0.00     0.074 A 
ATOM     66  C   UNL A   1      42.769  28.244  31.879  1.00  0.00     0.029 A 
ATOM     67  N   UNL A   1      41.844  29.633  33.347  1.00  0.00    -0.354 N 
ATOM     68  N   UNL A   1      41.710  31.151  35.825  1.00  0.00    -0.248 NA
ATOM     69  C   UNL A   1      42.575  31.714  37.919  1.00  0.00     0.031 C 
ATOM     70  C   UNL A   1      43.574  28.275  33.022  1.00  0.00     0.029 A 
ATOM     71  C   UNL A   1      43.014  29.165  33.924  1.00  0.00     0.049 A 
ATOM     72  H   UNL A   1      41.224  30.273  33.767  1.00  0.00     0.167 HD
ATOM     73  C   UNL A   1      42.888  30.446  36.037  1.00  0.00     0.074 A 
ATOM     74  C   UNL A   1      43.386  30.843  37.337  1.00  0.00     0.031 C 
ATOM     75  C   UNL A   1      43.509  29.565  35.216  1.00  0.00     0.037 A 
BRANCH  62  76
ATOM     76  C   UNL A   1      40.471  28.544  29.940  1.00  0.00     0.064 A 
ATOM     77  C   UNL A   1      41.171  28.953  28.794  1.00  0.00     0.173 A 
ATOM     78  C   UNL A   1      39.713  27.366  29.860  1.00  0.00     0.173 A 
ATOM     79  F   UNL A   1      41.903  30.075  28.814  1.00  0.00    -0.203 F 
ATOM     80  C   UNL A   1      41.084  28.231  27.606  1.00  0.00     0.198 A 
ATOM     81  C   UNL A   1      39.657  26.628  28.681  1.00  0.00     0.198 A 
ATOM     82  F   UNL A   1      39.033  26.924  30.929  1.00  0.00    -0.203 F 
ATOM     83  F   UNL A   1      41.716  28.671  26.510  1.00  0.00    -0.200 F 
ATOM     84  C   UNL A   1      40.334  27.066  27.554  1.00  0.00     0.200 A 
ATOM     85  F   UNL A   1      38.946  25.493  28.636  1.00  0.00    -0.200 F 
ATOM     86  F   UNL A   1      40.260  26.367  26.412  1.00  0.00    -0.200 F 
ENDBRANCH  62  76
BRANCH  63  87
ATOM     87  C   UNL A   1      40.463  33.604  38.496  1.00  0.00     0.064 A 
ATOM     88  C   UNL A   1      39.611  33.213  39.537  1.00  0.00     0.173 A 
ATOM     89  C   UNL A   1      41.276  34.724  38.704  1.00  0.00     0.173 A 
ATOM     90  F   UNL A   1      38.761  32.192  39.357  1.00  0.00    -0.203 F 
ATOM     91  C   UNL A   1      39.589  33.910  40.744  1.00  0.00     0.198 A 
ATOM     92  C   UNL A   1      41.282  35.398  39.922  1.00  0.00     0.198 A 
ATOM     93  F   UNL A   1      42.028  35.195  37.702  1.00  0.00    -0.203 F 
ATOM     94  F   UNL A   1      38.730  33.550  41.708  1.00  0.00    -0.200 F 
ATOM     95  C   UNL A   1      40.436  34.992  40.942  1.00  0.00     0.200 A 
ATOM     96  F   UNL A   1      42.092  36.450  40.099  1.00  0.00    -0.200 F 
ATOM     97  F   UNL A   1      40.419  35.657  42.104  1.00  0.00    -0.200 F 
ENDBRANCH  63  87
BRANCH  75  98
ATOM     98  C   UNL A   1      44.834  29.017  35.662  1.00  0.00     0.064 A 
ATOM     99  C   UNL A   1      46.043  29.669  35.382  1.00  0.00     0.173 A 
ATOM    100  C   UNL A   1      44.886  27.826  36.403  1.00  0.00     0.173 A 
ATOM    101  F   UNL A   1      46.050  30.802  34.663  1.00  0.00    -0.203 F 
ATOM    102  C   UNL A   1      47.259  29.134  35.804  1.00  0.00     0.198 A 
ATOM    103  C   UNL A   1      46.100  27.311  36.850  1.00  0.00     0.198 A 
ATOM    104  F   UNL A   1      43.758  27.165  36.702  1.00  0.00    -0.203 F 
ATOM    105  F   UNL A   1      48.407  29.746  35.480  1.00  0.00    -0.200 F 
ATOM    106  C   UNL A   1      47.285  27.960  36.543  1.00  0.00     0.200 A 
ATOM    107  F   UNL A   1      46.121  26.182  37.573  1.00  0.00    -0.200 F 
ATOM    108  F   UNL A   1      48.455  27.449  36.949  1.00  0.00    -0.200 F 
ENDBRANCH  75  98
ENDBRANCH  49  50
ENDBRANCH  42  44
ENDBRANCH  41  42
ENDBRANCH  40  41
ENDBRANCH  39  40
ENDBRANCH  38  39
ENDBRANCH  37  38
ENDBRANCH  36  37
ENDBRANCH  35  36
ENDBRANCH   1  35
TORSDOF 23
ENDMDL
MODEL 2
REMARK VINA RESULT:     -10.2      3.895      8.778
REMARK SMILES CC1=C(C)C[C@@H](C(=O)OCCOCCOCCOCCOC(=O)c2ccc(-c3c4nc(c(-c5c(F)c(F)c(F)c(F)c5F)c5ccc([nH]5)c(-c5c(F)c(F)c(F)c(F)c5F)c5nc(c(-c6c(F)c(F)c(F)c(F)c6F)c6ccc3[nH]6)C=C5)C=C4)cc2)[C@@H](C(=O)N2CCN(c3cccc(C(F)(F)F)c3)CC2)C1
REMARK SMILES IDX 14 1 13 2 12 3 11 4 10 5 9 6 7 7 8 8 6 9 1 10 2 11 3 12
REMARK SMILES IDX 106 13 4 14 5 15 87 16 88 17 89 18 90 19 91 20 105 21 92 22
REMARK SMILES IDX 104 23 93 24 94 25 95 26 103 27 96 28 98 29 97 30 99 31
REMARK SMILES IDX 100 32 101 33 102 34 15 35 16 36 17 37 18 38 19 39 20 40
REMARK SMILES IDX 21 41 22 42 23 43 24 44 25 45 86 46 26 47 85 48 27 49 28 50
REMARK SMILES IDX 29 51 79 52 30 53 84 54 78 55 80 56 31 57 83 58 77 59 76 60
REMARK SMILES IDX 32 62 64 63 44 64 63 65 45 66 48 67 62 68 81 69 46 70 47 71
REMARK SMILES IDX 61 73 82 74 49 75 33 76 34 77 42 78 35 79 36 80 40 81 43 82
REMARK SMILES IDX 37 83 38 84 41 85 39 86 65 87 66 88 74 89 67 90 68 91 72 92
REMARK SMILES IDX 75 93 69 94 70 95 73 96 71 97 50 98 51 99 59 100 52 101
REMARK SMILES IDX 53 102 57 103 60 104 54 105 55 106 58 107 56 108
REMARK H PARENT 80 61 48 72
REMARK Flexibility Score: inf
ROOT
ATOM      1  C   UNL A   1      34.091  32.166  28.264  1.00  0.00     0.188 C 
ENDROOT
BRANCH   1   2
ATOM      2  C   UNL A   1      33.689  30.897  27.482  1.00  0.00     0.188 C 
BRANCH   2   3
ATOM      3  O   UNL A   1      34.257  29.633  27.787  1.00  0.00    -0.376 OA
BRANCH   3   4
ATOM      4  C   UNL A   1      33.610  28.463  27.270  1.00  0.00     0.202 C 
BRANCH   4   5
ATOM      5  C   UNL A   1      34.094  27.915  25.905  1.00  0.00     0.261 C 
BRANCH   5   6
ATOM      6  O   UNL A   1      34.251  26.473  25.866  1.00  0.00    -0.463 OA
BRANCH   6   7
ATOM      7  C   UNL A   1      34.140  25.869  24.653  1.00  0.00     0.310 C 
ATOM      8  O   UNL A   1      33.734  26.437  23.641  1.00  0.00    -0.252 OA
BRANCH   7   9
ATOM      9  C   UNL A   1      34.447  24.362  24.657  1.00  0.00     0.116 C 
ATOM     10  C   UNL A   1      32.395  20.581  23.549  1.00  0.00     0.039 C 
ATOM     11  C   UNL A   1      33.217  21.811  23.810  1.00  0.00    -0.074 C 
ATOM     12  C   UNL A   1      33.505  22.734  22.873  1.00  0.00    -0.073 C 
ATOM     13  C   UNL A   1      33.802  21.951  25.186  1.00  0.00     0.045 C 
ATOM     14  C   UNL A   1      33.054  22.669  21.441  1.00  0.00     0.039 C 
ATOM     15  C   UNL A   1      34.395  23.908  23.187  1.00  0.00     0.046 C 
ATOM     16  C   UNL A   1      33.795  23.384  25.704  1.00  0.00     0.097 C 
BRANCH  16  17
ATOM     17  C   UNL A   1      32.491  23.912  26.267  1.00  0.00     0.227 C 
ATOM     18  O   UNL A   1      32.234  23.619  27.430  1.00  0.00    -0.275 OA
ATOM     19  N   UNL A   1      31.578  24.672  25.601  1.00  0.00    -0.339 N 
ATOM     20  C   UNL A   1      30.769  25.563  26.438  1.00  0.00     0.141 C 
ATOM     21  C   UNL A   1      30.874  24.286  24.373  1.00  0.00     0.141 C 
ATOM     22  C   UNL A   1      30.481  26.855  25.685  1.00  0.00     0.138 C 
ATOM     23  C   UNL A   1      30.450  25.528  23.557  1.00  0.00     0.138 C 
ATOM     24  N   UNL A   1      29.802  26.534  24.424  1.00  0.00    -0.368 N 
BRANCH  24  25
ATOM     25  C   UNL A   1      28.900  27.441  23.909  1.00  0.00     0.037 A 
ATOM     26  C   UNL A   1      27.520  27.252  24.013  1.00  0.00     0.026 A 
ATOM     27  C   UNL A   1      29.355  28.546  23.184  1.00  0.00     0.039 A 
ATOM     28  C   UNL A   1      26.625  28.115  23.385  1.00  0.00     0.003 A 
ATOM     29  C   UNL A   1      28.468  29.408  22.517  1.00  0.00     0.058 A 
ATOM     30  C   UNL A   1      27.094  29.171  22.613  1.00  0.00     0.013 A 
BRANCH  29  31
ATOM     31  C   UNL A   1      28.983  30.546  21.678  1.00  0.00     0.416 C 
ATOM     32  F   UNL A   1      28.120  30.903  20.690  1.00  0.00    -0.166 F 
ATOM     33  F   UNL A   1      29.222  31.673  22.400  1.00  0.00    -0.166 F 
ATOM     34  F   UNL A   1      30.157  30.256  21.043  1.00  0.00    -0.166 F 
ENDBRANCH  29  31
ENDBRANCH  24  25
ENDBRANCH  16  17
ENDBRANCH   7   9
ENDBRANCH   6   7
ENDBRANCH   5   6
ENDBRANCH   4   5
ENDBRANCH   3   4
ENDBRANCH   2   3
ENDBRANCH   1   2
BRANCH   1  35
ATOM     35  O   UNL A   1      34.989  33.115  27.707  1.00  0.00    -0.377 OA
BRANCH  35  36
ATOM     36  C   UNL A   1      34.667  34.482  27.861  1.00  0.00     0.188 C 
BRANCH  36  37
ATOM     37  C   UNL A   1      33.472  34.820  28.759  1.00  0.00     0.188 C 
BRANCH  37  38
ATOM     38  O   UNL A   1      33.362  36.187  29.121  1.00  0.00    -0.376 OA
BRANCH  38  39
ATOM     39  C   UNL A   1      33.033  36.442  30.485  1.00  0.00     0.202 C 
BRANCH  39  40
ATOM     40  C   UNL A   1      33.305  35.301  31.480  1.00  0.00     0.261 C 
BRANCH  40  41
ATOM     41  O   UNL A   1      34.688  35.051  31.797  1.00  0.00    -0.460 OA
BRANCH  41  42
ATOM     42  C   UNL A   1      35.025  33.803  32.160  1.00  0.00     0.338 C 
ATOM     43  O   UNL A   1      34.533  32.750  31.770  1.00  0.00    -0.246 OA
BRANCH  42  44
ATOM     44  C   UNL A   1      36.155  33.872  33.098  1.00  0.00     0.060 A 
ATOM     45  C   UNL A   1      37.431  34.208  32.631  1.00  0.00     0.016 A 
ATOM     46  C   UNL A   1      35.964  33.490  34.424  1.00  0.00     0.016 A 
ATOM     47  C   UNL A   1      38.534  34.122  33.488  1.00  0.00     0.010 A 
ATOM     48  C   UNL A   1      37.071  33.391  35.269  1.00  0.00     0.010 A 
ATOM     49  C   UNL A   1      38.370  33.667  34.803  1.00  0.00    -0.014 A 
BRANCH  49  50
ATOM     50  C   UNL A   1      39.554  33.269  35.617  1.00  0.00     0.031 A 
ATOM     51  C   UNL A   1      40.105  34.257  36.618  1.00  0.00     0.074 A 
ATOM     52  C   UNL A   1      40.149  32.068  35.483  1.00  0.00     0.049 A 
ATOM     53  N   UNL A   1      41.129  34.147  37.427  1.00  0.00    -0.248 NA
ATOM     54  C   UNL A   1      39.411  35.553  36.704  1.00  0.00     0.031 C 
ATOM     55  C   UNL A   1      39.747  31.016  34.553  1.00  0.00     0.029 A 
ATOM     56  N   UNL A   1      41.242  31.542  36.131  1.00  0.00    -0.354 N 
ATOM     57  C   UNL A   1      41.212  35.363  38.098  1.00  0.00     0.074 A 
ATOM     58  C   UNL A   1      40.165  36.209  37.570  1.00  0.00     0.031 C 
ATOM     59  C   UNL A   1      40.589  29.972  34.684  1.00  0.00     0.029 A 
ATOM     60  C   UNL A   1      41.595  30.288  35.698  1.00  0.00     0.049 A 
ATOM     61  H   UNL A   1      41.728  32.021  36.842  1.00  0.00     0.167 HD
ATOM     62  C   UNL A   1      42.065  35.737  39.082  1.00  0.00     0.037 A 
ATOM     63  C   UNL A   1      42.617  29.490  36.069  1.00  0.00     0.037 A 
ATOM     64  C   UNL A   1      43.102  34.901  39.623  1.00  0.00     0.049 A 
ATOM     65  C   UNL A   1      43.569  29.936  37.146  1.00  0.00     0.074 A 
ATOM     66  C   UNL A   1      43.967  35.165  40.671  1.00  0.00     0.029 A 
ATOM     67  N   UNL A   1      43.423  33.639  39.150  1.00  0.00    -0.354 N 
ATOM     68  N   UNL A   1      43.601  31.060  37.815  1.00  0.00    -0.248 NA
ATOM     69  C   UNL A   1      44.621  28.980  37.529  1.00  0.00     0.031 C 
ATOM     70  C   UNL A   1      44.843  34.083  40.801  1.00  0.00     0.029 A 
ATOM     71  C   UNL A   1      44.484  33.118  39.875  1.00  0.00     0.049 A 
ATOM     72  H   UNL A   1      42.966  33.178  38.409  1.00  0.00     0.167 HD
ATOM     73  C   UNL A   1      44.642  30.933  38.726  1.00  0.00     0.074 A 
ATOM     74  C   UNL A   1      45.226  29.626  38.515  1.00  0.00     0.031 C 
ATOM     75  C   UNL A   1      45.060  31.815  39.665  1.00  0.00     0.037 A 
BRANCH  62  76
ATOM     76  C   UNL A   1      41.907  37.122  39.644  1.00  0.00     0.064 A 
ATOM     77  C   UNL A   1      42.686  38.196  39.184  1.00  0.00     0.173 A 
ATOM     78  C   UNL A   1      40.943  37.386  40.628  1.00  0.00     0.173 A 
ATOM     79  F   UNL A   1      43.627  37.997  38.250  1.00  0.00    -0.203 F 
ATOM     80  C   UNL A   1      42.529  39.474  39.715  1.00  0.00     0.198 A 
ATOM     81  C   UNL A   1      40.765  38.672  41.132  1.00  0.00     0.198 A 
ATOM     82  F   UNL A   1      40.165  36.399  41.096  1.00  0.00    -0.203 F 
ATOM     83  F   UNL A   1      43.321  40.471  39.298  1.00  0.00    -0.200 F 
ATOM     84  C   UNL A   1      41.564  39.712  40.681  1.00  0.00     0.200 A 
ATOM     85  F   UNL A   1      39.821  38.906  42.053  1.00  0.00    -0.200 F 
ATOM     86  F   UNL A   1      41.408  40.945  41.184  1.00  0.00    -0.200 F 
ENDBRANCH  62  76
BRANCH  63  87
ATOM     87  C   UNL A   1      42.809  28.167  35.426  1.00  0.00     0.064 A 
ATOM     88  C   UNL A   1      42.130  27.029  35.877  1.00  0.00     0.173 A 
ATOM     89  C   UNL A   1      43.729  28.007  34.383  1.00  0.00     0.173 A 
ATOM     90  F   UNL A   1      41.296  27.119  36.922  1.00  0.00    -0.203 F 
ATOM     91  C   UNL A   1      42.354  25.782  35.293  1.00  0.00     0.198 A 
ATOM     92  C   UNL A   1      43.925  26.771  33.774  1.00  0.00     0.198 A 
ATOM     93  F   UNL A   1      44.475  29.046  33.989  1.00  0.00    -0.203 F 
ATOM     94  F   UNL A   1      41.732  24.698  35.775  1.00  0.00    -0.200 F 
ATOM     95  C   UNL A   1      43.239  25.657  34.231  1.00  0.00     0.200 A 
ATOM     96  F   UNL A   1      44.793  26.657  32.759  1.00  0.00    -0.200 F 
ATOM     97  F   UNL A   1      43.449  24.461  33.667  1.00  0.00    -0.200 F 
ENDBRANCH  63  87
BRANCH  75  98
ATOM     98  C   UNL A   1      46.160  31.376  40.588  1.00  0.00     0.064 A 
ATOM     99  C   UNL A   1      45.902  30.686  41.781  1.00  0.00     0.173 A 
ATOM    100  C   UNL A   1      47.499  31.634  40.256  1.00  0.00     0.173 A 
ATOM    101  F   UNL A   1      44.639  30.429  42.153  1.00  0.00    -0.203 F 
ATOM    102  C   UNL A   1      46.943  30.295  42.621  1.00  0.00     0.198 A 
ATOM    103  C   UNL A   1      48.538  31.216  41.082  1.00  0.00     0.198 A 
ATOM    104  F   UNL A   1      47.802  32.288  39.124  1.00  0.00    -0.203 F 
ATOM    105  F   UNL A   1      46.670  29.684  43.782  1.00  0.00    -0.200 F 
ATOM    106  C   UNL A   1      48.259  30.554  42.268  1.00  0.00     0.200 A 
ATOM    107  F   UNL A   1      49.809  31.457  40.732  1.00  0.00    -0.200 F 
ATOM    108  F   UNL A   1      49.258  30.176  43.077  1.00  0.00    -0.200 F 
ENDBRANCH  75  98
ENDBRANCH  49  50
ENDBRANCH  42  44
ENDBRANCH  41  42
ENDBRANCH  40  41
ENDBRANCH  39  40
ENDBRANCH  38  39
ENDBRANCH  37  38
ENDBRANCH  36  37
ENDBRANCH  35  36
ENDBRANCH   1  35
TORSDOF 23
ENDMDL
MODEL 3
REMARK VINA RESULT:     -10.1      7.610     11.206
REMARK SMILES CC1=C(C)C[C@@H](C(=O)OCCOCCOCCOCCOC(=O)c2ccc(-c3c4nc(c(-c5c(F)c(F)c(F)c(F)c5F)c5ccc([nH]5)c(-c5c(F)c(F)c(F)c(F)c5F)c5nc(c(-c6c(F)c(F)c(F)c(F)c6F)c6ccc3[nH]6)C=C5)C=C4)cc2)[C@@H](C(=O)N2CCN(c3cccc(C(F)(F)F)c3)CC2)C1
REMARK SMILES IDX 14 1 13 2 12 3 11 4 10 5 9 6 7 7 8 8 6 9 1 10 2 11 3 12
REMARK SMILES IDX 106 13 4 14 5 15 87 16 88 17 89 18 90 19 91 20 105 21 92 22
REMARK SMILES IDX 104 23 93 24 94 25 95 26 103 27 96 28 98 29 97 30 99 31
REMARK SMILES IDX 100 32 101 33 102 34 15 35 16 36 17 37 18 38 19 39 20 40
REMARK SMILES IDX 21 41 22 42 23 43 24 44 25 45 86 46 26 47 85 48 27 49 28 50
REMARK SMILES IDX 29 51 79 52 30 53 84 54 78 55 80 56 31 57 83 58 77 59 76 60
REMARK SMILES IDX 32 62 64 63 44 64 63 65 45 66 48 67 62 68 81 69 46 70 47 71
REMARK SMILES IDX 61 73 82 74 49 75 33 76 34 77 42 78 35 79 36 80 40 81 43 82
REMARK SMILES IDX 37 83 38 84 41 85 39 86 65 87 66 88 74 89 67 90 68 91 72 92
REMARK SMILES IDX 75 93 69 94 70 95 73 96 71 97 50 98 51 99 59 100 52 101
REMARK SMILES IDX 53 102 57 103 60 104 54 105 55 106 58 107 56 108
REMARK H PARENT 80 61 48 72
REMARK Flexibility Score: inf
ROOT
ATOM      1  C   UNL A   1      39.114  29.021  27.384  1.00  0.00     0.188 C 
ENDROOT
BRANCH   1   2
ATOM      2  C   UNL A   1      38.162  29.512  28.495  1.00  0.00     0.188 C 
BRANCH   2   3
ATOM      3  O   UNL A   1      36.814  29.072  28.559  1.00  0.00    -0.376 OA
BRANCH   3   4
ATOM      4  C   UNL A   1      35.817  29.862  27.898  1.00  0.00     0.202 C 
BRANCH   4   5
ATOM      5  C   UNL A   1      34.837  29.136  26.945  1.00  0.00     0.261 C 
BRANCH   5   6
ATOM      6  O   UNL A   1      33.692  28.541  27.610  1.00  0.00    -0.463 OA
BRANCH   6   7
ATOM      7  C   UNL A   1      32.501  28.588  26.957  1.00  0.00     0.310 C 
ATOM      8  O   UNL A   1      31.435  28.229  27.453  1.00  0.00    -0.252 OA
BRANCH   7   9
ATOM      9  C   UNL A   1      32.595  29.014  25.482  1.00  0.00     0.116 C 
ATOM     10  C   UNL A   1      29.895  29.330  21.968  1.00  0.00     0.039 C 
ATOM     11  C   UNL A   1      30.842  29.396  23.133  1.00  0.00    -0.074 C 
ATOM     12  C   UNL A   1      30.636  30.156  24.225  1.00  0.00    -0.073 C 
ATOM     13  C   UNL A   1      32.121  28.618  23.006  1.00  0.00     0.045 C 
ATOM     14  C   UNL A   1      29.442  31.044  24.437  1.00  0.00     0.039 C 
ATOM     15  C   UNL A   1      31.663  30.229  25.325  1.00  0.00     0.046 C 
ATOM     16  C   UNL A   1      32.562  27.964  24.310  1.00  0.00     0.097 C 
BRANCH  16  17
ATOM     17  C   UNL A   1      31.880  26.668  24.702  1.00  0.00     0.227 C 
ATOM     18  O   UNL A   1      30.673  26.722  24.910  1.00  0.00    -0.275 OA
ATOM     19  N   UNL A   1      32.485  25.457  24.855  1.00  0.00    -0.339 N 
ATOM     20  C   UNL A   1      31.629  24.292  24.610  1.00  0.00     0.141 C 
ATOM     21  C   UNL A   1      33.571  25.153  25.792  1.00  0.00     0.141 C 
ATOM     22  C   UNL A   1      32.448  23.178  23.971  1.00  0.00     0.138 C 
ATOM     23  C   UNL A   1      34.430  23.970  25.288  1.00  0.00     0.138 C 
ATOM     24  N   UNL A   1      33.576  22.847  24.850  1.00  0.00    -0.368 N 
BRANCH  24  25
ATOM     25  C   UNL A   1      34.045  21.551  24.863  1.00  0.00     0.037 A 
ATOM     26  C   UNL A   1      35.388  21.253  25.108  1.00  0.00     0.026 A 
ATOM     27  C   UNL A   1      33.190  20.492  24.542  1.00  0.00     0.039 A 
ATOM     28  C   UNL A   1      35.868  19.950  25.001  1.00  0.00     0.003 A 
ATOM     29  C   UNL A   1      33.664  19.177  24.398  1.00  0.00     0.058 A 
ATOM     30  C   UNL A   1      35.020  18.918  24.616  1.00  0.00     0.013 A 
BRANCH  29  31
ATOM     31  C   UNL A   1      32.740  18.068  23.976  1.00  0.00     0.416 C 
ATOM     32  F   UNL A   1      31.912  18.430  22.960  1.00  0.00    -0.166 F 
ATOM     33  F   UNL A   1      33.401  16.958  23.549  1.00  0.00    -0.166 F 
ATOM     34  F   UNL A   1      31.914  17.645  24.979  1.00  0.00    -0.166 F 
ENDBRANCH  29  31
ENDBRANCH  24  25
ENDBRANCH  16  17
ENDBRANCH   7   9
ENDBRANCH   6   7
ENDBRANCH   5   6
ENDBRANCH   4   5
ENDBRANCH   3   4
ENDBRANCH   2   3
ENDBRANCH   1   2
BRANCH   1  35
ATOM     35  O   UNL A   1      40.176  28.124  27.675  1.00  0.00    -0.377 OA
BRANCH  35  36
ATOM     36  C   UNL A   1      39.874  26.996  28.471  1.00  0.00     0.188 C 
BRANCH  36  37
ATOM     37  C   UNL A   1      39.041  25.886  27.820  1.00  0.00     0.188 C 
BRANCH  37  38
ATOM     38  O   UNL A   1      39.649  24.605  27.815  1.00  0.00    -0.376 OA
BRANCH  38  39
ATOM     39  C   UNL A   1      40.762  24.452  26.938  1.00  0.00     0.202 C 
BRANCH  39  40
ATOM     40  C   UNL A   1      41.316  23.026  26.775  1.00  0.00     0.261 C 
BRANCH  40  41
ATOM     41  O   UNL A   1      42.224  22.820  25.676  1.00  0.00    -0.460 OA
BRANCH  41  42
ATOM     42  C   UNL A   1      43.540  22.841  25.947  1.00  0.00     0.338 C 
ATOM     43  O   UNL A   1      44.311  21.890  25.998  1.00  0.00    -0.246 OA
BRANCH  42  44
ATOM     44  C   UNL A   1      43.960  24.237  26.136  1.00  0.00     0.060 A 
ATOM     45  C   UNL A   1      43.960  25.120  25.050  1.00  0.00     0.016 A 
ATOM     46  C   UNL A   1      44.465  24.636  27.372  1.00  0.00     0.016 A 
ATOM     47  C   UNL A   1      44.506  26.401  25.190  1.00  0.00     0.010 A 
ATOM     48  C   UNL A   1      45.023  25.909  27.500  1.00  0.00     0.010 A 
ATOM     49  C   UNL A   1      45.085  26.791  26.404  1.00  0.00    -0.014 A 
BRANCH  49  50
ATOM     50  C   UNL A   1      45.943  28.008  26.476  1.00  0.00     0.031 A 
ATOM     51  C   UNL A   1      47.435  27.849  26.299  1.00  0.00     0.074 A 
ATOM     52  C   UNL A   1      45.435  29.235  26.701  1.00  0.00     0.049 A 
ATOM     53  N   UNL A   1      48.384  28.752  26.334  1.00  0.00    -0.248 NA
ATOM     54  C   UNL A   1      47.921  26.478  26.067  1.00  0.00     0.031 C 
ATOM     55  C   UNL A   1      44.023  29.550  26.907  1.00  0.00     0.029 A 
ATOM     56  N   UNL A   1      46.068  30.452  26.809  1.00  0.00    -0.354 N 
ATOM     57  C   UNL A   1      49.573  28.055  26.150  1.00  0.00     0.074 A 
ATOM     58  C   UNL A   1      49.232  26.654  26.049  1.00  0.00     0.031 C 
ATOM     59  C   UNL A   1      43.898  30.873  27.127  1.00  0.00     0.029 A 
ATOM     60  C   UNL A   1      45.221  31.496  27.089  1.00  0.00     0.049 A 
ATOM     61  H   UNL A   1      47.040  30.564  26.697  1.00  0.00     0.167 HD
ATOM     62  C   UNL A   1      50.836  28.536  26.048  1.00  0.00     0.037 A 
ATOM     63  C   UNL A   1      45.483  32.802  27.299  1.00  0.00     0.037 A 
ATOM     64  C   UNL A   1      51.187  29.928  26.134  1.00  0.00     0.049 A 
ATOM     65  C   UNL A   1      46.896  33.311  27.208  1.00  0.00     0.074 A 
ATOM     66  C   UNL A   1      52.428  30.518  25.970  1.00  0.00     0.029 A 
ATOM     67  N   UNL A   1      50.295  30.949  26.421  1.00  0.00    -0.354 N 
ATOM     68  N   UNL A   1      48.004  32.655  26.973  1.00  0.00    -0.248 NA
ATOM     69  C   UNL A   1      47.085  34.759  27.395  1.00  0.00     0.031 C 
ATOM     70  C   UNL A   1      52.297  31.891  26.205  1.00  0.00     0.029 A 
ATOM     71  C   UNL A   1      50.961  32.164  26.454  1.00  0.00     0.049 A 
ATOM     72  H   UNL A   1      49.330  30.830  26.578  1.00  0.00     0.167 HD
ATOM     73  C   UNL A   1      49.013  33.609  26.939  1.00  0.00     0.074 A 
ATOM     74  C   UNL A   1      48.387  34.890  27.191  1.00  0.00     0.031 C 
ATOM     75  C   UNL A   1      50.336  33.437  26.700  1.00  0.00     0.037 A 
BRANCH  62  76
ATOM     76  C   UNL A   1      51.940  27.540  25.826  1.00  0.00     0.064 A 
ATOM     77  C   UNL A   1      52.668  26.999  26.898  1.00  0.00     0.173 A 
ATOM     78  C   UNL A   1      52.250  27.097  24.532  1.00  0.00     0.173 A 
ATOM     79  F   UNL A   1      52.417  27.395  28.154  1.00  0.00    -0.203 F 
ATOM     80  C   UNL A   1      53.688  26.077  26.677  1.00  0.00     0.198 A 
ATOM     81  C   UNL A   1      53.248  26.149  24.319  1.00  0.00     0.198 A 
ATOM     82  F   UNL A   1      51.578  27.574  23.473  1.00  0.00    -0.203 F 
ATOM     83  F   UNL A   1      54.406  25.615  27.710  1.00  0.00    -0.200 F 
ATOM     84  C   UNL A   1      53.971  25.648  25.390  1.00  0.00     0.200 A 
ATOM     85  F   UNL A   1      53.509  25.722  23.076  1.00  0.00    -0.200 F 
ATOM     86  F   UNL A   1      54.948  24.754  25.180  1.00  0.00    -0.200 F 
ENDBRANCH  62  76
BRANCH  63  87
ATOM     87  C   UNL A   1      44.385  33.747  27.616  1.00  0.00     0.064 A 
ATOM     88  C   UNL A   1      43.834  34.583  26.637  1.00  0.00     0.173 A 
ATOM     89  C   UNL A   1      43.908  33.875  28.926  1.00  0.00     0.173 A 
ATOM     90  F   UNL A   1      44.310  34.548  25.384  1.00  0.00    -0.203 F 
ATOM     91  C   UNL A   1      42.833  35.499  26.958  1.00  0.00     0.198 A 
ATOM     92  C   UNL A   1      42.883  34.763  29.240  1.00  0.00     0.198 A 
ATOM     93  F   UNL A   1      44.478  33.171  29.912  1.00  0.00    -0.203 F 
ATOM     94  F   UNL A   1      42.356  36.325  26.016  1.00  0.00    -0.200 F 
ATOM     95  C   UNL A   1      42.347  35.577  28.256  1.00  0.00     0.200 A 
ATOM     96  F   UNL A   1      42.431  34.842  30.499  1.00  0.00    -0.200 F 
ATOM     97  F   UNL A   1      41.381  36.453  28.562  1.00  0.00    -0.200 F 
ENDBRANCH  63  87
BRANCH  75  98
ATOM     98  C   UNL A   1      51.193  34.667  26.630  1.00  0.00     0.064 A 
ATOM     99  C   UNL A   1      51.923  35.132  27.733  1.00  0.00     0.173 A 
ATOM    100  C   UNL A   1      51.301  35.379  25.425  1.00  0.00     0.173 A 
ATOM    101  F   UNL A   1      51.842  34.498  28.913  1.00  0.00    -0.203 F 
ATOM    102  C   UNL A   1      52.706  36.281  27.640  1.00  0.00     0.198 A 
ATOM    103  C   UNL A   1      52.108  36.508  25.327  1.00  0.00     0.198 A 
ATOM    104  F   UNL A   1      50.627  34.975  24.337  1.00  0.00    -0.203 F 
ATOM    105  F   UNL A   1      53.354  36.737  28.722  1.00  0.00    -0.200 F 
ATOM    106  C   UNL A   1      52.804  36.963  26.437  1.00  0.00     0.200 A 
ATOM    107  F   UNL A   1      52.210  37.159  24.159  1.00  0.00    -0.200 F 
ATOM    108  F   UNL A   1      53.559  38.066  26.350  1.00  0.00    -0.200 F 
ENDBRANCH  75  98
ENDBRANCH  49  50
ENDBRANCH  42  44
ENDBRANCH  41  42
ENDBRANCH  40  41
ENDBRANCH  39  40
ENDBRANCH  38  39
ENDBRANCH  37  38
ENDBRANCH  36  37
ENDBRANCH  35  36
ENDBRANCH   1  35
TORSDOF 23
ENDMDL
