MODEL 1
REMARK VINA RESULT:     -10.5      0.000      0.000
REMARK SMILES O=C(OCCOCCOCCOCCOC(=O)[C@@H]1CCC[N@@H+](Cc2ccc(F)cc2Cl)C1)c1ccc(-c2c3nc(c(-c4c(F)c(F)c(F)c(F)c4F)c4ccc([nH]4)c(-c4c(F)c(F)c(F)c(F)c4F)c4nc(c(-c5c(F)c(F)c(F)c(F)c5F)c5ccc2[nH]5)C=C4)C=C3)cc1
REMARK SMILES IDX 9 1 8 2 7 3 6 4 5 5 4 6 3 7 2 8 1 9 33 10 34 11 95 12 35 13
REMARK SMILES IDX 94 14 36 15 37 16 38 17 88 18 39 19 93 20 87 21 89 22 40 23
REMARK SMILES IDX 92 24 86 25 85 26 41 28 73 29 53 30 72 31 54 32 57 33 71 34
REMARK SMILES IDX 90 35 55 36 56 37 70 39 91 40 58 41 42 42 43 43 51 44 44 45
REMARK SMILES IDX 45 46 49 47 52 48 46 49 47 50 50 51 48 52 74 53 75 54 83 55
REMARK SMILES IDX 76 56 77 57 81 58 84 59 78 60 79 61 82 62 80 63 59 64 60 65
REMARK SMILES IDX 68 66 61 67 62 68 66 69 69 70 63 71 64 72 67 73 65 74 10 75
REMARK SMILES IDX 11 76 12 77 13 78 14 79 15 80 16 81 17 82 18 83 19 84 32 85
REMARK SMILES IDX 20 86 22 87 21 88 23 90 24 91 25 92 30 93 26 94 29 95 31 96
REMARK SMILES IDX 27 97 28 98
REMARK H PARENT 89 27 57 38 22 89
REMARK Flexibility Score: inf
ROOT
ATOM      1  O   UNL A   1      34.934  30.694  28.065  1.00  0.00    -0.377 OA
ENDROOT
BRANCH   1   2
ATOM      2  C   UNL A   1      34.592  32.067  27.951  1.00  0.00     0.188 C 
BRANCH   2   3
ATOM      3  C   UNL A   1      35.620  33.000  28.596  1.00  0.00     0.188 C 
BRANCH   3   4
ATOM      4  O   UNL A   1      35.098  34.322  28.524  1.00  0.00    -0.376 OA
BRANCH   4   5
ATOM      5  C   UNL A   1      33.705  34.560  28.582  1.00  0.00     0.202 C 
BRANCH   5   6
ATOM      6  C   UNL A   1      33.165  35.831  29.249  1.00  0.00     0.261 C 
BRANCH   6   7
ATOM      7  O   UNL A   1      32.280  35.664  30.374  1.00  0.00    -0.460 OA
BRANCH   7   8
ATOM      8  C   UNL A   1      32.537  35.837  31.689  1.00  0.00     0.338 C 
ATOM      9  O   UNL A   1      31.834  36.599  32.365  1.00  0.00    -0.246 OA
BRANCH   8  10
ATOM     10  C   UNL A   1      33.652  35.136  32.352  1.00  0.00     0.060 A 
ATOM     11  C   UNL A   1      34.891  35.730  32.547  1.00  0.00     0.016 A 
ATOM     12  C   UNL A   1      33.432  33.871  32.899  1.00  0.00     0.016 A 
ATOM     13  C   UNL A   1      35.974  35.008  33.013  1.00  0.00     0.010 A 
ATOM     14  C   UNL A   1      34.484  33.186  33.513  1.00  0.00     0.010 A 
ATOM     15  C   UNL A   1      35.784  33.721  33.501  1.00  0.00    -0.014 A 
BRANCH  15  16
ATOM     16  C   UNL A   1      36.957  32.892  33.857  1.00  0.00     0.031 A 
ATOM     17  C   UNL A   1      37.512  33.036  35.243  1.00  0.00     0.074 A 
ATOM     18  C   UNL A   1      37.455  31.970  33.012  1.00  0.00     0.049 A 
ATOM     19  N   UNL A   1      38.669  32.667  35.720  1.00  0.00    -0.248 NA
ATOM     20  C   UNL A   1      36.648  33.716  36.225  1.00  0.00     0.031 C 
ATOM     21  C   UNL A   1      36.905  31.628  31.698  1.00  0.00     0.029 A 
ATOM     22  N   UNL A   1      38.525  31.125  33.148  1.00  0.00    -0.354 N 
ATOM     23  C   UNL A   1      38.709  33.156  37.019  1.00  0.00     0.074 A 
ATOM     24  C   UNL A   1      37.455  33.827  37.268  1.00  0.00     0.031 C 
ATOM     25  C   UNL A   1      37.605  30.610  31.176  1.00  0.00     0.029 A 
ATOM     26  C   UNL A   1      38.732  30.320  32.052  1.00  0.00     0.049 A 
ATOM     27  H   UNL A   1      39.093  31.096  33.953  1.00  0.00     0.167 HD
ATOM     28  C   UNL A   1      39.726  33.067  37.905  1.00  0.00     0.037 A 
ATOM     29  C   UNL A   1      39.757  29.497  31.765  1.00  0.00     0.037 A 
ATOM     30  C   UNL A   1      40.931  32.331  37.634  1.00  0.00     0.049 A 
ATOM     31  C   UNL A   1      40.898  29.437  32.746  1.00  0.00     0.074 A 
ATOM     32  C   UNL A   1      42.073  32.213  38.401  1.00  0.00     0.029 A 
ATOM     33  N   UNL A   1      41.124  31.557  36.496  1.00  0.00    -0.354 N 
ATOM     34  N   UNL A   1      41.020  30.034  33.909  1.00  0.00    -0.248 NA
ATOM     35  C   UNL A   1      42.060  28.629  32.361  1.00  0.00     0.031 C 
ATOM     36  C   UNL A   1      42.967  31.382  37.714  1.00  0.00     0.029 A 
ATOM     37  C   UNL A   1      42.365  30.952  36.540  1.00  0.00     0.049 A 
ATOM     38  H   UNL A   1      40.470  31.454  35.766  1.00  0.00     0.167 HD
ATOM     39  C   UNL A   1      42.268  29.675  34.396  1.00  0.00     0.074 A 
ATOM     40  C   UNL A   1      42.852  28.783  33.412  1.00  0.00     0.031 C 
ATOM     41  C   UNL A   1      42.888  30.056  35.540  1.00  0.00     0.037 A 
BRANCH  28  42
ATOM     42  C   UNL A   1      39.595  33.846  39.180  1.00  0.00     0.064 A 
ATOM     43  C   UNL A   1      40.091  35.150  39.319  1.00  0.00     0.173 A 
ATOM     44  C   UNL A   1      39.007  33.245  40.306  1.00  0.00     0.173 A 
ATOM     45  F   UNL A   1      40.694  35.755  38.286  1.00  0.00    -0.203 F 
ATOM     46  C   UNL A   1      40.035  35.811  40.545  1.00  0.00     0.198 A 
ATOM     47  C   UNL A   1      38.928  33.919  41.522  1.00  0.00     0.198 A 
ATOM     48  F   UNL A   1      38.526  31.996  40.231  1.00  0.00    -0.203 F 
ATOM     49  F   UNL A   1      40.578  37.030  40.672  1.00  0.00    -0.200 F 
ATOM     50  C   UNL A   1      39.451  35.197  41.644  1.00  0.00     0.200 A 
ATOM     51  F   UNL A   1      38.364  33.324  42.580  1.00  0.00    -0.200 F 
ATOM     52  F   UNL A   1      39.411  35.829  42.824  1.00  0.00    -0.200 F 
ENDBRANCH  28  42
BRANCH  29  53
ATOM     53  C   UNL A   1      39.791  28.750  30.477  1.00  0.00     0.064 A 
ATOM     54  C   UNL A   1      39.247  27.462  30.370  1.00  0.00     0.173 A 
ATOM     55  C   UNL A   1      40.369  29.304  29.323  1.00  0.00     0.173 A 
ATOM     56  F   UNL A   1      38.707  26.872  31.447  1.00  0.00    -0.203 F 
ATOM     57  C   UNL A   1      39.285  26.759  29.166  1.00  0.00     0.198 A 
ATOM     58  C   UNL A   1      40.374  28.616  28.111  1.00  0.00     0.198 A 
ATOM     59  F   UNL A   1      40.914  30.529  29.365  1.00  0.00    -0.203 F 
ATOM     60  F   UNL A   1      38.797  25.513  29.104  1.00  0.00    -0.200 F 
ATOM     61  C   UNL A   1      39.840  27.340  28.036  1.00  0.00     0.200 A 
ATOM     62  F   UNL A   1      40.898  29.190  27.019  1.00  0.00    -0.200 F 
ATOM     63  F   UNL A   1      39.868  26.668  26.877  1.00  0.00    -0.200 F 
ENDBRANCH  29  53
BRANCH  41  64
ATOM     64  C   UNL A   1      44.243  29.477  35.794  1.00  0.00     0.064 A 
ATOM     65  C   UNL A   1      45.409  30.134  35.379  1.00  0.00     0.173 A 
ATOM     66  C   UNL A   1      44.372  28.276  36.506  1.00  0.00     0.173 A 
ATOM     67  F   UNL A   1      45.326  31.277  34.680  1.00  0.00    -0.203 F 
ATOM     68  C   UNL A   1      46.661  29.601  35.655  1.00  0.00     0.198 A 
ATOM     69  C   UNL A   1      45.628  27.758  36.802  1.00  0.00     0.198 A 
ATOM     70  F   UNL A   1      43.281  27.617  36.925  1.00  0.00    -0.203 F 
ATOM     71  F   UNL A   1      47.765  30.224  35.220  1.00  0.00    -0.200 F 
ATOM     72  C   UNL A   1      46.771  28.417  36.373  1.00  0.00     0.200 A 
ATOM     73  F   UNL A   1      45.733  26.621  37.505  1.00  0.00    -0.200 F 
ATOM     74  F   UNL A   1      47.980  27.910  36.648  1.00  0.00    -0.200 F 
ENDBRANCH  41  64
ENDBRANCH  15  16
ENDBRANCH   8  10
ENDBRANCH   7   8
ENDBRANCH   6   7
ENDBRANCH   5   6
ENDBRANCH   4   5
ENDBRANCH   3   4
ENDBRANCH   2   3
ENDBRANCH   1   2
BRANCH   1  75
ATOM     75  C   UNL A   1      34.179  29.813  27.246  1.00  0.00     0.188 C 
BRANCH  75  76
ATOM     76  C   UNL A   1      32.729  30.213  26.899  1.00  0.00     0.188 C 
BRANCH  76  77
ATOM     77  O   UNL A   1      32.271  30.112  25.557  1.00  0.00    -0.376 OA
BRANCH  77  78
ATOM     78  C   UNL A   1      32.468  28.878  24.883  1.00  0.00     0.202 C 
BRANCH  78  79
ATOM     79  C   UNL A   1      32.821  28.943  23.390  1.00  0.00     0.261 C 
BRANCH  79  80
ATOM     80  O   UNL A   1      32.544  27.724  22.662  1.00  0.00    -0.463 OA
BRANCH  80  81
ATOM     81  C   UNL A   1      31.257  27.293  22.645  1.00  0.00     0.314 C 
ATOM     82  O   UNL A   1      30.360  27.835  22.002  1.00  0.00    -0.252 OA
BRANCH  81  83
ATOM     83  C   UNL A   1      31.002  26.000  23.425  1.00  0.00     0.154 C 
ATOM     84  C   UNL A   1      29.907  26.025  24.502  1.00  0.00     0.027 C 
ATOM     85  C   UNL A   1      32.339  25.335  23.819  1.00  0.00     0.277 C 
ATOM     86  C   UNL A   1      30.342  25.669  25.928  1.00  0.00     0.062 C 
ATOM     87  N   UNL A   1      32.607  25.299  25.250  1.00  0.00    -0.330 N 
ATOM     88  C   UNL A   1      31.516  24.694  25.995  1.00  0.00     0.262 C 
ATOM     89  H   UNL A   1      32.626  26.292  25.484  1.00  0.00     0.348 HD
BRANCH  87  90
ATOM     90  C   UNL A   1      33.962  25.019  25.737  1.00  0.00     0.300 C 
BRANCH  90  91
ATOM     91  C   UNL A   1      34.676  23.723  25.404  1.00  0.00     0.025 A 
ATOM     92  C   UNL A   1      35.566  23.693  24.309  1.00  0.00     0.014 A 
ATOM     93  C   UNL A   1      34.659  22.594  26.249  1.00  0.00     0.052 A 
ATOM     94  C   UNL A   1      36.353  22.577  24.029  1.00  0.00     0.040 A 
ATOM     95  C   UNL A   1      35.468  21.481  25.982  1.00  0.00     0.060 A 
ATOM     96  Cl  UNL A   1      33.719  22.534  27.699  1.00  0.00    -0.084 Cl
ATOM     97  C   UNL A   1      36.297  21.481  24.870  1.00  0.00     0.124 A 
ATOM     98  F   UNL A   1      37.080  20.423  24.625  1.00  0.00    -0.207 F 
ENDBRANCH  90  91
ENDBRANCH  87  90
ENDBRANCH  81  83
ENDBRANCH  80  81
ENDBRANCH  79  80
ENDBRANCH  78  79
ENDBRANCH  77  78
ENDBRANCH  76  77
ENDBRANCH  75  76
ENDBRANCH   1  75
TORSDOF 22
ENDMDL
MODEL 2
REMARK VINA RESULT:     -10.2      1.199      2.143
REMARK SMILES O=C(OCCOCCOCCOCCOC(=O)[C@@H]1CCC[N@@H+](Cc2ccc(F)cc2Cl)C1)c1ccc(-c2c3nc(c(-c4c(F)c(F)c(F)c(F)c4F)c4ccc([nH]4)c(-c4c(F)c(F)c(F)c(F)c4F)c4nc(c(-c5c(F)c(F)c(F)c(F)c5F)c5ccc2[nH]5)C=C4)C=C3)cc1
REMARK SMILES IDX 9 1 8 2 7 3 6 4 5 5 4 6 3 7 2 8 1 9 33 10 34 11 95 12 35 13
REMARK SMILES IDX 94 14 36 15 37 16 38 17 88 18 39 19 93 20 87 21 89 22 40 23
REMARK SMILES IDX 92 24 86 25 85 26 41 28 73 29 53 30 72 31 54 32 57 33 71 34
REMARK SMILES IDX 90 35 55 36 56 37 70 39 91 40 58 41 42 42 43 43 51 44 44 45
REMARK SMILES IDX 45 46 49 47 52 48 46 49 47 50 50 51 48 52 74 53 75 54 83 55
REMARK SMILES IDX 76 56 77 57 81 58 84 59 78 60 79 61 82 62 80 63 59 64 60 65
REMARK SMILES IDX 68 66 61 67 62 68 66 69 69 70 63 71 64 72 67 73 65 74 10 75
REMARK SMILES IDX 11 76 12 77 13 78 14 79 15 80 16 81 17 82 18 83 19 84 32 85
REMARK SMILES IDX 20 86 22 87 21 88 23 90 24 91 25 92 30 93 26 94 29 95 31 96
REMARK SMILES IDX 27 97 28 98
REMARK H PARENT 89 27 57 38 22 89
REMARK Flexibility Score: inf
ROOT
ATOM      1  O   UNL A   1      34.560  31.872  27.661  1.00  0.00    -0.377 OA
ENDROOT
BRANCH   1   2
ATOM      2  C   UNL A   1      34.269  32.795  28.699  1.00  0.00     0.188 C 
BRANCH   2   3
ATOM      3  C   UNL A   1      35.269  33.952  28.776  1.00  0.00     0.188 C 
BRANCH   3   4
ATOM      4  O   UNL A   1      34.541  35.157  28.566  1.00  0.00    -0.376 OA
BRANCH   4   5
ATOM      5  C   UNL A   1      33.192  35.276  28.977  1.00  0.00     0.202 C 
BRANCH   5   6
ATOM      6  C   UNL A   1      32.692  36.575  29.620  1.00  0.00     0.261 C 
BRANCH   6   7
ATOM      7  O   UNL A   1      32.096  36.479  30.928  1.00  0.00    -0.460 OA
BRANCH   7   8
ATOM      8  C   UNL A   1      32.693  36.245  32.117  1.00  0.00     0.338 C 
ATOM      9  O   UNL A   1      32.292  36.817  33.138  1.00  0.00    -0.246 OA
BRANCH   8  10
ATOM     10  C   UNL A   1      33.831  35.314  32.234  1.00  0.00     0.060 A 
ATOM     11  C   UNL A   1      33.659  33.939  32.321  1.00  0.00     0.016 A 
ATOM     12  C   UNL A   1      35.131  35.813  32.148  1.00  0.00     0.016 A 
ATOM     13  C   UNL A   1      34.717  33.094  32.601  1.00  0.00     0.010 A 
ATOM     14  C   UNL A   1      36.220  34.946  32.276  1.00  0.00     0.010 A 
ATOM     15  C   UNL A   1      36.015  33.590  32.585  1.00  0.00    -0.014 A 
BRANCH  15  16
ATOM     16  C   UNL A   1      37.133  32.729  33.031  1.00  0.00     0.031 A 
ATOM     17  C   UNL A   1      37.608  32.889  34.446  1.00  0.00     0.074 A 
ATOM     18  C   UNL A   1      37.646  31.767  32.241  1.00  0.00     0.049 A 
ATOM     19  N   UNL A   1      38.719  32.490  35.001  1.00  0.00    -0.248 NA
ATOM     20  C   UNL A   1      36.712  33.624  35.356  1.00  0.00     0.031 C 
ATOM     21  C   UNL A   1      37.165  31.412  30.904  1.00  0.00     0.029 A 
ATOM     22  N   UNL A   1      38.674  30.888  32.462  1.00  0.00    -0.354 N 
ATOM     23  C   UNL A   1      38.699  33.012  36.288  1.00  0.00     0.074 A 
ATOM     24  C   UNL A   1      37.458  33.733  36.444  1.00  0.00     0.031 C 
ATOM     25  C   UNL A   1      37.856  30.356  30.451  1.00  0.00     0.029 A 
ATOM     26  C   UNL A   1      38.916  30.049  31.401  1.00  0.00     0.049 A 
ATOM     27  H   UNL A   1      39.190  30.860  33.301  1.00  0.00     0.167 HD
ATOM     28  C   UNL A   1      39.656  32.909  37.237  1.00  0.00     0.037 A 
ATOM     29  C   UNL A   1      39.926  29.182  31.197  1.00  0.00     0.037 A 
ATOM     30  C   UNL A   1      40.847  32.124  37.058  1.00  0.00     0.049 A 
ATOM     31  C   UNL A   1      41.002  29.107  32.248  1.00  0.00     0.074 A 
ATOM     32  C   UNL A   1      41.935  31.984  37.897  1.00  0.00     0.029 A 
ATOM     33  N   UNL A   1      41.079  31.313  35.953  1.00  0.00    -0.354 N 
ATOM     34  N   UNL A   1      41.075  29.729  33.401  1.00  0.00    -0.248 NA
ATOM     35  C   UNL A   1      42.154  28.247  31.954  1.00  0.00     0.031 C 
ATOM     36  C   UNL A   1      42.838  31.105  37.286  1.00  0.00     0.029 A 
ATOM     37  C   UNL A   1      42.292  30.666  36.087  1.00  0.00     0.049 A 
ATOM     38  H   UNL A   1      40.468  31.215  35.187  1.00  0.00     0.167 HD
ATOM     39  C   UNL A   1      42.277  29.338  33.972  1.00  0.00     0.074 A 
ATOM     40  C   UNL A   1      42.886  28.400  33.048  1.00  0.00     0.031 C 
ATOM     41  C   UNL A   1      42.840  29.726  35.143  1.00  0.00     0.037 A 
BRANCH  28  42
ATOM     42  C   UNL A   1      39.478  33.725  38.483  1.00  0.00     0.064 A 
ATOM     43  C   UNL A   1      38.737  33.267  39.582  1.00  0.00     0.173 A 
ATOM     44  C   UNL A   1      40.018  35.020  38.551  1.00  0.00     0.173 A 
ATOM     45  F   UNL A   1      38.170  32.052  39.554  1.00  0.00    -0.203 F 
ATOM     46  C   UNL A   1      38.513  34.087  40.687  1.00  0.00     0.198 A 
ATOM     47  C   UNL A   1      39.816  35.826  39.668  1.00  0.00     0.198 A 
ATOM     48  F   UNL A   1      40.726  35.511  37.523  1.00  0.00    -0.203 F 
ATOM     49  F   UNL A   1      37.744  33.653  41.695  1.00  0.00    -0.200 F 
ATOM     50  C   UNL A   1      39.055  35.363  40.731  1.00  0.00     0.200 A 
ATOM     51  F   UNL A   1      40.340  37.058  39.707  1.00  0.00    -0.200 F 
ATOM     52  F   UNL A   1      38.827  36.154  41.788  1.00  0.00    -0.200 F 
ENDBRANCH  28  42
BRANCH  29  53
ATOM     53  C   UNL A   1      40.009  28.401  29.932  1.00  0.00     0.064 A 
ATOM     54  C   UNL A   1      39.393  27.147  29.810  1.00  0.00     0.173 A 
ATOM     55  C   UNL A   1      40.708  28.888  28.815  1.00  0.00     0.173 A 
ATOM     56  F   UNL A   1      38.736  26.620  30.854  1.00  0.00    -0.203 F 
ATOM     57  C   UNL A   1      39.478  26.412  28.628  1.00  0.00     0.198 A 
ATOM     58  C   UNL A   1      40.762  28.169  27.622  1.00  0.00     0.198 A 
ATOM     59  F   UNL A   1      41.326  30.076  28.874  1.00  0.00    -0.203 F 
ATOM     60  F   UNL A   1      38.916  25.197  28.554  1.00  0.00    -0.200 F 
ATOM     61  C   UNL A   1      40.154  26.928  27.532  1.00  0.00     0.200 A 
ATOM     62  F   UNL A   1      41.403  28.680  26.562  1.00  0.00    -0.200 F 
ATOM     63  F   UNL A   1      40.227  26.225  26.393  1.00  0.00    -0.200 F 
ENDBRANCH  29  53
BRANCH  41  64
ATOM     64  C   UNL A   1      44.156  29.105  35.493  1.00  0.00     0.064 A 
ATOM     65  C   UNL A   1      44.228  27.917  36.232  1.00  0.00     0.173 A 
ATOM     66  C   UNL A   1      45.349  29.682  35.038  1.00  0.00     0.173 A 
ATOM     67  F   UNL A   1      43.109  27.343  36.700  1.00  0.00    -0.203 F 
ATOM     68  C   UNL A   1      45.457  27.333  36.518  1.00  0.00     0.198 A 
ATOM     69  C   UNL A   1      46.575  29.082  35.304  1.00  0.00     0.198 A 
ATOM     70  F   UNL A   1      45.323  30.817  34.323  1.00  0.00    -0.203 F 
ATOM     71  F   UNL A   1      45.510  26.216  37.256  1.00  0.00    -0.200 F 
ATOM     72  C   UNL A   1      46.628  27.911  36.047  1.00  0.00     0.200 A 
ATOM     73  F   UNL A   1      47.704  29.634  34.840  1.00  0.00    -0.200 F 
ATOM     74  F   UNL A   1      47.810  27.341  36.315  1.00  0.00    -0.200 F 
ENDBRANCH  41  64
ENDBRANCH  15  16
ENDBRANCH   8  10
ENDBRANCH   7   8
ENDBRANCH   6   7
ENDBRANCH   5   6
ENDBRANCH   4   5
ENDBRANCH   3   4
ENDBRANCH   2   3
ENDBRANCH   1   2
BRANCH   1  75
ATOM     75  C   UNL A   1      33.490  31.010  27.300  1.00  0.00     0.188 C 
BRANCH  75  76
ATOM     76  C   UNL A   1      33.709  29.489  27.443  1.00  0.00     0.188 C 
BRANCH  76  77
ATOM     77  O   UNL A   1      33.594  28.649  26.302  1.00  0.00    -0.376 OA
BRANCH  77  78
ATOM     78  C   UNL A   1      33.110  27.329  26.499  1.00  0.00     0.202 C 
BRANCH  78  79
ATOM     79  C   UNL A   1      33.470  26.284  25.433  1.00  0.00     0.261 C 
BRANCH  79  80
ATOM     80  O   UNL A   1      32.616  26.309  24.266  1.00  0.00    -0.463 OA
BRANCH  80  81
ATOM     81  C   UNL A   1      31.285  26.471  24.478  1.00  0.00     0.314 C 
ATOM     82  O   UNL A   1      30.702  27.549  24.391  1.00  0.00    -0.252 OA
BRANCH  81  83
ATOM     83  C   UNL A   1      30.515  25.174  24.749  1.00  0.00     0.154 C 
ATOM     84  C   UNL A   1      30.179  24.841  26.210  1.00  0.00     0.027 C 
ATOM     85  C   UNL A   1      31.084  24.021  23.894  1.00  0.00     0.277 C 
ATOM     86  C   UNL A   1      30.713  23.509  26.748  1.00  0.00     0.062 C 
ATOM     87  N   UNL A   1      31.725  22.954  24.651  1.00  0.00    -0.330 N 
ATOM     88  C   UNL A   1      30.855  22.421  25.685  1.00  0.00     0.262 C 
ATOM     89  H   UNL A   1      32.483  23.455  25.115  1.00  0.00     0.348 HD
BRANCH  87  90
ATOM     90  C   UNL A   1      32.595  21.990  23.970  1.00  0.00     0.300 C 
BRANCH  90  91
ATOM     91  C   UNL A   1      34.083  21.919  24.256  1.00  0.00     0.025 A 
ATOM     92  C   UNL A   1      34.598  20.792  24.930  1.00  0.00     0.014 A 
ATOM     93  C   UNL A   1      35.016  22.821  23.707  1.00  0.00     0.052 A 
ATOM     94  C   UNL A   1      35.968  20.600  25.105  1.00  0.00     0.040 A 
ATOM     95  C   UNL A   1      36.394  22.618  23.862  1.00  0.00     0.060 A 
ATOM     96  Cl  UNL A   1      34.541  24.179  22.744  1.00  0.00    -0.084 Cl
ATOM     97  C   UNL A   1      36.854  21.516  24.568  1.00  0.00     0.124 A 
ATOM     98  F   UNL A   1      38.171  21.315  24.703  1.00  0.00    -0.207 F 
ENDBRANCH  90  91
ENDBRANCH  87  90
ENDBRANCH  81  83
ENDBRANCH  80  81
ENDBRANCH  79  80
ENDBRANCH  78  79
ENDBRANCH  77  78
ENDBRANCH  76  77
ENDBRANCH  75  76
ENDBRANCH   1  75
TORSDOF 22
ENDMDL
MODEL 3
REMARK VINA RESULT:      -9.8      1.803      7.558
REMARK SMILES O=C(OCCOCCOCCOCCOC(=O)[C@@H]1CCC[N@@H+](Cc2ccc(F)cc2Cl)C1)c1ccc(-c2c3nc(c(-c4c(F)c(F)c(F)c(F)c4F)c4ccc([nH]4)c(-c4c(F)c(F)c(F)c(F)c4F)c4nc(c(-c5c(F)c(F)c(F)c(F)c5F)c5ccc2[nH]5)C=C4)C=C3)cc1
REMARK SMILES IDX 9 1 8 2 7 3 6 4 5 5 4 6 3 7 2 8 1 9 33 10 34 11 95 12 35 13
REMARK SMILES IDX 94 14 36 15 37 16 38 17 88 18 39 19 93 20 87 21 89 22 40 23
REMARK SMILES IDX 92 24 86 25 85 26 41 28 73 29 53 30 72 31 54 32 57 33 71 34
REMARK SMILES IDX 90 35 55 36 56 37 70 39 91 40 58 41 42 42 43 43 51 44 44 45
REMARK SMILES IDX 45 46 49 47 52 48 46 49 47 50 50 51 48 52 74 53 75 54 83 55
REMARK SMILES IDX 76 56 77 57 81 58 84 59 78 60 79 61 82 62 80 63 59 64 60 65
REMARK SMILES IDX 68 66 61 67 62 68 66 69 69 70 63 71 64 72 67 73 65 74 10 75
REMARK SMILES IDX 11 76 12 77 13 78 14 79 15 80 16 81 17 82 18 83 19 84 32 85
REMARK SMILES IDX 20 86 22 87 21 88 23 90 24 91 25 92 30 93 26 94 29 95 31 96
REMARK SMILES IDX 27 97 28 98
REMARK H PARENT 89 27 57 38 22 89
REMARK Flexibility Score: inf
ROOT
ATOM      1  O   UNL A   1      33.211  29.797  25.501  1.00  0.00    -0.377 OA
ENDROOT
BRANCH   1   2
ATOM      2  C   UNL A   1      33.588  29.876  26.867  1.00  0.00     0.188 C 
BRANCH   2   3
ATOM      3  C   UNL A   1      33.304  31.244  27.493  1.00  0.00     0.188 C 
BRANCH   3   4
ATOM      4  O   UNL A   1      34.518  31.986  27.460  1.00  0.00    -0.376 OA
BRANCH   4   5
ATOM      5  C   UNL A   1      34.670  33.172  28.215  1.00  0.00     0.202 C 
BRANCH   5   6
ATOM      6  C   UNL A   1      33.543  34.211  28.258  1.00  0.00     0.261 C 
BRANCH   6   7
ATOM      7  O   UNL A   1      32.820  34.354  29.496  1.00  0.00    -0.460 OA
BRANCH   7   8
ATOM      8  C   UNL A   1      33.217  34.938  30.647  1.00  0.00     0.338 C 
ATOM      9  O   UNL A   1      32.611  35.925  31.085  1.00  0.00    -0.246 OA
BRANCH   8  10
ATOM     10  C   UNL A   1      34.373  34.428  31.407  1.00  0.00     0.060 A 
ATOM     11  C   UNL A   1      35.395  35.257  31.848  1.00  0.00     0.016 A 
ATOM     12  C   UNL A   1      34.396  33.088  31.794  1.00  0.00     0.016 A 
ATOM     13  C   UNL A   1      36.551  34.745  32.408  1.00  0.00     0.010 A 
ATOM     14  C   UNL A   1      35.494  32.585  32.499  1.00  0.00     0.010 A 
ATOM     15  C   UNL A   1      36.616  33.397  32.738  1.00  0.00    -0.014 A 
BRANCH  15  16
ATOM     16  C   UNL A   1      37.899  32.816  33.194  1.00  0.00     0.031 A 
ATOM     17  C   UNL A   1      38.606  31.880  32.258  1.00  0.00     0.074 A 
ATOM     18  C   UNL A   1      38.468  33.181  34.358  1.00  0.00     0.049 A 
ATOM     19  N   UNL A   1      39.563  31.027  32.499  1.00  0.00    -0.248 NA
ATOM     20  C   UNL A   1      38.151  31.892  30.856  1.00  0.00     0.031 C 
ATOM     21  C   UNL A   1      37.955  34.197  35.280  1.00  0.00     0.029 A 
ATOM     22  N   UNL A   1      39.627  32.756  34.953  1.00  0.00    -0.354 N 
ATOM     23  C   UNL A   1      39.752  30.335  31.310  1.00  0.00     0.074 A 
ATOM     24  C   UNL A   1      38.833  30.881  30.340  1.00  0.00     0.031 C 
ATOM     25  C   UNL A   1      38.822  34.357  36.290  1.00  0.00     0.029 A 
ATOM     26  C   UNL A   1      39.878  33.363  36.161  1.00  0.00     0.049 A 
ATOM     27  H   UNL A   1      40.224  32.081  34.554  1.00  0.00     0.167 HD
ATOM     28  C   UNL A   1      40.608  29.316  31.074  1.00  0.00     0.037 A 
ATOM     29  C   UNL A   1      40.817  33.090  37.087  1.00  0.00     0.037 A 
ATOM     30  C   UNL A   1      41.552  28.851  32.053  1.00  0.00     0.049 A 
ATOM     31  C   UNL A   1      41.738  31.929  36.823  1.00  0.00     0.074 A 
ATOM     32  C   UNL A   1      42.428  27.785  31.985  1.00  0.00     0.029 A 
ATOM     33  N   UNL A   1      41.755  29.464  33.284  1.00  0.00    -0.354 N 
ATOM     34  N   UNL A   1      41.812  31.156  35.765  1.00  0.00    -0.248 NA
ATOM     35  C   UNL A   1      42.674  31.572  37.895  1.00  0.00     0.031 C 
ATOM     36  C   UNL A   1      43.145  27.741  33.187  1.00  0.00     0.029 A 
ATOM     37  C   UNL A   1      42.745  28.804  33.985  1.00  0.00     0.049 A 
ATOM     38  H   UNL A   1      41.264  30.255  33.608  1.00  0.00     0.167 HD
ATOM     39  C   UNL A   1      42.800  30.223  36.039  1.00  0.00     0.074 A 
ATOM     40  C   UNL A   1      43.318  30.547  37.355  1.00  0.00     0.031 C 
ATOM     41  C   UNL A   1      43.234  29.183  35.286  1.00  0.00     0.037 A 
BRANCH  28  42
ATOM     42  C   UNL A   1      40.487  28.609  29.757  1.00  0.00     0.064 A 
ATOM     43  C   UNL A   1      39.671  27.483  29.580  1.00  0.00     0.173 A 
ATOM     44  C   UNL A   1      41.251  29.042  28.661  1.00  0.00     0.173 A 
ATOM     45  F   UNL A   1      38.947  27.007  30.604  1.00  0.00    -0.203 F 
ATOM     46  C   UNL A   1      39.651  26.795  28.368  1.00  0.00     0.198 A 
ATOM     47  C   UNL A   1      41.208  28.369  27.443  1.00  0.00     0.198 A 
ATOM     48  F   UNL A   1      42.057  30.108  28.778  1.00  0.00    -0.203 F 
ATOM     49  F   UNL A   1      38.917  25.680  28.244  1.00  0.00    -0.200 F 
ATOM     50  C   UNL A   1      40.417  27.240  27.300  1.00  0.00     0.200 A 
ATOM     51  F   UNL A   1      41.949  28.801  26.414  1.00  0.00    -0.200 F 
ATOM     52  F   UNL A   1      40.407  26.569  26.141  1.00  0.00    -0.200 F 
ENDBRANCH  28  42
BRANCH  29  53
ATOM     53  C   UNL A   1      40.869  33.860  38.360  1.00  0.00     0.064 A 
ATOM     54  C   UNL A   1      41.756  34.934  38.524  1.00  0.00     0.173 A 
ATOM     55  C   UNL A   1      40.036  33.541  39.445  1.00  0.00     0.173 A 
ATOM     56  F   UNL A   1      42.596  35.266  37.533  1.00  0.00    -0.203 F 
ATOM     57  C   UNL A   1      41.812  35.650  39.721  1.00  0.00     0.198 A 
ATOM     58  C   UNL A   1      40.065  34.279  40.626  1.00  0.00     0.198 A 
ATOM     59  F   UNL A   1      39.173  32.519  39.352  1.00  0.00    -0.203 F 
ATOM     60  F   UNL A   1      42.700  36.642  39.865  1.00  0.00    -0.200 F 
ATOM     61  C   UNL A   1      40.960  35.328  40.766  1.00  0.00     0.200 A 
ATOM     62  F   UNL A   1      39.228  33.973  41.627  1.00  0.00    -0.200 F 
ATOM     63  F   UNL A   1      41.007  36.022  41.912  1.00  0.00    -0.200 F 
ENDBRANCH  29  53
BRANCH  41  64
ATOM     64  C   UNL A   1      44.341  28.355  35.859  1.00  0.00     0.064 A 
ATOM     65  C   UNL A   1      45.685  28.661  35.613  1.00  0.00     0.173 A 
ATOM     66  C   UNL A   1      44.046  27.276  36.705  1.00  0.00     0.173 A 
ATOM     67  F   UNL A   1      46.007  29.676  34.796  1.00  0.00    -0.203 F 
ATOM     68  C   UNL A   1      46.701  27.905  36.183  1.00  0.00     0.198 A 
ATOM     69  C   UNL A   1      45.066  26.537  37.294  1.00  0.00     0.198 A 
ATOM     70  F   UNL A   1      42.772  26.952  36.970  1.00  0.00    -0.203 F 
ATOM     71  F   UNL A   1      47.982  28.189  35.909  1.00  0.00    -0.200 F 
ATOM     72  C   UNL A   1      46.392  26.848  37.029  1.00  0.00     0.200 A 
ATOM     73  F   UNL A   1      44.766  25.524  38.119  1.00  0.00    -0.200 F 
ATOM     74  F   UNL A   1      47.373  26.126  37.586  1.00  0.00    -0.200 F 
ENDBRANCH  41  64
ENDBRANCH  15  16
ENDBRANCH   8  10
ENDBRANCH   7   8
ENDBRANCH   6   7
ENDBRANCH   5   6
ENDBRANCH   4   5
ENDBRANCH   3   4
ENDBRANCH   2   3
ENDBRANCH   1   2
BRANCH   1  75
ATOM     75  C   UNL A   1      31.813  29.720  25.263  1.00  0.00     0.188 C 
BRANCH  75  76
ATOM     76  C   UNL A   1      31.338  29.025  23.968  1.00  0.00     0.188 C 
BRANCH  76  77
ATOM     77  O   UNL A   1      30.218  28.151  24.007  1.00  0.00    -0.376 OA
BRANCH  77  78
ATOM     78  C   UNL A   1      30.306  26.930  23.288  1.00  0.00     0.202 C 
BRANCH  78  79
ATOM     79  C   UNL A   1      30.122  25.632  24.086  1.00  0.00     0.261 C 
BRANCH  79  80
ATOM     80  O   UNL A   1      29.997  25.826  25.514  1.00  0.00    -0.463 OA
BRANCH  80  81
ATOM     81  C   UNL A   1      30.535  24.873  26.317  1.00  0.00     0.314 C 
ATOM     82  O   UNL A   1      29.879  23.996  26.876  1.00  0.00    -0.252 OA
BRANCH  81  83
ATOM     83  C   UNL A   1      32.064  24.900  26.413  1.00  0.00     0.154 C 
ATOM     84  C   UNL A   1      32.766  26.243  26.161  1.00  0.00     0.027 C 
ATOM     85  C   UNL A   1      32.670  23.665  25.711  1.00  0.00     0.277 C 
ATOM     86  C   UNL A   1      33.792  26.275  25.024  1.00  0.00     0.062 C 
ATOM     87  N   UNL A   1      33.455  23.960  24.521  1.00  0.00    -0.330 N 
ATOM     88  C   UNL A   1      34.495  24.940  24.782  1.00  0.00     0.262 C 
ATOM     89  H   UNL A   1      32.761  24.401  23.917  1.00  0.00     0.348 HD
BRANCH  87  90
ATOM     90  C   UNL A   1      33.793  22.887  23.579  1.00  0.00     0.300 C 
BRANCH  90  91
ATOM     91  C   UNL A   1      33.472  21.435  23.877  1.00  0.00     0.025 A 
ATOM     92  C   UNL A   1      32.417  20.810  23.181  1.00  0.00     0.014 A 
ATOM     93  C   UNL A   1      34.300  20.610  24.666  1.00  0.00     0.052 A 
ATOM     94  C   UNL A   1      32.156  19.446  23.308  1.00  0.00     0.040 A 
ATOM     95  C   UNL A   1      34.053  19.234  24.776  1.00  0.00     0.060 A 
ATOM     96  Cl  UNL A   1      35.708  21.207  25.475  1.00  0.00    -0.084 Cl
ATOM     97  C   UNL A   1      32.978  18.671  24.104  1.00  0.00     0.124 A 
ATOM     98  F   UNL A   1      32.752  17.354  24.199  1.00  0.00    -0.207 F 
ENDBRANCH  90  91
ENDBRANCH  87  90
ENDBRANCH  81  83
ENDBRANCH  80  81
ENDBRANCH  79  80
ENDBRANCH  78  79
ENDBRANCH  77  78
ENDBRANCH  76  77
ENDBRANCH  75  76
ENDBRANCH   1  75
TORSDOF 22
ENDMDL
