MODEL 1
REMARK VINA RESULT:      -9.6      0.000      0.000
REMARK SMILES NS(=O)(=O)c1ccc(-n2nc(NC(=O)NCCCC(=O)OCCOCCOCCOCCOC(=O)c3ccc(-c4c5nc(c(-c6c(F)c(F)c(F)c(F)c6F)c6ccc([nH]6)c(-c6c(F)c(F)c(F)c(F)c6F)c6nc(c(-c7c(F)c(F)c(F)c(F)c7F)c7ccc4[nH]7)C=C6)C=C5)cc3)cc2-c2ccccc2)cc1
REMARK SMILES IDX 25 1 24 2 23 3 22 4 21 5 19 6 20 7 18 8 17 9 16 10 15 11
REMARK SMILES IDX 12 12 13 13 14 15 11 17 9 18 10 19 100 20 99 21 8 22 5 23
REMARK SMILES IDX 6 24 108 25 7 26 107 27 2 28 3 29 4 30 1 31 101 34 102 35
REMARK SMILES IDX 106 36 103 37 105 38 104 39 26 40 27 41 28 42 29 43 30 44
REMARK SMILES IDX 31 45 32 46 33 47 34 48 35 49 36 50 37 51 98 52 38 53 97 54
REMARK SMILES IDX 39 55 40 56 41 57 91 58 42 59 96 60 90 61 92 62 43 63 95 64
REMARK SMILES IDX 89 65 88 66 44 68 76 69 56 70 75 71 57 72 60 73 74 74 93 75
REMARK SMILES IDX 58 76 59 77 73 79 94 80 61 81 45 82 46 83 54 84 47 85 48 86
REMARK SMILES IDX 52 87 55 88 49 89 50 90 53 91 51 92 77 93 78 94 86 95 79 96
REMARK SMILES IDX 80 97 84 98 87 99 81 100 82 101 85 102 83 103 62 104 63 105
REMARK SMILES IDX 71 106 64 107 65 108 69 109 72 110 66 111 67 112 70 113
REMARK SMILES IDX 68 114
REMARK H PARENT 12 14 15 16 1 32 1 33 92 67 60 78
REMARK Flexibility Score: inf
ROOT
ATOM      1  C   UNL A   1      45.386  26.552  25.370  1.00  0.00     0.188 C 
ENDROOT
BRANCH   1   2
ATOM      2  O   UNL A   1      43.965  26.555  25.430  1.00  0.00    -0.376 OA
BRANCH   2   3
ATOM      3  C   UNL A   1      43.320  27.188  26.523  1.00  0.00     0.202 C 
BRANCH   3   4
ATOM      4  C   UNL A   1      41.814  26.895  26.645  1.00  0.00     0.261 C 
BRANCH   4   5
ATOM      5  O   UNL A   1      40.925  28.017  26.479  1.00  0.00    -0.463 OA
BRANCH   5   6
ATOM      6  C   UNL A   1      40.477  28.590  27.626  1.00  0.00     0.305 C 
ATOM      7  O   UNL A   1      41.002  28.460  28.725  1.00  0.00    -0.252 OA
BRANCH   6   8
ATOM      8  C   UNL A   1      39.166  29.327  27.439  1.00  0.00     0.124 C 
BRANCH   8   9
ATOM      9  C   UNL A   1      37.875  28.734  28.001  1.00  0.00     0.033 C 
BRANCH   9  10
ATOM     10  C   UNL A   1      36.527  29.362  27.629  1.00  0.00     0.118 C 
BRANCH  10  11
ATOM     11  N   UNL A   1      36.286  30.671  28.166  1.00  0.00    -0.338 N 
ATOM     12  N   UNL A   1      34.054  31.159  27.482  1.00  0.00    -0.291 N 
ATOM     13  C   UNL A   1      35.180  31.425  28.160  1.00  0.00     0.320 C 
ATOM     14  H   UNL A   1      33.486  31.959  27.409  1.00  0.00     0.173 HD
ATOM     15  O   UNL A   1      35.249  32.518  28.737  1.00  0.00    -0.248 OA
ATOM     16  H   UNL A   1      37.063  31.082  28.610  1.00  0.00     0.165 HD
BRANCH  12  17
ATOM     17  C   UNL A   1      33.471  30.074  26.860  1.00  0.00     0.157 A 
ATOM     18  N   UNL A   1      32.878  28.127  26.147  1.00  0.00    -0.231 N 
ATOM     19  N   UNL A   1      33.639  28.765  27.091  1.00  0.00    -0.149 NA
ATOM     20  C   UNL A   1      32.135  29.038  25.395  1.00  0.00     0.076 A 
ATOM     21  C   UNL A   1      32.482  30.281  25.878  1.00  0.00     0.078 A 
BRANCH  18  22
ATOM     22  C   UNL A   1      32.950  26.699  26.024  1.00  0.00     0.065 A 
ATOM     23  C   UNL A   1      33.079  23.095  25.601  1.00  0.00     0.082 A 
ATOM     24  C   UNL A   1      31.682  23.872  26.453  1.00  0.00     0.024 A 
ATOM     25  C   UNL A   1      34.449  24.130  24.988  1.00  0.00     0.024 A 
ATOM     26  C   UNL A   1      31.652  25.666  26.696  1.00  0.00     0.030 A 
ATOM     27  C   UNL A   1      34.349  25.945  25.154  1.00  0.00     0.030 A 
BRANCH  23  28
ATOM     28  S   UNL A   1      33.117  21.331  25.568  1.00  0.00     0.238 S 
ATOM     29  O   UNL A   1      34.241  20.945  24.747  1.00  0.00    -0.207 OA
ATOM     30  O   UNL A   1      31.774  20.838  25.371  1.00  0.00    -0.207 OA
BRANCH  28  31
ATOM     31  N   UNL A   1      33.514  20.888  27.140  1.00  0.00    -0.225 NA
ATOM     32  H   UNL A   1      33.919  19.953  27.138  1.00  0.00     0.137 HD
ATOM     33  H   UNL A   1      32.673  20.893  27.718  1.00  0.00     0.137 HD
ENDBRANCH  28  31
ENDBRANCH  23  28
ENDBRANCH  18  22
BRANCH  20  34
ATOM     34  C   UNL A   1      31.038  28.745  24.479  1.00  0.00     0.000 A 
ATOM     35  C   UNL A   1      30.318  29.802  23.917  1.00  0.00     0.010 A 
ATOM     36  C   UNL A   1      30.738  27.444  24.078  1.00  0.00     0.010 A 
ATOM     37  C   UNL A   1      29.195  29.569  23.128  1.00  0.00     0.001 A 
ATOM     38  C   UNL A   1      29.632  27.206  23.254  1.00  0.00     0.001 A 
ATOM     39  C   UNL A   1      28.835  28.265  22.817  1.00  0.00     0.000 A 
ENDBRANCH  20  34
ENDBRANCH  12  17
ENDBRANCH  10  11
ENDBRANCH   9  10
ENDBRANCH   8   9
ENDBRANCH   6   8
ENDBRANCH   5   6
ENDBRANCH   4   5
ENDBRANCH   3   4
ENDBRANCH   2   3
ENDBRANCH   1   2
BRANCH   1  40
ATOM     40  C   UNL A   1      46.189  26.013  26.554  1.00  0.00     0.188 C 
BRANCH  40  41
ATOM     41  O   UNL A   1      47.332  26.712  26.980  1.00  0.00    -0.377 OA
BRANCH  41  42
ATOM     42  C   UNL A   1      47.217  27.846  27.813  1.00  0.00     0.188 C 
BRANCH  42  43
ATOM     43  C   UNL A   1      46.499  27.757  29.161  1.00  0.00     0.188 C 
BRANCH  43  44
ATOM     44  O   UNL A   1      45.175  28.257  29.351  1.00  0.00    -0.376 OA
BRANCH  44  45
ATOM     45  C   UNL A   1      44.289  27.985  30.436  1.00  0.00     0.202 C 
BRANCH  45  46
ATOM     46  C   UNL A   1      44.346  26.570  31.346  1.00  0.00     0.261 C 
BRANCH  46  47
ATOM     47  O   UNL A   1      44.160  26.304  33.345  1.00  0.00    -0.460 OA
BRANCH  47  48
ATOM     48  C   UNL A   1      43.740  25.740  34.574  1.00  0.00     0.338 C 
ATOM     49  O   UNL A   1      43.923  24.600  34.997  1.00  0.00    -0.246 OA
BRANCH  48  50
ATOM     50  C   UNL A   1      43.266  26.767  35.507  1.00  0.00     0.060 A 
ATOM     51  C   UNL A   1      41.901  26.894  35.788  1.00  0.00     0.016 A 
ATOM     52  C   UNL A   1      44.163  27.743  35.883  1.00  0.00     0.016 A 
ATOM     53  C   UNL A   1      41.425  28.141  36.156  1.00  0.00     0.010 A 
ATOM     54  C   UNL A   1      43.707  28.956  36.291  1.00  0.00     0.010 A 
ATOM     55  C   UNL A   1      42.344  29.186  36.229  1.00  0.00    -0.014 A 
BRANCH  55  56
ATOM     56  C   UNL A   1      41.971  30.534  35.848  1.00  0.00     0.031 A 
ATOM     57  C   UNL A   1      41.949  31.551  36.912  1.00  0.00     0.074 A 
ATOM     58  C   UNL A   1      42.012  30.915  34.555  1.00  0.00     0.049 A 
ATOM     59  N   UNL A   1      40.900  32.004  37.506  1.00  0.00    -0.248 NA
ATOM     60  C   UNL A   1      43.217  32.033  37.483  1.00  0.00     0.031 C 
ATOM     61  C   UNL A   1      42.472  30.167  33.381  1.00  0.00     0.029 A 
ATOM     62  N   UNL A   1      41.733  32.144  34.046  1.00  0.00    -0.354 N 
ATOM     63  C   UNL A   1      41.369  32.965  38.387  1.00  0.00     0.074 A 
ATOM     64  C   UNL A   1      42.776  32.718  38.538  1.00  0.00     0.031 C 
ATOM     65  C   UNL A   1      42.600  31.016  32.333  1.00  0.00     0.029 A 
ATOM     66  C   UNL A   1      42.122  32.330  32.729  1.00  0.00     0.049 A 
ATOM     67  H   UNL A   1      41.289  32.847  34.572  1.00  0.00     0.167 HD
ATOM     68  C   UNL A   1      40.636  34.070  38.687  1.00  0.00     0.037 A 
ATOM     69  C   UNL A   1      42.089  33.509  32.057  1.00  0.00     0.037 A 
ATOM     70  C   UNL A   1      39.287  33.956  38.181  1.00  0.00     0.049 A 
ATOM     71  C   UNL A   1      41.147  34.403  32.789  1.00  0.00     0.074 A 
ATOM     72  C   UNL A   1      38.293  33.001  38.300  1.00  0.00     0.029 A 
ATOM     73  N   UNL A   1      38.936  34.711  37.085  1.00  0.00    -0.354 N 
ATOM     74  N   UNL A   1      39.855  34.226  32.836  1.00  0.00    -0.248 NA
ATOM     75  C   UNL A   1      41.690  35.264  33.832  1.00  0.00     0.031 C 
ATOM     76  C   UNL A   1      37.702  32.917  37.004  1.00  0.00     0.029 A 
ATOM     77  C   UNL A   1      38.321  33.868  36.193  1.00  0.00     0.049 A 
ATOM     78  H   UNL A   1      39.096  35.676  36.963  1.00  0.00     0.167 HD
ATOM     79  C   UNL A   1      39.496  34.578  34.128  1.00  0.00     0.074 A 
ATOM     80  C   UNL A   1      40.637  35.319  34.653  1.00  0.00     0.031 C 
ATOM     81  C   UNL A   1      38.438  33.984  34.757  1.00  0.00     0.037 A 
BRANCH  68  82
ATOM     82  C   UNL A   1      41.222  35.383  39.138  1.00  0.00     0.064 A 
ATOM     83  C   UNL A   1      40.705  35.989  40.297  1.00  0.00     0.173 A 
ATOM     84  C   UNL A   1      42.105  36.181  38.377  1.00  0.00     0.173 A 
ATOM     85  F   UNL A   1      39.827  35.336  41.073  1.00  0.00    -0.203 F 
ATOM     86  C   UNL A   1      41.014  37.306  40.642  1.00  0.00     0.198 A 
ATOM     87  C   UNL A   1      42.469  37.469  38.764  1.00  0.00     0.198 A 
ATOM     88  F   UNL A   1      42.562  35.804  37.177  1.00  0.00    -0.203 F 
ATOM     89  F   UNL A   1      40.401  37.878  41.686  1.00  0.00    -0.200 F 
ATOM     90  C   UNL A   1      41.901  38.043  39.880  1.00  0.00     0.200 A 
ATOM     91  F   UNL A   1      43.318  38.171  37.999  1.00  0.00    -0.200 F 
ATOM     92  F   UNL A   1      42.167  39.319  40.186  1.00  0.00    -0.200 F 
ENDBRANCH  68  82
BRANCH  69  93
ATOM     93  C   UNL A   1      42.946  33.993  30.948  1.00  0.00     0.064 A 
ATOM     94  C   UNL A   1      42.388  34.691  29.862  1.00  0.00     0.173 A 
ATOM     95  C   UNL A   1      44.352  34.015  31.042  1.00  0.00     0.173 A 
ATOM     96  F   UNL A   1      41.057  34.760  29.716  1.00  0.00    -0.203 F 
ATOM     97  C   UNL A   1      43.182  35.391  28.949  1.00  0.00     0.198 A 
ATOM     98  C   UNL A   1      45.145  34.701  30.119  1.00  0.00     0.198 A 
ATOM     99  F   UNL A   1      44.984  33.452  32.080  1.00  0.00    -0.203 F 
ATOM    100  F   UNL A   1      42.604  36.103  27.971  1.00  0.00    -0.200 F 
ATOM    101  C   UNL A   1      44.560  35.402  29.083  1.00  0.00     0.200 A 
ATOM    102  F   UNL A   1      46.476  34.729  30.280  1.00  0.00    -0.200 F 
ATOM    103  F   UNL A   1      45.317  36.119  28.242  1.00  0.00    -0.200 F 
ENDBRANCH  69  93
BRANCH  81 104
ATOM    104  C   UNL A   1      37.480  33.168  33.931  1.00  0.00     0.064 A 
ATOM    105  C   UNL A   1      36.391  33.704  33.223  1.00  0.00     0.173 A 
ATOM    106  C   UNL A   1      37.768  31.810  33.728  1.00  0.00     0.173 A 
ATOM    107  F   UNL A   1      36.111  35.013  33.270  1.00  0.00    -0.203 F 
ATOM    108  C   UNL A   1      35.601  32.909  32.394  1.00  0.00     0.198 A 
ATOM    109  C   UNL A   1      37.003  31.027  32.867  1.00  0.00     0.198 A 
ATOM    110  F   UNL A   1      38.829  31.250  34.331  1.00  0.00    -0.203 F 
ATOM    111  F   UNL A   1      34.558  33.445  31.743  1.00  0.00    -0.200 F 
ATOM    112  C   UNL A   1      35.913  31.573  32.210  1.00  0.00     0.200 A 
ATOM    113  F   UNL A   1      37.341  29.748  32.652  1.00  0.00    -0.200 F 
ATOM    114  F   UNL A   1      35.182  30.818  31.379  1.00  0.00    -0.200 F 
ENDBRANCH  81 104
ENDBRANCH  55  56
ENDBRANCH  48  50
ENDBRANCH  47  48
ENDBRANCH  46  47
ENDBRANCH  45  46
ENDBRANCH  44  45
ENDBRANCH  43  44
ENDBRANCH  42  43
ENDBRANCH  41  42
ENDBRANCH  40  41
ENDBRANCH   1  40
TORSDOF 28
ENDMDL
MODEL 2
REMARK VINA RESULT:      -9.3      7.575     14.163
REMARK SMILES NS(=O)(=O)c1ccc(-n2nc(NC(=O)NCCCC(=O)OCCOCCOCCOCCOC(=O)c3ccc(-c4c5nc(c(-c6c(F)c(F)c(F)c(F)c6F)c6ccc([nH]6)c(-c6c(F)c(F)c(F)c(F)c6F)c6nc(c(-c7c(F)c(F)c(F)c(F)c7F)c7ccc4[nH]7)C=C6)C=C5)cc3)cc2-c2ccccc2)cc1
REMARK SMILES IDX 25 1 24 2 23 3 22 4 21 5 19 6 20 7 18 8 17 9 16 10 15 11
REMARK SMILES IDX 12 12 13 13 14 15 11 17 9 18 10 19 100 20 99 21 8 22 5 23
REMARK SMILES IDX 6 24 108 25 7 26 107 27 2 28 3 29 4 30 1 31 101 34 102 35
REMARK SMILES IDX 106 36 103 37 105 38 104 39 26 40 27 41 28 42 29 43 30 44
REMARK SMILES IDX 31 45 32 46 33 47 34 48 35 49 36 50 37 51 98 52 38 53 97 54
REMARK SMILES IDX 39 55 40 56 41 57 91 58 42 59 96 60 90 61 92 62 43 63 95 64
REMARK SMILES IDX 89 65 88 66 44 68 76 69 56 70 75 71 57 72 60 73 74 74 93 75
REMARK SMILES IDX 58 76 59 77 73 79 94 80 61 81 45 82 46 83 54 84 47 85 48 86
REMARK SMILES IDX 52 87 55 88 49 89 50 90 53 91 51 92 77 93 78 94 86 95 79 96
REMARK SMILES IDX 80 97 84 98 87 99 81 100 82 101 85 102 83 103 62 104 63 105
REMARK SMILES IDX 71 106 64 107 65 108 69 109 72 110 66 111 67 112 70 113
REMARK SMILES IDX 68 114
REMARK H PARENT 12 14 15 16 1 32 1 33 92 67 60 78
REMARK Flexibility Score: inf
ROOT
ATOM      1  C   UNL A   1      49.983  33.292  26.150  1.00  0.00     0.188 C 
ENDROOT
BRANCH   1   2
ATOM      2  O   UNL A   1      50.429  33.944  24.967  1.00  0.00    -0.376 OA
BRANCH   2   3
ATOM      3  C   UNL A   1      51.067  35.206  25.071  1.00  0.00     0.202 C 
BRANCH   3   4
ATOM      4  C   UNL A   1      50.128  36.420  24.940  1.00  0.00     0.261 C 
BRANCH   4   5
ATOM      5  O   UNL A   1      49.451  36.841  26.140  1.00  0.00    -0.463 OA
BRANCH   5   6
ATOM      6  C   UNL A   1      49.705  38.112  26.546  1.00  0.00     0.305 C 
ATOM      7  O   UNL A   1      50.821  38.567  26.767  1.00  0.00    -0.252 OA
BRANCH   6   8
ATOM      8  C   UNL A   1      48.442  38.902  26.823  1.00  0.00     0.124 C 
BRANCH   8   9
ATOM      9  C   UNL A   1      47.236  38.755  25.896  1.00  0.00     0.033 C 
BRANCH   9  10
ATOM     10  C   UNL A   1      46.179  39.863  25.844  1.00  0.00     0.118 C 
BRANCH  10  11
ATOM     11  N   UNL A   1      44.841  39.458  26.169  1.00  0.00    -0.338 N 
ATOM     12  N   UNL A   1      43.665  41.521  26.392  1.00  0.00    -0.291 N 
ATOM     13  C   UNL A   1      43.728  40.182  26.338  1.00  0.00     0.320 C 
ATOM     14  H   UNL A   1      42.812  41.821  26.782  1.00  0.00     0.173 HD
ATOM     15  O   UNL A   1      42.689  39.555  26.583  1.00  0.00    -0.248 OA
ATOM     16  H   UNL A   1      44.723  38.487  26.288  1.00  0.00     0.165 HD
BRANCH  12  17
ATOM     17  C   UNL A   1      44.463  42.593  26.051  1.00  0.00     0.157 A 
ATOM     18  N   UNL A   1      45.784  44.297  25.994  1.00  0.00    -0.231 N 
ATOM     19  N   UNL A   1      45.297  43.313  26.813  1.00  0.00    -0.149 NA
ATOM     20  C   UNL A   1      45.347  44.124  24.680  1.00  0.00     0.076 A 
ATOM     21  C   UNL A   1      44.535  43.011  24.707  1.00  0.00     0.078 A 
BRANCH  18  22
ATOM     22  C   UNL A   1      46.602  45.339  26.545  1.00  0.00     0.065 A 
ATOM     23  C   UNL A   1      48.692  47.903  28.043  1.00  0.00     0.082 A 
ATOM     24  C   UNL A   1      46.892  47.947  28.248  1.00  0.00     0.024 A 
ATOM     25  C   UNL A   1      49.453  46.582  27.043  1.00  0.00     0.024 A 
ATOM     26  C   UNL A   1      45.859  46.687  27.458  1.00  0.00     0.030 A 
ATOM     27  C   UNL A   1      48.401  45.267  26.342  1.00  0.00     0.030 A 
BRANCH  23  28
ATOM     28  S   UNL A   1      49.605  49.267  28.691  1.00  0.00     0.238 S 
ATOM     29  O   UNL A   1      48.737  50.420  28.648  1.00  0.00    -0.207 OA
ATOM     30  O   UNL A   1      50.937  49.246  28.133  1.00  0.00    -0.207 OA
BRANCH  28  31
ATOM     31  N   UNL A   1      49.813  48.900  30.318  1.00  0.00    -0.225 NA
ATOM     32  H   UNL A   1      50.268  49.681  30.788  1.00  0.00     0.137 HD
ATOM     33  H   UNL A   1      50.393  48.065  30.408  1.00  0.00     0.137 HD
ENDBRANCH  28  31
ENDBRANCH  23  28
ENDBRANCH  18  22
BRANCH  20  34
ATOM     34  C   UNL A   1      45.836  44.805  23.486  1.00  0.00     0.000 A 
ATOM     35  C   UNL A   1      44.983  45.667  22.793  1.00  0.00     0.010 A 
ATOM     36  C   UNL A   1      47.158  44.689  23.059  1.00  0.00     0.010 A 
ATOM     37  C   UNL A   1      45.368  46.249  21.590  1.00  0.00     0.001 A 
ATOM     38  C   UNL A   1      47.563  45.303  21.869  1.00  0.00     0.001 A 
ATOM     39  C   UNL A   1      46.656  46.044  21.112  1.00  0.00     0.000 A 
ENDBRANCH  20  34
ENDBRANCH  12  17
ENDBRANCH  10  11
ENDBRANCH   9  10
ENDBRANCH   8   9
ENDBRANCH   6   8
ENDBRANCH   5   6
ENDBRANCH   4   5
ENDBRANCH   3   4
ENDBRANCH   2   3
ENDBRANCH   1   2
BRANCH   1  40
ATOM     40  C   UNL A   1      50.711  32.039  26.638  1.00  0.00     0.188 C 
BRANCH  40  41
ATOM     41  O   UNL A   1      50.241  30.775  26.238  1.00  0.00    -0.377 OA
BRANCH  41  42
ATOM     42  C   UNL A   1      49.537  29.948  27.139  1.00  0.00     0.188 C 
BRANCH  42  43
ATOM     43  C   UNL A   1      48.603  28.849  26.627  1.00  0.00     0.188 C 
BRANCH  43  44
ATOM     44  O   UNL A   1      47.523  29.124  25.736  1.00  0.00    -0.376 OA
BRANCH  44  45
ATOM     45  C   UNL A   1      46.319  28.376  25.569  1.00  0.00     0.202 C 
BRANCH  45  46
ATOM     46  C   UNL A   1      46.294  26.735  25.192  1.00  0.00     0.261 C 
BRANCH  46  47
ATOM     47  O   UNL A   1      44.844  25.356  25.501  1.00  0.00    -0.460 OA
BRANCH  47  48
ATOM     48  C   UNL A   1      43.639  24.635  25.318  1.00  0.00     0.338 C 
ATOM     49  O   UNL A   1      43.443  23.625  24.645  1.00  0.00    -0.246 OA
BRANCH  48  50
ATOM     50  C   UNL A   1      42.610  25.049  26.278  1.00  0.00     0.060 A 
ATOM     51  C   UNL A   1      41.505  25.795  25.855  1.00  0.00     0.016 A 
ATOM     52  C   UNL A   1      42.900  24.905  27.617  1.00  0.00     0.016 A 
ATOM     53  C   UNL A   1      40.900  26.640  26.770  1.00  0.00     0.010 A 
ATOM     54  C   UNL A   1      42.279  25.696  28.530  1.00  0.00     0.010 A 
ATOM     55  C   UNL A   1      41.433  26.684  28.057  1.00  0.00    -0.014 A 
BRANCH  55  56
ATOM     56  C   UNL A   1      41.461  27.922  28.810  1.00  0.00     0.031 A 
ATOM     57  C   UNL A   1      42.462  28.926  28.414  1.00  0.00     0.074 A 
ATOM     58  C   UNL A   1      40.404  28.288  29.564  1.00  0.00     0.049 A 
ATOM     59  N   UNL A   1      43.576  29.163  29.015  1.00  0.00    -0.248 NA
ATOM     60  C   UNL A   1      42.291  29.664  27.153  1.00  0.00     0.031 C 
ATOM     61  C   UNL A   1      39.100  27.634  29.714  1.00  0.00     0.029 A 
ATOM     62  N   UNL A   1      40.262  29.427  30.291  1.00  0.00    -0.354 N 
ATOM     63  C   UNL A   1      44.151  30.210  28.313  1.00  0.00     0.074 A 
ATOM     64  C   UNL A   1      43.480  30.258  27.044  1.00  0.00     0.031 C 
ATOM     65  C   UNL A   1      38.248  28.479  30.344  1.00  0.00     0.029 A 
ATOM     66  C   UNL A   1      38.974  29.672  30.743  1.00  0.00     0.049 A 
ATOM     67  H   UNL A   1      41.015  30.031  30.483  1.00  0.00     0.167 HD
ATOM     68  C   UNL A   1      44.915  31.146  28.936  1.00  0.00     0.037 A 
ATOM     69  C   UNL A   1      38.556  30.810  31.352  1.00  0.00     0.037 A 
ATOM     70  C   UNL A   1      45.223  30.752  30.292  1.00  0.00     0.049 A 
ATOM     71  C   UNL A   1      39.773  31.502  31.867  1.00  0.00     0.074 A 
ATOM     72  C   UNL A   1      45.767  29.616  30.864  1.00  0.00     0.029 A 
ATOM     73  N   UNL A   1      44.583  31.406  31.321  1.00  0.00    -0.354 N 
ATOM     74  N   UNL A   1      40.502  31.065  32.858  1.00  0.00    -0.248 NA
ATOM     75  C   UNL A   1      40.431  32.469  30.997  1.00  0.00     0.031 C 
ATOM     76  C   UNL A   1      45.006  29.396  32.051  1.00  0.00     0.029 A 
ATOM     77  C   UNL A   1      44.092  30.443  32.168  1.00  0.00     0.049 A 
ATOM     78  H   UNL A   1      44.494  32.381  31.430  1.00  0.00     0.167 HD
ATOM     79  C   UNL A   1      41.807  31.352  32.491  1.00  0.00     0.074 A 
ATOM     80  C   UNL A   1      41.695  32.318  31.403  1.00  0.00     0.031 C 
ATOM     81  C   UNL A   1      42.847  30.563  32.894  1.00  0.00     0.037 A 
BRANCH  68  82
ATOM     82  C   UNL A   1      45.105  32.556  28.441  1.00  0.00     0.064 A 
ATOM     83  C   UNL A   1      46.415  33.045  28.284  1.00  0.00     0.173 A 
ATOM     84  C   UNL A   1      44.079  33.520  28.326  1.00  0.00     0.173 A 
ATOM     85  F   UNL A   1      47.468  32.224  28.413  1.00  0.00    -0.203 F 
ATOM     86  C   UNL A   1      46.677  34.400  28.072  1.00  0.00     0.198 A 
ATOM     87  C   UNL A   1      44.340  34.858  28.039  1.00  0.00     0.198 A 
ATOM     88  F   UNL A   1      42.798  33.243  28.594  1.00  0.00    -0.203 F 
ATOM     89  F   UNL A   1      47.943  34.834  28.051  1.00  0.00    -0.200 F 
ATOM     90  C   UNL A   1      45.640  35.304  27.942  1.00  0.00     0.200 A 
ATOM     91  F   UNL A   1      43.319  35.721  27.936  1.00  0.00    -0.200 F 
ATOM     92  F   UNL A   1      45.889  36.610  27.779  1.00  0.00    -0.200 F 
ENDBRANCH  68  82
BRANCH  69  93
ATOM     93  C   UNL A   1      37.217  31.445  31.360  1.00  0.00     0.064 A 
ATOM     94  C   UNL A   1      36.563  31.725  32.573  1.00  0.00     0.173 A 
ATOM     95  C   UNL A   1      36.656  32.027  30.206  1.00  0.00     0.173 A 
ATOM     96  F   UNL A   1      37.050  31.249  33.728  1.00  0.00    -0.203 F 
ATOM     97  C   UNL A   1      35.441  32.557  32.632  1.00  0.00     0.198 A 
ATOM     98  C   UNL A   1      35.526  32.845  30.264  1.00  0.00     0.198 A 
ATOM     99  F   UNL A   1      37.245  31.894  29.010  1.00  0.00    -0.203 F 
ATOM    100  F   UNL A   1      34.893  32.855  33.818  1.00  0.00    -0.200 F 
ATOM    101  C   UNL A   1      34.928  33.124  31.478  1.00  0.00     0.200 A 
ATOM    102  F   UNL A   1      35.059  33.412  29.142  1.00  0.00    -0.200 F 
ATOM    103  F   UNL A   1      33.888  33.966  31.540  1.00  0.00    -0.200 F 
ENDBRANCH  69  93
BRANCH  81 104
ATOM    104  C   UNL A   1      42.602  29.557  33.987  1.00  0.00     0.064 A 
ATOM    105  C   UNL A   1      42.033  28.289  33.780  1.00  0.00     0.173 A 
ATOM    106  C   UNL A   1      43.103  29.832  35.269  1.00  0.00     0.173 A 
ATOM    107  F   UNL A   1      41.630  27.901  32.564  1.00  0.00    -0.203 F 
ATOM    108  C   UNL A   1      41.926  27.364  34.818  1.00  0.00     0.198 A 
ATOM    109  C   UNL A   1      43.033  28.890  36.292  1.00  0.00     0.198 A 
ATOM    110  F   UNL A   1      43.709  31.004  35.516  1.00  0.00    -0.203 F 
ATOM    111  F   UNL A   1      41.363  26.167  34.595  1.00  0.00    -0.200 F 
ATOM    112  C   UNL A   1      42.434  27.662  36.070  1.00  0.00     0.200 A 
ATOM    113  F   UNL A   1      43.573  29.165  37.487  1.00  0.00    -0.200 F 
ATOM    114  F   UNL A   1      42.372  26.756  37.056  1.00  0.00    -0.200 F 
ENDBRANCH  81 104
ENDBRANCH  55  56
ENDBRANCH  48  50
ENDBRANCH  47  48
ENDBRANCH  46  47
ENDBRANCH  45  46
ENDBRANCH  44  45
ENDBRANCH  43  44
ENDBRANCH  42  43
ENDBRANCH  41  42
ENDBRANCH  40  41
ENDBRANCH   1  40
TORSDOF 28
ENDMDL
MODEL 3
REMARK VINA RESULT:      -8.9      5.150     10.452
REMARK SMILES NS(=O)(=O)c1ccc(-n2nc(NC(=O)NCCCC(=O)OCCOCCOCCOCCOC(=O)c3ccc(-c4c5nc(c(-c6c(F)c(F)c(F)c(F)c6F)c6ccc([nH]6)c(-c6c(F)c(F)c(F)c(F)c6F)c6nc(c(-c7c(F)c(F)c(F)c(F)c7F)c7ccc4[nH]7)C=C6)C=C5)cc3)cc2-c2ccccc2)cc1
REMARK SMILES IDX 25 1 24 2 23 3 22 4 21 5 19 6 20 7 18 8 17 9 16 10 15 11
REMARK SMILES IDX 12 12 13 13 14 15 11 17 9 18 10 19 100 20 99 21 8 22 5 23
REMARK SMILES IDX 6 24 108 25 7 26 107 27 2 28 3 29 4 30 1 31 101 34 102 35
REMARK SMILES IDX 106 36 103 37 105 38 104 39 26 40 27 41 28 42 29 43 30 44
REMARK SMILES IDX 31 45 32 46 33 47 34 48 35 49 36 50 37 51 98 52 38 53 97 54
REMARK SMILES IDX 39 55 40 56 41 57 91 58 42 59 96 60 90 61 92 62 43 63 95 64
REMARK SMILES IDX 89 65 88 66 44 68 76 69 56 70 75 71 57 72 60 73 74 74 93 75
REMARK SMILES IDX 58 76 59 77 73 79 94 80 61 81 45 82 46 83 54 84 47 85 48 86
REMARK SMILES IDX 52 87 55 88 49 89 50 90 53 91 51 92 77 93 78 94 86 95 79 96
REMARK SMILES IDX 80 97 84 98 87 99 81 100 82 101 85 102 83 103 62 104 63 105
REMARK SMILES IDX 71 106 64 107 65 108 69 109 72 110 66 111 67 112 70 113
REMARK SMILES IDX 68 114
REMARK H PARENT 12 14 15 16 1 32 1 33 92 67 60 78
REMARK Flexibility Score: inf
ROOT
ATOM      1  C   UNL A   1      42.155  28.848  33.719  1.00  0.00     0.188 C 
ENDROOT
BRANCH   1   2
ATOM      2  O   UNL A   1      41.821  28.498  32.381  1.00  0.00    -0.376 OA
BRANCH   2   3
ATOM      3  C   UNL A   1      41.246  29.478  31.532  1.00  0.00     0.202 C 
BRANCH   3   4
ATOM      4  C   UNL A   1      40.908  28.988  30.113  1.00  0.00     0.261 C 
BRANCH   4   5
ATOM      5  O   UNL A   1      39.561  29.216  29.657  1.00  0.00    -0.463 OA
BRANCH   5   6
ATOM      6  C   UNL A   1      38.977  28.180  29.000  1.00  0.00     0.305 C 
ATOM      7  O   UNL A   1      39.275  27.000  29.146  1.00  0.00    -0.252 OA
BRANCH   6   8
ATOM      8  C   UNL A   1      37.981  28.638  27.953  1.00  0.00     0.124 C 
BRANCH   8   9
ATOM      9  C   UNL A   1      37.507  30.090  27.939  1.00  0.00     0.033 C 
BRANCH   9  10
ATOM     10  C   UNL A   1      36.008  30.398  27.869  1.00  0.00     0.118 C 
BRANCH  10  11
ATOM     11  N   UNL A   1      35.571  31.524  28.643  1.00  0.00    -0.338 N 
ATOM     12  N   UNL A   1      33.324  31.867  27.921  1.00  0.00    -0.291 N 
ATOM     13  C   UNL A   1      34.374  32.120  28.715  1.00  0.00     0.320 C 
ATOM     14  H   UNL A   1      32.656  32.589  27.974  1.00  0.00     0.173 HD
ATOM     15  O   UNL A   1      34.272  33.066  29.507  1.00  0.00    -0.248 OA
ATOM     16  H   UNL A   1      36.266  31.925  29.214  1.00  0.00     0.165 HD
BRANCH  12  17
ATOM     17  C   UNL A   1      32.919  30.875  27.052  1.00  0.00     0.157 A 
ATOM     18  N   UNL A   1      32.667  29.090  25.869  1.00  0.00    -0.231 N 
ATOM     19  N   UNL A   1      33.362  29.617  26.925  1.00  0.00    -0.149 NA
ATOM     20  C   UNL A   1      31.698  29.980  25.404  1.00  0.00     0.076 A 
ATOM     21  C   UNL A   1      31.830  31.107  26.187  1.00  0.00     0.078 A 
BRANCH  18  22
ATOM     22  C   UNL A   1      33.011  27.788  25.373  1.00  0.00     0.065 A 
ATOM     23  C   UNL A   1      33.775  24.492  24.053  1.00  0.00     0.082 A 
ATOM     24  C   UNL A   1      32.935  24.673  25.649  1.00  0.00     0.024 A 
ATOM     25  C   UNL A   1      34.274  25.980  23.124  1.00  0.00     0.024 A 
ATOM     26  C   UNL A   1      32.601  26.322  26.315  1.00  0.00     0.030 A 
ATOM     27  C   UNL A   1      33.836  27.630  23.768  1.00  0.00     0.030 A 
BRANCH  23  28
ATOM     28  S   UNL A   1      34.224  22.858  23.564  1.00  0.00     0.238 S 
ATOM     29  O   UNL A   1      35.216  22.983  22.523  1.00  0.00    -0.207 OA
ATOM     30  O   UNL A   1      33.025  22.062  23.436  1.00  0.00    -0.207 OA
BRANCH  28  31
ATOM     31  N   UNL A   1      35.024  22.223  24.899  1.00  0.00    -0.225 NA
ATOM     32  H   UNL A   1      34.531  22.489  25.750  1.00  0.00     0.137 HD
ATOM     33  H   UNL A   1      35.977  22.588  24.930  1.00  0.00     0.137 HD
ENDBRANCH  28  31
ENDBRANCH  23  28
ENDBRANCH  18  22
BRANCH  20  34
ATOM     34  C   UNL A   1      30.609  29.700  24.475  1.00  0.00     0.000 A 
ATOM     35  C   UNL A   1      29.792  30.748  24.045  1.00  0.00     0.010 A 
ATOM     36  C   UNL A   1      30.409  28.432  23.932  1.00  0.00     0.010 A 
ATOM     37  C   UNL A   1      28.675  30.511  23.250  1.00  0.00     0.001 A 
ATOM     38  C   UNL A   1      29.309  28.194  23.101  1.00  0.00     0.001 A 
ATOM     39  C   UNL A   1      28.417  29.224  22.797  1.00  0.00     0.000 A 
ENDBRANCH  20  34
ENDBRANCH  12  17
ENDBRANCH  10  11
ENDBRANCH   9  10
ENDBRANCH   8   9
ENDBRANCH   6   8
ENDBRANCH   5   6
ENDBRANCH   4   5
ENDBRANCH   3   4
ENDBRANCH   2   3
ENDBRANCH   1   2
BRANCH   1  40
ATOM     40  C   UNL A   1      41.475  28.120  34.879  1.00  0.00     0.188 C 
BRANCH  40  41
ATOM     41  O   UNL A   1      41.280  26.730  34.794  1.00  0.00    -0.377 OA
BRANCH  41  42
ATOM     42  C   UNL A   1      41.766  25.869  35.800  1.00  0.00     0.188 C 
BRANCH  42  43
ATOM     43  C   UNL A   1      42.933  24.918  35.521  1.00  0.00     0.188 C 
BRANCH  43  44
ATOM     44  O   UNL A   1      42.822  23.829  34.604  1.00  0.00    -0.376 OA
BRANCH  44  45
ATOM     45  C   UNL A   1      43.636  22.659  34.540  1.00  0.00     0.202 C 
BRANCH  45  46
ATOM     46  C   UNL A   1      45.189  22.574  35.185  1.00  0.00     0.261 C 
BRANCH  46  47
ATOM     47  O   UNL A   1      46.422  24.058  35.797  1.00  0.00    -0.460 OA
BRANCH  47  48
ATOM     48  C   UNL A   1      46.839  25.335  36.247  1.00  0.00     0.338 C 
ATOM     49  O   UNL A   1      46.707  25.838  37.361  1.00  0.00    -0.246 OA
BRANCH  48  50
ATOM     50  C   UNL A   1      47.757  25.970  35.295  1.00  0.00     0.060 A 
ATOM     51  C   UNL A   1      47.669  27.341  35.032  1.00  0.00     0.016 A 
ATOM     52  C   UNL A   1      48.514  25.141  34.497  1.00  0.00     0.016 A 
ATOM     53  C   UNL A   1      48.085  27.795  33.792  1.00  0.00     0.010 A 
ATOM     54  C   UNL A   1      48.968  25.590  33.298  1.00  0.00     0.010 A 
ATOM     55  C   UNL A   1      48.571  26.851  32.889  1.00  0.00    -0.014 A 
BRANCH  55  56
ATOM     56  C   UNL A   1      48.321  26.981  31.468  1.00  0.00     0.031 A 
ATOM     57  C   UNL A   1      49.491  27.171  30.595  1.00  0.00     0.074 A 
ATOM     58  C   UNL A   1      47.147  26.576  30.940  1.00  0.00     0.049 A 
ATOM     59  N   UNL A   1      49.881  28.286  30.081  1.00  0.00    -0.248 NA
ATOM     60  C   UNL A   1      50.412  26.047  30.359  1.00  0.00     0.031 C 
ATOM     61  C   UNL A   1      46.016  25.910  31.595  1.00  0.00     0.029 A 
ATOM     62  N   UNL A   1      46.779  26.594  29.633  1.00  0.00    -0.354 N 
ATOM     63  C   UNL A   1      50.983  27.963  29.307  1.00  0.00     0.074 A 
ATOM     64  C   UNL A   1      51.423  26.671  29.755  1.00  0.00     0.031 C 
ATOM     65  C   UNL A   1      45.169  25.438  30.648  1.00  0.00     0.029 A 
ATOM     66  C   UNL A   1      45.635  25.869  29.340  1.00  0.00     0.049 A 
ATOM     67  H   UNL A   1      47.285  27.085  28.946  1.00  0.00     0.167 HD
ATOM     68  C   UNL A   1      51.263  28.635  28.158  1.00  0.00     0.037 A 
ATOM     69  C   UNL A   1      45.160  25.613  28.095  1.00  0.00     0.037 A 
ATOM     70  C   UNL A   1      50.441  29.817  28.030  1.00  0.00     0.049 A 
ATOM     71  C   UNL A   1      45.774  26.618  27.180  1.00  0.00     0.074 A 
ATOM     72  C   UNL A   1      50.175  30.898  28.852  1.00  0.00     0.029 A 
ATOM     73  N   UNL A   1      49.420  29.803  27.107  1.00  0.00    -0.354 N 
ATOM     74  N   UNL A   1      45.487  27.891  27.188  1.00  0.00    -0.248 NA
ATOM     75  C   UNL A   1      47.034  26.274  26.532  1.00  0.00     0.031 C 
ATOM     76  C   UNL A   1      48.779  31.147  28.698  1.00  0.00     0.029 A 
ATOM     77  C   UNL A   1      48.291  30.252  27.746  1.00  0.00     0.049 A 
ATOM     78  H   UNL A   1      49.487  29.523  26.165  1.00  0.00     0.167 HD
ATOM     79  C   UNL A   1      46.695  28.529  26.951  1.00  0.00     0.074 A 
ATOM     80  C   UNL A   1      47.581  27.489  26.438  1.00  0.00     0.031 C 
ATOM     81  C   UNL A   1      46.958  29.764  27.471  1.00  0.00     0.037 A 
BRANCH  68  82
ATOM     82  C   UNL A   1      52.034  28.055  27.000  1.00  0.00     0.064 A 
ATOM     83  C   UNL A   1      51.607  26.833  26.451  1.00  0.00     0.173 A 
ATOM     84  C   UNL A   1      53.290  28.519  26.550  1.00  0.00     0.173 A 
ATOM     85  F   UNL A   1      50.448  26.281  26.838  1.00  0.00    -0.203 F 
ATOM     86  C   UNL A   1      52.396  26.112  25.553  1.00  0.00     0.198 A 
ATOM     87  C   UNL A   1      54.041  27.834  25.598  1.00  0.00     0.198 A 
ATOM     88  F   UNL A   1      53.898  29.584  27.085  1.00  0.00    -0.203 F 
ATOM     89  F   UNL A   1      52.001  24.897  25.153  1.00  0.00    -0.200 F 
ATOM     90  C   UNL A   1      53.609  26.615  25.121  1.00  0.00     0.200 A 
ATOM     91  F   UNL A   1      55.223  28.332  25.207  1.00  0.00    -0.200 F 
ATOM     92  F   UNL A   1      54.385  25.907  24.292  1.00  0.00    -0.200 F 
ENDBRANCH  68  82
BRANCH  69  93
ATOM     93  C   UNL A   1      44.372  24.460  27.598  1.00  0.00     0.064 A 
ATOM     94  C   UNL A   1      42.976  24.555  27.453  1.00  0.00     0.173 A 
ATOM     95  C   UNL A   1      44.981  23.334  27.010  1.00  0.00     0.173 A 
ATOM     96  F   UNL A   1      42.316  25.614  27.943  1.00  0.00    -0.203 F 
ATOM     97  C   UNL A   1      42.242  23.601  26.741  1.00  0.00     0.198 A 
ATOM     98  C   UNL A   1      44.245  22.374  26.313  1.00  0.00     0.198 A 
ATOM     99  F   UNL A   1      46.312  23.186  27.017  1.00  0.00    -0.203 F 
ATOM    100  F   UNL A   1      40.924  23.768  26.566  1.00  0.00    -0.200 F 
ATOM    101  C   UNL A   1      42.879  22.515  26.164  1.00  0.00     0.200 A 
ATOM    102  F   UNL A   1      44.878  21.344  25.734  1.00  0.00    -0.200 F 
ATOM    103  F   UNL A   1      42.185  21.632  25.434  1.00  0.00    -0.200 F 
ENDBRANCH  69  93
BRANCH  81 104
ATOM    104  C   UNL A   1      45.815  30.558  28.047  1.00  0.00     0.064 A 
ATOM    105  C   UNL A   1      45.394  30.479  29.385  1.00  0.00     0.173 A 
ATOM    106  C   UNL A   1      45.224  31.548  27.247  1.00  0.00     0.173 A 
ATOM    107  F   UNL A   1      45.981  29.640  30.248  1.00  0.00    -0.203 F 
ATOM    108  C   UNL A   1      44.395  31.315  29.882  1.00  0.00     0.198 A 
ATOM    109  C   UNL A   1      44.258  32.410  27.758  1.00  0.00     0.198 A 
ATOM    110  F   UNL A   1      45.624  31.712  25.976  1.00  0.00    -0.203 F 
ATOM    111  F   UNL A   1      44.002  31.206  31.160  1.00  0.00    -0.200 F 
ATOM    112  C   UNL A   1      43.834  32.286  29.070  1.00  0.00     0.200 A 
ATOM    113  F   UNL A   1      43.756  33.382  26.982  1.00  0.00    -0.200 F 
ATOM    114  F   UNL A   1      42.906  33.120  29.559  1.00  0.00    -0.200 F 
ENDBRANCH  81 104
ENDBRANCH  55  56
ENDBRANCH  48  50
ENDBRANCH  47  48
ENDBRANCH  46  47
ENDBRANCH  45  46
ENDBRANCH  44  45
ENDBRANCH  43  44
ENDBRANCH  42  43
ENDBRANCH  41  42
ENDBRANCH  40  41
ENDBRANCH   1  40
TORSDOF 28
ENDMDL
