MODEL 1
REMARK VINA RESULT:     -11.0      0.000      0.000
REMARK SMILES Cc1sc(NC(=O)[C@@H]2CC=CC[C@H]2C(=O)OCCOCCOCCOCCOC(=O)c2ccc(-c3c4nc(c(-c5c(F)c(F)c(F)c(F)c5F)c5ccc([nH]5)c(-c5c(F)c(F)c(F)c(F)c5F)c5nc(c(-c6c(F)c(F)c(F)c(F)c6F)c6ccc3[nH]6)C=C5)C=C4)cc2)nc1-c1ccc(C(C)C)cc1
REMARK SMILES IDX 21 1 20 2 19 3 18 4 17 5 16 6 14 7 15 8 13 9 8 10 9 11 10 12
REMARK SMILES IDX 12 13 11 14 6 15 5 16 7 18 4 19 1 20 2 21 3 22 95 23 94 24
REMARK SMILES IDX 96 25 97 26 104 27 98 28 103 29 99 30 100 31 101 32 102 33
REMARK SMILES IDX 22 34 23 35 24 36 25 37 26 38 27 39 28 40 29 41 30 42 31 43
REMARK SMILES IDX 32 44 93 45 33 46 92 47 34 48 35 49 36 50 86 51 37 52 91 53
REMARK SMILES IDX 85 54 87 55 38 56 90 57 84 58 83 59 39 61 71 62 51 63 70 64
REMARK SMILES IDX 52 65 55 66 69 67 88 68 53 69 54 70 68 72 89 73 56 74 40 75
REMARK SMILES IDX 41 76 49 77 42 78 43 79 47 80 50 81 44 82 45 83 48 84 46 85
REMARK SMILES IDX 72 86 73 87 81 88 74 89 75 90 79 91 82 92 76 93 77 94 80 95
REMARK SMILES IDX 78 96 57 97 58 98 66 99 59 100 60 101 64 102 67 103 61 104
REMARK SMILES IDX 62 105 65 106 63 107
REMARK H PARENT 5 17 87 60 55 71
REMARK Flexibility Score: inf
ROOT
ATOM      1  C   UNL A   1      34.226  30.085  27.348  1.00  0.00     0.188 C 
ENDROOT
BRANCH   1   2
ATOM      2  C   UNL A   1      33.997  28.576  27.216  1.00  0.00     0.188 C 
BRANCH   2   3
ATOM      3  O   UNL A   1      32.629  28.188  27.067  1.00  0.00    -0.376 OA
BRANCH   3   4
ATOM      4  C   UNL A   1      32.357  27.141  26.136  1.00  0.00     0.202 C 
BRANCH   4   5
ATOM      5  C   UNL A   1      31.145  26.263  26.453  1.00  0.00     0.261 C 
BRANCH   5   6
ATOM      6  O   UNL A   1      31.096  25.025  25.695  1.00  0.00    -0.463 OA
BRANCH   6   7
ATOM      7  C   UNL A   1      31.184  23.903  26.449  1.00  0.00     0.310 C 
ATOM      8  O   UNL A   1      30.309  23.580  27.251  1.00  0.00    -0.252 OA
BRANCH   7   9
ATOM      9  C   UNL A   1      32.375  22.980  26.166  1.00  0.00     0.116 C 
ATOM     10  C   UNL A   1      33.107  22.888  24.808  1.00  0.00     0.097 C 
ATOM     11  C   UNL A   1      34.185  21.768  24.914  1.00  0.00     0.041 C 
ATOM     12  C   UNL A   1      35.112  21.982  26.071  1.00  0.00    -0.030 C 
ATOM     13  C   UNL A   1      33.439  23.421  27.220  1.00  0.00     0.043 C 
ATOM     14  C   UNL A   1      34.779  22.761  27.105  1.00  0.00    -0.030 C 
BRANCH  10  15
ATOM     15  C   UNL A   1      32.291  22.573  23.568  1.00  0.00     0.230 C 
ATOM     16  N   UNL A   1      32.116  23.437  22.537  1.00  0.00    -0.302 N 
ATOM     17  H   UNL A   1      31.806  23.005  21.708  1.00  0.00     0.172 HD
ATOM     18  O   UNL A   1      31.782  21.450  23.435  1.00  0.00    -0.274 OA
BRANCH  16  19
ATOM     19  C   UNL A   1      32.283  24.785  22.421  1.00  0.00     0.190 A 
ATOM     20  C   UNL A   1      33.741  28.235  23.261  1.00  0.00     0.059 C 
ATOM     21  C   UNL A   1      32.974  27.062  22.769  1.00  0.00     0.031 A 
ATOM     22  S   UNL A   1      33.779  25.570  22.562  1.00  0.00    -0.101 S 
ATOM     23  C   UNL A   1      31.636  26.884  22.463  1.00  0.00     0.086 A 
ATOM     24  N   UNL A   1      31.259  25.577  22.204  1.00  0.00    -0.220 NA
BRANCH  23  25
ATOM     25  C   UNL A   1      30.654  27.950  22.479  1.00  0.00     0.001 A 
ATOM     26  C   UNL A   1      29.429  27.779  23.125  1.00  0.00     0.011 A 
ATOM     27  C   UNL A   1      30.931  29.162  21.846  1.00  0.00     0.011 A 
ATOM     28  C   UNL A   1      28.492  28.816  23.143  1.00  0.00     0.004 A 
ATOM     29  C   UNL A   1      29.987  30.186  21.834  1.00  0.00     0.004 A 
ATOM     30  C   UNL A   1      28.756  30.026  22.483  1.00  0.00    -0.045 A 
BRANCH  30  31
ATOM     31  C   UNL A   1      27.768  31.177  22.477  1.00  0.00     0.013 C 
ATOM     32  C   UNL A   1      27.290  31.543  23.884  1.00  0.00     0.012 C 
ATOM     33  C   UNL A   1      28.362  32.389  21.759  1.00  0.00     0.012 C 
ENDBRANCH  30  31
ENDBRANCH  23  25
ENDBRANCH  16  19
ENDBRANCH  10  15
ENDBRANCH   7   9
ENDBRANCH   6   7
ENDBRANCH   5   6
ENDBRANCH   4   5
ENDBRANCH   3   4
ENDBRANCH   2   3
ENDBRANCH   1   2
BRANCH   1  34
ATOM     34  O   UNL A   1      33.042  30.829  27.084  1.00  0.00    -0.377 OA
BRANCH  34  35
ATOM     35  C   UNL A   1      32.917  32.146  27.618  1.00  0.00     0.188 C 
BRANCH  35  36
ATOM     36  C   UNL A   1      34.153  32.874  28.141  1.00  0.00     0.188 C 
BRANCH  36  37
ATOM     37  O   UNL A   1      34.377  34.189  27.642  1.00  0.00    -0.376 OA
BRANCH  37  38
ATOM     38  C   UNL A   1      34.414  35.272  28.570  1.00  0.00     0.202 C 
BRANCH  38  39
ATOM     39  C   UNL A   1      33.056  35.704  29.127  1.00  0.00     0.261 C 
BRANCH  39  40
ATOM     40  O   UNL A   1      32.680  34.947  30.294  1.00  0.00    -0.460 OA
BRANCH  40  41
ATOM     41  C   UNL A   1      32.809  35.588  31.474  1.00  0.00     0.338 C 
ATOM     42  O   UNL A   1      32.110  36.495  31.909  1.00  0.00    -0.246 OA
BRANCH  41  43
ATOM     43  C   UNL A   1      33.906  34.999  32.259  1.00  0.00     0.060 A 
ATOM     44  C   UNL A   1      35.118  35.694  32.340  1.00  0.00     0.016 A 
ATOM     45  C   UNL A   1      33.789  33.706  32.778  1.00  0.00     0.016 A 
ATOM     46  C   UNL A   1      36.241  35.068  32.881  1.00  0.00     0.010 A 
ATOM     47  C   UNL A   1      34.916  33.079  33.311  1.00  0.00     0.010 A 
ATOM     48  C   UNL A   1      36.158  33.738  33.318  1.00  0.00    -0.014 A 
BRANCH  48  49
ATOM     49  C   UNL A   1      37.395  32.983  33.631  1.00  0.00     0.031 A 
ATOM     50  C   UNL A   1      38.071  33.205  34.953  1.00  0.00     0.074 A 
ATOM     51  C   UNL A   1      37.912  32.115  32.747  1.00  0.00     0.049 A 
ATOM     52  N   UNL A   1      39.176  32.681  35.418  1.00  0.00    -0.248 NA
ATOM     53  C   UNL A   1      37.429  34.166  35.864  1.00  0.00     0.031 C 
ATOM     54  C   UNL A   1      37.353  31.836  31.430  1.00  0.00     0.029 A 
ATOM     55  N   UNL A   1      39.022  31.312  32.822  1.00  0.00    -0.354 N 
ATOM     56  C   UNL A   1      39.381  33.271  36.658  1.00  0.00     0.074 A 
ATOM     57  C   UNL A   1      38.289  34.198  36.871  1.00  0.00     0.031 C 
ATOM     58  C   UNL A   1      38.107  30.901  30.830  1.00  0.00     0.029 A 
ATOM     59  C   UNL A   1      39.212  30.534  31.708  1.00  0.00     0.049 A 
ATOM     60  H   UNL A   1      39.625  31.297  33.600  1.00  0.00     0.167 HD
ATOM     61  C   UNL A   1      40.393  33.064  37.532  1.00  0.00     0.037 A 
ATOM     62  C   UNL A   1      40.170  29.629  31.429  1.00  0.00     0.037 A 
ATOM     63  C   UNL A   1      41.468  32.131  37.320  1.00  0.00     0.049 A 
ATOM     64  C   UNL A   1      41.276  29.407  32.425  1.00  0.00     0.074 A 
ATOM     65  C   UNL A   1      42.523  31.822  38.162  1.00  0.00     0.029 A 
ATOM     66  N   UNL A   1      41.628  31.357  36.179  1.00  0.00    -0.354 N 
ATOM     67  N   UNL A   1      41.444  29.944  33.609  1.00  0.00    -0.248 NA
ATOM     68  C   UNL A   1      42.337  28.467  32.036  1.00  0.00     0.031 C 
ATOM     69  C   UNL A   1      43.346  30.897  37.510  1.00  0.00     0.029 A 
ATOM     70  C   UNL A   1      42.777  30.591  36.284  1.00  0.00     0.049 A 
ATOM     71  H   UNL A   1      41.015  31.354  35.408  1.00  0.00     0.167 HD
ATOM     72  C   UNL A   1      42.622  29.407  34.108  1.00  0.00     0.074 A 
ATOM     73  C   UNL A   1      43.113  28.476  33.112  1.00  0.00     0.031 C 
ATOM     74  C   UNL A   1      43.249  29.670  35.282  1.00  0.00     0.037 A 
BRANCH  61  75
ATOM     75  C   UNL A   1      40.408  33.895  38.781  1.00  0.00     0.064 A 
ATOM     76  C   UNL A   1      41.135  35.091  38.869  1.00  0.00     0.173 A 
ATOM     77  C   UNL A   1      39.665  33.494  39.903  1.00  0.00     0.173 A 
ATOM     78  F   UNL A   1      41.874  35.509  37.830  1.00  0.00    -0.203 F 
ATOM     79  C   UNL A   1      41.140  35.842  40.043  1.00  0.00     0.198 A 
ATOM     80  C   UNL A   1      39.649  34.262  41.064  1.00  0.00     0.198 A 
ATOM     81  F   UNL A   1      38.949  32.360  39.870  1.00  0.00    -0.203 F 
ATOM     82  F   UNL A   1      41.880  36.956  40.120  1.00  0.00    -0.200 F 
ATOM     83  C   UNL A   1      40.393  35.430  41.136  1.00  0.00     0.200 A 
ATOM     84  F   UNL A   1      38.918  33.868  42.116  1.00  0.00    -0.200 F 
ATOM     85  F   UNL A   1      40.396  36.156  42.263  1.00  0.00    -0.200 F 
ENDBRANCH  61  75
BRANCH  62  86
ATOM     86  C   UNL A   1      40.121  28.852  30.161  1.00  0.00     0.064 A 
ATOM     87  C   UNL A   1      39.467  27.612  30.109  1.00  0.00     0.173 A 
ATOM     88  C   UNL A   1      40.718  29.322  28.984  1.00  0.00     0.173 A 
ATOM     89  F   UNL A   1      38.895  27.109  31.214  1.00  0.00    -0.203 F 
ATOM     90  C   UNL A   1      39.424  26.867  28.932  1.00  0.00     0.198 A 
ATOM     91  C   UNL A   1      40.647  28.593  27.799  1.00  0.00     0.198 A 
ATOM     92  F   UNL A   1      41.353  30.503  28.977  1.00  0.00    -0.203 F 
ATOM     93  F   UNL A   1      38.827  25.669  28.921  1.00  0.00    -0.200 F 
ATOM     94  C   UNL A   1      40.008  27.361  27.776  1.00  0.00     0.200 A 
ATOM     95  F   UNL A   1      41.195  29.083  26.679  1.00  0.00    -0.200 F 
ATOM     96  F   UNL A   1      39.956  26.652  26.641  1.00  0.00    -0.200 F 
ENDBRANCH  62  86
BRANCH  74  97
ATOM     97  C   UNL A   1      44.523  28.927  35.558  1.00  0.00     0.064 A 
ATOM     98  C   UNL A   1      44.522  27.691  36.219  1.00  0.00     0.173 A 
ATOM     99  C   UNL A   1      45.754  29.444  35.126  1.00  0.00     0.173 A 
ATOM    100  F   UNL A   1      43.372  27.165  36.666  1.00  0.00    -0.203 F 
ATOM    101  C   UNL A   1      45.711  27.007  36.457  1.00  0.00     0.198 A 
ATOM    102  C   UNL A   1      46.938  28.744  35.341  1.00  0.00     0.198 A 
ATOM    103  F   UNL A   1      45.807  30.621  34.485  1.00  0.00    -0.203 F 
ATOM    104  F   UNL A   1      45.693  25.848  37.130  1.00  0.00    -0.200 F 
ATOM    105  C   UNL A   1      46.917  27.531  36.012  1.00  0.00     0.200 A 
ATOM    106  F   UNL A   1      48.100  29.246  34.902  1.00  0.00    -0.200 F 
ATOM    107  F   UNL A   1      48.059  26.869  36.239  1.00  0.00    -0.200 F 
ENDBRANCH  74  97
ENDBRANCH  48  49
ENDBRANCH  41  43
ENDBRANCH  40  41
ENDBRANCH  39  40
ENDBRANCH  38  39
ENDBRANCH  37  38
ENDBRANCH  36  37
ENDBRANCH  35  36
ENDBRANCH  34  35
ENDBRANCH   1  34
TORSDOF 24
ENDMDL
MODEL 2
REMARK VINA RESULT:     -10.7      0.624      6.952
REMARK SMILES Cc1sc(NC(=O)[C@@H]2CC=CC[C@H]2C(=O)OCCOCCOCCOCCOC(=O)c2ccc(-c3c4nc(c(-c5c(F)c(F)c(F)c(F)c5F)c5ccc([nH]5)c(-c5c(F)c(F)c(F)c(F)c5F)c5nc(c(-c6c(F)c(F)c(F)c(F)c6F)c6ccc3[nH]6)C=C5)C=C4)cc2)nc1-c1ccc(C(C)C)cc1
REMARK SMILES IDX 21 1 20 2 19 3 18 4 17 5 16 6 14 7 15 8 13 9 8 10 9 11 10 12
REMARK SMILES IDX 12 13 11 14 6 15 5 16 7 18 4 19 1 20 2 21 3 22 95 23 94 24
REMARK SMILES IDX 96 25 97 26 104 27 98 28 103 29 99 30 100 31 101 32 102 33
REMARK SMILES IDX 22 34 23 35 24 36 25 37 26 38 27 39 28 40 29 41 30 42 31 43
REMARK SMILES IDX 32 44 93 45 33 46 92 47 34 48 35 49 36 50 86 51 37 52 91 53
REMARK SMILES IDX 85 54 87 55 38 56 90 57 84 58 83 59 39 61 71 62 51 63 70 64
REMARK SMILES IDX 52 65 55 66 69 67 88 68 53 69 54 70 68 72 89 73 56 74 40 75
REMARK SMILES IDX 41 76 49 77 42 78 43 79 47 80 50 81 44 82 45 83 48 84 46 85
REMARK SMILES IDX 72 86 73 87 81 88 74 89 75 90 79 91 82 92 76 93 77 94 80 95
REMARK SMILES IDX 78 96 57 97 58 98 66 99 59 100 60 101 64 102 67 103 61 104
REMARK SMILES IDX 62 105 65 106 63 107
REMARK H PARENT 5 17 87 60 55 71
REMARK Flexibility Score: inf
ROOT
ATOM      1  C   UNL A   1      33.345  28.871  27.496  1.00  0.00     0.188 C 
ENDROOT
BRANCH   1   2
ATOM      2  C   UNL A   1      32.784  27.526  27.027  1.00  0.00     0.188 C 
BRANCH   2   3
ATOM      3  O   UNL A   1      31.422  27.286  27.388  1.00  0.00    -0.376 OA
BRANCH   3   4
ATOM      4  C   UNL A   1      30.644  26.509  26.477  1.00  0.00     0.202 C 
BRANCH   4   5
ATOM      5  C   UNL A   1      31.398  25.416  25.718  1.00  0.00     0.261 C 
BRANCH   5   6
ATOM      6  O   UNL A   1      30.629  24.202  25.508  1.00  0.00    -0.463 OA
BRANCH   6   7
ATOM      7  C   UNL A   1      30.930  23.194  26.360  1.00  0.00     0.310 C 
ATOM      8  O   UNL A   1      30.164  22.837  27.254  1.00  0.00    -0.252 OA
BRANCH   7   9
ATOM      9  C   UNL A   1      32.228  22.427  26.083  1.00  0.00     0.116 C 
ATOM     10  C   UNL A   1      33.061  22.558  24.787  1.00  0.00     0.097 C 
ATOM     11  C   UNL A   1      34.240  21.542  24.865  1.00  0.00     0.041 C 
ATOM     12  C   UNL A   1      35.054  21.715  26.110  1.00  0.00    -0.030 C 
ATOM     13  C   UNL A   1      33.162  22.848  27.261  1.00  0.00     0.043 C 
ATOM     14  C   UNL A   1      34.568  22.337  27.188  1.00  0.00    -0.030 C 
BRANCH  10  15
ATOM     15  C   UNL A   1      32.373  22.306  23.458  1.00  0.00     0.230 C 
ATOM     16  N   UNL A   1      32.274  23.229  22.470  1.00  0.00    -0.302 N 
ATOM     17  H   UNL A   1      32.054  22.844  21.590  1.00  0.00     0.172 HD
ATOM     18  O   UNL A   1      31.906  21.184  23.210  1.00  0.00    -0.274 OA
BRANCH  16  19
ATOM     19  C   UNL A   1      32.419  24.585  22.451  1.00  0.00     0.190 A 
ATOM     20  C   UNL A   1      33.705  28.002  23.635  1.00  0.00     0.059 C 
ATOM     21  C   UNL A   1      33.018  26.848  23.001  1.00  0.00     0.031 A 
ATOM     22  S   UNL A   1      33.875  25.387  22.785  1.00  0.00    -0.101 S 
ATOM     23  C   UNL A   1      31.720  26.665  22.556  1.00  0.00     0.086 A 
ATOM     24  N   UNL A   1      31.402  25.369  22.184  1.00  0.00    -0.220 NA
BRANCH  23  25
ATOM     25  C   UNL A   1      30.715  27.709  22.540  1.00  0.00     0.001 A 
ATOM     26  C   UNL A   1      29.455  27.492  23.098  1.00  0.00     0.011 A 
ATOM     27  C   UNL A   1      31.005  28.947  21.966  1.00  0.00     0.011 A 
ATOM     28  C   UNL A   1      28.496  28.508  23.086  1.00  0.00     0.004 A 
ATOM     29  C   UNL A   1      30.041  29.950  21.923  1.00  0.00     0.004 A 
ATOM     30  C   UNL A   1      28.775  29.744  22.484  1.00  0.00    -0.045 A 
BRANCH  30  31
ATOM     31  C   UNL A   1      27.764  30.874  22.448  1.00  0.00     0.013 C 
ATOM     32  C   UNL A   1      27.607  31.561  23.807  1.00  0.00     0.012 C 
ATOM     33  C   UNL A   1      28.123  31.880  21.355  1.00  0.00     0.012 C 
ENDBRANCH  30  31
ENDBRANCH  23  25
ENDBRANCH  16  19
ENDBRANCH  10  15
ENDBRANCH   7   9
ENDBRANCH   6   7
ENDBRANCH   5   6
ENDBRANCH   4   5
ENDBRANCH   3   4
ENDBRANCH   2   3
ENDBRANCH   1   2
BRANCH   1  34
ATOM     34  O   UNL A   1      33.045  29.921  26.583  1.00  0.00    -0.377 OA
BRANCH  34  35
ATOM     35  C   UNL A   1      33.093  31.272  27.040  1.00  0.00     0.188 C 
BRANCH  35  36
ATOM     36  C   UNL A   1      34.279  31.749  27.874  1.00  0.00     0.188 C 
BRANCH  36  37
ATOM     37  O   UNL A   1      34.566  33.144  27.833  1.00  0.00    -0.376 OA
BRANCH  37  38
ATOM     38  C   UNL A   1      34.794  33.828  29.065  1.00  0.00     0.202 C 
BRANCH  38  39
ATOM     39  C   UNL A   1      33.792  34.935  29.394  1.00  0.00     0.261 C 
BRANCH  39  40
ATOM     40  O   UNL A   1      32.925  34.578  30.488  1.00  0.00    -0.460 OA
BRANCH  40  41
ATOM     41  C   UNL A   1      33.030  35.343  31.594  1.00  0.00     0.338 C 
ATOM     42  O   UNL A   1      32.308  36.275  31.926  1.00  0.00    -0.246 OA
BRANCH  41  43
ATOM     43  C   UNL A   1      34.134  34.866  32.443  1.00  0.00     0.060 A 
ATOM     44  C   UNL A   1      35.318  35.611  32.480  1.00  0.00     0.016 A 
ATOM     45  C   UNL A   1      34.054  33.621  33.071  1.00  0.00     0.016 A 
ATOM     46  C   UNL A   1      36.453  35.076  33.089  1.00  0.00     0.010 A 
ATOM     47  C   UNL A   1      35.194  33.085  33.673  1.00  0.00     0.010 A 
ATOM     48  C   UNL A   1      36.410  33.787  33.640  1.00  0.00    -0.014 A 
BRANCH  48  49
ATOM     49  C   UNL A   1      37.668  33.109  34.036  1.00  0.00     0.031 A 
ATOM     50  C   UNL A   1      38.290  32.118  33.096  1.00  0.00     0.074 A 
ATOM     51  C   UNL A   1      38.245  33.368  35.220  1.00  0.00     0.049 A 
ATOM     52  N   UNL A   1      39.364  31.387  33.253  1.00  0.00    -0.248 NA
ATOM     53  C   UNL A   1      37.597  31.903  31.816  1.00  0.00     0.031 C 
ATOM     54  C   UNL A   1      37.719  34.293  36.216  1.00  0.00     0.029 A 
ATOM     55  N   UNL A   1      39.394  32.876  35.785  1.00  0.00    -0.354 N 
ATOM     56  C   UNL A   1      39.456  30.602  32.110  1.00  0.00     0.074 A 
ATOM     57  C   UNL A   1      38.327  30.942  31.271  1.00  0.00     0.031 C 
ATOM     58  C   UNL A   1      38.562  34.327  37.262  1.00  0.00     0.029 A 
ATOM     59  C   UNL A   1      39.670  33.410  37.019  1.00  0.00     0.049 A 
ATOM     60  H   UNL A   1      39.966  32.205  35.348  1.00  0.00     0.167 HD
ATOM     61  C   UNL A   1      40.394  29.677  31.798  1.00  0.00     0.037 A 
ATOM     62  C   UNL A   1      40.700  33.183  37.857  1.00  0.00     0.037 A 
ATOM     63  C   UNL A   1      41.522  29.353  32.631  1.00  0.00     0.049 A 
ATOM     64  C   UNL A   1      41.737  32.161  37.478  1.00  0.00     0.074 A 
ATOM     65  C   UNL A   1      42.547  28.456  32.388  1.00  0.00     0.029 A 
ATOM     66  N   UNL A   1      41.771  29.916  33.876  1.00  0.00    -0.354 N 
ATOM     67  N   UNL A   1      41.835  31.447  36.383  1.00  0.00    -0.248 NA
ATOM     68  C   UNL A   1      42.795  31.895  38.464  1.00  0.00     0.031 C 
ATOM     69  C   UNL A   1      43.390  28.441  33.504  1.00  0.00     0.029 A 
ATOM     70  C   UNL A   1      42.919  29.366  34.422  1.00  0.00     0.049 A 
ATOM     71  H   UNL A   1      41.213  30.604  34.306  1.00  0.00     0.167 HD
ATOM     72  C   UNL A   1      42.963  30.655  36.542  1.00  0.00     0.074 A 
ATOM     73  C   UNL A   1      43.536  30.997  37.828  1.00  0.00     0.031 C 
ATOM     74  C   UNL A   1      43.473  29.720  35.704  1.00  0.00     0.037 A 
BRANCH  61  75
ATOM     75  C   UNL A   1      40.213  28.917  30.518  1.00  0.00     0.064 A 
ATOM     76  C   UNL A   1      39.539  27.687  30.473  1.00  0.00     0.173 A 
ATOM     77  C   UNL A   1      40.708  29.439  29.312  1.00  0.00     0.173 A 
ATOM     78  F   UNL A   1      39.062  27.138  31.599  1.00  0.00    -0.203 F 
ATOM     79  C   UNL A   1      39.392  26.995  29.272  1.00  0.00     0.198 A 
ATOM     80  C   UNL A   1      40.534  28.758  28.110  1.00  0.00     0.198 A 
ATOM     81  F   UNL A   1      41.358  30.613  29.300  1.00  0.00    -0.203 F 
ATOM     82  F   UNL A   1      38.787  25.800  29.261  1.00  0.00    -0.200 F 
ATOM     83  C   UNL A   1      39.883  27.534  28.093  1.00  0.00     0.200 A 
ATOM     84  F   UNL A   1      41.000  29.286  26.970  1.00  0.00    -0.200 F 
ATOM     85  F   UNL A   1      39.736  26.869  26.938  1.00  0.00    -0.200 F 
ENDBRANCH  61  75
BRANCH  62  86
ATOM     86  C   UNL A   1      40.814  33.948  39.128  1.00  0.00     0.064 A 
ATOM     87  C   UNL A   1      41.577  35.123  39.188  1.00  0.00     0.173 A 
ATOM     88  C   UNL A   1      40.172  33.529  40.302  1.00  0.00     0.173 A 
ATOM     89  F   UNL A   1      42.227  35.557  38.097  1.00  0.00    -0.203 F 
ATOM     90  C   UNL A   1      41.704  35.842  40.375  1.00  0.00     0.198 A 
ATOM     91  C   UNL A   1      40.273  34.265  41.480  1.00  0.00     0.198 A 
ATOM     92  F   UNL A   1      39.427  32.414  40.299  1.00  0.00    -0.203 F 
ATOM     93  F   UNL A   1      42.470  36.940  40.413  1.00  0.00    -0.200 F 
ATOM     94  C   UNL A   1      41.045  35.417  41.518  1.00  0.00     0.200 A 
ATOM     95  F   UNL A   1      39.619  33.861  42.578  1.00  0.00    -0.200 F 
ATOM     96  F   UNL A   1      41.156  36.114  42.657  1.00  0.00    -0.200 F 
ENDBRANCH  62  86
BRANCH  74  97
ATOM     97  C   UNL A   1      44.721  29.013  36.145  1.00  0.00     0.064 A 
ATOM     98  C   UNL A   1      45.994  29.536  35.874  1.00  0.00     0.173 A 
ATOM     99  C   UNL A   1      44.641  27.820  36.878  1.00  0.00     0.173 A 
ATOM    100  F   UNL A   1      46.122  30.666  35.161  1.00  0.00    -0.203 F 
ATOM    101  C   UNL A   1      47.143  28.876  36.300  1.00  0.00     0.198 A 
ATOM    102  C   UNL A   1      45.791  27.177  37.327  1.00  0.00     0.198 A 
ATOM    103  F   UNL A   1      43.446  27.282  37.166  1.00  0.00    -0.203 F 
ATOM    104  F   UNL A   1      48.351  29.369  35.991  1.00  0.00    -0.200 F 
ATOM    105  C   UNL A   1      47.041  27.701  37.032  1.00  0.00     0.200 A 
ATOM    106  F   UNL A   1      45.691  26.049  38.042  1.00  0.00    -0.200 F 
ATOM    107  F   UNL A   1      48.148  27.071  37.446  1.00  0.00    -0.200 F 
ENDBRANCH  74  97
ENDBRANCH  48  49
ENDBRANCH  41  43
ENDBRANCH  40  41
ENDBRANCH  39  40
ENDBRANCH  38  39
ENDBRANCH  37  38
ENDBRANCH  36  37
ENDBRANCH  35  36
ENDBRANCH  34  35
ENDBRANCH   1  34
TORSDOF 24
ENDMDL
MODEL 3
REMARK VINA RESULT:     -10.2      5.160     10.378
REMARK SMILES Cc1sc(NC(=O)[C@@H]2CC=CC[C@H]2C(=O)OCCOCCOCCOCCOC(=O)c2ccc(-c3c4nc(c(-c5c(F)c(F)c(F)c(F)c5F)c5ccc([nH]5)c(-c5c(F)c(F)c(F)c(F)c5F)c5nc(c(-c6c(F)c(F)c(F)c(F)c6F)c6ccc3[nH]6)C=C5)C=C4)cc2)nc1-c1ccc(C(C)C)cc1
REMARK SMILES IDX 21 1 20 2 19 3 18 4 17 5 16 6 14 7 15 8 13 9 8 10 9 11 10 12
REMARK SMILES IDX 12 13 11 14 6 15 5 16 7 18 4 19 1 20 2 21 3 22 95 23 94 24
REMARK SMILES IDX 96 25 97 26 104 27 98 28 103 29 99 30 100 31 101 32 102 33
REMARK SMILES IDX 22 34 23 35 24 36 25 37 26 38 27 39 28 40 29 41 30 42 31 43
REMARK SMILES IDX 32 44 93 45 33 46 92 47 34 48 35 49 36 50 86 51 37 52 91 53
REMARK SMILES IDX 85 54 87 55 38 56 90 57 84 58 83 59 39 61 71 62 51 63 70 64
REMARK SMILES IDX 52 65 55 66 69 67 88 68 53 69 54 70 68 72 89 73 56 74 40 75
REMARK SMILES IDX 41 76 49 77 42 78 43 79 47 80 50 81 44 82 45 83 48 84 46 85
REMARK SMILES IDX 72 86 73 87 81 88 74 89 75 90 79 91 82 92 76 93 77 94 80 95
REMARK SMILES IDX 78 96 57 97 58 98 66 99 59 100 60 101 64 102 67 103 61 104
REMARK SMILES IDX 62 105 65 106 63 107
REMARK H PARENT 5 17 87 60 55 71
REMARK Flexibility Score: inf
ROOT
ATOM      1  C   UNL A   1      35.677  23.369  24.319  1.00  0.00     0.188 C 
ENDROOT
BRANCH   1   2
ATOM      2  C   UNL A   1      34.686  23.098  23.182  1.00  0.00     0.188 C 
BRANCH   2   3
ATOM      3  O   UNL A   1      34.373  24.236  22.376  1.00  0.00    -0.376 OA
BRANCH   3   4
ATOM      4  C   UNL A   1      33.168  24.933  22.690  1.00  0.00     0.202 C 
BRANCH   4   5
ATOM      5  C   UNL A   1      33.017  26.322  22.068  1.00  0.00     0.261 C 
BRANCH   5   6
ATOM      6  O   UNL A   1      33.566  27.396  22.877  1.00  0.00    -0.463 OA
BRANCH   6   7
ATOM      7  C   UNL A   1      32.674  28.360  23.208  1.00  0.00     0.310 C 
ATOM      8  O   UNL A   1      32.246  29.169  22.386  1.00  0.00    -0.252 OA
BRANCH   7   9
ATOM      9  C   UNL A   1      32.121  28.320  24.637  1.00  0.00     0.116 C 
ATOM     10  C   UNL A   1      31.602  27.044  25.338  1.00  0.00     0.097 C 
ATOM     11  C   UNL A   1      31.042  27.453  26.733  1.00  0.00     0.041 C 
ATOM     12  C   UNL A   1      32.046  28.209  27.548  1.00  0.00    -0.030 C 
ATOM     13  C   UNL A   1      33.303  28.860  25.503  1.00  0.00     0.043 C 
ATOM     14  C   UNL A   1      33.091  28.822  26.985  1.00  0.00    -0.030 C 
BRANCH  10  15
ATOM     15  C   UNL A   1      30.506  26.242  24.661  1.00  0.00     0.230 C 
ATOM     16  N   UNL A   1      30.245  24.940  24.931  1.00  0.00    -0.302 N 
ATOM     17  H   UNL A   1      29.356  24.643  24.627  1.00  0.00     0.172 HD
ATOM     18  O   UNL A   1      29.756  26.795  23.843  1.00  0.00    -0.274 OA
BRANCH  16  19
ATOM     19  C   UNL A   1      30.969  23.957  25.540  1.00  0.00     0.190 A 
ATOM     20  C   UNL A   1      34.010  22.394  27.283  1.00  0.00     0.059 C 
ATOM     21  C   UNL A   1      32.734  22.707  26.591  1.00  0.00     0.031 A 
ATOM     22  S   UNL A   1      31.985  24.215  26.873  1.00  0.00    -0.101 S 
ATOM     23  C   UNL A   1      31.984  22.012  25.658  1.00  0.00     0.086 A 
ATOM     24  N   UNL A   1      30.931  22.720  25.102  1.00  0.00    -0.220 NA
BRANCH  23  25
ATOM     25  C   UNL A   1      32.292  20.669  25.211  1.00  0.00     0.001 A 
ATOM     26  C   UNL A   1      32.660  19.682  26.126  1.00  0.00     0.011 A 
ATOM     27  C   UNL A   1      32.220  20.351  23.855  1.00  0.00     0.011 A 
ATOM     28  C   UNL A   1      32.947  18.386  25.686  1.00  0.00     0.004 A 
ATOM     29  C   UNL A   1      32.537  19.071  23.409  1.00  0.00     0.004 A 
ATOM     30  C   UNL A   1      32.902  18.072  24.320  1.00  0.00    -0.045 A 
BRANCH  30  31
ATOM     31  C   UNL A   1      33.206  16.680  23.800  1.00  0.00     0.013 C 
ATOM     32  C   UNL A   1      34.403  16.661  22.847  1.00  0.00     0.012 C 
ATOM     33  C   UNL A   1      33.404  15.705  24.960  1.00  0.00     0.012 C 
ENDBRANCH  30  31
ENDBRANCH  23  25
ENDBRANCH  16  19
ENDBRANCH  10  15
ENDBRANCH   7   9
ENDBRANCH   6   7
ENDBRANCH   5   6
ENDBRANCH   4   5
ENDBRANCH   3   4
ENDBRANCH   2   3
ENDBRANCH   1   2
BRANCH   1  34
ATOM     34  O   UNL A   1      36.924  22.718  24.104  1.00  0.00    -0.377 OA
BRANCH  34  35
ATOM     35  C   UNL A   1      37.400  21.793  25.081  1.00  0.00     0.188 C 
BRANCH  35  36
ATOM     36  C   UNL A   1      38.522  22.201  26.031  1.00  0.00     0.188 C 
BRANCH  36  37
ATOM     37  O   UNL A   1      39.667  21.355  26.067  1.00  0.00    -0.376 OA
BRANCH  37  38
ATOM     38  C   UNL A   1      40.870  21.861  26.645  1.00  0.00     0.202 C 
BRANCH  38  39
ATOM     39  C   UNL A   1      42.139  21.632  25.823  1.00  0.00     0.261 C 
BRANCH  39  40
ATOM     40  O   UNL A   1      42.468  22.769  25.002  1.00  0.00    -0.460 OA
BRANCH  40  41
ATOM     41  C   UNL A   1      43.560  23.467  25.377  1.00  0.00     0.338 C 
ATOM     42  O   UNL A   1      44.732  23.202  25.139  1.00  0.00    -0.246 OA
BRANCH  41  43
ATOM     43  C   UNL A   1      43.163  24.692  26.090  1.00  0.00     0.060 A 
ATOM     44  C   UNL A   1      42.826  25.824  25.338  1.00  0.00     0.016 A 
ATOM     45  C   UNL A   1      43.272  24.766  27.481  1.00  0.00     0.016 A 
ATOM     46  C   UNL A   1      42.665  27.055  25.974  1.00  0.00     0.010 A 
ATOM     47  C   UNL A   1      43.119  26.001  28.114  1.00  0.00     0.010 A 
ATOM     48  C   UNL A   1      42.865  27.158  27.359  1.00  0.00    -0.014 A 
BRANCH  48  49
ATOM     49  C   UNL A   1      42.970  28.494  27.994  1.00  0.00     0.031 A 
ATOM     50  C   UNL A   1      44.306  29.177  28.043  1.00  0.00     0.074 A 
ATOM     51  C   UNL A   1      41.889  29.088  28.525  1.00  0.00     0.049 A 
ATOM     52  N   UNL A   1      44.631  30.326  28.579  1.00  0.00    -0.248 NA
ATOM     53  C   UNL A   1      45.433  28.458  27.428  1.00  0.00     0.031 C 
ATOM     54  C   UNL A   1      40.551  28.511  28.551  1.00  0.00     0.029 A 
ATOM     55  N   UNL A   1      41.748  30.304  29.144  1.00  0.00    -0.354 N 
ATOM     56  C   UNL A   1      46.002  30.452  28.396  1.00  0.00     0.074 A 
ATOM     57  C   UNL A   1      46.449  29.261  27.706  1.00  0.00     0.031 C 
ATOM     58  C   UNL A   1      39.714  29.387  29.130  1.00  0.00     0.029 A 
ATOM     59  C   UNL A   1      40.459  30.574  29.535  1.00  0.00     0.049 A 
ATOM     60  H   UNL A   1      42.497  30.924  29.295  1.00  0.00     0.167 HD
ATOM     61  C   UNL A   1      46.811  31.467  28.780  1.00  0.00     0.037 A 
ATOM     62  C   UNL A   1      39.943  31.654  30.151  1.00  0.00     0.037 A 
ATOM     63  C   UNL A   1      46.359  32.656  29.454  1.00  0.00     0.049 A 
ATOM     64  C   UNL A   1      40.863  32.775  30.552  1.00  0.00     0.074 A 
ATOM     65  C   UNL A   1      47.096  33.757  29.853  1.00  0.00     0.029 A 
ATOM     66  N   UNL A   1      45.045  32.894  29.833  1.00  0.00    -0.354 N 
ATOM     67  N   UNL A   1      42.152  32.902  30.348  1.00  0.00    -0.248 NA
ATOM     68  C   UNL A   1      40.260  33.893  31.292  1.00  0.00     0.031 C 
ATOM     69  C   UNL A   1      46.237  34.641  30.514  1.00  0.00     0.029 A 
ATOM     70  C   UNL A   1      44.956  34.114  30.484  1.00  0.00     0.049 A 
ATOM     71  H   UNL A   1      44.289  32.286  29.665  1.00  0.00     0.167 HD
ATOM     72  C   UNL A   1      42.513  34.111  30.924  1.00  0.00     0.074 A 
ATOM     73  C   UNL A   1      41.302  34.696  31.461  1.00  0.00     0.031 C 
ATOM     74  C   UNL A   1      43.740  34.680  31.011  1.00  0.00     0.037 A 
BRANCH  61  75
ATOM     75  C   UNL A   1      48.281  31.314  28.516  1.00  0.00     0.064 A 
ATOM     76  C   UNL A   1      48.888  31.843  27.368  1.00  0.00     0.173 A 
ATOM     77  C   UNL A   1      49.096  30.642  29.440  1.00  0.00     0.173 A 
ATOM     78  F   UNL A   1      48.150  32.479  26.446  1.00  0.00    -0.203 F 
ATOM     79  C   UNL A   1      50.253  31.681  27.141  1.00  0.00     0.198 A 
ATOM     80  C   UNL A   1      50.465  30.507  29.224  1.00  0.00     0.198 A 
ATOM     81  F   UNL A   1      48.565  30.121  30.556  1.00  0.00    -0.203 F 
ATOM     82  F   UNL A   1      50.803  32.152  26.014  1.00  0.00    -0.200 F 
ATOM     83  C   UNL A   1      51.040  31.020  28.071  1.00  0.00     0.200 A 
ATOM     84  F   UNL A   1      51.226  29.877  30.129  1.00  0.00    -0.200 F 
ATOM     85  F   UNL A   1      52.354  30.868  27.852  1.00  0.00    -0.200 F 
ENDBRANCH  61  75
BRANCH  62  86
ATOM     86  C   UNL A   1      38.481  31.740  30.412  1.00  0.00     0.064 A 
ATOM     87  C   UNL A   1      37.922  31.140  31.551  1.00  0.00     0.173 A 
ATOM     88  C   UNL A   1      37.614  32.414  29.541  1.00  0.00     0.173 A 
ATOM     89  F   UNL A   1      38.706  30.466  32.406  1.00  0.00    -0.203 F 
ATOM     90  C   UNL A   1      36.553  31.201  31.801  1.00  0.00     0.198 A 
ATOM     91  C   UNL A   1      36.249  32.502  29.808  1.00  0.00     0.198 A 
ATOM     92  F   UNL A   1      38.096  33.009  28.440  1.00  0.00    -0.203 F 
ATOM     93  F   UNL A   1      36.042  30.586  32.875  1.00  0.00    -0.200 F 
ATOM     94  C   UNL A   1      35.718  31.888  30.933  1.00  0.00     0.200 A 
ATOM     95  F   UNL A   1      35.449  33.185  28.978  1.00  0.00    -0.200 F 
ATOM     96  F   UNL A   1      34.403  31.958  31.179  1.00  0.00    -0.200 F 
ENDBRANCH  62  86
BRANCH  74  97
ATOM     97  C   UNL A   1      43.830  36.012  31.698  1.00  0.00     0.064 A 
ATOM     98  C   UNL A   1      43.999  36.110  33.087  1.00  0.00     0.173 A 
ATOM     99  C   UNL A   1      43.779  37.199  30.954  1.00  0.00     0.173 A 
ATOM    100  F   UNL A   1      44.036  35.002  33.843  1.00  0.00    -0.203 F 
ATOM    101  C   UNL A   1      44.093  37.351  33.709  1.00  0.00     0.198 A 
ATOM    102  C   UNL A   1      43.901  38.439  31.577  1.00  0.00     0.198 A 
ATOM    103  F   UNL A   1      43.622  37.158  29.623  1.00  0.00    -0.203 F 
ATOM    104  F   UNL A   1      44.210  37.424  35.042  1.00  0.00    -0.200 F 
ATOM    105  C   UNL A   1      44.051  38.514  32.953  1.00  0.00     0.200 A 
ATOM    106  F   UNL A   1      43.871  39.561  30.844  1.00  0.00    -0.200 F 
ATOM    107  F   UNL A   1      44.146  39.708  33.554  1.00  0.00    -0.200 F 
ENDBRANCH  74  97
ENDBRANCH  48  49
ENDBRANCH  41  43
ENDBRANCH  40  41
ENDBRANCH  39  40
ENDBRANCH  38  39
ENDBRANCH  37  38
ENDBRANCH  36  37
ENDBRANCH  35  36
ENDBRANCH  34  35
ENDBRANCH   1  34
TORSDOF 24
ENDMDL
