MODEL 1
REMARK VINA RESULT:     -10.8      0.000      0.000
REMARK SMILES COc1cc2c(cc1OC)[C@H](C(=O)OCCOCCOCCOCCOC(=O)c1ccc(-c3c4nc(c(-c5c(F)c(F)c(F)c(F)c5F)c5ccc([nH]5)c(-c5c(F)c(F)c(F)c(F)c5F)c5nc(c(-c6c(F)c(F)c(F)c(F)c6F)c6ccc3[nH]6)C=C5)C=C4)cc1)[C@H](c1cccc(Cl)c1)N(C)C2=O
REMARK SMILES IDX 21 1 20 2 19 3 18 4 17 5 16 6 15 7 14 8 12 9 13 10 11 11
REMARK SMILES IDX 3 12 4 13 8 14 5 15 7 16 6 17 102 18 100 19 103 20 92 21
REMARK SMILES IDX 101 22 2 23 1 24 9 25 10 26 93 27 94 28 99 29 95 30 97 31
REMARK SMILES IDX 96 32 98 33 22 34 23 35 24 36 25 37 26 38 27 39 28 40 29 41
REMARK SMILES IDX 30 42 91 43 31 44 90 45 32 46 33 47 34 48 84 49 35 50 89 51
REMARK SMILES IDX 83 52 85 53 36 54 88 55 82 56 81 57 37 59 69 60 49 61 68 62
REMARK SMILES IDX 50 63 53 64 67 65 86 66 51 67 52 68 66 70 87 71 54 72 38 73
REMARK SMILES IDX 39 74 47 75 40 76 41 77 45 78 48 79 42 80 43 81 46 82 44 83
REMARK SMILES IDX 70 84 71 85 79 86 72 87 73 88 77 89 80 90 74 91 75 92 78 93
REMARK SMILES IDX 76 94 55 95 56 96 64 97 57 98 58 99 62 100 65 101 59 102
REMARK SMILES IDX 60 103 63 104 61 105
REMARK H PARENT 85 58 53 69
REMARK Flexibility Score: inf
ROOT
ATOM      1  C   UNL A   1      33.487  35.325  30.149  1.00  0.00     0.188 C 
ENDROOT
BRANCH   1   2
ATOM      2  O   UNL A   1      34.097  34.071  29.854  1.00  0.00    -0.377 OA
BRANCH   2   3
ATOM      3  C   UNL A   1      34.372  33.743  28.507  1.00  0.00     0.188 C 
BRANCH   3   4
ATOM      4  C   UNL A   1      33.886  32.357  28.042  1.00  0.00     0.188 C 
BRANCH   4   5
ATOM      5  O   UNL A   1      34.861  31.591  27.338  1.00  0.00    -0.376 OA
BRANCH   5   6
ATOM      6  C   UNL A   1      35.071  30.251  27.778  1.00  0.00     0.202 C 
BRANCH   6   7
ATOM      7  C   UNL A   1      34.341  29.190  26.950  1.00  0.00     0.261 C 
BRANCH   7   8
ATOM      8  O   UNL A   1      32.975  29.062  27.363  1.00  0.00    -0.463 OA
BRANCH   8   9
ATOM      9  C   UNL A   1      32.316  27.973  26.882  1.00  0.00     0.316 C 
ATOM     10  O   UNL A   1      31.322  27.515  27.417  1.00  0.00    -0.251 OA
BRANCH   9  11
ATOM     11  C   UNL A   1      33.030  27.463  25.635  1.00  0.00     0.157 C 
ATOM     12  C   UNL A   1      32.573  23.201  25.100  1.00  0.00     0.161 A 
ATOM     13  C   UNL A   1      32.880  24.037  24.011  1.00  0.00     0.064 A 
ATOM     14  C   UNL A   1      32.535  23.741  26.390  1.00  0.00     0.161 A 
ATOM     15  C   UNL A   1      33.087  25.411  24.194  1.00  0.00     0.048 A 
ATOM     16  C   UNL A   1      32.722  25.114  26.552  1.00  0.00     0.056 A 
ATOM     17  C   UNL A   1      32.921  25.970  25.461  1.00  0.00    -0.015 A 
ATOM     18  C   UNL A   1      33.501  26.266  23.039  1.00  0.00     0.254 C 
ATOM     19  N   UNL A   1      33.397  27.649  23.199  1.00  0.00    -0.333 N 
ATOM     20  O   UNL A   1      33.921  25.734  22.017  1.00  0.00    -0.269 OA
ATOM     21  C   UNL A   1      32.670  28.239  24.340  1.00  0.00     0.134 C 
ATOM     22  C   UNL A   1      33.837  28.525  22.125  1.00  0.00     0.147 C 
BRANCH  12  23
ATOM     23  O   UNL A   1      32.234  21.887  24.930  1.00  0.00    -0.493 OA
ATOM     24  C   UNL A   1      32.703  21.276  23.735  1.00  0.00     0.278 C 
ENDBRANCH  12  23
BRANCH  14  25
ATOM     25  O   UNL A   1      32.345  23.121  27.594  1.00  0.00    -0.493 OA
ATOM     26  C   UNL A   1      33.213  22.070  27.973  1.00  0.00     0.278 C 
ENDBRANCH  14  25
BRANCH  21  27
ATOM     27  C   UNL A   1      31.177  28.399  24.057  1.00  0.00    -0.023 A 
ATOM     28  C   UNL A   1      30.362  27.250  24.014  1.00  0.00     0.006 A 
ATOM     29  C   UNL A   1      30.596  29.626  23.709  1.00  0.00     0.026 A 
ATOM     30  C   UNL A   1      29.064  27.306  23.503  1.00  0.00     0.002 A 
ATOM     31  C   UNL A   1      29.290  29.683  23.220  1.00  0.00     0.041 A 
ATOM     32  C   UNL A   1      28.533  28.524  23.085  1.00  0.00     0.020 A 
ATOM     33  Cl  UNL A   1      28.631  31.196  22.736  1.00  0.00    -0.084 Cl
ENDBRANCH  21  27
ENDBRANCH   9  11
ENDBRANCH   8   9
ENDBRANCH   7   8
ENDBRANCH   6   7
ENDBRANCH   5   6
ENDBRANCH   4   5
ENDBRANCH   3   4
ENDBRANCH   2   3
ENDBRANCH   1   2
BRANCH   1  34
ATOM     34  C   UNL A   1      33.504  35.954  31.560  1.00  0.00     0.188 C 
BRANCH  34  35
ATOM     35  O   UNL A   1      33.620  35.029  32.634  1.00  0.00    -0.376 OA
BRANCH  35  36
ATOM     36  C   UNL A   1      34.916  34.875  33.197  1.00  0.00     0.202 C 
BRANCH  36  37
ATOM     37  C   UNL A   1      35.203  33.456  33.697  1.00  0.00     0.261 C 
BRANCH  37  38
ATOM     38  O   UNL A   1      36.371  32.844  33.126  1.00  0.00    -0.460 OA
BRANCH  38  39
ATOM     39  C   UNL A   1      36.182  31.971  32.113  1.00  0.00     0.338 C 
ATOM     40  O   UNL A   1      35.123  31.614  31.627  1.00  0.00    -0.246 OA
BRANCH  39  41
ATOM     41  C   UNL A   1      37.508  31.667  31.543  1.00  0.00     0.060 A 
ATOM     42  C   UNL A   1      37.770  32.019  30.212  1.00  0.00     0.016 A 
ATOM     43  C   UNL A   1      38.497  31.082  32.336  1.00  0.00     0.016 A 
ATOM     44  C   UNL A   1      39.028  31.766  29.664  1.00  0.00     0.010 A 
ATOM     45  C   UNL A   1      39.744  30.805  31.778  1.00  0.00     0.010 A 
ATOM     46  C   UNL A   1      40.006  31.123  30.435  1.00  0.00    -0.014 A 
BRANCH  46  47
ATOM     47  C   UNL A   1      41.233  30.600  29.796  1.00  0.00     0.031 A 
ATOM     48  C   UNL A   1      41.193  29.212  29.225  1.00  0.00     0.074 A 
ATOM     49  C   UNL A   1      42.364  31.324  29.753  1.00  0.00     0.049 A 
ATOM     50  N   UNL A   1      42.155  28.499  28.703  1.00  0.00    -0.248 NA
ATOM     51  C   UNL A   1      39.886  28.535  29.253  1.00  0.00     0.031 C 
ATOM     52  C   UNL A   1      42.512  32.691  30.243  1.00  0.00     0.029 A 
ATOM     53  N   UNL A   1      43.612  30.992  29.287  1.00  0.00    -0.354 N 
ATOM     54  C   UNL A   1      41.572  27.293  28.339  1.00  0.00     0.074 A 
ATOM     55  C   UNL A   1      40.179  27.359  28.721  1.00  0.00     0.031 C 
ATOM     56  C   UNL A   1      43.790  33.076  30.073  1.00  0.00     0.029 A 
ATOM     57  C   UNL A   1      44.553  31.969  29.495  1.00  0.00     0.049 A 
ATOM     58  H   UNL A   1      43.812  30.134  28.846  1.00  0.00     0.167 HD
ATOM     59  C   UNL A   1      42.147  26.228  27.737  1.00  0.00     0.037 A 
ATOM     60  C   UNL A   1      45.881  31.952  29.273  1.00  0.00     0.037 A 
ATOM     61  C   UNL A   1      43.537  26.157  27.377  1.00  0.00     0.049 A 
ATOM     62  C   UNL A   1      46.519  30.713  28.694  1.00  0.00     0.074 A 
ATOM     63  C   UNL A   1      44.212  25.132  26.739  1.00  0.00     0.029 A 
ATOM     64  N   UNL A   1      44.469  27.149  27.643  1.00  0.00    -0.354 N 
ATOM     65  N   UNL A   1      45.957  29.591  28.315  1.00  0.00    -0.248 NA
ATOM     66  C   UNL A   1      47.979  30.737  28.522  1.00  0.00     0.031 C 
ATOM     67  C   UNL A   1      45.564  25.483  26.665  1.00  0.00     0.029 A 
ATOM     68  C   UNL A   1      45.722  26.745  27.214  1.00  0.00     0.049 A 
ATOM     69  H   UNL A   1      44.269  28.013  28.071  1.00  0.00     0.167 HD
ATOM     70  C   UNL A   1      46.986  28.786  27.845  1.00  0.00     0.074 A 
ATOM     71  C   UNL A   1      48.207  29.552  27.972  1.00  0.00     0.031 C 
ATOM     72  C   UNL A   1      46.926  27.523  27.353  1.00  0.00     0.037 A 
BRANCH  59  73
ATOM     73  C   UNL A   1      41.276  25.042  27.460  1.00  0.00     0.064 A 
ATOM     74  C   UNL A   1      40.261  25.088  26.492  1.00  0.00     0.173 A 
ATOM     75  C   UNL A   1      41.470  23.840  28.156  1.00  0.00     0.173 A 
ATOM     76  F   UNL A   1      40.024  26.221  25.815  1.00  0.00    -0.203 F 
ATOM     77  C   UNL A   1      39.457  23.977  26.248  1.00  0.00     0.198 A 
ATOM     78  C   UNL A   1      40.680  22.726  27.891  1.00  0.00     0.198 A 
ATOM     79  F   UNL A   1      42.426  23.748  29.093  1.00  0.00    -0.203 F 
ATOM     80  F   UNL A   1      38.464  24.056  25.351  1.00  0.00    -0.200 F 
ATOM     81  C   UNL A   1      39.671  22.796  26.942  1.00  0.00     0.200 A 
ATOM     82  F   UNL A   1      40.893  21.582  28.557  1.00  0.00    -0.200 F 
ATOM     83  F   UNL A   1      38.900  21.727  26.703  1.00  0.00    -0.200 F 
ENDBRANCH  59  73
BRANCH  60  84
ATOM     84  C   UNL A   1      46.711  33.135  29.626  1.00  0.00     0.064 A 
ATOM     85  C   UNL A   1      46.961  34.145  28.688  1.00  0.00     0.173 A 
ATOM     86  C   UNL A   1      47.289  33.265  30.897  1.00  0.00     0.173 A 
ATOM     87  F   UNL A   1      46.456  34.050  27.450  1.00  0.00    -0.203 F 
ATOM     88  C   UNL A   1      47.770  35.236  29.005  1.00  0.00     0.198 A 
ATOM     89  C   UNL A   1      48.074  34.368  31.221  1.00  0.00     0.198 A 
ATOM     90  F   UNL A   1      47.088  32.318  31.826  1.00  0.00    -0.203 F 
ATOM     91  F   UNL A   1      48.031  36.165  28.076  1.00  0.00    -0.200 F 
ATOM     92  C   UNL A   1      48.321  35.349  30.273  1.00  0.00     0.200 A 
ATOM     93  F   UNL A   1      48.601  34.477  32.450  1.00  0.00    -0.200 F 
ATOM     94  F   UNL A   1      49.099  36.397  30.576  1.00  0.00    -0.200 F 
ENDBRANCH  60  84
BRANCH  72  95
ATOM     95  C   UNL A   1      48.212  26.893  26.903  1.00  0.00     0.064 A 
ATOM     96  C   UNL A   1      48.704  27.084  25.604  1.00  0.00     0.173 A 
ATOM     97  C   UNL A   1      48.991  26.147  27.800  1.00  0.00     0.173 A 
ATOM     98  F   UNL A   1      47.990  27.778  24.706  1.00  0.00    -0.203 F 
ATOM     99  C   UNL A   1      49.924  26.536  25.215  1.00  0.00     0.198 A 
ATOM    100  C   UNL A   1      50.222  25.623  27.416  1.00  0.00     0.198 A 
ATOM    101  F   UNL A   1      48.567  25.942  29.057  1.00  0.00    -0.203 F 
ATOM    102  F   UNL A   1      50.360  26.701  23.958  1.00  0.00    -0.200 F 
ATOM    103  C   UNL A   1      50.685  25.815  26.122  1.00  0.00     0.200 A 
ATOM    104  F   UNL A   1      50.963  24.938  28.298  1.00  0.00    -0.200 F 
ATOM    105  F   UNL A   1      51.866  25.300  25.750  1.00  0.00    -0.200 F 
ENDBRANCH  72  95
ENDBRANCH  46  47
ENDBRANCH  39  41
ENDBRANCH  38  39
ENDBRANCH  37  38
ENDBRANCH  36  37
ENDBRANCH  35  36
ENDBRANCH  34  35
ENDBRANCH   1  34
TORSDOF 23
ENDMDL
MODEL 2
REMARK VINA RESULT:     -10.6      2.898      5.130
REMARK SMILES COc1cc2c(cc1OC)[C@H](C(=O)OCCOCCOCCOCCOC(=O)c1ccc(-c3c4nc(c(-c5c(F)c(F)c(F)c(F)c5F)c5ccc([nH]5)c(-c5c(F)c(F)c(F)c(F)c5F)c5nc(c(-c6c(F)c(F)c(F)c(F)c6F)c6ccc3[nH]6)C=C5)C=C4)cc1)[C@H](c1cccc(Cl)c1)N(C)C2=O
REMARK SMILES IDX 21 1 20 2 19 3 18 4 17 5 16 6 15 7 14 8 12 9 13 10 11 11
REMARK SMILES IDX 3 12 4 13 8 14 5 15 7 16 6 17 102 18 100 19 103 20 92 21
REMARK SMILES IDX 101 22 2 23 1 24 9 25 10 26 93 27 94 28 99 29 95 30 97 31
REMARK SMILES IDX 96 32 98 33 22 34 23 35 24 36 25 37 26 38 27 39 28 40 29 41
REMARK SMILES IDX 30 42 91 43 31 44 90 45 32 46 33 47 34 48 84 49 35 50 89 51
REMARK SMILES IDX 83 52 85 53 36 54 88 55 82 56 81 57 37 59 69 60 49 61 68 62
REMARK SMILES IDX 50 63 53 64 67 65 86 66 51 67 52 68 66 70 87 71 54 72 38 73
REMARK SMILES IDX 39 74 47 75 40 76 41 77 45 78 48 79 42 80 43 81 46 82 44 83
REMARK SMILES IDX 70 84 71 85 79 86 72 87 73 88 77 89 80 90 74 91 75 92 78 93
REMARK SMILES IDX 76 94 55 95 56 96 64 97 57 98 58 99 62 100 65 101 59 102
REMARK SMILES IDX 60 103 63 104 61 105
REMARK H PARENT 85 58 53 69
REMARK Flexibility Score: inf
ROOT
ATOM      1  C   UNL A   1      36.880  33.686  29.929  1.00  0.00     0.188 C 
ENDROOT
BRANCH   1   2
ATOM      2  O   UNL A   1      35.803  33.927  29.028  1.00  0.00    -0.377 OA
BRANCH   2   3
ATOM      3  C   UNL A   1      35.613  33.047  27.938  1.00  0.00     0.188 C 
BRANCH   3   4
ATOM      4  C   UNL A   1      34.557  31.944  28.144  1.00  0.00     0.188 C 
BRANCH   4   5
ATOM      5  O   UNL A   1      35.056  30.750  28.743  1.00  0.00    -0.376 OA
BRANCH   5   6
ATOM      6  C   UNL A   1      35.500  29.721  27.861  1.00  0.00     0.202 C 
BRANCH   6   7
ATOM      7  C   UNL A   1      34.423  29.195  26.908  1.00  0.00     0.261 C 
BRANCH   7   8
ATOM      8  O   UNL A   1      33.281  28.720  27.631  1.00  0.00    -0.463 OA
BRANCH   8   9
ATOM      9  C   UNL A   1      32.419  27.943  26.921  1.00  0.00     0.316 C 
ATOM     10  O   UNL A   1      31.282  27.709  27.294  1.00  0.00    -0.251 OA
BRANCH   9  11
ATOM     11  C   UNL A   1      33.114  27.443  25.660  1.00  0.00     0.157 C 
ATOM     12  C   UNL A   1      32.511  23.214  25.011  1.00  0.00     0.161 A 
ATOM     13  C   UNL A   1      32.846  24.068  23.945  1.00  0.00     0.064 A 
ATOM     14  C   UNL A   1      32.492  23.721  26.315  1.00  0.00     0.161 A 
ATOM     15  C   UNL A   1      33.100  25.429  24.165  1.00  0.00     0.048 A 
ATOM     16  C   UNL A   1      32.726  25.082  26.514  1.00  0.00     0.056 A 
ATOM     17  C   UNL A   1      32.954  25.959  25.446  1.00  0.00    -0.015 A 
ATOM     18  C   UNL A   1      33.543  26.301  23.032  1.00  0.00     0.254 C 
ATOM     19  N   UNL A   1      33.486  27.681  23.229  1.00  0.00    -0.333 N 
ATOM     20  O   UNL A   1      33.944  25.781  21.996  1.00  0.00    -0.269 OA
ATOM     21  C   UNL A   1      32.780  28.265  24.387  1.00  0.00     0.134 C 
ATOM     22  C   UNL A   1      33.956  28.569  22.178  1.00  0.00     0.147 C 
BRANCH  12  23
ATOM     23  O   UNL A   1      32.127  21.918  24.806  1.00  0.00    -0.493 OA
ATOM     24  C   UNL A   1      32.540  21.336  23.577  1.00  0.00     0.278 C 
ENDBRANCH  12  23
BRANCH  14  25
ATOM     25  O   UNL A   1      32.281  23.075  27.503  1.00  0.00    -0.493 OA
ATOM     26  C   UNL A   1      33.279  22.205  28.001  1.00  0.00     0.278 C 
ENDBRANCH  14  25
BRANCH  21  27
ATOM     27  C   UNL A   1      31.293  28.483  24.110  1.00  0.00    -0.023 A 
ATOM     28  C   UNL A   1      30.478  27.368  23.835  1.00  0.00     0.006 A 
ATOM     29  C   UNL A   1      30.722  29.757  23.989  1.00  0.00     0.026 A 
ATOM     30  C   UNL A   1      29.190  27.526  23.319  1.00  0.00     0.002 A 
ATOM     31  C   UNL A   1      29.426  29.912  23.494  1.00  0.00     0.041 A 
ATOM     32  C   UNL A   1      28.670  28.804  23.128  1.00  0.00     0.020 A 
ATOM     33  Cl  UNL A   1      28.779  31.493  23.292  1.00  0.00    -0.084 Cl
ENDBRANCH  21  27
ENDBRANCH   9  11
ENDBRANCH   8   9
ENDBRANCH   7   8
ENDBRANCH   6   7
ENDBRANCH   5   6
ENDBRANCH   4   5
ENDBRANCH   3   4
ENDBRANCH   2   3
ENDBRANCH   1   2
BRANCH   1  34
ATOM     34  C   UNL A   1      36.807  34.028  31.434  1.00  0.00     0.188 C 
BRANCH  34  35
ATOM     35  O   UNL A   1      35.647  33.553  32.106  1.00  0.00    -0.376 OA
BRANCH  35  36
ATOM     36  C   UNL A   1      35.301  32.192  31.885  1.00  0.00     0.202 C 
BRANCH  36  37
ATOM     37  C   UNL A   1      36.135  31.206  32.710  1.00  0.00     0.261 C 
BRANCH  37  38
ATOM     38  O   UNL A   1      36.278  29.904  32.120  1.00  0.00    -0.460 OA
BRANCH  38  39
ATOM     39  C   UNL A   1      37.418  29.228  32.378  1.00  0.00     0.338 C 
ATOM     40  O   UNL A   1      37.532  28.124  32.881  1.00  0.00    -0.246 OA
BRANCH  39  41
ATOM     41  C   UNL A   1      38.522  29.977  31.749  1.00  0.00     0.060 A 
ATOM     42  C   UNL A   1      38.452  30.265  30.379  1.00  0.00     0.016 A 
ATOM     43  C   UNL A   1      39.594  30.431  32.521  1.00  0.00     0.016 A 
ATOM     44  C   UNL A   1      39.473  30.997  29.772  1.00  0.00     0.010 A 
ATOM     45  C   UNL A   1      40.626  31.138  31.907  1.00  0.00     0.010 A 
ATOM     46  C   UNL A   1      40.581  31.403  30.527  1.00  0.00    -0.014 A 
BRANCH  46  47
ATOM     47  C   UNL A   1      41.789  31.928  29.854  1.00  0.00     0.031 A 
ATOM     48  C   UNL A   1      42.830  30.944  29.406  1.00  0.00     0.074 A 
ATOM     49  C   UNL A   1      41.974  33.247  29.676  1.00  0.00     0.049 A 
ATOM     50  N   UNL A   1      44.008  31.159  28.882  1.00  0.00    -0.248 NA
ATOM     51  C   UNL A   1      42.495  29.520  29.576  1.00  0.00     0.031 C 
ATOM     52  C   UNL A   1      41.021  34.292  30.039  1.00  0.00     0.029 A 
ATOM     53  N   UNL A   1      43.047  33.930  29.158  1.00  0.00    -0.354 N 
ATOM     54  C   UNL A   1      44.553  29.901  28.659  1.00  0.00     0.074 A 
ATOM     55  C   UNL A   1      43.590  28.929  29.126  1.00  0.00     0.031 C 
ATOM     56  C   UNL A   1      41.562  35.490  29.754  1.00  0.00     0.029 A 
ATOM     57  C   UNL A   1      42.911  35.294  29.221  1.00  0.00     0.049 A 
ATOM     58  H   UNL A   1      43.838  33.483  28.778  1.00  0.00     0.167 HD
ATOM     59  C   UNL A   1      45.749  29.588  28.112  1.00  0.00     0.037 A 
ATOM     60  C   UNL A   1      43.791  36.266  28.914  1.00  0.00     0.037 A 
ATOM     61  C   UNL A   1      46.712  30.557  27.668  1.00  0.00     0.049 A 
ATOM     62  C   UNL A   1      45.159  35.891  28.400  1.00  0.00     0.074 A 
ATOM     63  C   UNL A   1      47.943  30.342  27.075  1.00  0.00     0.029 A 
ATOM     64  N   UNL A   1      46.558  31.931  27.787  1.00  0.00    -0.354 N 
ATOM     65  N   UNL A   1      45.655  34.702  28.153  1.00  0.00    -0.248 NA
ATOM     66  C   UNL A   1      46.093  36.994  28.130  1.00  0.00     0.031 C 
ATOM     67  C   UNL A   1      48.556  31.584  26.882  1.00  0.00     0.029 A 
ATOM     68  C   UNL A   1      47.688  32.575  27.312  1.00  0.00     0.049 A 
ATOM     69  H   UNL A   1      45.763  32.380  28.154  1.00  0.00     0.167 HD
ATOM     70  C   UNL A   1      46.945  34.913  27.685  1.00  0.00     0.074 A 
ATOM     71  C   UNL A   1      47.153  36.345  27.666  1.00  0.00     0.031 C 
ATOM     72  C   UNL A   1      47.876  34.003  27.305  1.00  0.00     0.037 A 
BRANCH  59  73
ATOM     73  C   UNL A   1      46.090  28.135  27.993  1.00  0.00     0.064 A 
ATOM     74  C   UNL A   1      46.776  27.456  29.012  1.00  0.00     0.173 A 
ATOM     75  C   UNL A   1      45.711  27.408  26.855  1.00  0.00     0.173 A 
ATOM     76  F   UNL A   1      47.176  28.114  30.110  1.00  0.00    -0.203 F 
ATOM     77  C   UNL A   1      47.088  26.105  28.885  1.00  0.00     0.198 A 
ATOM     78  C   UNL A   1      46.004  26.052  26.743  1.00  0.00     0.198 A 
ATOM     79  F   UNL A   1      45.057  28.014  25.853  1.00  0.00    -0.203 F 
ATOM     80  F   UNL A   1      47.782  25.486  29.850  1.00  0.00    -0.200 F 
ATOM     81  C   UNL A   1      46.697  25.404  27.755  1.00  0.00     0.200 A 
ATOM     82  F   UNL A   1      45.620  25.373  25.654  1.00  0.00    -0.200 F 
ATOM     83  F   UNL A   1      46.995  24.103  27.635  1.00  0.00    -0.200 F 
ENDBRANCH  59  73
BRANCH  60  84
ATOM     84  C   UNL A   1      43.423  37.693  29.111  1.00  0.00     0.064 A 
ATOM     85  C   UNL A   1      42.734  38.404  28.119  1.00  0.00     0.173 A 
ATOM     86  C   UNL A   1      43.776  38.381  30.282  1.00  0.00     0.173 A 
ATOM     87  F   UNL A   1      42.403  37.799  26.970  1.00  0.00    -0.203 F 
ATOM     88  C   UNL A   1      42.422  39.752  28.287  1.00  0.00     0.198 A 
ATOM     89  C   UNL A   1      43.440  39.720  30.459  1.00  0.00     0.198 A 
ATOM     90  F   UNL A   1      44.447  37.748  31.256  1.00  0.00    -0.203 F 
ATOM     91  F   UNL A   1      41.803  40.421  27.304  1.00  0.00    -0.200 F 
ATOM     92  C   UNL A   1      42.771  40.407  29.459  1.00  0.00     0.200 A 
ATOM     93  F   UNL A   1      43.773  40.349  31.596  1.00  0.00    -0.200 F 
ATOM     94  F   UNL A   1      42.471  41.704  29.618  1.00  0.00    -0.200 F 
ENDBRANCH  60  84
BRANCH  72  95
ATOM     95  C   UNL A   1      49.199  34.524  26.826  1.00  0.00     0.064 A 
ATOM     96  C   UNL A   1      49.363  35.012  25.522  1.00  0.00     0.173 A 
ATOM     97  C   UNL A   1      50.295  34.596  27.699  1.00  0.00     0.173 A 
ATOM     98  F   UNL A   1      48.349  34.953  24.646  1.00  0.00    -0.203 F 
ATOM     99  C   UNL A   1      50.582  35.540  25.105  1.00  0.00     0.198 A 
ATOM    100  C   UNL A   1      51.504  35.149  27.287  1.00  0.00     0.198 A 
ATOM    101  F   UNL A   1      50.186  34.149  28.959  1.00  0.00    -0.203 F 
ATOM    102  F   UNL A   1      50.728  35.970  23.843  1.00  0.00    -0.200 F 
ATOM    103  C   UNL A   1      51.648  35.617  25.989  1.00  0.00     0.200 A 
ATOM    104  F   UNL A   1      52.529  35.234  28.147  1.00  0.00    -0.200 F 
ATOM    105  F   UNL A   1      52.816  36.138  25.590  1.00  0.00    -0.200 F 
ENDBRANCH  72  95
ENDBRANCH  46  47
ENDBRANCH  39  41
ENDBRANCH  38  39
ENDBRANCH  37  38
ENDBRANCH  36  37
ENDBRANCH  35  36
ENDBRANCH  34  35
ENDBRANCH   1  34
TORSDOF 23
ENDMDL
MODEL 3
REMARK VINA RESULT:     -10.0      4.414      7.360
REMARK SMILES COc1cc2c(cc1OC)[C@H](C(=O)OCCOCCOCCOCCOC(=O)c1ccc(-c3c4nc(c(-c5c(F)c(F)c(F)c(F)c5F)c5ccc([nH]5)c(-c5c(F)c(F)c(F)c(F)c5F)c5nc(c(-c6c(F)c(F)c(F)c(F)c6F)c6ccc3[nH]6)C=C5)C=C4)cc1)[C@H](c1cccc(Cl)c1)N(C)C2=O
REMARK SMILES IDX 21 1 20 2 19 3 18 4 17 5 16 6 15 7 14 8 12 9 13 10 11 11
REMARK SMILES IDX 3 12 4 13 8 14 5 15 7 16 6 17 102 18 100 19 103 20 92 21
REMARK SMILES IDX 101 22 2 23 1 24 9 25 10 26 93 27 94 28 99 29 95 30 97 31
REMARK SMILES IDX 96 32 98 33 22 34 23 35 24 36 25 37 26 38 27 39 28 40 29 41
REMARK SMILES IDX 30 42 91 43 31 44 90 45 32 46 33 47 34 48 84 49 35 50 89 51
REMARK SMILES IDX 83 52 85 53 36 54 88 55 82 56 81 57 37 59 69 60 49 61 68 62
REMARK SMILES IDX 50 63 53 64 67 65 86 66 51 67 52 68 66 70 87 71 54 72 38 73
REMARK SMILES IDX 39 74 47 75 40 76 41 77 45 78 48 79 42 80 43 81 46 82 44 83
REMARK SMILES IDX 70 84 71 85 79 86 72 87 73 88 77 89 80 90 74 91 75 92 78 93
REMARK SMILES IDX 76 94 55 95 56 96 64 97 57 98 58 99 62 100 65 101 59 102
REMARK SMILES IDX 60 103 63 104 61 105
REMARK H PARENT 85 58 53 69
REMARK Flexibility Score: inf
ROOT
ATOM      1  C   UNL A   1      34.508  33.339  29.895  1.00  0.00     0.188 C 
ENDROOT
BRANCH   1   2
ATOM      2  O   UNL A   1      35.037  32.016  29.873  1.00  0.00    -0.377 OA
BRANCH   2   3
ATOM      3  C   UNL A   1      36.405  31.829  29.567  1.00  0.00     0.188 C 
BRANCH   3   4
ATOM      4  C   UNL A   1      36.914  30.377  29.633  1.00  0.00     0.188 C 
BRANCH   4   5
ATOM      5  O   UNL A   1      38.282  30.210  29.267  1.00  0.00    -0.376 OA
BRANCH   5   6
ATOM      6  C   UNL A   1      38.808  28.886  29.321  1.00  0.00     0.202 C 
BRANCH   6   7
ATOM      7  C   UNL A   1      39.115  28.269  27.954  1.00  0.00     0.261 C 
BRANCH   7   8
ATOM      8  O   UNL A   1      40.527  28.218  27.715  1.00  0.00    -0.463 OA
BRANCH   8   9
ATOM      9  C   UNL A   1      40.961  27.152  26.990  1.00  0.00     0.316 C 
ATOM     10  O   UNL A   1      40.989  27.151  25.771  1.00  0.00    -0.251 OA
BRANCH   9  11
ATOM     11  C   UNL A   1      41.364  26.028  27.938  1.00  0.00     0.157 C 
ATOM     12  C   UNL A   1      39.836  22.186  26.684  1.00  0.00     0.161 A 
ATOM     13  C   UNL A   1      40.957  22.277  27.529  1.00  0.00     0.064 A 
ATOM     14  C   UNL A   1      39.137  23.350  26.345  1.00  0.00     0.161 A 
ATOM     15  C   UNL A   1      41.417  23.521  27.984  1.00  0.00     0.048 A 
ATOM     16  C   UNL A   1      39.621  24.581  26.788  1.00  0.00     0.056 A 
ATOM     17  C   UNL A   1      40.798  24.689  27.540  1.00  0.00    -0.015 A 
ATOM     18  C   UNL A   1      42.554  23.590  28.954  1.00  0.00     0.254 C 
ATOM     19  N   UNL A   1      43.164  24.832  29.135  1.00  0.00    -0.333 N 
ATOM     20  O   UNL A   1      42.895  22.575  29.553  1.00  0.00    -0.269 OA
ATOM     21  C   UNL A   1      42.887  25.965  28.230  1.00  0.00     0.134 C 
ATOM     22  C   UNL A   1      44.238  24.962  30.106  1.00  0.00     0.147 C 
BRANCH  12  23
ATOM     23  O   UNL A   1      39.451  21.003  26.118  1.00  0.00    -0.493 OA
ATOM     24  C   UNL A   1      40.423  19.966  26.129  1.00  0.00     0.278 C 
ENDBRANCH  12  23
BRANCH  14  25
ATOM     25  O   UNL A   1      37.988  23.501  25.618  1.00  0.00    -0.493 OA
ATOM     26  C   UNL A   1      36.765  23.710  26.299  1.00  0.00     0.278 C 
ENDBRANCH  14  25
BRANCH  21  27
ATOM     27  C   UNL A   1      43.798  25.963  27.003  1.00  0.00    -0.023 A 
ATOM     28  C   UNL A   1      43.746  24.871  26.114  1.00  0.00     0.006 A 
ATOM     29  C   UNL A   1      44.781  26.938  26.784  1.00  0.00     0.026 A 
ATOM     30  C   UNL A   1      44.727  24.689  25.138  1.00  0.00     0.002 A 
ATOM     31  C   UNL A   1      45.747  26.765  25.792  1.00  0.00     0.041 A 
ATOM     32  C   UNL A   1      45.744  25.629  24.991  1.00  0.00     0.020 A 
ATOM     33  Cl  UNL A   1      46.981  27.947  25.596  1.00  0.00    -0.084 Cl
ENDBRANCH  21  27
ENDBRANCH   9  11
ENDBRANCH   8   9
ENDBRANCH   7   8
ENDBRANCH   6   7
ENDBRANCH   5   6
ENDBRANCH   4   5
ENDBRANCH   3   4
ENDBRANCH   2   3
ENDBRANCH   1   2
BRANCH   1  34
ATOM     34  C   UNL A   1      34.649  34.278  31.113  1.00  0.00     0.188 C 
BRANCH  34  35
ATOM     35  O   UNL A   1      33.790  33.982  32.207  1.00  0.00    -0.376 OA
BRANCH  35  36
ATOM     36  C   UNL A   1      34.407  33.426  33.361  1.00  0.00     0.202 C 
BRANCH  36  37
ATOM     37  C   UNL A   1      35.931  33.314  33.248  1.00  0.00     0.261 C 
BRANCH  37  38
ATOM     38  O   UNL A   1      36.475  32.067  33.710  1.00  0.00    -0.460 OA
BRANCH  38  39
ATOM     39  C   UNL A   1      37.412  32.121  34.681  1.00  0.00     0.338 C 
ATOM     40  O   UNL A   1      37.265  32.472  35.839  1.00  0.00    -0.246 OA
BRANCH  39  41
ATOM     41  C   UNL A   1      38.629  31.477  34.152  1.00  0.00     0.060 A 
ATOM     42  C   UNL A   1      39.880  31.922  34.600  1.00  0.00     0.016 A 
ATOM     43  C   UNL A   1      38.528  30.411  33.256  1.00  0.00     0.016 A 
ATOM     44  C   UNL A   1      41.042  31.307  34.133  1.00  0.00     0.010 A 
ATOM     45  C   UNL A   1      39.691  29.816  32.770  1.00  0.00     0.010 A 
ATOM     46  C   UNL A   1      40.951  30.276  33.187  1.00  0.00    -0.014 A 
BRANCH  46  47
ATOM     47  C   UNL A   1      42.161  29.807  32.478  1.00  0.00     0.031 A 
ATOM     48  C   UNL A   1      42.897  28.627  33.044  1.00  0.00     0.074 A 
ATOM     49  C   UNL A   1      42.617  30.434  31.381  1.00  0.00     0.049 A 
ATOM     50  N   UNL A   1      44.026  28.090  32.663  1.00  0.00    -0.248 NA
ATOM     51  C   UNL A   1      42.273  27.966  34.202  1.00  0.00     0.031 C 
ATOM     52  C   UNL A   1      41.970  31.566  30.722  1.00  0.00     0.029 A 
ATOM     53  N   UNL A   1      43.749  30.210  30.637  1.00  0.00    -0.354 N 
ATOM     54  C   UNL A   1      44.246  27.029  33.532  1.00  0.00     0.074 A 
ATOM     55  C   UNL A   1      43.148  27.012  34.473  1.00  0.00     0.031 C 
ATOM     56  C   UNL A   1      42.730  31.955  29.683  1.00  0.00     0.029 A 
ATOM     57  C   UNL A   1      43.931  31.121  29.627  1.00  0.00     0.049 A 
ATOM     58  H   UNL A   1      44.371  29.467  30.813  1.00  0.00     0.167 HD
ATOM     59  C   UNL A   1      45.271  26.147  33.540  1.00  0.00     0.037 A 
ATOM     60  C   UNL A   1      44.966  31.278  28.780  1.00  0.00     0.037 A 
ATOM     61  C   UNL A   1      46.371  26.180  32.615  1.00  0.00     0.049 A 
ATOM     62  C   UNL A   1      46.147  30.344  28.873  1.00  0.00     0.074 A 
ATOM     63  C   UNL A   1      47.446  25.315  32.523  1.00  0.00     0.029 A 
ATOM     64  N   UNL A   1      46.543  27.143  31.632  1.00  0.00    -0.354 N 
ATOM     65  N   UNL A   1      46.333  29.318  29.669  1.00  0.00    -0.248 NA
ATOM     66  C   UNL A   1      47.269  30.597  27.956  1.00  0.00     0.031 C 
ATOM     67  C   UNL A   1      48.296  25.785  31.516  1.00  0.00     0.029 A 
ATOM     68  C   UNL A   1      47.727  26.915  30.952  1.00  0.00     0.049 A 
ATOM     69  H   UNL A   1      45.916  27.878  31.445  1.00  0.00     0.167 HD
ATOM     70  C   UNL A   1      47.576  28.795  29.339  1.00  0.00     0.074 A 
ATOM     71  C   UNL A   1      48.097  29.606  28.259  1.00  0.00     0.031 C 
ATOM     72  C   UNL A   1      48.230  27.737  29.881  1.00  0.00     0.037 A 
BRANCH  59  73
ATOM     73  C   UNL A   1      45.261  25.093  34.602  1.00  0.00     0.064 A 
ATOM     74  C   UNL A   1      44.740  23.813  34.360  1.00  0.00     0.173 A 
ATOM     75  C   UNL A   1      45.796  25.359  35.871  1.00  0.00     0.173 A 
ATOM     76  F   UNL A   1      44.199  23.517  33.169  1.00  0.00    -0.203 F 
ATOM     77  C   UNL A   1      44.736  22.843  35.360  1.00  0.00     0.198 A 
ATOM     78  C   UNL A   1      45.812  24.378  36.859  1.00  0.00     0.198 A 
ATOM     79  F   UNL A   1      46.304  26.568  36.151  1.00  0.00    -0.203 F 
ATOM     80  F   UNL A   1      44.193  21.641  35.122  1.00  0.00    -0.200 F 
ATOM     81  C   UNL A   1      45.277  23.124  36.605  1.00  0.00     0.200 A 
ATOM     82  F   UNL A   1      46.342  24.649  38.060  1.00  0.00    -0.200 F 
ATOM     83  F   UNL A   1      45.276  22.189  37.565  1.00  0.00    -0.200 F 
ENDBRANCH  59  73
BRANCH  60  84
ATOM     84  C   UNL A   1      44.953  32.382  27.784  1.00  0.00     0.064 A 
ATOM     85  C   UNL A   1      45.529  33.625  28.078  1.00  0.00     0.173 A 
ATOM     86  C   UNL A   1      44.343  32.224  26.530  1.00  0.00     0.173 A 
ATOM     87  F   UNL A   1      46.096  33.834  29.274  1.00  0.00    -0.203 F 
ATOM     88  C   UNL A   1      45.484  34.673  27.159  1.00  0.00     0.198 A 
ATOM     89  C   UNL A   1      44.323  33.264  25.604  1.00  0.00     0.198 A 
ATOM     90  F   UNL A   1      43.768  31.057  26.206  1.00  0.00    -0.203 F 
ATOM     91  F   UNL A   1      46.001  35.866  27.483  1.00  0.00    -0.200 F 
ATOM     92  C   UNL A   1      44.886  34.489  25.922  1.00  0.00     0.200 A 
ATOM     93  F   UNL A   1      43.749  33.081  24.406  1.00  0.00    -0.200 F 
ATOM     94  F   UNL A   1      44.842  35.498  25.040  1.00  0.00    -0.200 F 
ENDBRANCH  60  84
BRANCH  72  95
ATOM     95  C   UNL A   1      49.573  27.387  29.311  1.00  0.00     0.064 A 
ATOM     96  C   UNL A   1      50.755  27.920  29.843  1.00  0.00     0.173 A 
ATOM     97  C   UNL A   1      49.681  26.458  28.265  1.00  0.00     0.173 A 
ATOM     98  F   UNL A   1      50.702  28.822  30.835  1.00  0.00    -0.203 F 
ATOM     99  C   UNL A   1      51.998  27.547  29.338  1.00  0.00     0.198 A 
ATOM    100  C   UNL A   1      50.927  26.067  27.780  1.00  0.00     0.198 A 
ATOM    101  F   UNL A   1      48.580  25.913  27.727  1.00  0.00    -0.203 F 
ATOM    102  F   UNL A   1      53.114  28.096  29.838  1.00  0.00    -0.200 F 
ATOM    103  C   UNL A   1      52.083  26.616  28.315  1.00  0.00     0.200 A 
ATOM    104  F   UNL A   1      51.008  25.156  26.800  1.00  0.00    -0.200 F 
ATOM    105  F   UNL A   1      53.281  26.248  27.839  1.00  0.00    -0.200 F 
ENDBRANCH  72  95
ENDBRANCH  46  47
ENDBRANCH  39  41
ENDBRANCH  38  39
ENDBRANCH  37  38
ENDBRANCH  36  37
ENDBRANCH  35  36
ENDBRANCH  34  35
ENDBRANCH   1  34
TORSDOF 23
ENDMDL
