MODEL 1
REMARK VINA RESULT:     -10.0      0.000      0.000
REMARK SMILES O=C(COc1ccc([N+](=O)[O-])cc1)Nc1ccc(C(=O)OCCOCCOCCOCCOC(=O)c2ccc(-c3c4nc(c(-c5c(F)c(F)c(F)c(F)c5F)c5ccc([nH]5)c(-c5c(F)c(F)c(F)c(F)c5F)c5nc(c(-c6c(F)c(F)c(F)c(F)c6F)c6ccc3[nH]6)C=C5)C=C4)cc2)c(O)c1
REMARK SMILES IDX 25 1 24 2 23 3 22 4 21 5 19 6 20 7 18 8 15 9 16 10 101 11
REMARK SMILES IDX 17 12 99 13 14 14 1 15 2 16 3 18 4 19 5 20 6 21 13 22 7 23
REMARK SMILES IDX 12 24 8 25 9 26 10 27 11 28 100 29 26 31 27 32 28 33 29 34
REMARK SMILES IDX 30 35 31 36 32 37 33 38 34 39 35 40 36 41 37 42 98 43 38 44
REMARK SMILES IDX 97 45 39 46 40 47 41 48 91 49 42 50 96 51 90 52 92 53 43 54
REMARK SMILES IDX 95 55 89 56 88 57 44 59 76 60 56 61 75 62 57 63 60 64 74 65
REMARK SMILES IDX 93 66 58 67 59 68 73 70 94 71 61 72 45 73 46 74 54 75 47 76
REMARK SMILES IDX 48 77 52 78 55 79 49 80 50 81 53 82 51 83 77 84 78 85 86 86
REMARK SMILES IDX 79 87 80 88 84 89 87 90 81 91 82 92 85 93 83 94 62 95 63 96
REMARK SMILES IDX 71 97 64 98 65 99 69 100 72 101 66 102 67 103 70 104 68 105
REMARK H PARENT 14 17 100 30 92 58 60 69
REMARK Flexibility Score: inf
ROOT
ATOM      1  C   UNL A   1      35.840  21.258  25.701  1.00  0.00     0.188 C 
ENDROOT
BRANCH   1   2
ATOM      2  O   UNL A   1      34.743  21.831  25.014  1.00  0.00    -0.376 OA
BRANCH   2   3
ATOM      3  C   UNL A   1      34.883  23.091  24.391  1.00  0.00     0.202 C 
BRANCH   3   4
ATOM      4  C   UNL A   1      34.240  23.284  23.015  1.00  0.00     0.261 C 
BRANCH   4   5
ATOM      5  O   UNL A   1      34.346  24.605  22.487  1.00  0.00    -0.460 OA
BRANCH   5   6
ATOM      6  C   UNL A   1      33.225  25.354  22.491  1.00  0.00     0.341 C 
ATOM      7  O   UNL A   1      32.140  25.034  22.031  1.00  0.00    -0.246 OA
BRANCH   6   8
ATOM      8  C   UNL A   1      33.436  26.555  23.330  1.00  0.00     0.101 A 
ATOM      9  C   UNL A   1      33.580  28.787  25.008  1.00  0.00     0.045 A 
ATOM     10  C   UNL A   1      33.420  27.515  25.562  1.00  0.00     0.027 A 
ATOM     11  C   UNL A   1      33.835  28.918  23.640  1.00  0.00     0.073 A 
ATOM     12  C   UNL A   1      33.318  26.403  24.720  1.00  0.00     0.022 A 
ATOM     13  C   UNL A   1      33.760  27.807  22.803  1.00  0.00     0.132 A 
BRANCH   9  14
ATOM     14  N   UNL A   1      33.295  29.893  25.837  1.00  0.00    -0.323 N 
ATOM     15  O   UNL A   1      34.461  29.255  27.761  1.00  0.00    -0.271 OA
ATOM     16  C   UNL A   1      33.901  30.104  27.071  1.00  0.00     0.262 C 
ATOM     17  H   UNL A   1      32.631  30.550  25.526  1.00  0.00     0.170 HD
BRANCH  16  18
ATOM     18  C   UNL A   1      33.900  31.573  27.502  1.00  0.00     0.329 C 
BRANCH  18  19
ATOM     19  O   UNL A   1      35.160  32.238  27.518  1.00  0.00    -0.484 OA
BRANCH  19  20
ATOM     20  C   UNL A   1      35.739  32.398  28.750  1.00  0.00     0.120 A 
ATOM     21  C   UNL A   1      37.107  32.686  28.760  1.00  0.00     0.053 A 
ATOM     22  C   UNL A   1      35.087  32.112  29.951  1.00  0.00     0.053 A 
ATOM     23  C   UNL A   1      37.831  32.654  29.958  1.00  0.00     0.089 A 
ATOM     24  C   UNL A   1      35.804  32.048  31.151  1.00  0.00     0.089 A 
ATOM     25  C   UNL A   1      37.180  32.302  31.147  1.00  0.00     0.269 A 
BRANCH  25  26
ATOM     26  N   UNL A   1      37.949  32.148  32.387  1.00  0.00     0.062 N 
ATOM     27  O   UNL A   1      38.670  33.092  32.739  1.00  0.00    -0.258 OA
ATOM     28  O   UNL A   1      37.845  31.076  33.000  1.00  0.00    -0.258 OA
ENDBRANCH  25  26
ENDBRANCH  19  20
ENDBRANCH  18  19
ENDBRANCH  16  18
ENDBRANCH   9  14
BRANCH  13  29
ATOM     29  O   UNL A   1      33.960  27.980  21.462  1.00  0.00    -0.507 OA
ATOM     30  H   UNL A   1      33.288  28.364  20.934  1.00  0.00     0.293 HD
ENDBRANCH  13  29
ENDBRANCH   6   8
ENDBRANCH   5   6
ENDBRANCH   4   5
ENDBRANCH   3   4
ENDBRANCH   2   3
ENDBRANCH   1   2
BRANCH   1  31
ATOM     31  C   UNL A   1      37.185  22.020  25.548  1.00  0.00     0.188 C 
BRANCH  31  32
ATOM     32  O   UNL A   1      38.407  21.385  25.178  1.00  0.00    -0.377 OA
BRANCH  32  33
ATOM     33  C   UNL A   1      39.446  21.241  26.134  1.00  0.00     0.188 C 
BRANCH  33  34
ATOM     34  C   UNL A   1      40.487  20.126  25.897  1.00  0.00     0.188 C 
BRANCH  34  35
ATOM     35  O   UNL A   1      41.082  19.650  27.092  1.00  0.00    -0.376 OA
BRANCH  35  36
ATOM     36  C   UNL A   1      42.367  19.063  27.003  1.00  0.00     0.202 C 
BRANCH  36  37
ATOM     37  C   UNL A   1      42.872  18.559  25.641  1.00  0.00     0.261 C 
BRANCH  37  38
ATOM     38  O   UNL A   1      44.284  18.646  25.392  1.00  0.00    -0.460 OA
BRANCH  38  39
ATOM     39  C   UNL A   1      44.703  19.419  24.369  1.00  0.00     0.338 C 
ATOM     40  O   UNL A   1      44.943  19.069  23.225  1.00  0.00    -0.246 OA
BRANCH  39  41
ATOM     41  C   UNL A   1      44.640  20.822  24.829  1.00  0.00     0.060 A 
ATOM     42  C   UNL A   1      44.399  21.843  23.899  1.00  0.00     0.016 A 
ATOM     43  C   UNL A   1      44.788  21.123  26.186  1.00  0.00     0.016 A 
ATOM     44  C   UNL A   1      44.323  23.171  24.323  1.00  0.00     0.010 A 
ATOM     45  C   UNL A   1      44.737  22.455  26.604  1.00  0.00     0.010 A 
ATOM     46  C   UNL A   1      44.529  23.487  25.672  1.00  0.00    -0.014 A 
BRANCH  46  47
ATOM     47  C   UNL A   1      44.703  24.900  26.085  1.00  0.00     0.031 A 
ATOM     48  C   UNL A   1      46.073  25.511  25.985  1.00  0.00     0.074 A 
ATOM     49  C   UNL A   1      43.667  25.631  26.534  1.00  0.00     0.049 A 
ATOM     50  N   UNL A   1      46.487  26.696  26.350  1.00  0.00    -0.248 NA
ATOM     51  C   UNL A   1      47.119  24.662  25.394  1.00  0.00     0.031 C 
ATOM     52  C   UNL A   1      42.286  25.168  26.636  1.00  0.00     0.029 A 
ATOM     53  N   UNL A   1      43.627  26.922  27.002  1.00  0.00    -0.354 N 
ATOM     54  C   UNL A   1      47.840  26.733  26.041  1.00  0.00     0.074 A 
ATOM     55  C   UNL A   1      48.186  25.441  25.489  1.00  0.00     0.031 C 
ATOM     56  C   UNL A   1      41.533  26.156  27.150  1.00  0.00     0.029 A 
ATOM     57  C   UNL A   1      42.386  27.306  27.450  1.00  0.00     0.049 A 
ATOM     58  H   UNL A   1      44.412  27.517  27.014  1.00  0.00     0.167 HD
ATOM     59  C   UNL A   1      48.714  27.755  26.198  1.00  0.00     0.037 A 
ATOM     60  C   UNL A   1      41.996  28.444  28.058  1.00  0.00     0.037 A 
ATOM     61  C   UNL A   1      48.366  29.037  26.754  1.00  0.00     0.049 A 
ATOM     62  C   UNL A   1      43.009  29.536  28.302  1.00  0.00     0.074 A 
ATOM     63  C   UNL A   1      49.174  30.145  26.937  1.00  0.00     0.029 A 
ATOM     64  N   UNL A   1      47.109  29.376  27.230  1.00  0.00    -0.354 N 
ATOM     65  N   UNL A   1      44.280  29.577  27.981  1.00  0.00    -0.248 NA
ATOM     66  C   UNL A   1      42.530  30.742  28.993  1.00  0.00     0.031 C 
ATOM     67  C   UNL A   1      48.423  31.131  27.583  1.00  0.00     0.029 A 
ATOM     68  C   UNL A   1      47.127  30.665  27.739  1.00  0.00     0.049 A 
ATOM     69  H   UNL A   1      46.319  28.788  27.208  1.00  0.00     0.167 HD
ATOM     70  C   UNL A   1      44.743  30.818  28.402  1.00  0.00     0.074 A 
ATOM     71  C   UNL A   1      43.612  31.507  28.986  1.00  0.00     0.031 C 
ATOM     72  C   UNL A   1      45.991  31.342  28.313  1.00  0.00     0.037 A 
BRANCH  59  73
ATOM     73  C   UNL A   1      50.141  27.517  25.794  1.00  0.00     0.064 A 
ATOM     74  C   UNL A   1      50.569  27.658  24.465  1.00  0.00     0.173 A 
ATOM     75  C   UNL A   1      51.101  27.174  26.758  1.00  0.00     0.173 A 
ATOM     76  F   UNL A   1      49.689  27.972  23.502  1.00  0.00    -0.203 F 
ATOM     77  C   UNL A   1      51.898  27.438  24.113  1.00  0.00     0.198 A 
ATOM     78  C   UNL A   1      52.435  26.987  26.408  1.00  0.00     0.198 A 
ATOM     79  F   UNL A   1      50.747  27.028  28.044  1.00  0.00    -0.203 F 
ATOM     80  F   UNL A   1      52.273  27.529  22.829  1.00  0.00    -0.200 F 
ATOM     81  C   UNL A   1      52.831  27.112  25.085  1.00  0.00     0.200 A 
ATOM     82  F   UNL A   1      53.338  26.686  27.352  1.00  0.00    -0.200 F 
ATOM     83  F   UNL A   1      54.112  26.909  24.746  1.00  0.00    -0.200 F 
ENDBRANCH  59  73
BRANCH  60  84
ATOM     84  C   UNL A   1      40.585  28.608  28.501  1.00  0.00     0.064 A 
ATOM     85  C   UNL A   1      39.601  29.085  27.625  1.00  0.00     0.173 A 
ATOM     86  C   UNL A   1      40.199  28.322  29.819  1.00  0.00     0.173 A 
ATOM     87  F   UNL A   1      39.924  29.400  26.363  1.00  0.00    -0.203 F 
ATOM     88  C   UNL A   1      38.291  29.290  28.056  1.00  0.00     0.198 A 
ATOM     89  C   UNL A   1      38.882  28.497  30.240  1.00  0.00     0.198 A 
ATOM     90  F   UNL A   1      41.103  27.869  30.701  1.00  0.00    -0.203 F 
ATOM     91  F   UNL A   1      37.383  29.801  27.212  1.00  0.00    -0.200 F 
ATOM     92  C   UNL A   1      37.931  28.990  29.360  1.00  0.00     0.200 A 
ATOM     93  F   UNL A   1      38.538  28.194  31.499  1.00  0.00    -0.200 F 
ATOM     94  F   UNL A   1      36.672  29.188  29.774  1.00  0.00    -0.200 F 
ENDBRANCH  60  84
BRANCH  72  95
ATOM     95  C   UNL A   1      46.196  32.742  28.821  1.00  0.00     0.064 A 
ATOM     96  C   UNL A   1      46.602  32.999  30.140  1.00  0.00     0.173 A 
ATOM     97  C   UNL A   1      46.029  33.839  27.963  1.00  0.00     0.173 A 
ATOM     98  F   UNL A   1      46.764  31.987  31.006  1.00  0.00    -0.203 F 
ATOM     99  C   UNL A   1      46.801  34.303  30.587  1.00  0.00     0.198 A 
ATOM    100  C   UNL A   1      46.265  35.139  28.403  1.00  0.00     0.198 A 
ATOM    101  F   UNL A   1      45.653  33.652  26.689  1.00  0.00    -0.203 F 
ATOM    102  F   UNL A   1      47.136  34.526  31.866  1.00  0.00    -0.200 F 
ATOM    103  C   UNL A   1      46.641  35.370  29.717  1.00  0.00     0.200 A 
ATOM    104  F   UNL A   1      46.128  36.168  27.555  1.00  0.00    -0.200 F 
ATOM    105  F   UNL A   1      46.845  36.623  30.147  1.00  0.00    -0.200 F 
ENDBRANCH  72  95
ENDBRANCH  46  47
ENDBRANCH  39  41
ENDBRANCH  38  39
ENDBRANCH  37  38
ENDBRANCH  36  37
ENDBRANCH  35  36
ENDBRANCH  34  35
ENDBRANCH  33  34
ENDBRANCH  32  33
ENDBRANCH  31  32
ENDBRANCH   1  31
TORSDOF 26
ENDMDL
MODEL 2
REMARK VINA RESULT:      -9.3      1.197      7.006
REMARK SMILES O=C(COc1ccc([N+](=O)[O-])cc1)Nc1ccc(C(=O)OCCOCCOCCOCCOC(=O)c2ccc(-c3c4nc(c(-c5c(F)c(F)c(F)c(F)c5F)c5ccc([nH]5)c(-c5c(F)c(F)c(F)c(F)c5F)c5nc(c(-c6c(F)c(F)c(F)c(F)c6F)c6ccc3[nH]6)C=C5)C=C4)cc2)c(O)c1
REMARK SMILES IDX 25 1 24 2 23 3 22 4 21 5 19 6 20 7 18 8 15 9 16 10 101 11
REMARK SMILES IDX 17 12 99 13 14 14 1 15 2 16 3 18 4 19 5 20 6 21 13 22 7 23
REMARK SMILES IDX 12 24 8 25 9 26 10 27 11 28 100 29 26 31 27 32 28 33 29 34
REMARK SMILES IDX 30 35 31 36 32 37 33 38 34 39 35 40 36 41 37 42 98 43 38 44
REMARK SMILES IDX 97 45 39 46 40 47 41 48 91 49 42 50 96 51 90 52 92 53 43 54
REMARK SMILES IDX 95 55 89 56 88 57 44 59 76 60 56 61 75 62 57 63 60 64 74 65
REMARK SMILES IDX 93 66 58 67 59 68 73 70 94 71 61 72 45 73 46 74 54 75 47 76
REMARK SMILES IDX 48 77 52 78 55 79 49 80 50 81 53 82 51 83 77 84 78 85 86 86
REMARK SMILES IDX 79 87 80 88 84 89 87 90 81 91 82 92 85 93 83 94 62 95 63 96
REMARK SMILES IDX 71 97 64 98 65 99 69 100 72 101 66 102 67 103 70 104 68 105
REMARK H PARENT 14 17 100 30 92 58 60 69
REMARK Flexibility Score: inf
ROOT
ATOM      1  C   UNL A   1      35.507  21.398  25.539  1.00  0.00     0.188 C 
ENDROOT
BRANCH   1   2
ATOM      2  O   UNL A   1      34.541  21.898  24.634  1.00  0.00    -0.376 OA
BRANCH   2   3
ATOM      3  C   UNL A   1      34.792  23.096  23.927  1.00  0.00     0.202 C 
BRANCH   3   4
ATOM      4  C   UNL A   1      33.867  23.444  22.758  1.00  0.00     0.261 C 
BRANCH   4   5
ATOM      5  O   UNL A   1      34.010  24.773  22.260  1.00  0.00    -0.460 OA
BRANCH   5   6
ATOM      6  C   UNL A   1      32.949  25.593  22.401  1.00  0.00     0.341 C 
ATOM      7  O   UNL A   1      31.824  25.402  21.968  1.00  0.00    -0.246 OA
BRANCH   6   8
ATOM      8  C   UNL A   1      33.286  26.679  23.350  1.00  0.00     0.101 A 
ATOM      9  C   UNL A   1      33.663  28.717  25.227  1.00  0.00     0.045 A 
ATOM     10  C   UNL A   1      33.332  27.430  25.660  1.00  0.00     0.027 A 
ATOM     11  C   UNL A   1      33.967  28.936  23.881  1.00  0.00     0.073 A 
ATOM     12  C   UNL A   1      33.114  26.420  24.718  1.00  0.00     0.022 A 
ATOM     13  C   UNL A   1      33.776  27.922  22.944  1.00  0.00     0.132 A 
BRANCH   9  14
ATOM     14  N   UNL A   1      33.496  29.771  26.150  1.00  0.00    -0.323 N 
ATOM     15  O   UNL A   1      35.266  29.306  27.606  1.00  0.00    -0.271 OA
ATOM     16  C   UNL A   1      34.413  30.067  27.153  1.00  0.00     0.262 C 
ATOM     17  H   UNL A   1      32.687  30.327  26.081  1.00  0.00     0.170 HD
BRANCH  16  18
ATOM     18  C   UNL A   1      34.344  31.520  27.626  1.00  0.00     0.329 C 
BRANCH  18  19
ATOM     19  O   UNL A   1      35.539  32.078  28.165  1.00  0.00    -0.484 OA
BRANCH  19  20
ATOM     20  C   UNL A   1      35.526  32.345  29.509  1.00  0.00     0.120 A 
ATOM     21  C   UNL A   1      34.600  33.297  29.943  1.00  0.00     0.053 A 
ATOM     22  C   UNL A   1      36.489  31.864  30.399  1.00  0.00     0.053 A 
ATOM     23  C   UNL A   1      34.653  33.795  31.250  1.00  0.00     0.089 A 
ATOM     24  C   UNL A   1      36.571  32.375  31.699  1.00  0.00     0.089 A 
ATOM     25  C   UNL A   1      35.663  33.354  32.115  1.00  0.00     0.269 A 
BRANCH  25  26
ATOM     26  N   UNL A   1      35.804  33.955  33.447  1.00  0.00     0.062 N 
ATOM     27  O   UNL A   1      35.154  33.456  34.375  1.00  0.00    -0.258 OA
ATOM     28  O   UNL A   1      36.551  34.937  33.560  1.00  0.00    -0.258 OA
ENDBRANCH  25  26
ENDBRANCH  19  20
ENDBRANCH  18  19
ENDBRANCH  16  18
ENDBRANCH   9  14
BRANCH  13  29
ATOM     29  O   UNL A   1      34.029  28.187  21.628  1.00  0.00    -0.507 OA
ATOM     30  H   UNL A   1      33.659  27.644  20.961  1.00  0.00     0.293 HD
ENDBRANCH  13  29
ENDBRANCH   6   8
ENDBRANCH   5   6
ENDBRANCH   4   5
ENDBRANCH   3   4
ENDBRANCH   2   3
ENDBRANCH   1   2
BRANCH   1  31
ATOM     31  C   UNL A   1      36.961  21.884  25.288  1.00  0.00     0.188 C 
BRANCH  31  32
ATOM     32  O   UNL A   1      38.055  20.997  25.067  1.00  0.00    -0.377 OA
BRANCH  32  33
ATOM     33  C   UNL A   1      39.244  21.138  25.829  1.00  0.00     0.188 C 
BRANCH  33  34
ATOM     34  C   UNL A   1      40.136  19.890  26.000  1.00  0.00     0.188 C 
BRANCH  34  35
ATOM     35  O   UNL A   1      40.931  19.926  27.173  1.00  0.00    -0.376 OA
BRANCH  35  36
ATOM     36  C   UNL A   1      42.336  19.837  27.024  1.00  0.00     0.202 C 
BRANCH  36  37
ATOM     37  C   UNL A   1      42.919  19.178  25.762  1.00  0.00     0.261 C 
BRANCH  37  38
ATOM     38  O   UNL A   1      44.309  19.409  25.485  1.00  0.00    -0.460 OA
BRANCH  38  39
ATOM     39  C   UNL A   1      44.629  20.098  24.371  1.00  0.00     0.338 C 
ATOM     40  O   UNL A   1      44.423  19.774  23.213  1.00  0.00    -0.246 OA
BRANCH  39  41
ATOM     41  C   UNL A   1      45.114  21.425  24.805  1.00  0.00     0.060 A 
ATOM     42  C   UNL A   1      45.435  21.635  26.153  1.00  0.00     0.016 A 
ATOM     43  C   UNL A   1      45.282  22.450  23.871  1.00  0.00     0.016 A 
ATOM     44  C   UNL A   1      45.909  22.880  26.573  1.00  0.00     0.010 A 
ATOM     45  C   UNL A   1      45.731  23.702  24.297  1.00  0.00     0.010 A 
ATOM     46  C   UNL A   1      46.023  23.931  25.654  1.00  0.00    -0.014 A 
BRANCH  46  47
ATOM     47  C   UNL A   1      46.277  25.311  26.132  1.00  0.00     0.031 A 
ATOM     48  C   UNL A   1      45.122  26.102  26.679  1.00  0.00     0.074 A 
ATOM     49  C   UNL A   1      47.508  25.852  26.090  1.00  0.00     0.049 A 
ATOM     50  N   UNL A   1      45.079  27.343  27.088  1.00  0.00    -0.248 NA
ATOM     51  C   UNL A   1      43.836  25.392  26.772  1.00  0.00     0.031 C 
ATOM     52  C   UNL A   1      48.714  25.173  25.624  1.00  0.00     0.029 A 
ATOM     53  N   UNL A   1      47.938  27.110  26.435  1.00  0.00    -0.354 N 
ATOM     54  C   UNL A   1      43.765  27.565  27.479  1.00  0.00     0.074 A 
ATOM     55  C   UNL A   1      43.034  26.342  27.229  1.00  0.00     0.031 C 
ATOM     56  C   UNL A   1      49.749  26.028  25.698  1.00  0.00     0.029 A 
ATOM     57  C   UNL A   1      49.271  27.324  26.179  1.00  0.00     0.049 A 
ATOM     58  H   UNL A   1      47.349  27.792  26.830  1.00  0.00     0.167 HD
ATOM     59  C   UNL A   1      43.220  28.687  28.006  1.00  0.00     0.037 A 
ATOM     60  C   UNL A   1      50.007  28.447  26.292  1.00  0.00     0.037 A 
ATOM     61  C   UNL A   1      43.950  29.903  28.247  1.00  0.00     0.049 A 
ATOM     62  C   UNL A   1      49.355  29.710  26.799  1.00  0.00     0.074 A 
ATOM     63  C   UNL A   1      43.494  31.089  28.795  1.00  0.00     0.029 A 
ATOM     64  N   UNL A   1      45.290  30.095  27.941  1.00  0.00    -0.354 N 
ATOM     65  N   UNL A   1      48.120  29.906  27.195  1.00  0.00    -0.248 NA
ATOM     66  C   UNL A   1      50.203  30.908  26.876  1.00  0.00     0.031 C 
ATOM     67  C   UNL A   1      44.538  32.017  28.760  1.00  0.00     0.029 A 
ATOM     68  C   UNL A   1      45.667  31.390  28.256  1.00  0.00     0.049 A 
ATOM     69  H   UNL A   1      45.884  29.410  27.557  1.00  0.00     0.167 HD
ATOM     70  C   UNL A   1      48.051  31.235  27.595  1.00  0.00     0.074 A 
ATOM     71  C   UNL A   1      49.373  31.794  27.409  1.00  0.00     0.031 C 
ATOM     72  C   UNL A   1      46.989  31.932  28.072  1.00  0.00     0.037 A 
BRANCH  59  73
ATOM     73  C   UNL A   1      41.752  28.661  28.325  1.00  0.00     0.064 A 
ATOM     74  C   UNL A   1      40.780  28.985  27.367  1.00  0.00     0.173 A 
ATOM     75  C   UNL A   1      41.312  28.277  29.601  1.00  0.00     0.173 A 
ATOM     76  F   UNL A   1      41.147  29.373  26.137  1.00  0.00    -0.203 F 
ATOM     77  C   UNL A   1      39.424  28.950  27.683  1.00  0.00     0.198 A 
ATOM     78  C   UNL A   1      39.956  28.211  29.903  1.00  0.00     0.198 A 
ATOM     79  F   UNL A   1      42.200  27.955  30.554  1.00  0.00    -0.203 F 
ATOM     80  F   UNL A   1      38.515  29.313  26.766  1.00  0.00    -0.200 F 
ATOM     81  C   UNL A   1      39.012  28.555  28.946  1.00  0.00     0.200 A 
ATOM     82  F   UNL A   1      39.560  27.814  31.121  1.00  0.00    -0.200 F 
ATOM     83  F   UNL A   1      37.707  28.513  29.246  1.00  0.00    -0.200 F 
ENDBRANCH  59  73
BRANCH  60  84
ATOM     84  C   UNL A   1      51.443  28.441  25.900  1.00  0.00     0.064 A 
ATOM     85  C   UNL A   1      51.831  28.647  24.569  1.00  0.00     0.173 A 
ATOM     86  C   UNL A   1      52.453  28.198  26.842  1.00  0.00     0.173 A 
ATOM     87  F   UNL A   1      50.902  28.855  23.625  1.00  0.00    -0.203 F 
ATOM     88  C   UNL A   1      53.172  28.587  24.192  1.00  0.00     0.198 A 
ATOM     89  C   UNL A   1      53.796  28.171  26.470  1.00  0.00     0.198 A 
ATOM     90  F   UNL A   1      52.137  27.988  28.129  1.00  0.00    -0.203 F 
ATOM     91  F   UNL A   1      53.510  28.731  22.904  1.00  0.00    -0.200 F 
ATOM     92  C   UNL A   1      54.154  28.356  25.143  1.00  0.00     0.200 A 
ATOM     93  F   UNL A   1      54.741  27.959  27.396  1.00  0.00    -0.200 F 
ATOM     94  F   UNL A   1      55.442  28.299  24.781  1.00  0.00    -0.200 F 
ENDBRANCH  60  84
BRANCH  72  95
ATOM     95  C   UNL A   1      47.218  33.365  28.467  1.00  0.00     0.064 A 
ATOM     96  C   UNL A   1      47.021  34.422  27.566  1.00  0.00     0.173 A 
ATOM     97  C   UNL A   1      47.596  33.686  29.780  1.00  0.00     0.173 A 
ATOM     98  F   UNL A   1      46.672  34.170  26.295  1.00  0.00    -0.203 F 
ATOM     99  C   UNL A   1      47.224  35.744  27.956  1.00  0.00     0.198 A 
ATOM    100  C   UNL A   1      47.762  35.010  30.177  1.00  0.00     0.198 A 
ATOM    101  F   UNL A   1      47.788  32.716  30.686  1.00  0.00    -0.203 F 
ATOM    102  F   UNL A   1      47.082  36.733  27.063  1.00  0.00    -0.200 F 
ATOM    103  C   UNL A   1      47.585  36.038  29.262  1.00  0.00     0.200 A 
ATOM    104  F   UNL A   1      48.092  35.293  31.445  1.00  0.00    -0.200 F 
ATOM    105  F   UNL A   1      47.769  37.310  29.639  1.00  0.00    -0.200 F 
ENDBRANCH  72  95
ENDBRANCH  46  47
ENDBRANCH  39  41
ENDBRANCH  38  39
ENDBRANCH  37  38
ENDBRANCH  36  37
ENDBRANCH  35  36
ENDBRANCH  34  35
ENDBRANCH  33  34
ENDBRANCH  32  33
ENDBRANCH  31  32
ENDBRANCH   1  31
TORSDOF 26
ENDMDL
MODEL 3
REMARK VINA RESULT:      -8.9      4.449      8.954
REMARK SMILES O=C(COc1ccc([N+](=O)[O-])cc1)Nc1ccc(C(=O)OCCOCCOCCOCCOC(=O)c2ccc(-c3c4nc(c(-c5c(F)c(F)c(F)c(F)c5F)c5ccc([nH]5)c(-c5c(F)c(F)c(F)c(F)c5F)c5nc(c(-c6c(F)c(F)c(F)c(F)c6F)c6ccc3[nH]6)C=C5)C=C4)cc2)c(O)c1
REMARK SMILES IDX 25 1 24 2 23 3 22 4 21 5 19 6 20 7 18 8 15 9 16 10 101 11
REMARK SMILES IDX 17 12 99 13 14 14 1 15 2 16 3 18 4 19 5 20 6 21 13 22 7 23
REMARK SMILES IDX 12 24 8 25 9 26 10 27 11 28 100 29 26 31 27 32 28 33 29 34
REMARK SMILES IDX 30 35 31 36 32 37 33 38 34 39 35 40 36 41 37 42 98 43 38 44
REMARK SMILES IDX 97 45 39 46 40 47 41 48 91 49 42 50 96 51 90 52 92 53 43 54
REMARK SMILES IDX 95 55 89 56 88 57 44 59 76 60 56 61 75 62 57 63 60 64 74 65
REMARK SMILES IDX 93 66 58 67 59 68 73 70 94 71 61 72 45 73 46 74 54 75 47 76
REMARK SMILES IDX 48 77 52 78 55 79 49 80 50 81 53 82 51 83 77 84 78 85 86 86
REMARK SMILES IDX 79 87 80 88 84 89 87 90 81 91 82 92 85 93 83 94 62 95 63 96
REMARK SMILES IDX 71 97 64 98 65 99 69 100 72 101 66 102 67 103 70 104 68 105
REMARK H PARENT 14 17 100 30 92 58 60 69
REMARK Flexibility Score: inf
ROOT
ATOM      1  C   UNL A   1      40.719  28.767  29.388  1.00  0.00     0.188 C 
ENDROOT
BRANCH   1   2
ATOM      2  O   UNL A   1      40.719  28.981  30.787  1.00  0.00    -0.376 OA
BRANCH   2   3
ATOM      3  C   UNL A   1      39.885  29.976  31.346  1.00  0.00     0.202 C 
BRANCH   3   4
ATOM      4  C   UNL A   1      40.325  31.436  31.211  1.00  0.00     0.261 C 
BRANCH   4   5
ATOM      5  O   UNL A   1      39.600  32.354  32.028  1.00  0.00    -0.460 OA
BRANCH   5   6
ATOM      6  C   UNL A   1      39.035  33.408  31.405  1.00  0.00     0.341 C 
ATOM      7  O   UNL A   1      39.495  34.536  31.328  1.00  0.00    -0.246 OA
BRANCH   6   8
ATOM      8  C   UNL A   1      37.858  32.950  30.632  1.00  0.00     0.101 A 
ATOM      9  C   UNL A   1      35.722  31.828  29.218  1.00  0.00     0.045 A 
ATOM     10  C   UNL A   1      35.854  31.577  30.586  1.00  0.00     0.027 A 
ATOM     11  C   UNL A   1      36.555  32.767  28.605  1.00  0.00     0.073 A 
ATOM     12  C   UNL A   1      36.939  32.114  31.285  1.00  0.00     0.022 A 
ATOM     13  C   UNL A   1      37.621  33.324  29.308  1.00  0.00     0.132 A 
BRANCH   9  14
ATOM     14  N   UNL A   1      34.864  30.979  28.487  1.00  0.00    -0.323 N 
ATOM     15  O   UNL A   1      33.180  32.503  27.929  1.00  0.00    -0.271 OA
ATOM     16  C   UNL A   1      33.764  31.434  27.767  1.00  0.00     0.262 C 
ATOM     17  H   UNL A   1      35.055  30.013  28.485  1.00  0.00     0.170 HD
BRANCH  16  18
ATOM     18  C   UNL A   1      33.354  30.494  26.631  1.00  0.00     0.329 C 
BRANCH  18  19
ATOM     19  O   UNL A   1      33.319  29.102  26.930  1.00  0.00    -0.484 OA
BRANCH  19  20
ATOM     20  C   UNL A   1      33.634  28.256  25.898  1.00  0.00     0.120 A 
ATOM     21  C   UNL A   1      33.634  28.815  24.617  1.00  0.00     0.053 A 
ATOM     22  C   UNL A   1      33.763  26.874  26.047  1.00  0.00     0.053 A 
ATOM     23  C   UNL A   1      33.728  27.996  23.485  1.00  0.00     0.089 A 
ATOM     24  C   UNL A   1      33.828  26.042  24.924  1.00  0.00     0.089 A 
ATOM     25  C   UNL A   1      33.792  26.606  23.645  1.00  0.00     0.269 A 
BRANCH  25  26
ATOM     26  N   UNL A   1      33.770  25.730  22.467  1.00  0.00     0.062 N 
ATOM     27  O   UNL A   1      33.989  24.523  22.642  1.00  0.00    -0.258 OA
ATOM     28  O   UNL A   1      33.550  26.252  21.365  1.00  0.00    -0.258 OA
ENDBRANCH  25  26
ENDBRANCH  19  20
ENDBRANCH  18  19
ENDBRANCH  16  18
ENDBRANCH   9  14
BRANCH  13  29
ATOM     29  O   UNL A   1      38.451  34.196  28.660  1.00  0.00    -0.507 OA
ATOM     30  H   UNL A   1      39.379  34.108  28.742  1.00  0.00     0.293 HD
ENDBRANCH  13  29
ENDBRANCH   6   8
ENDBRANCH   5   6
ENDBRANCH   4   5
ENDBRANCH   3   4
ENDBRANCH   2   3
ENDBRANCH   1   2
BRANCH   1  31
ATOM     31  C   UNL A   1      40.719  27.277  28.949  1.00  0.00     0.188 C 
BRANCH  31  32
ATOM     32  O   UNL A   1      41.789  26.674  28.224  1.00  0.00    -0.377 OA
BRANCH  32  33
ATOM     33  C   UNL A   1      42.102  25.306  28.434  1.00  0.00     0.188 C 
BRANCH  33  34
ATOM     34  C   UNL A   1      43.350  24.740  27.721  1.00  0.00     0.188 C 
BRANCH  34  35
ATOM     35  O   UNL A   1      43.184  24.609  26.320  1.00  0.00    -0.376 OA
BRANCH  35  36
ATOM     36  C   UNL A   1      43.993  23.665  25.643  1.00  0.00     0.202 C 
BRANCH  36  37
ATOM     37  C   UNL A   1      45.184  24.157  24.805  1.00  0.00     0.261 C 
BRANCH  37  38
ATOM     38  O   UNL A   1      46.204  24.902  25.489  1.00  0.00    -0.460 OA
BRANCH  38  39
ATOM     39  C   UNL A   1      46.497  26.140  25.041  1.00  0.00     0.338 C 
ATOM     40  O   UNL A   1      46.931  26.448  23.943  1.00  0.00    -0.246 OA
BRANCH  39  41
ATOM     41  C   UNL A   1      46.015  27.097  26.059  1.00  0.00     0.060 A 
ATOM     42  C   UNL A   1      46.872  27.488  27.098  1.00  0.00     0.016 A 
ATOM     43  C   UNL A   1      44.728  27.630  25.968  1.00  0.00     0.016 A 
ATOM     44  C   UNL A   1      46.435  28.402  28.058  1.00  0.00     0.010 A 
ATOM     45  C   UNL A   1      44.283  28.526  26.943  1.00  0.00     0.010 A 
ATOM     46  C   UNL A   1      45.125  28.897  28.007  1.00  0.00    -0.014 A 
BRANCH  46  47
ATOM     47  C   UNL A   1      44.575  29.660  29.152  1.00  0.00     0.031 A 
ATOM     48  C   UNL A   1      44.424  31.149  29.012  1.00  0.00     0.074 A 
ATOM     49  C   UNL A   1      44.209  29.048  30.292  1.00  0.00     0.049 A 
ATOM     50  N   UNL A   1      44.038  32.036  29.892  1.00  0.00    -0.248 NA
ATOM     51  C   UNL A   1      44.762  31.714  27.695  1.00  0.00     0.031 C 
ATOM     52  C   UNL A   1      44.266  27.609  30.535  1.00  0.00     0.029 A 
ATOM     53  N   UNL A   1      43.729  29.571  31.468  1.00  0.00    -0.354 N 
ATOM     54  C   UNL A   1      44.093  33.261  29.241  1.00  0.00     0.074 A 
ATOM     55  C   UNL A   1      44.580  33.010  27.902  1.00  0.00     0.031 C 
ATOM     56  C   UNL A   1      43.850  27.363  31.789  1.00  0.00     0.029 A 
ATOM     57  C   UNL A   1      43.536  28.630  32.450  1.00  0.00     0.049 A 
ATOM     58  H   UNL A   1      43.539  30.529  31.595  1.00  0.00     0.167 HD
ATOM     59  C   UNL A   1      43.759  34.484  29.714  1.00  0.00     0.037 A 
ATOM     60  C   UNL A   1      43.177  28.782  33.740  1.00  0.00     0.037 A 
ATOM     61  C   UNL A   1      43.280  34.730  31.049  1.00  0.00     0.049 A 
ATOM     62  C   UNL A   1      42.896  30.166  34.270  1.00  0.00     0.074 A 
ATOM     63  C   UNL A   1      42.897  35.930  31.621  1.00  0.00     0.029 A 
ATOM     64  N   UNL A   1      43.132  33.757  32.027  1.00  0.00    -0.354 N 
ATOM     65  N   UNL A   1      42.920  31.318  33.642  1.00  0.00    -0.248 NA
ATOM     66  C   UNL A   1      42.534  30.271  35.692  1.00  0.00     0.031 C 
ATOM     67  C   UNL A   1      42.580  35.695  32.962  1.00  0.00     0.029 A 
ATOM     68  C   UNL A   1      42.697  34.336  33.209  1.00  0.00     0.049 A 
ATOM     69  H   UNL A   1      43.310  32.797  31.900  1.00  0.00     0.167 HD
ATOM     70  C   UNL A   1      42.550  32.275  34.579  1.00  0.00     0.074 A 
ATOM     71  C   UNL A   1      42.289  31.568  35.815  1.00  0.00     0.031 C 
ATOM     72  C   UNL A   1      42.436  33.619  34.431  1.00  0.00     0.037 A 
BRANCH  59  73
ATOM     73  C   UNL A   1      43.934  35.658  28.793  1.00  0.00     0.064 A 
ATOM     74  C   UNL A   1      42.873  36.164  28.027  1.00  0.00     0.173 A 
ATOM     75  C   UNL A   1      45.175  36.305  28.700  1.00  0.00     0.173 A 
ATOM     76  F   UNL A   1      41.669  35.574  28.069  1.00  0.00    -0.203 F 
ATOM     77  C   UNL A   1      43.056  37.256  27.183  1.00  0.00     0.198 A 
ATOM     78  C   UNL A   1      45.346  37.417  27.881  1.00  0.00     0.198 A 
ATOM     79  F   UNL A   1      46.224  35.864  29.412  1.00  0.00    -0.203 F 
ATOM     80  F   UNL A   1      42.040  37.691  26.423  1.00  0.00    -0.200 F 
ATOM     81  C   UNL A   1      44.289  37.887  27.117  1.00  0.00     0.200 A 
ATOM     82  F   UNL A   1      46.535  38.034  27.830  1.00  0.00    -0.200 F 
ATOM     83  F   UNL A   1      44.460  38.944  26.312  1.00  0.00    -0.200 F 
ENDBRANCH  59  73
BRANCH  60  84
ATOM     84  C   UNL A   1      43.082  27.596  34.634  1.00  0.00     0.064 A 
ATOM     85  C   UNL A   1      44.186  27.159  35.378  1.00  0.00     0.173 A 
ATOM     86  C   UNL A   1      41.895  26.855  34.736  1.00  0.00     0.173 A 
ATOM     87  F   UNL A   1      45.352  27.814  35.294  1.00  0.00    -0.203 F 
ATOM     88  C   UNL A   1      44.112  26.016  36.173  1.00  0.00     0.198 A 
ATOM     89  C   UNL A   1      41.812  25.732  35.556  1.00  0.00     0.198 A 
ATOM     90  F   UNL A   1      40.809  27.225  34.039  1.00  0.00    -0.203 F 
ATOM     91  F   UNL A   1      45.199  25.588  36.830  1.00  0.00    -0.200 F 
ATOM     92  C   UNL A   1      42.925  25.307  36.267  1.00  0.00     0.200 A 
ATOM     93  F   UNL A   1      40.659  25.058  35.651  1.00  0.00    -0.200 F 
ATOM     94  F   UNL A   1      42.854  24.209  37.030  1.00  0.00    -0.200 F 
ENDBRANCH  60  84
BRANCH  72  95
ATOM     95  C   UNL A   1      41.972  34.412  35.621  1.00  0.00     0.064 A 
ATOM     96  C   UNL A   1      40.614  34.511  35.962  1.00  0.00     0.173 A 
ATOM     97  C   UNL A   1      42.904  35.045  36.458  1.00  0.00     0.173 A 
ATOM     98  F   UNL A   1      39.680  33.936  35.189  1.00  0.00    -0.203 F 
ATOM     99  C   UNL A   1      40.206  35.239  37.077  1.00  0.00     0.198 A 
ATOM    100  C   UNL A   1      42.496  35.741  37.593  1.00  0.00     0.198 A 
ATOM    101  F   UNL A   1      44.215  34.975  36.186  1.00  0.00    -0.203 F 
ATOM    102  F   UNL A   1      38.900  35.364  37.352  1.00  0.00    -0.200 F 
ATOM    103  C   UNL A   1      41.147  35.845  37.897  1.00  0.00     0.200 A 
ATOM    104  F   UNL A   1      43.407  36.309  38.394  1.00  0.00    -0.200 F 
ATOM    105  F   UNL A   1      40.753  36.535  38.975  1.00  0.00    -0.200 F 
ENDBRANCH  72  95
ENDBRANCH  46  47
ENDBRANCH  39  41
ENDBRANCH  38  39
ENDBRANCH  37  38
ENDBRANCH  36  37
ENDBRANCH  35  36
ENDBRANCH  34  35
ENDBRANCH  33  34
ENDBRANCH  32  33
ENDBRANCH  31  32
ENDBRANCH   1  31
TORSDOF 26
ENDMDL
