MODEL 1
REMARK VINA RESULT:     -10.5      0.000      0.000
REMARK SMILES C[C@@H](C(=O)OCCOCCOCCOCCOC(=O)c1ccc(-c2c3nc(c(-c4c(F)c(F)c(F)c(F)c4F)c4ccc([nH]4)c(-c4c(F)c(F)c(F)c(F)c4F)c4nc(c(-c5c(F)c(F)c(F)c(F)c5F)c5ccc2[nH]5)C=C4)C=C3)cc1)N1C(=O)c2nccnc2C1=O
REMARK SMILES IDX 12 1 11 2 10 3 9 4 8 5 7 6 6 7 5 8 3 9 4 10 2 11 1 12 83 13
REMARK SMILES IDX 84 14 92 15 85 16 86 17 91 18 93 19 87 20 90 21 88 22 89 23
REMARK SMILES IDX 13 24 14 25 15 26 16 27 17 28 18 29 19 30 20 31 21 32 82 33
REMARK SMILES IDX 22 34 81 35 23 36 24 37 25 38 75 39 26 40 80 41 74 42 76 43
REMARK SMILES IDX 27 44 79 45 73 46 72 47 28 49 60 50 40 51 59 52 41 53 44 54
REMARK SMILES IDX 58 55 77 56 42 57 43 58 57 60 78 61 45 62 29 63 30 64 38 65
REMARK SMILES IDX 31 66 32 67 36 68 39 69 33 70 34 71 37 72 35 73 61 74 62 75
REMARK SMILES IDX 70 76 63 77 64 78 68 79 71 80 65 81 66 82 69 83 67 84 46 85
REMARK SMILES IDX 47 86 55 87 48 88 49 89 53 90 56 91 50 92 51 93 54 94 52 95
REMARK H PARENT 76 48 44 59
REMARK Flexibility Score: inf
ROOT
ATOM      1  C   UNL A   1      42.790  20.007  25.729  1.00  0.00     0.188 C 
ENDROOT
BRANCH   1   2
ATOM      2  O   UNL A   1      42.448  20.313  27.071  1.00  0.00    -0.377 OA
BRANCH   2   3
ATOM      3  C   UNL A   1      41.069  20.497  27.334  1.00  0.00     0.188 C 
BRANCH   3   4
ATOM      4  C   UNL A   1      40.224  20.893  26.108  1.00  0.00     0.188 C 
BRANCH   4   5
ATOM      5  O   UNL A   1      39.534  22.135  26.052  1.00  0.00    -0.376 OA
BRANCH   5   6
ATOM      6  C   UNL A   1      38.119  22.195  26.029  1.00  0.00     0.202 C 
BRANCH   6   7
ATOM      7  C   UNL A   1      37.319  22.353  24.720  1.00  0.00     0.261 C 
BRANCH   7   8
ATOM      8  O   UNL A   1      36.017  22.960  24.784  1.00  0.00    -0.462 OA
BRANCH   8   9
ATOM      9  C   UNL A   1      35.357  23.040  23.604  1.00  0.00     0.329 C 
ATOM     10  O   UNL A   1      35.917  23.009  22.512  1.00  0.00    -0.250 OA
BRANCH   9  11
ATOM     11  C   UNL A   1      33.828  23.207  23.746  1.00  0.00     0.201 C 
ATOM     12  C   UNL A   1      32.895  22.454  22.796  1.00  0.00     0.044 C 
BRANCH  11  13
ATOM     13  N   UNL A   1      33.577  24.654  23.806  1.00  0.00    -0.257 N 
ATOM     14  C   UNL A   1      33.601  25.547  22.759  1.00  0.00     0.282 C 
ATOM     15  C   UNL A   1      33.519  25.314  25.010  1.00  0.00     0.282 C 
ATOM     16  O   UNL A   1      33.705  25.326  21.569  1.00  0.00    -0.267 OA
ATOM     17  C   UNL A   1      33.510  26.883  23.349  1.00  0.00     0.160 A 
ATOM     18  C   UNL A   1      33.480  26.741  24.710  1.00  0.00     0.160 A 
ATOM     19  O   UNL A   1      33.496  24.820  26.126  1.00  0.00    -0.267 OA
ATOM     20  N   UNL A   1      33.451  28.067  22.706  1.00  0.00    -0.247 NA
ATOM     21  N   UNL A   1      33.395  27.767  25.577  1.00  0.00    -0.247 NA
ATOM     22  C   UNL A   1      33.365  29.120  23.562  1.00  0.00     0.132 A 
ATOM     23  C   UNL A   1      33.344  28.975  24.957  1.00  0.00     0.132 A 
ENDBRANCH  11  13
ENDBRANCH   9  11
ENDBRANCH   8   9
ENDBRANCH   7   8
ENDBRANCH   6   7
ENDBRANCH   5   6
ENDBRANCH   4   5
ENDBRANCH   3   4
ENDBRANCH   2   3
ENDBRANCH   1   2
BRANCH   1  24
ATOM     24  C   UNL A   1      44.278  19.754  25.416  1.00  0.00     0.188 C 
BRANCH  24  25
ATOM     25  O   UNL A   1      45.135  20.818  25.805  1.00  0.00    -0.376 OA
BRANCH  25  26
ATOM     26  C   UNL A   1      46.002  21.403  24.845  1.00  0.00     0.202 C 
BRANCH  26  27
ATOM     27  C   UNL A   1      45.811  22.891  24.509  1.00  0.00     0.261 C 
BRANCH  27  28
ATOM     28  O   UNL A   1      44.932  23.638  25.365  1.00  0.00    -0.460 OA
BRANCH  28  29
ATOM     29  C   UNL A   1      43.629  23.716  25.023  1.00  0.00     0.338 C 
ATOM     30  O   UNL A   1      43.029  23.006  24.237  1.00  0.00    -0.246 OA
BRANCH  29  31
ATOM     31  C   UNL A   1      42.985  24.693  25.929  1.00  0.00     0.060 A 
ATOM     32  C   UNL A   1      43.464  26.010  25.953  1.00  0.00     0.016 A 
ATOM     33  C   UNL A   1      41.914  24.318  26.745  1.00  0.00     0.016 A 
ATOM     34  C   UNL A   1      42.902  26.946  26.821  1.00  0.00     0.010 A 
ATOM     35  C   UNL A   1      41.368  25.250  27.633  1.00  0.00     0.010 A 
ATOM     36  C   UNL A   1      41.886  26.556  27.702  1.00  0.00    -0.014 A 
BRANCH  36  37
ATOM     37  C   UNL A   1      41.515  27.444  28.832  1.00  0.00     0.031 A 
ATOM     38  C   UNL A   1      42.330  27.364  30.094  1.00  0.00     0.074 A 
ATOM     39  C   UNL A   1      40.501  28.322  28.736  1.00  0.00     0.049 A 
ATOM     40  N   UNL A   1      42.175  27.992  31.231  1.00  0.00    -0.248 NA
ATOM     41  C   UNL A   1      43.478  26.442  30.069  1.00  0.00     0.031 C 
ATOM     42  C   UNL A   1      39.675  28.534  27.552  1.00  0.00     0.029 A 
ATOM     43  N   UNL A   1      39.994  29.197  29.665  1.00  0.00    -0.354 N 
ATOM     44  C   UNL A   1      43.194  27.534  32.056  1.00  0.00     0.074 A 
ATOM     45  C   UNL A   1      43.944  26.553  31.303  1.00  0.00     0.031 C 
ATOM     46  C   UNL A   1      38.752  29.472  27.829  1.00  0.00     0.029 A 
ATOM     47  C   UNL A   1      38.901  29.898  29.219  1.00  0.00     0.049 A 
ATOM     48  H   UNL A   1      40.377  29.312  30.565  1.00  0.00     0.167 HD
ATOM     49  C   UNL A   1      43.481  27.902  33.327  1.00  0.00     0.037 A 
ATOM     50  C   UNL A   1      38.099  30.764  29.873  1.00  0.00     0.037 A 
ATOM     51  C   UNL A   1      42.732  28.879  34.072  1.00  0.00     0.049 A 
ATOM     52  C   UNL A   1      38.390  31.093  31.317  1.00  0.00     0.074 A 
ATOM     53  C   UNL A   1      42.956  29.339  35.358  1.00  0.00     0.029 A 
ATOM     54  N   UNL A   1      41.606  29.538  33.601  1.00  0.00    -0.354 N 
ATOM     55  N   UNL A   1      39.369  30.677  32.084  1.00  0.00    -0.248 NA
ATOM     56  C   UNL A   1      37.460  32.015  31.986  1.00  0.00     0.031 C 
ATOM     57  C   UNL A   1      41.925  30.224  35.690  1.00  0.00     0.029 A 
ATOM     58  C   UNL A   1      41.103  30.374  34.584  1.00  0.00     0.049 A 
ATOM     59  H   UNL A   1      41.221  29.428  32.701  1.00  0.00     0.167 HD
ATOM     60  C   UNL A   1      39.197  31.314  33.308  1.00  0.00     0.074 A 
ATOM     61  C   UNL A   1      38.025  32.154  33.177  1.00  0.00     0.031 C 
ATOM     62  C   UNL A   1      39.942  31.215  34.436  1.00  0.00     0.037 A 
BRANCH  49  63
ATOM     63  C   UNL A   1      44.632  27.217  34.007  1.00  0.00     0.064 A 
ATOM     64  C   UNL A   1      45.931  27.745  33.985  1.00  0.00     0.173 A 
ATOM     65  C   UNL A   1      44.421  26.027  34.721  1.00  0.00     0.173 A 
ATOM     66  F   UNL A   1      46.191  28.872  33.304  1.00  0.00    -0.203 F 
ATOM     67  C   UNL A   1      46.981  27.094  34.629  1.00  0.00     0.198 A 
ATOM     68  C   UNL A   1      45.465  25.397  35.393  1.00  0.00     0.198 A 
ATOM     69  F   UNL A   1      43.197  25.478  34.777  1.00  0.00    -0.203 F 
ATOM     70  F   UNL A   1      48.224  27.590  34.551  1.00  0.00    -0.200 F 
ATOM     71  C   UNL A   1      46.745  25.927  35.339  1.00  0.00     0.200 A 
ATOM     72  F   UNL A   1      45.231  24.277  36.091  1.00  0.00    -0.200 F 
ATOM     73  F   UNL A   1      47.754  25.306  35.967  1.00  0.00    -0.200 F 
ENDBRANCH  49  63
BRANCH  50  74
ATOM     74  C   UNL A   1      36.932  31.374  29.179  1.00  0.00     0.064 A 
ATOM     75  C   UNL A   1      36.931  32.730  28.820  1.00  0.00     0.173 A 
ATOM     76  C   UNL A   1      35.779  30.626  28.896  1.00  0.00     0.173 A 
ATOM     77  F   UNL A   1      37.996  33.496  29.094  1.00  0.00    -0.203 F 
ATOM     78  C   UNL A   1      35.814  33.318  28.228  1.00  0.00     0.198 A 
ATOM     79  C   UNL A   1      34.676  31.207  28.273  1.00  0.00     0.198 A 
ATOM     80  F   UNL A   1      35.723  29.327  29.223  1.00  0.00    -0.203 F 
ATOM     81  F   UNL A   1      35.819  34.629  27.950  1.00  0.00    -0.200 F 
ATOM     82  C   UNL A   1      34.691  32.555  27.950  1.00  0.00     0.200 A 
ATOM     83  F   UNL A   1      33.598  30.462  27.995  1.00  0.00    -0.200 F 
ATOM     84  F   UNL A   1      33.618  33.122  27.381  1.00  0.00    -0.200 F 
ENDBRANCH  50  74
BRANCH  62  85
ATOM     85  C   UNL A   1      39.550  32.074  35.608  1.00  0.00     0.064 A 
ATOM     86  C   UNL A   1      40.125  33.332  35.833  1.00  0.00     0.173 A 
ATOM     87  C   UNL A   1      38.548  31.645  36.493  1.00  0.00     0.173 A 
ATOM     88  F   UNL A   1      41.095  33.787  35.024  1.00  0.00    -0.203 F 
ATOM     89  C   UNL A   1      39.736  34.115  36.917  1.00  0.00     0.198 A 
ATOM     90  C   UNL A   1      38.134  32.446  37.554  1.00  0.00     0.198 A 
ATOM     91  F   UNL A   1      37.955  30.454  36.319  1.00  0.00    -0.203 F 
ATOM     92  F   UNL A   1      40.339  35.291  37.144  1.00  0.00    -0.200 F 
ATOM     93  C   UNL A   1      38.735  33.676  37.771  1.00  0.00     0.200 A 
ATOM     94  F   UNL A   1      37.153  32.028  38.365  1.00  0.00    -0.200 F 
ATOM     95  F   UNL A   1      38.355  34.436  38.807  1.00  0.00    -0.200 F 
ENDBRANCH  62  85
ENDBRANCH  36  37
ENDBRANCH  29  31
ENDBRANCH  28  29
ENDBRANCH  27  28
ENDBRANCH  26  27
ENDBRANCH  25  26
ENDBRANCH  24  25
ENDBRANCH   1  24
TORSDOF 21
ENDMDL
MODEL 2
REMARK VINA RESULT:     -10.5      1.685      3.412
REMARK SMILES C[C@@H](C(=O)OCCOCCOCCOCCOC(=O)c1ccc(-c2c3nc(c(-c4c(F)c(F)c(F)c(F)c4F)c4ccc([nH]4)c(-c4c(F)c(F)c(F)c(F)c4F)c4nc(c(-c5c(F)c(F)c(F)c(F)c5F)c5ccc2[nH]5)C=C4)C=C3)cc1)N1C(=O)c2nccnc2C1=O
REMARK SMILES IDX 12 1 11 2 10 3 9 4 8 5 7 6 6 7 5 8 3 9 4 10 2 11 1 12 83 13
REMARK SMILES IDX 84 14 92 15 85 16 86 17 91 18 93 19 87 20 90 21 88 22 89 23
REMARK SMILES IDX 13 24 14 25 15 26 16 27 17 28 18 29 19 30 20 31 21 32 82 33
REMARK SMILES IDX 22 34 81 35 23 36 24 37 25 38 75 39 26 40 80 41 74 42 76 43
REMARK SMILES IDX 27 44 79 45 73 46 72 47 28 49 60 50 40 51 59 52 41 53 44 54
REMARK SMILES IDX 58 55 77 56 42 57 43 58 57 60 78 61 45 62 29 63 30 64 38 65
REMARK SMILES IDX 31 66 32 67 36 68 39 69 33 70 34 71 37 72 35 73 61 74 62 75
REMARK SMILES IDX 70 76 63 77 64 78 68 79 71 80 65 81 66 82 69 83 67 84 46 85
REMARK SMILES IDX 47 86 55 87 48 88 49 89 53 90 56 91 50 92 51 93 54 94 52 95
REMARK H PARENT 76 48 44 59
REMARK Flexibility Score: inf
ROOT
ATOM      1  C   UNL A   1      40.422  21.952  27.350  1.00  0.00     0.188 C 
ENDROOT
BRANCH   1   2
ATOM      2  O   UNL A   1      39.795  22.126  26.088  1.00  0.00    -0.377 OA
BRANCH   2   3
ATOM      3  C   UNL A   1      38.679  21.294  25.830  1.00  0.00     0.188 C 
BRANCH   3   4
ATOM      4  C   UNL A   1      37.523  21.979  25.076  1.00  0.00     0.188 C 
BRANCH   4   5
ATOM      5  O   UNL A   1      36.318  22.343  25.738  1.00  0.00    -0.376 OA
BRANCH   5   6
ATOM      6  C   UNL A   1      35.792  23.655  25.647  1.00  0.00     0.202 C 
BRANCH   6   7
ATOM      7  C   UNL A   1      34.890  24.106  24.480  1.00  0.00     0.261 C 
BRANCH   7   8
ATOM      8  O   UNL A   1      34.441  23.115  23.540  1.00  0.00    -0.462 OA
BRANCH   8   9
ATOM      9  C   UNL A   1      33.448  23.513  22.709  1.00  0.00     0.329 C 
ATOM     10  O   UNL A   1      33.646  24.122  21.662  1.00  0.00    -0.250 OA
BRANCH   9  11
ATOM     11  C   UNL A   1      32.029  23.163  23.208  1.00  0.00     0.201 C 
ATOM     12  C   UNL A   1      31.325  24.094  24.197  1.00  0.00     0.044 C 
BRANCH  11  13
ATOM     13  N   UNL A   1      32.082  21.760  23.643  1.00  0.00    -0.257 N 
ATOM     14  C   UNL A   1      32.348  21.291  24.909  1.00  0.00     0.282 C 
ATOM     15  C   UNL A   1      32.095  20.735  22.728  1.00  0.00     0.282 C 
ATOM     16  O   UNL A   1      32.470  21.914  25.944  1.00  0.00    -0.267 OA
ATOM     17  C   UNL A   1      32.504  19.840  24.792  1.00  0.00     0.160 A 
ATOM     18  C   UNL A   1      32.370  19.509  23.470  1.00  0.00     0.160 A 
ATOM     19  O   UNL A   1      31.908  20.811  21.524  1.00  0.00    -0.267 OA
ATOM     20  N   UNL A   1      32.727  18.951  25.780  1.00  0.00    -0.247 NA
ATOM     21  N   UNL A   1      32.452  18.253  22.993  1.00  0.00    -0.247 NA
ATOM     22  C   UNL A   1      32.815  17.674  25.322  1.00  0.00     0.132 A 
ATOM     23  C   UNL A   1      32.686  17.336  23.967  1.00  0.00     0.132 A 
ENDBRANCH  11  13
ENDBRANCH   9  11
ENDBRANCH   8   9
ENDBRANCH   7   8
ENDBRANCH   6   7
ENDBRANCH   5   6
ENDBRANCH   4   5
ENDBRANCH   3   4
ENDBRANCH   2   3
ENDBRANCH   1   2
BRANCH   1  24
ATOM     24  C   UNL A   1      41.860  21.397  27.356  1.00  0.00     0.188 C 
BRANCH  24  25
ATOM     25  O   UNL A   1      42.310  20.953  26.084  1.00  0.00    -0.376 OA
BRANCH  25  26
ATOM     26  C   UNL A   1      43.654  21.191  25.697  1.00  0.00     0.202 C 
BRANCH  26  27
ATOM     27  C   UNL A   1      43.915  22.207  24.572  1.00  0.00     0.261 C 
BRANCH  27  28
ATOM     28  O   UNL A   1      43.307  23.500  24.717  1.00  0.00    -0.460 OA
BRANCH  28  29
ATOM     29  C   UNL A   1      44.101  24.542  25.041  1.00  0.00     0.338 C 
ATOM     30  O   UNL A   1      45.175  24.831  24.548  1.00  0.00    -0.246 OA
BRANCH  29  31
ATOM     31  C   UNL A   1      43.345  25.411  25.970  1.00  0.00     0.060 A 
ATOM     32  C   UNL A   1      43.685  26.768  26.053  1.00  0.00     0.016 A 
ATOM     33  C   UNL A   1      42.306  24.895  26.749  1.00  0.00     0.016 A 
ATOM     34  C   UNL A   1      43.014  27.605  26.945  1.00  0.00     0.010 A 
ATOM     35  C   UNL A   1      41.652  25.729  27.661  1.00  0.00     0.010 A 
ATOM     36  C   UNL A   1      42.030  27.079  27.790  1.00  0.00    -0.014 A 
BRANCH  36  37
ATOM     37  C   UNL A   1      41.551  27.878  28.944  1.00  0.00     0.031 A 
ATOM     38  C   UNL A   1      42.302  27.768  30.244  1.00  0.00     0.074 A 
ATOM     39  C   UNL A   1      40.496  28.704  28.841  1.00  0.00     0.049 A 
ATOM     40  N   UNL A   1      42.052  28.320  31.403  1.00  0.00    -0.248 NA
ATOM     41  C   UNL A   1      43.500  26.911  30.231  1.00  0.00     0.031 C 
ATOM     42  C   UNL A   1      39.722  28.941  27.627  1.00  0.00     0.029 A 
ATOM     43  N   UNL A   1      39.893  29.497  29.787  1.00  0.00    -0.354 N 
ATOM     44  C   UNL A   1      43.050  27.868  32.257  1.00  0.00     0.074 A 
ATOM     45  C   UNL A   1      43.893  26.975  31.494  1.00  0.00     0.031 C 
ATOM     46  C   UNL A   1      38.735  29.812  27.903  1.00  0.00     0.029 A 
ATOM     47  C   UNL A   1      38.786  30.163  29.321  1.00  0.00     0.049 A 
ATOM     48  H   UNL A   1      40.221  29.579  30.712  1.00  0.00     0.167 HD
ATOM     49  C   UNL A   1      43.250  28.177  33.560  1.00  0.00     0.037 A 
ATOM     50  C   UNL A   1      37.904  30.945  29.976  1.00  0.00     0.037 A 
ATOM     51  C   UNL A   1      42.409  29.068  34.316  1.00  0.00     0.049 A 
ATOM     52  C   UNL A   1      38.100  31.205  31.450  1.00  0.00     0.074 A 
ATOM     53  C   UNL A   1      42.538  29.463  35.636  1.00  0.00     0.029 A 
ATOM     54  N   UNL A   1      41.274  29.692  33.820  1.00  0.00    -0.354 N 
ATOM     55  N   UNL A   1      39.059  30.797  32.246  1.00  0.00    -0.248 NA
ATOM     56  C   UNL A   1      37.086  32.036  32.116  1.00  0.00     0.031 C 
ATOM     57  C   UNL A   1      41.444  30.271  35.958  1.00  0.00     0.029 A 
ATOM     58  C   UNL A   1      40.673  30.441  34.818  1.00  0.00     0.049 A 
ATOM     59  H   UNL A   1      40.943  29.614  32.895  1.00  0.00     0.167 HD
ATOM     60  C   UNL A   1      38.787  31.352  33.492  1.00  0.00     0.074 A 
ATOM     61  C   UNL A   1      37.578  32.135  33.343  1.00  0.00     0.031 C 
ATOM     62  C   UNL A   1      39.476  31.227  34.652  1.00  0.00     0.037 A 
BRANCH  49  63
ATOM     63  C   UNL A   1      44.400  27.515  34.265  1.00  0.00     0.064 A 
ATOM     64  C   UNL A   1      44.299  26.224  34.803  1.00  0.00     0.173 A 
ATOM     65  C   UNL A   1      45.634  28.175  34.372  1.00  0.00     0.173 A 
ATOM     66  F   UNL A   1      43.138  25.554  34.742  1.00  0.00    -0.203 F 
ATOM     67  C   UNL A   1      45.382  25.628  35.446  1.00  0.00     0.198 A 
ATOM     68  C   UNL A   1      46.725  27.564  34.984  1.00  0.00     0.198 A 
ATOM     69  F   UNL A   1      45.787  29.411  33.873  1.00  0.00    -0.203 F 
ATOM     70  F   UNL A   1      45.247  24.415  35.999  1.00  0.00    -0.200 F 
ATOM     71  C   UNL A   1      46.595  26.295  35.528  1.00  0.00     0.200 A 
ATOM     72  F   UNL A   1      47.900  28.204  35.048  1.00  0.00    -0.200 F 
ATOM     73  F   UNL A   1      47.640  25.717  36.138  1.00  0.00    -0.200 F 
ENDBRANCH  49  63
BRANCH  50  74
ATOM     74  C   UNL A   1      36.743  31.532  29.253  1.00  0.00     0.064 A 
ATOM     75  C   UNL A   1      36.686  32.904  28.967  1.00  0.00     0.173 A 
ATOM     76  C   UNL A   1      35.649  30.742  28.869  1.00  0.00     0.173 A 
ATOM     77  F   UNL A   1      37.692  33.708  29.339  1.00  0.00    -0.203 F 
ATOM     78  C   UNL A   1      35.570  33.465  28.348  1.00  0.00     0.198 A 
ATOM     79  C   UNL A   1      34.549  31.299  28.218  1.00  0.00     0.198 A 
ATOM     80  F   UNL A   1      35.647  29.426  29.122  1.00  0.00    -0.203 F 
ATOM     81  F   UNL A   1      35.518  34.789  28.140  1.00  0.00    -0.200 F 
ATOM     82  C   UNL A   1      34.506  32.662  27.969  1.00  0.00     0.200 A 
ATOM     83  F   UNL A   1      33.529  30.516  27.843  1.00  0.00    -0.200 F 
ATOM     84  F   UNL A   1      33.435  33.203  27.373  1.00  0.00    -0.200 F 
ENDBRANCH  50  74
BRANCH  62  85
ATOM     85  C   UNL A   1      38.975  31.994  35.847  1.00  0.00     0.064 A 
ATOM     86  C   UNL A   1      38.172  31.397  36.829  1.00  0.00     0.173 A 
ATOM     87  C   UNL A   1      39.345  33.336  36.030  1.00  0.00     0.173 A 
ATOM     88  F   UNL A   1      37.780  30.121  36.699  1.00  0.00    -0.203 F 
ATOM     89  C   UNL A   1      37.732  32.124  37.933  1.00  0.00     0.198 A 
ATOM     90  C   UNL A   1      38.935  34.048  37.154  1.00  0.00     0.198 A 
ATOM     91  F   UNL A   1      40.121  33.954  35.126  1.00  0.00    -0.203 F 
ATOM     92  F   UNL A   1      36.920  31.549  38.831  1.00  0.00    -0.200 F 
ATOM     93  C   UNL A   1      38.121  33.445  38.099  1.00  0.00     0.200 A 
ATOM     94  F   UNL A   1      39.329  35.318  37.321  1.00  0.00    -0.200 F 
ATOM     95  F   UNL A   1      37.705  34.138  39.168  1.00  0.00    -0.200 F 
ENDBRANCH  62  85
ENDBRANCH  36  37
ENDBRANCH  29  31
ENDBRANCH  28  29
ENDBRANCH  27  28
ENDBRANCH  26  27
ENDBRANCH  25  26
ENDBRANCH  24  25
ENDBRANCH   1  24
TORSDOF 21
ENDMDL
MODEL 3
REMARK VINA RESULT:     -10.3      0.379      1.838
REMARK SMILES C[C@@H](C(=O)OCCOCCOCCOCCOC(=O)c1ccc(-c2c3nc(c(-c4c(F)c(F)c(F)c(F)c4F)c4ccc([nH]4)c(-c4c(F)c(F)c(F)c(F)c4F)c4nc(c(-c5c(F)c(F)c(F)c(F)c5F)c5ccc2[nH]5)C=C4)C=C3)cc1)N1C(=O)c2nccnc2C1=O
REMARK SMILES IDX 12 1 11 2 10 3 9 4 8 5 7 6 6 7 5 8 3 9 4 10 2 11 1 12 83 13
REMARK SMILES IDX 84 14 92 15 85 16 86 17 91 18 93 19 87 20 90 21 88 22 89 23
REMARK SMILES IDX 13 24 14 25 15 26 16 27 17 28 18 29 19 30 20 31 21 32 82 33
REMARK SMILES IDX 22 34 81 35 23 36 24 37 25 38 75 39 26 40 80 41 74 42 76 43
REMARK SMILES IDX 27 44 79 45 73 46 72 47 28 49 60 50 40 51 59 52 41 53 44 54
REMARK SMILES IDX 58 55 77 56 42 57 43 58 57 60 78 61 45 62 29 63 30 64 38 65
REMARK SMILES IDX 31 66 32 67 36 68 39 69 33 70 34 71 37 72 35 73 61 74 62 75
REMARK SMILES IDX 70 76 63 77 64 78 68 79 71 80 65 81 66 82 69 83 67 84 46 85
REMARK SMILES IDX 47 86 55 87 48 88 49 89 53 90 56 91 50 92 51 93 54 94 52 95
REMARK H PARENT 76 48 44 59
REMARK Flexibility Score: inf
ROOT
ATOM      1  C   UNL A   1      42.610  20.403  25.698  1.00  0.00     0.188 C 
ENDROOT
BRANCH   1   2
ATOM      2  O   UNL A   1      42.337  20.837  27.021  1.00  0.00    -0.377 OA
BRANCH   2   3
ATOM      3  C   UNL A   1      40.973  21.048  27.335  1.00  0.00     0.188 C 
BRANCH   3   4
ATOM      4  C   UNL A   1      40.071  21.362  26.126  1.00  0.00     0.188 C 
BRANCH   4   5
ATOM      5  O   UNL A   1      39.130  22.427  26.159  1.00  0.00    -0.376 OA
BRANCH   5   6
ATOM      6  C   UNL A   1      37.745  22.197  25.975  1.00  0.00     0.202 C 
BRANCH   6   7
ATOM      7  C   UNL A   1      37.164  21.661  24.651  1.00  0.00     0.261 C 
BRANCH   7   8
ATOM      8  O   UNL A   1      35.748  21.780  24.427  1.00  0.00    -0.462 OA
BRANCH   8   9
ATOM      9  C   UNL A   1      35.381  22.727  23.531  1.00  0.00     0.329 C 
ATOM     10  O   UNL A   1      36.163  23.252  22.743  1.00  0.00    -0.250 OA
BRANCH   9  11
ATOM     11  C   UNL A   1      33.890  23.120  23.602  1.00  0.00     0.201 C 
ATOM     12  C   UNL A   1      32.925  22.621  22.525  1.00  0.00     0.044 C 
BRANCH  11  13
ATOM     13  N   UNL A   1      33.859  24.576  23.803  1.00  0.00    -0.257 N 
ATOM     14  C   UNL A   1      33.785  25.248  25.002  1.00  0.00     0.282 C 
ATOM     15  C   UNL A   1      33.659  25.433  22.748  1.00  0.00     0.282 C 
ATOM     16  O   UNL A   1      33.857  24.806  26.131  1.00  0.00    -0.267 OA
ATOM     17  C   UNL A   1      33.560  26.657  24.676  1.00  0.00     0.160 A 
ATOM     18  C   UNL A   1      33.465  26.763  23.315  1.00  0.00     0.160 A 
ATOM     19  O   UNL A   1      33.649  25.157  21.559  1.00  0.00    -0.267 OA
ATOM     20  N   UNL A   1      33.469  27.697  25.529  1.00  0.00    -0.247 NA
ATOM     21  N   UNL A   1      33.260  27.920  22.658  1.00  0.00    -0.247 NA
ATOM     22  C   UNL A   1      33.261  28.879  24.888  1.00  0.00     0.132 A 
ATOM     23  C   UNL A   1      33.154  28.986  23.494  1.00  0.00     0.132 A 
ENDBRANCH  11  13
ENDBRANCH   9  11
ENDBRANCH   8   9
ENDBRANCH   7   8
ENDBRANCH   6   7
ENDBRANCH   5   6
ENDBRANCH   4   5
ENDBRANCH   3   4
ENDBRANCH   2   3
ENDBRANCH   1   2
BRANCH   1  24
ATOM     24  C   UNL A   1      44.044  19.928  25.389  1.00  0.00     0.188 C 
BRANCH  24  25
ATOM     25  O   UNL A   1      45.051  20.847  25.788  1.00  0.00    -0.376 OA
BRANCH  25  26
ATOM     26  C   UNL A   1      45.785  21.552  24.799  1.00  0.00     0.202 C 
BRANCH  26  27
ATOM     27  C   UNL A   1      45.784  23.089  24.854  1.00  0.00     0.261 C 
BRANCH  27  28
ATOM     28  O   UNL A   1      44.803  23.703  25.705  1.00  0.00    -0.460 OA
BRANCH  28  29
ATOM     29  C   UNL A   1      43.586  23.966  25.184  1.00  0.00     0.338 C 
ATOM     30  O   UNL A   1      43.046  23.402  24.251  1.00  0.00    -0.246 OA
BRANCH  29  31
ATOM     31  C   UNL A   1      42.915  24.935  26.079  1.00  0.00     0.060 A 
ATOM     32  C   UNL A   1      43.413  26.242  26.153  1.00  0.00     0.016 A 
ATOM     33  C   UNL A   1      41.801  24.560  26.835  1.00  0.00     0.016 A 
ATOM     34  C   UNL A   1      42.823  27.169  27.014  1.00  0.00     0.010 A 
ATOM     35  C   UNL A   1      41.227  25.482  27.716  1.00  0.00     0.010 A 
ATOM     36  C   UNL A   1      41.760  26.778  27.837  1.00  0.00    -0.014 A 
BRANCH  36  37
ATOM     37  C   UNL A   1      41.350  27.649  28.966  1.00  0.00     0.031 A 
ATOM     38  C   UNL A   1      42.137  27.568  30.247  1.00  0.00     0.074 A 
ATOM     39  C   UNL A   1      40.325  28.511  28.856  1.00  0.00     0.049 A 
ATOM     40  N   UNL A   1      41.945  28.183  31.385  1.00  0.00    -0.248 NA
ATOM     41  C   UNL A   1      43.299  26.664  30.239  1.00  0.00     0.031 C 
ATOM     42  C   UNL A   1      39.523  28.723  27.655  1.00  0.00     0.029 A 
ATOM     43  N   UNL A   1      39.783  29.370  29.781  1.00  0.00    -0.354 N 
ATOM     44  C   UNL A   1      42.951  27.731  32.230  1.00  0.00     0.074 A 
ATOM     45  C   UNL A   1      43.735  26.770  31.484  1.00  0.00     0.031 C 
ATOM     46  C   UNL A   1      38.579  29.644  27.919  1.00  0.00     0.029 A 
ATOM     47  C   UNL A   1      38.689  30.058  29.317  1.00  0.00     0.049 A 
ATOM     48  H   UNL A   1      40.143  29.481  30.690  1.00  0.00     0.167 HD
ATOM     49  C   UNL A   1      43.204  28.091  33.510  1.00  0.00     0.037 A 
ATOM     50  C   UNL A   1      37.859  30.905  29.960  1.00  0.00     0.037 A 
ATOM     51  C   UNL A   1      42.422  29.049  34.247  1.00  0.00     0.049 A 
ATOM     52  C   UNL A   1      38.111  31.224  31.413  1.00  0.00     0.074 A 
ATOM     53  C   UNL A   1      42.609  29.499  35.543  1.00  0.00     0.029 A 
ATOM     54  N   UNL A   1      41.297  29.695  33.756  1.00  0.00    -0.354 N 
ATOM     55  N   UNL A   1      39.079  30.815  32.199  1.00  0.00    -0.248 NA
ATOM     56  C   UNL A   1      37.152  32.124  32.070  1.00  0.00     0.031 C 
ATOM     57  C   UNL A   1      41.557  30.364  35.859  1.00  0.00     0.029 A 
ATOM     58  C   UNL A   1      40.758  30.513  34.736  1.00  0.00     0.049 A 
ATOM     59  H   UNL A   1      40.935  29.588  32.847  1.00  0.00     0.167 HD
ATOM     60  C   UNL A   1      38.868  31.437  33.424  1.00  0.00     0.074 A 
ATOM     61  C   UNL A   1      37.686  32.260  33.275  1.00  0.00     0.031 C 
ATOM     62  C   UNL A   1      39.588  31.338  34.569  1.00  0.00     0.037 A 
BRANCH  49  63
ATOM     63  C   UNL A   1      44.349  27.416  34.211  1.00  0.00     0.064 A 
ATOM     64  C   UNL A   1      44.212  26.161  34.821  1.00  0.00     0.173 A 
ATOM     65  C   UNL A   1      45.613  28.025  34.240  1.00  0.00     0.173 A 
ATOM     66  F   UNL A   1      43.022  25.542  34.836  1.00  0.00    -0.203 F 
ATOM     67  C   UNL A   1      45.291  25.553  35.459  1.00  0.00     0.198 A 
ATOM     68  C   UNL A   1      46.698  27.399  34.847  1.00  0.00     0.198 A 
ATOM     69  F   UNL A   1      45.801  29.225  33.669  1.00  0.00    -0.203 F 
ATOM     70  F   UNL A   1      45.124  24.377  36.081  1.00  0.00    -0.200 F 
ATOM     71  C   UNL A   1      46.534  26.168  35.464  1.00  0.00     0.200 A 
ATOM     72  F   UNL A   1      47.902  27.989  34.837  1.00  0.00    -0.200 F 
ATOM     73  F   UNL A   1      47.574  25.577  36.069  1.00  0.00    -0.200 F 
ENDBRANCH  49  63
BRANCH  50  74
ATOM     74  C   UNL A   1      36.699  31.504  29.245  1.00  0.00     0.064 A 
ATOM     75  C   UNL A   1      36.663  32.873  28.943  1.00  0.00     0.173 A 
ATOM     76  C   UNL A   1      35.586  30.730  28.884  1.00  0.00     0.173 A 
ATOM     77  F   UNL A   1      37.689  33.663  29.292  1.00  0.00    -0.203 F 
ATOM     78  C   UNL A   1      35.550  33.447  28.331  1.00  0.00     0.198 A 
ATOM     79  C   UNL A   1      34.488  31.298  28.242  1.00  0.00     0.198 A 
ATOM     80  F   UNL A   1      35.564  29.417  29.154  1.00  0.00    -0.203 F 
ATOM     81  F   UNL A   1      35.519  34.769  28.108  1.00  0.00    -0.200 F 
ATOM     82  C   UNL A   1      34.467  32.659  27.976  1.00  0.00     0.200 A 
ATOM     83  F   UNL A   1      33.449  30.530  27.889  1.00  0.00    -0.200 F 
ATOM     84  F   UNL A   1      33.397  33.212  27.387  1.00  0.00    -0.200 F 
ENDBRANCH  50  74
BRANCH  62  85
ATOM     85  C   UNL A   1      39.155  32.178  35.740  1.00  0.00     0.064 A 
ATOM     86  C   UNL A   1      38.291  31.686  36.728  1.00  0.00     0.173 A 
ATOM     87  C   UNL A   1      39.652  33.482  35.895  1.00  0.00     0.173 A 
ATOM     88  F   UNL A   1      37.778  30.451  36.624  1.00  0.00    -0.203 F 
ATOM     89  C   UNL A   1      37.916  32.478  37.811  1.00  0.00     0.198 A 
ATOM     90  C   UNL A   1      39.304  34.258  36.997  1.00  0.00     0.198 A 
ATOM     91  F   UNL A   1      40.490  34.000  34.984  1.00  0.00    -0.203 F 
ATOM     92  F   UNL A   1      37.045  32.007  38.714  1.00  0.00    -0.200 F 
ATOM     93  C   UNL A   1      38.429  33.759  37.949  1.00  0.00     0.200 A 
ATOM     94  F   UNL A   1      39.818  35.488  37.139  1.00  0.00    -0.200 F 
ATOM     95  F   UNL A   1      38.075  34.515  38.997  1.00  0.00    -0.200 F 
ENDBRANCH  62  85
ENDBRANCH  36  37
ENDBRANCH  29  31
ENDBRANCH  28  29
ENDBRANCH  27  28
ENDBRANCH  26  27
ENDBRANCH  25  26
ENDBRANCH  24  25
ENDBRANCH   1  24
TORSDOF 21
ENDMDL
