MODEL 1
REMARK VINA RESULT:     -10.6      0.000      0.000
REMARK SMILES Cc1cccc(-c2ccc(Cl)c(C(=O)OCCOCCOCCOCCOC(=O)c3ccc(-c4c5nc(c(-c6c(F)c(F)c(F)c(F)c6F)c6ccc([nH]6)c(-c6c(F)c(F)c(F)c(F)c6F)c6nc(c(-c7c(F)c(F)c(F)c(F)c7F)c7ccc4[nH]7)C=C6)C=C5)cc3)c2)c1
REMARK SMILES IDX 22 1 21 2 20 3 19 4 18 5 17 6 16 7 15 8 13 9 14 10 12 11
REMARK SMILES IDX 7 12 8 13 93 14 9 15 10 16 11 17 6 18 1 19 2 20 3 21 94 22
REMARK SMILES IDX 4 23 5 24 23 25 24 26 25 27 26 28 27 29 28 30 29 31 30 32
REMARK SMILES IDX 31 33 92 34 32 35 91 36 33 37 34 38 35 39 85 40 36 41 90 42
REMARK SMILES IDX 84 43 86 44 37 45 89 46 83 47 82 48 38 50 70 51 50 52 69 53
REMARK SMILES IDX 51 54 54 55 68 56 87 57 52 58 53 59 67 61 88 62 55 63 39 64
REMARK SMILES IDX 40 65 48 66 41 67 42 68 46 69 49 70 43 71 44 72 47 73 45 74
REMARK SMILES IDX 71 75 72 76 80 77 73 78 74 79 78 80 81 81 75 82 76 83 79 84
REMARK SMILES IDX 77 85 56 86 57 87 65 88 58 89 59 90 63 91 66 92 60 93 61 94
REMARK SMILES IDX 64 95 62 96
REMARK H PARENT 86 49 54 60
REMARK Flexibility Score: inf
ROOT
ATOM      1  C   UNL A   1      35.935  23.242  25.925  1.00  0.00     0.188 C 
ENDROOT
BRANCH   1   2
ATOM      2  O   UNL A   1      34.887  24.195  25.734  1.00  0.00    -0.377 OA
BRANCH   2   3
ATOM      3  C   UNL A   1      34.775  24.810  24.461  1.00  0.00     0.188 C 
BRANCH   3   4
ATOM      4  C   UNL A   1      33.353  25.190  24.003  1.00  0.00     0.188 C 
BRANCH   4   5
ATOM      5  O   UNL A   1      33.166  26.140  22.963  1.00  0.00    -0.376 OA
BRANCH   5   6
ATOM      6  C   UNL A   1      31.972  25.987  22.200  1.00  0.00     0.202 C 
BRANCH   6   7
ATOM      7  C   UNL A   1      31.131  27.233  22.007  1.00  0.00     0.261 C 
BRANCH   7   8
ATOM      8  O   UNL A   1      31.761  28.295  22.728  1.00  0.00    -0.460 OA
BRANCH   8   9
ATOM      9  C   UNL A   1      30.951  28.905  23.604  1.00  0.00     0.339 C 
ATOM     10  O   UNL A   1      29.847  29.366  23.391  1.00  0.00    -0.246 OA
BRANCH   9  11
ATOM     11  C   UNL A   1      31.339  28.428  24.932  1.00  0.00     0.079 A 
ATOM     12  C   UNL A   1      32.905  29.013  26.689  1.00  0.00    -0.017 A 
ATOM     13  C   UNL A   1      32.623  27.813  27.333  1.00  0.00     0.010 A 
ATOM     14  C   UNL A   1      32.240  29.308  25.506  1.00  0.00     0.026 A 
ATOM     15  C   UNL A   1      31.612  26.985  26.829  1.00  0.00     0.022 A 
ATOM     16  C   UNL A   1      30.949  27.302  25.636  1.00  0.00     0.055 A 
ATOM     17  Cl  UNL A   1      29.699  26.245  25.150  1.00  0.00    -0.083 Cl
BRANCH  12  18
ATOM     18  C   UNL A   1      34.021  29.907  26.940  1.00  0.00    -0.018 A 
ATOM     19  C   UNL A   1      34.043  33.327  28.557  1.00  0.00     0.044 C 
ATOM     20  C   UNL A   1      34.518  31.987  28.087  1.00  0.00    -0.051 A 
ATOM     21  C   UNL A   1      35.761  31.466  28.465  1.00  0.00     0.003 A 
ATOM     22  C   UNL A   1      33.676  31.218  27.289  1.00  0.00     0.012 A 
ATOM     23  C   UNL A   1      36.142  30.180  28.074  1.00  0.00     0.001 A 
ATOM     24  C   UNL A   1      35.275  29.397  27.314  1.00  0.00     0.009 A 
ENDBRANCH  12  18
ENDBRANCH   9  11
ENDBRANCH   8   9
ENDBRANCH   7   8
ENDBRANCH   6   7
ENDBRANCH   5   6
ENDBRANCH   4   5
ENDBRANCH   3   4
ENDBRANCH   2   3
ENDBRANCH   1   2
BRANCH   1  25
ATOM     25  C   UNL A   1      36.641  22.630  24.730  1.00  0.00     0.188 C 
BRANCH  25  26
ATOM     26  O   UNL A   1      37.810  21.989  25.222  1.00  0.00    -0.376 OA
BRANCH  26  27
ATOM     27  C   UNL A   1      37.881  20.588  25.004  1.00  0.00     0.202 C 
BRANCH  27  28
ATOM     28  C   UNL A   1      39.076  19.946  25.715  1.00  0.00     0.261 C 
BRANCH  28  29
ATOM     29  O   UNL A   1      39.989  20.984  26.139  1.00  0.00    -0.460 OA
BRANCH  29  30
ATOM     30  C   UNL A   1      41.314  20.714  25.959  1.00  0.00     0.338 C 
ATOM     31  O   UNL A   1      41.754  19.695  25.451  1.00  0.00    -0.246 OA
BRANCH  30  32
ATOM     32  C   UNL A   1      42.155  21.697  26.715  1.00  0.00     0.060 A 
ATOM     33  C   UNL A   1      41.798  22.106  28.013  1.00  0.00     0.016 A 
ATOM     34  C   UNL A   1      43.077  22.451  26.012  1.00  0.00     0.016 A 
ATOM     35  C   UNL A   1      42.203  23.367  28.512  1.00  0.00     0.010 A 
ATOM     36  C   UNL A   1      43.379  23.720  26.473  1.00  0.00     0.010 A 
ATOM     37  C   UNL A   1      42.920  24.241  27.698  1.00  0.00    -0.014 A 
BRANCH  37  38
ATOM     38  C   UNL A   1      43.140  25.706  27.907  1.00  0.00     0.031 A 
ATOM     39  C   UNL A   1      41.917  26.610  28.091  1.00  0.00     0.074 A 
ATOM     40  C   UNL A   1      44.356  26.192  28.308  1.00  0.00     0.049 A 
ATOM     41  N   UNL A   1      41.943  27.853  28.451  1.00  0.00    -0.248 NA
ATOM     42  C   UNL A   1      40.531  26.168  27.922  1.00  0.00     0.031 C 
ATOM     43  C   UNL A   1      44.515  27.345  29.190  1.00  0.00     0.029 A 
ATOM     44  N   UNL A   1      45.696  25.773  28.144  1.00  0.00    -0.354 N 
ATOM     45  C   UNL A   1      40.693  28.239  28.908  1.00  0.00     0.074 A 
ATOM     46  C   UNL A   1      39.831  27.176  28.464  1.00  0.00     0.031 C 
ATOM     47  C   UNL A   1      45.791  27.660  29.379  1.00  0.00     0.029 A 
ATOM     48  C   UNL A   1      46.537  26.875  28.453  1.00  0.00     0.049 A 
ATOM     49  H   UNL A   1      45.994  24.876  27.867  1.00  0.00     0.167 HD
ATOM     50  C   UNL A   1      40.583  29.348  29.714  1.00  0.00     0.037 A 
ATOM     51  C   UNL A   1      47.474  27.417  27.631  1.00  0.00     0.037 A 
ATOM     52  C   UNL A   1      41.885  30.035  29.850  1.00  0.00     0.049 A 
ATOM     53  C   UNL A   1      47.122  28.871  27.393  1.00  0.00     0.074 A 
ATOM     54  C   UNL A   1      42.662  30.433  30.924  1.00  0.00     0.029 A 
ATOM     55  N   UNL A   1      42.662  30.280  28.718  1.00  0.00    -0.354 N 
ATOM     56  N   UNL A   1      45.871  29.277  27.355  1.00  0.00    -0.248 NA
ATOM     57  C   UNL A   1      48.069  29.984  27.474  1.00  0.00     0.031 C 
ATOM     58  C   UNL A   1      43.943  30.817  30.437  1.00  0.00     0.029 A 
ATOM     59  C   UNL A   1      43.908  30.762  29.051  1.00  0.00     0.049 A 
ATOM     60  H   UNL A   1      42.357  30.127  27.794  1.00  0.00     0.167 HD
ATOM     61  C   UNL A   1      45.840  30.626  27.583  1.00  0.00     0.074 A 
ATOM     62  C   UNL A   1      47.237  31.037  27.589  1.00  0.00     0.031 C 
ATOM     63  C   UNL A   1      44.766  31.335  28.036  1.00  0.00     0.037 A 
BRANCH  50  64
ATOM     64  C   UNL A   1      39.377  29.792  30.575  1.00  0.00     0.064 A 
ATOM     65  C   UNL A   1      38.879  31.123  30.489  1.00  0.00     0.173 A 
ATOM     66  C   UNL A   1      38.716  29.015  31.550  1.00  0.00     0.173 A 
ATOM     67  F   UNL A   1      39.329  31.978  29.563  1.00  0.00    -0.203 F 
ATOM     68  C   UNL A   1      37.882  31.636  31.335  1.00  0.00     0.198 A 
ATOM     69  C   UNL A   1      37.675  29.514  32.358  1.00  0.00     0.198 A 
ATOM     70  F   UNL A   1      39.052  27.748  31.795  1.00  0.00    -0.203 F 
ATOM     71  F   UNL A   1      37.515  32.922  31.233  1.00  0.00    -0.200 F 
ATOM     72  C   UNL A   1      37.273  30.830  32.267  1.00  0.00     0.200 A 
ATOM     73  F   UNL A   1      37.071  28.702  33.240  1.00  0.00    -0.200 F 
ATOM     74  F   UNL A   1      36.306  31.308  33.063  1.00  0.00    -0.200 F 
ENDBRANCH  50  64
BRANCH  51  75
ATOM     75  C   UNL A   1      48.175  26.363  26.845  1.00  0.00     0.064 A 
ATOM     76  C   UNL A   1      47.813  26.378  25.475  1.00  0.00     0.173 A 
ATOM     77  C   UNL A   1      49.525  26.113  27.144  1.00  0.00     0.173 A 
ATOM     78  F   UNL A   1      46.527  26.563  25.128  1.00  0.00    -0.203 F 
ATOM     79  C   UNL A   1      48.783  26.480  24.477  1.00  0.00     0.198 A 
ATOM     80  C   UNL A   1      50.493  26.205  26.136  1.00  0.00     0.198 A 
ATOM     81  F   UNL A   1      49.927  26.060  28.421  1.00  0.00    -0.203 F 
ATOM     82  F   UNL A   1      48.421  26.748  23.213  1.00  0.00    -0.200 F 
ATOM     83  C   UNL A   1      50.124  26.459  24.820  1.00  0.00     0.200 A 
ATOM     84  F   UNL A   1      51.794  26.206  26.460  1.00  0.00    -0.200 F 
ATOM     85  F   UNL A   1      51.054  26.767  23.904  1.00  0.00    -0.200 F 
ENDBRANCH  51  75
BRANCH  63  86
ATOM     86  C   UNL A   1      44.406  32.695  27.485  1.00  0.00     0.064 A 
ATOM     87  C   UNL A   1      43.987  32.886  26.161  1.00  0.00     0.173 A 
ATOM     88  C   UNL A   1      44.268  33.822  28.340  1.00  0.00     0.173 A 
ATOM     89  F   UNL A   1      43.986  31.882  25.273  1.00  0.00    -0.203 F 
ATOM     90  C   UNL A   1      43.501  34.114  25.715  1.00  0.00     0.198 A 
ATOM     91  C   UNL A   1      43.734  35.028  27.902  1.00  0.00     0.198 A 
ATOM     92  F   UNL A   1      44.599  33.785  29.637  1.00  0.00    -0.203 F 
ATOM     93  F   UNL A   1      43.138  34.249  24.433  1.00  0.00    -0.200 F 
ATOM     94  C   UNL A   1      43.363  35.179  26.585  1.00  0.00     0.200 A 
ATOM     95  F   UNL A   1      43.555  36.031  28.774  1.00  0.00    -0.200 F 
ATOM     96  F   UNL A   1      42.859  36.343  26.157  1.00  0.00    -0.200 F 
ENDBRANCH  63  86
ENDBRANCH  37  38
ENDBRANCH  30  32
ENDBRANCH  29  30
ENDBRANCH  28  29
ENDBRANCH  27  28
ENDBRANCH  26  27
ENDBRANCH  25  26
ENDBRANCH   1  25
TORSDOF 21
ENDMDL
MODEL 2
REMARK VINA RESULT:     -10.4      1.730      3.950
REMARK SMILES Cc1cccc(-c2ccc(Cl)c(C(=O)OCCOCCOCCOCCOC(=O)c3ccc(-c4c5nc(c(-c6c(F)c(F)c(F)c(F)c6F)c6ccc([nH]6)c(-c6c(F)c(F)c(F)c(F)c6F)c6nc(c(-c7c(F)c(F)c(F)c(F)c7F)c7ccc4[nH]7)C=C6)C=C5)cc3)c2)c1
REMARK SMILES IDX 22 1 21 2 20 3 19 4 18 5 17 6 16 7 15 8 13 9 14 10 12 11
REMARK SMILES IDX 7 12 8 13 93 14 9 15 10 16 11 17 6 18 1 19 2 20 3 21 94 22
REMARK SMILES IDX 4 23 5 24 23 25 24 26 25 27 26 28 27 29 28 30 29 31 30 32
REMARK SMILES IDX 31 33 92 34 32 35 91 36 33 37 34 38 35 39 85 40 36 41 90 42
REMARK SMILES IDX 84 43 86 44 37 45 89 46 83 47 82 48 38 50 70 51 50 52 69 53
REMARK SMILES IDX 51 54 54 55 68 56 87 57 52 58 53 59 67 61 88 62 55 63 39 64
REMARK SMILES IDX 40 65 48 66 41 67 42 68 46 69 49 70 43 71 44 72 47 73 45 74
REMARK SMILES IDX 71 75 72 76 80 77 73 78 74 79 78 80 81 81 75 82 76 83 79 84
REMARK SMILES IDX 77 85 56 86 57 87 65 88 58 89 59 90 63 91 66 92 60 93 61 94
REMARK SMILES IDX 64 95 62 96
REMARK H PARENT 86 49 54 60
REMARK Flexibility Score: inf
ROOT
ATOM      1  C   UNL A   1      36.070  22.364  26.084  1.00  0.00     0.188 C 
ENDROOT
BRANCH   1   2
ATOM      2  O   UNL A   1      35.560  23.693  26.210  1.00  0.00    -0.377 OA
BRANCH   2   3
ATOM      3  C   UNL A   1      35.383  24.450  25.024  1.00  0.00     0.188 C 
BRANCH   3   4
ATOM      4  C   UNL A   1      34.266  25.513  25.045  1.00  0.00     0.188 C 
BRANCH   4   5
ATOM      5  O   UNL A   1      33.224  25.437  26.008  1.00  0.00    -0.376 OA
BRANCH   5   6
ATOM      6  C   UNL A   1      32.633  26.682  26.370  1.00  0.00     0.202 C 
BRANCH   6   7
ATOM      7  C   UNL A   1      31.126  26.778  26.230  1.00  0.00     0.261 C 
BRANCH   7   8
ATOM      8  O   UNL A   1      30.661  25.532  25.703  1.00  0.00    -0.460 OA
BRANCH   8   9
ATOM      9  C   UNL A   1      29.942  25.659  24.579  1.00  0.00     0.339 C 
ATOM     10  O   UNL A   1      28.902  26.269  24.432  1.00  0.00    -0.246 OA
BRANCH   9  11
ATOM     11  C   UNL A   1      30.869  25.447  23.467  1.00  0.00     0.079 A 
ATOM     12  C   UNL A   1      32.197  23.649  22.523  1.00  0.00    -0.017 A 
ATOM     13  C   UNL A   1      32.849  24.567  21.706  1.00  0.00     0.010 A 
ATOM     14  C   UNL A   1      31.201  24.106  23.377  1.00  0.00     0.026 A 
ATOM     15  C   UNL A   1      32.421  25.901  21.694  1.00  0.00     0.022 A 
ATOM     16  C   UNL A   1      31.412  26.342  22.561  1.00  0.00     0.055 A 
ATOM     17  Cl  UNL A   1      30.938  27.976  22.418  1.00  0.00    -0.083 Cl
BRANCH  12  18
ATOM     18  C   UNL A   1      32.600  22.286  22.813  1.00  0.00    -0.018 A 
ATOM     19  C   UNL A   1      33.149  20.603  26.156  1.00  0.00     0.044 C 
ATOM     20  C   UNL A   1      32.850  20.780  24.700  1.00  0.00    -0.051 A 
ATOM     21  C   UNL A   1      32.384  19.727  23.904  1.00  0.00     0.003 A 
ATOM     22  C   UNL A   1      32.997  22.043  24.134  1.00  0.00     0.012 A 
ATOM     23  C   UNL A   1      32.040  19.944  22.568  1.00  0.00     0.001 A 
ATOM     24  C   UNL A   1      32.145  21.221  22.019  1.00  0.00     0.009 A 
ENDBRANCH  12  18
ENDBRANCH   9  11
ENDBRANCH   8   9
ENDBRANCH   7   8
ENDBRANCH   6   7
ENDBRANCH   5   6
ENDBRANCH   4   5
ENDBRANCH   3   4
ENDBRANCH   2   3
ENDBRANCH   1   2
BRANCH   1  25
ATOM     25  C   UNL A   1      36.703  21.906  24.783  1.00  0.00     0.188 C 
BRANCH  25  26
ATOM     26  O   UNL A   1      37.967  21.348  25.110  1.00  0.00    -0.376 OA
BRANCH  26  27
ATOM     27  C   UNL A   1      38.075  19.940  24.961  1.00  0.00     0.202 C 
BRANCH  27  28
ATOM     28  C   UNL A   1      39.264  19.360  25.732  1.00  0.00     0.261 C 
BRANCH  28  29
ATOM     29  O   UNL A   1      40.145  20.438  26.127  1.00  0.00    -0.460 OA
BRANCH  29  30
ATOM     30  C   UNL A   1      41.477  20.209  25.942  1.00  0.00     0.338 C 
ATOM     31  O   UNL A   1      41.943  19.236  25.374  1.00  0.00    -0.246 OA
BRANCH  30  32
ATOM     32  C   UNL A   1      42.289  21.160  26.768  1.00  0.00     0.060 A 
ATOM     33  C   UNL A   1      41.857  21.557  28.047  1.00  0.00     0.016 A 
ATOM     34  C   UNL A   1      43.273  21.901  26.140  1.00  0.00     0.016 A 
ATOM     35  C   UNL A   1      42.258  22.801  28.592  1.00  0.00     0.010 A 
ATOM     36  C   UNL A   1      43.574  23.156  26.640  1.00  0.00     0.010 A 
ATOM     37  C   UNL A   1      43.047  23.668  27.841  1.00  0.00    -0.014 A 
BRANCH  37  38
ATOM     38  C   UNL A   1      43.288  25.125  28.089  1.00  0.00     0.031 A 
ATOM     39  C   UNL A   1      42.085  26.072  28.102  1.00  0.00     0.074 A 
ATOM     40  C   UNL A   1      44.451  25.565  28.663  1.00  0.00     0.049 A 
ATOM     41  N   UNL A   1      42.104  27.313  28.470  1.00  0.00    -0.248 NA
ATOM     42  C   UNL A   1      40.722  25.681  27.735  1.00  0.00     0.031 C 
ATOM     43  C   UNL A   1      44.524  26.710  29.565  1.00  0.00     0.029 A 
ATOM     44  N   UNL A   1      45.785  25.097  28.690  1.00  0.00    -0.354 N 
ATOM     45  C   UNL A   1      40.816  27.744  28.747  1.00  0.00     0.074 A 
ATOM     46  C   UNL A   1      39.989  26.714  28.177  1.00  0.00     0.031 C 
ATOM     47  C   UNL A   1      45.770  26.979  29.937  1.00  0.00     0.029 A 
ATOM     48  C   UNL A   1      46.612  26.168  29.122  1.00  0.00     0.049 A 
ATOM     49  H   UNL A   1      46.086  24.190  28.452  1.00  0.00     0.167 HD
ATOM     50  C   UNL A   1      40.631  28.856  29.536  1.00  0.00     0.037 A 
ATOM     51  C   UNL A   1      47.676  26.676  28.446  1.00  0.00     0.037 A 
ATOM     52  C   UNL A   1      41.924  29.494  29.860  1.00  0.00     0.049 A 
ATOM     53  C   UNL A   1      47.414  28.142  28.169  1.00  0.00     0.074 A 
ATOM     54  C   UNL A   1      42.555  29.863  31.037  1.00  0.00     0.029 A 
ATOM     55  N   UNL A   1      42.864  29.712  28.853  1.00  0.00    -0.354 N 
ATOM     56  N   UNL A   1      46.196  28.594  27.956  1.00  0.00    -0.248 NA
ATOM     57  C   UNL A   1      48.379  29.220  28.391  1.00  0.00     0.031 C 
ATOM     58  C   UNL A   1      43.904  30.200  30.740  1.00  0.00     0.029 A 
ATOM     59  C   UNL A   1      44.066  30.148  29.363  1.00  0.00     0.049 A 
ATOM     60  H   UNL A   1      42.689  29.571  27.894  1.00  0.00     0.167 HD
ATOM     61  C   UNL A   1      46.182  29.943  28.185  1.00  0.00     0.074 A 
ATOM     62  C   UNL A   1      47.578  30.303  28.393  1.00  0.00     0.031 C 
ATOM     63  C   UNL A   1      45.080  30.690  28.485  1.00  0.00     0.037 A 
BRANCH  50  64
ATOM     64  C   UNL A   1      39.331  29.342  30.219  1.00  0.00     0.064 A 
ATOM     65  C   UNL A   1      38.940  28.819  31.483  1.00  0.00     0.173 A 
ATOM     66  C   UNL A   1      38.388  30.241  29.675  1.00  0.00     0.173 A 
ATOM     67  F   UNL A   1      39.748  28.016  32.186  1.00  0.00    -0.203 F 
ATOM     68  C   UNL A   1      37.711  29.107  32.097  1.00  0.00     0.198 A 
ATOM     69  C   UNL A   1      37.182  30.575  30.320  1.00  0.00     0.198 A 
ATOM     70  F   UNL A   1      38.565  30.822  28.488  1.00  0.00    -0.203 F 
ATOM     71  F   UNL A   1      37.389  28.519  33.259  1.00  0.00    -0.200 F 
ATOM     72  C   UNL A   1      36.832  29.992  31.519  1.00  0.00     0.200 A 
ATOM     73  F   UNL A   1      36.351  31.465  29.755  1.00  0.00    -0.200 F 
ATOM     74  F   UNL A   1      35.666  30.288  32.111  1.00  0.00    -0.200 F 
ENDBRANCH  50  64
BRANCH  51  75
ATOM     75  C   UNL A   1      48.443  25.599  27.761  1.00  0.00     0.064 A 
ATOM     76  C   UNL A   1      48.254  25.607  26.356  1.00  0.00     0.173 A 
ATOM     77  C   UNL A   1      49.739  25.321  28.227  1.00  0.00     0.173 A 
ATOM     78  F   UNL A   1      47.026  25.818  25.851  1.00  0.00    -0.203 F 
ATOM     79  C   UNL A   1      49.343  25.676  25.486  1.00  0.00     0.198 A 
ATOM     80  C   UNL A   1      50.827  25.380  27.347  1.00  0.00     0.198 A 
ATOM     81  F   UNL A   1      49.978  25.272  29.545  1.00  0.00    -0.203 F 
ATOM     82  F   UNL A   1      49.148  25.939  24.185  1.00  0.00    -0.200 F 
ATOM     83  C   UNL A   1      50.631  25.628  25.994  1.00  0.00     0.200 A 
ATOM     84  F   UNL A   1      52.077  25.355  27.831  1.00  0.00    -0.200 F 
ATOM     85  F   UNL A   1      51.674  25.905  25.198  1.00  0.00    -0.200 F 
ENDBRANCH  51  75
BRANCH  63  86
ATOM     86  C   UNL A   1      44.852  32.063  27.896  1.00  0.00     0.064 A 
ATOM     87  C   UNL A   1      45.445  33.218  28.423  1.00  0.00     0.173 A 
ATOM     88  C   UNL A   1      44.193  32.227  26.648  1.00  0.00     0.173 A 
ATOM     89  F   UNL A   1      46.167  33.186  29.551  1.00  0.00    -0.203 F 
ATOM     90  C   UNL A   1      45.358  34.449  27.774  1.00  0.00     0.198 A 
ATOM     91  C   UNL A   1      44.155  33.445  25.980  1.00  0.00     0.198 A 
ATOM     92  F   UNL A   1      43.603  31.209  26.007  1.00  0.00    -0.203 F 
ATOM     93  F   UNL A   1      45.922  35.527  28.334  1.00  0.00    -0.200 F 
ATOM     94  C   UNL A   1      44.726  34.560  26.550  1.00  0.00     0.200 A 
ATOM     95  F   UNL A   1      43.587  33.521  24.768  1.00  0.00    -0.200 F 
ATOM     96  F   UNL A   1      44.682  35.739  25.915  1.00  0.00    -0.200 F 
ENDBRANCH  63  86
ENDBRANCH  37  38
ENDBRANCH  30  32
ENDBRANCH  29  30
ENDBRANCH  28  29
ENDBRANCH  27  28
ENDBRANCH  26  27
ENDBRANCH  25  26
ENDBRANCH   1  25
TORSDOF 21
ENDMDL
MODEL 3
REMARK VINA RESULT:     -10.0      2.633      5.306
REMARK SMILES Cc1cccc(-c2ccc(Cl)c(C(=O)OCCOCCOCCOCCOC(=O)c3ccc(-c4c5nc(c(-c6c(F)c(F)c(F)c(F)c6F)c6ccc([nH]6)c(-c6c(F)c(F)c(F)c(F)c6F)c6nc(c(-c7c(F)c(F)c(F)c(F)c7F)c7ccc4[nH]7)C=C6)C=C5)cc3)c2)c1
REMARK SMILES IDX 22 1 21 2 20 3 19 4 18 5 17 6 16 7 15 8 13 9 14 10 12 11
REMARK SMILES IDX 7 12 8 13 93 14 9 15 10 16 11 17 6 18 1 19 2 20 3 21 94 22
REMARK SMILES IDX 4 23 5 24 23 25 24 26 25 27 26 28 27 29 28 30 29 31 30 32
REMARK SMILES IDX 31 33 92 34 32 35 91 36 33 37 34 38 35 39 85 40 36 41 90 42
REMARK SMILES IDX 84 43 86 44 37 45 89 46 83 47 82 48 38 50 70 51 50 52 69 53
REMARK SMILES IDX 51 54 54 55 68 56 87 57 52 58 53 59 67 61 88 62 55 63 39 64
REMARK SMILES IDX 40 65 48 66 41 67 42 68 46 69 49 70 43 71 44 72 47 73 45 74
REMARK SMILES IDX 71 75 72 76 80 77 73 78 74 79 78 80 81 81 75 82 76 83 79 84
REMARK SMILES IDX 77 85 56 86 57 87 65 88 58 89 59 90 63 91 66 92 60 93 61 94
REMARK SMILES IDX 64 95 62 96
REMARK H PARENT 86 49 54 60
REMARK Flexibility Score: inf
ROOT
ATOM      1  C   UNL A   1      36.478  22.296  23.937  1.00  0.00     0.188 C 
ENDROOT
BRANCH   1   2
ATOM      2  O   UNL A   1      36.424  23.706  24.164  1.00  0.00    -0.377 OA
BRANCH   2   3
ATOM      3  C   UNL A   1      35.268  24.232  24.795  1.00  0.00     0.188 C 
BRANCH   3   4
ATOM      4  C   UNL A   1      34.282  25.002  23.893  1.00  0.00     0.188 C 
BRANCH   4   5
ATOM      5  O   UNL A   1      33.366  25.927  24.461  1.00  0.00    -0.376 OA
BRANCH   5   6
ATOM      6  C   UNL A   1      33.252  25.884  25.881  1.00  0.00     0.202 C 
BRANCH   6   7
ATOM      7  C   UNL A   1      32.165  24.988  26.443  1.00  0.00     0.261 C 
BRANCH   7   8
ATOM      8  O   UNL A   1      32.565  23.633  26.221  1.00  0.00    -0.460 OA
BRANCH   8   9
ATOM      9  C   UNL A   1      31.543  22.766  26.216  1.00  0.00     0.339 C 
ATOM     10  O   UNL A   1      30.473  22.881  26.779  1.00  0.00    -0.246 OA
BRANCH   9  11
ATOM     11  C   UNL A   1      31.688  21.961  25.002  1.00  0.00     0.079 A 
ATOM     12  C   UNL A   1      32.550  19.789  24.351  1.00  0.00    -0.017 A 
ATOM     13  C   UNL A   1      32.429  20.148  23.013  1.00  0.00     0.010 A 
ATOM     14  C   UNL A   1      32.157  20.699  25.324  1.00  0.00     0.026 A 
ATOM     15  C   UNL A   1      31.827  21.368  22.681  1.00  0.00     0.022 A 
ATOM     16  C   UNL A   1      31.432  22.271  23.677  1.00  0.00     0.055 A 
ATOM     17  Cl  UNL A   1      30.661  23.702  23.154  1.00  0.00    -0.083 Cl
BRANCH  12  18
ATOM     18  C   UNL A   1      33.298  18.673  24.900  1.00  0.00    -0.018 A 
ATOM     19  C   UNL A   1      32.139  15.159  25.688  1.00  0.00     0.044 C 
ATOM     20  C   UNL A   1      33.045  16.300  25.343  1.00  0.00    -0.051 A 
ATOM     21  C   UNL A   1      34.380  16.102  24.972  1.00  0.00     0.003 A 
ATOM     22  C   UNL A   1      32.528  17.593  25.347  1.00  0.00     0.012 A 
ATOM     23  C   UNL A   1      35.176  17.180  24.579  1.00  0.00     0.001 A 
ATOM     24  C   UNL A   1      34.640  18.466  24.541  1.00  0.00     0.009 A 
ENDBRANCH  12  18
ENDBRANCH   9  11
ENDBRANCH   8   9
ENDBRANCH   7   8
ENDBRANCH   6   7
ENDBRANCH   5   6
ENDBRANCH   4   5
ENDBRANCH   3   4
ENDBRANCH   2   3
ENDBRANCH   1   2
BRANCH   1  25
ATOM     25  C   UNL A   1      36.792  21.348  25.079  1.00  0.00     0.188 C 
BRANCH  25  26
ATOM     26  O   UNL A   1      38.203  21.184  25.106  1.00  0.00    -0.376 OA
BRANCH  26  27
ATOM     27  C   UNL A   1      38.883  21.884  26.136  1.00  0.00     0.202 C 
BRANCH  27  28
ATOM     28  C   UNL A   1      40.181  21.189  26.557  1.00  0.00     0.261 C 
BRANCH  28  29
ATOM     29  O   UNL A   1      41.277  21.715  25.773  1.00  0.00    -0.460 OA
BRANCH  29  30
ATOM     30  C   UNL A   1      42.201  22.442  26.465  1.00  0.00     0.338 C 
ATOM     31  O   UNL A   1      43.267  22.008  26.869  1.00  0.00    -0.246 OA
BRANCH  30  32
ATOM     32  C   UNL A   1      41.615  23.751  26.900  1.00  0.00     0.060 A 
ATOM     33  C   UNL A   1      41.311  24.754  25.963  1.00  0.00     0.016 A 
ATOM     34  C   UNL A   1      41.694  24.094  28.238  1.00  0.00     0.016 A 
ATOM     35  C   UNL A   1      41.297  26.119  26.341  1.00  0.00     0.010 A 
ATOM     36  C   UNL A   1      41.777  25.434  28.570  1.00  0.00     0.010 A 
ATOM     37  C   UNL A   1      41.635  26.484  27.642  1.00  0.00    -0.014 A 
BRANCH  37  38
ATOM     38  C   UNL A   1      42.003  27.847  28.139  1.00  0.00     0.031 A 
ATOM     39  C   UNL A   1      40.877  28.821  28.500  1.00  0.00     0.074 A 
ATOM     40  C   UNL A   1      43.254  28.111  28.629  1.00  0.00     0.049 A 
ATOM     41  N   UNL A   1      41.025  29.958  29.100  1.00  0.00    -0.248 NA
ATOM     42  C   UNL A   1      39.456  28.571  28.246  1.00  0.00     0.031 C 
ATOM     43  C   UNL A   1      43.514  29.043  29.722  1.00  0.00     0.029 A 
ATOM     44  N   UNL A   1      44.546  27.593  28.384  1.00  0.00    -0.354 N 
ATOM     45  C   UNL A   1      39.813  30.377  29.625  1.00  0.00     0.074 A 
ATOM     46  C   UNL A   1      38.854  29.521  28.978  1.00  0.00     0.031 C 
ATOM     47  C   UNL A   1      44.812  29.177  29.970  1.00  0.00     0.029 A 
ATOM     48  C   UNL A   1      45.491  28.516  28.906  1.00  0.00     0.049 A 
ATOM     49  H   UNL A   1      44.754  26.742  27.934  1.00  0.00     0.167 HD
ATOM     50  C   UNL A   1      39.802  31.310  30.636  1.00  0.00     0.037 A 
ATOM     51  C   UNL A   1      46.497  29.107  28.209  1.00  0.00     0.037 A 
ATOM     52  C   UNL A   1      41.165  31.813  30.905  1.00  0.00     0.049 A 
ATOM     53  C   UNL A   1      46.303  30.609  28.264  1.00  0.00     0.074 A 
ATOM     54  C   UNL A   1      41.957  31.906  32.037  1.00  0.00     0.029 A 
ATOM     55  N   UNL A   1      41.987  32.193  29.845  1.00  0.00    -0.354 N 
ATOM     56  N   UNL A   1      45.102  31.145  28.309  1.00  0.00    -0.248 NA
ATOM     57  C   UNL A   1      47.359  31.577  28.566  1.00  0.00     0.031 C 
ATOM     58  C   UNL A   1      43.281  32.241  31.636  1.00  0.00     0.029 A 
ATOM     59  C   UNL A   1      43.269  32.465  30.267  1.00  0.00     0.049 A 
ATOM     60  H   UNL A   1      41.688  32.260  28.909  1.00  0.00     0.167 HD
ATOM     61  C   UNL A   1      45.207  32.418  28.801  1.00  0.00     0.074 A 
ATOM     62  C   UNL A   1      46.639  32.669  28.888  1.00  0.00     0.031 C 
ATOM     63  C   UNL A   1      44.204  33.133  29.386  1.00  0.00     0.037 A 
BRANCH  50  64
ATOM     64  C   UNL A   1      38.631  31.700  31.568  1.00  0.00     0.064 A 
ATOM     65  C   UNL A   1      37.580  32.536  31.096  1.00  0.00     0.173 A 
ATOM     66  C   UNL A   1      38.506  31.371  32.935  1.00  0.00     0.173 A 
ATOM     67  F   UNL A   1      37.488  32.881  29.806  1.00  0.00    -0.203 F 
ATOM     68  C   UNL A   1      36.561  33.044  31.919  1.00  0.00     0.198 A 
ATOM     69  C   UNL A   1      37.451  31.833  33.745  1.00  0.00     0.198 A 
ATOM     70  F   UNL A   1      39.404  30.613  33.567  1.00  0.00    -0.203 F 
ATOM     71  F   UNL A   1      35.644  33.880  31.410  1.00  0.00    -0.200 F 
ATOM     72  C   UNL A   1      36.491  32.687  33.245  1.00  0.00     0.200 A 
ATOM     73  F   UNL A   1      37.382  31.448  35.029  1.00  0.00    -0.200 F 
ATOM     74  F   UNL A   1      35.509  33.150  34.030  1.00  0.00    -0.200 F 
ENDBRANCH  50  64
BRANCH  51  75
ATOM     75  C   UNL A   1      47.100  28.162  27.228  1.00  0.00     0.064 A 
ATOM     76  C   UNL A   1      47.741  27.065  27.857  1.00  0.00     0.173 A 
ATOM     77  C   UNL A   1      46.378  27.889  26.054  1.00  0.00     0.173 A 
ATOM     78  F   UNL A   1      48.488  27.271  28.956  1.00  0.00    -0.203 F 
ATOM     79  C   UNL A   1      47.402  25.752  27.530  1.00  0.00     0.198 A 
ATOM     80  C   UNL A   1      46.050  26.568  25.725  1.00  0.00     0.198 A 
ATOM     81  F   UNL A   1      45.771  28.887  25.398  1.00  0.00    -0.203 F 
ATOM     82  F   UNL A   1      47.823  24.737  28.300  1.00  0.00    -0.200 F 
ATOM     83  C   UNL A   1      46.503  25.510  26.505  1.00  0.00     0.200 A 
ATOM     84  F   UNL A   1      45.166  26.325  24.747  1.00  0.00    -0.200 F 
ATOM     85  F   UNL A   1      46.010  24.277  26.324  1.00  0.00    -0.200 F 
ENDBRANCH  51  75
BRANCH  63  86
ATOM     86  C   UNL A   1      43.999  34.605  29.117  1.00  0.00     0.064 A 
ATOM     87  C   UNL A   1      43.468  35.086  27.912  1.00  0.00     0.173 A 
ATOM     88  C   UNL A   1      44.134  35.568  30.153  1.00  0.00     0.173 A 
ATOM     89  F   UNL A   1      43.212  34.268  26.882  1.00  0.00    -0.203 F 
ATOM     90  C   UNL A   1      43.132  36.428  27.741  1.00  0.00     0.198 A 
ATOM     91  C   UNL A   1      43.748  36.894  29.994  1.00  0.00     0.198 A 
ATOM     92  F   UNL A   1      44.599  35.255  31.370  1.00  0.00    -0.203 F 
ATOM     93  F   UNL A   1      42.652  36.839  26.560  1.00  0.00    -0.200 F 
ATOM     94  C   UNL A   1      43.259  37.327  28.782  1.00  0.00     0.200 A 
ATOM     95  F   UNL A   1      43.826  37.739  31.032  1.00  0.00    -0.200 F 
ATOM     96  F   UNL A   1      42.897  38.606  28.621  1.00  0.00    -0.200 F 
ENDBRANCH  63  86
ENDBRANCH  37  38
ENDBRANCH  30  32
ENDBRANCH  29  30
ENDBRANCH  28  29
ENDBRANCH  27  28
ENDBRANCH  26  27
ENDBRANCH  25  26
ENDBRANCH   1  25
TORSDOF 21
ENDMDL
