MODEL 1
REMARK VINA RESULT:     -10.6      0.000      0.000
REMARK SMILES C[C@H]1[NH2+]CC[C@H]1C(=O)N1CC(C(=O)OCCOCCOCCOCCOC(=O)c2ccc(-c3c4nc(c(-c5c(F)c(F)c(F)c(F)c5F)c5ccc([nH]5)c(-c5c(F)c(F)c(F)c(F)c5F)c5nc(c(-c6c(F)c(F)c(F)c(F)c6F)c6ccc3[nH]6)C=C5)C=C4)cc2)C1
REMARK SMILES IDX 21 1 20 2 19 3 18 4 17 5 16 6 15 7 14 8 12 9 13 10 11 11
REMARK SMILES IDX 7 12 8 13 9 14 10 15 92 16 6 17 1 18 2 19 3 20 4 21 5 24
REMARK SMILES IDX 22 25 23 26 24 27 25 28 26 29 27 30 28 31 29 32 30 33 91 34
REMARK SMILES IDX 31 35 90 36 32 37 33 38 34 39 84 40 35 41 89 42 83 43 85 44
REMARK SMILES IDX 36 45 88 46 82 47 81 48 37 50 69 51 49 52 68 53 50 54 53 55
REMARK SMILES IDX 67 56 86 57 51 58 52 59 66 61 87 62 54 63 38 64 39 65 47 66
REMARK SMILES IDX 40 67 41 68 45 69 48 70 42 71 43 72 46 73 44 74 70 75 71 76
REMARK SMILES IDX 79 77 72 78 73 79 77 80 80 81 74 82 75 83 78 84 76 85 55 86
REMARK SMILES IDX 56 87 64 88 57 89 58 90 62 91 65 92 59 93 60 94 63 95 61 96
REMARK H PARENT 3 22 3 23 85 49 53 60
REMARK Flexibility Score: inf
ROOT
ATOM      1  C   UNL A   1      32.181  27.802  26.716  1.00  0.00     0.188 C 
ENDROOT
BRANCH   1   2
ATOM      2  O   UNL A   1      31.018  26.991  26.853  1.00  0.00    -0.377 OA
BRANCH   2   3
ATOM      3  C   UNL A   1      31.052  25.754  26.172  1.00  0.00     0.188 C 
BRANCH   3   4
ATOM      4  C   UNL A   1      29.813  25.468  25.309  1.00  0.00     0.188 C 
BRANCH   4   5
ATOM      5  O   UNL A   1      29.706  25.986  23.990  1.00  0.00    -0.376 OA
BRANCH   5   6
ATOM      6  C   UNL A   1      29.522  27.372  23.741  1.00  0.00     0.202 C 
BRANCH   6   7
ATOM      7  C   UNL A   1      30.473  28.197  22.856  1.00  0.00     0.261 C 
BRANCH   7   8
ATOM      8  O   UNL A   1      31.560  27.476  22.269  1.00  0.00    -0.463 OA
BRANCH   8   9
ATOM      9  C   UNL A   1      32.790  27.620  22.837  1.00  0.00     0.312 C 
ATOM     10  O   UNL A   1      33.179  28.672  23.339  1.00  0.00    -0.252 OA
BRANCH   9  11
ATOM     11  C   UNL A   1      33.592  26.307  22.842  1.00  0.00     0.138 C 
ATOM     12  C   UNL A   1      34.467  23.343  23.595  1.00  0.00     0.231 C 
ATOM     13  O   UNL A   1      35.250  23.249  22.651  1.00  0.00    -0.274 OA
ATOM     14  N   UNL A   1      33.593  24.404  23.730  1.00  0.00    -0.340 N 
ATOM     15  C   UNL A   1      32.828  25.009  22.626  1.00  0.00     0.136 C 
ATOM     16  C   UNL A   1      34.081  25.715  24.157  1.00  0.00     0.136 C 
BRANCH  12  17
ATOM     17  C   UNL A   1      34.425  22.319  24.722  1.00  0.00     0.142 C 
ATOM     18  C   UNL A   1      36.386  23.438  26.050  1.00  0.00     0.076 C 
ATOM     19  C   UNL A   1      35.658  22.169  25.615  1.00  0.00     0.192 C 
ATOM     20  N   UNL A   1      35.151  21.463  26.810  1.00  0.00    -0.343 N 
ATOM     21  C   UNL A   1      33.705  21.666  26.903  1.00  0.00     0.261 C 
ATOM     22  H   UNL A   1      35.603  21.837  27.645  1.00  0.00     0.346 HD
ATOM     23  H   UNL A   1      35.357  20.468  26.737  1.00  0.00     0.346 HD
ATOM     24  C   UNL A   1      33.290  22.512  25.715  1.00  0.00     0.081 C 
ENDBRANCH  12  17
ENDBRANCH   9  11
ENDBRANCH   8   9
ENDBRANCH   7   8
ENDBRANCH   6   7
ENDBRANCH   5   6
ENDBRANCH   4   5
ENDBRANCH   3   4
ENDBRANCH   2   3
ENDBRANCH   1   2
BRANCH   1  25
ATOM     25  C   UNL A   1      32.117  29.256  27.237  1.00  0.00     0.188 C 
BRANCH  25  26
ATOM     26  O   UNL A   1      32.255  30.248  26.226  1.00  0.00    -0.376 OA
BRANCH  26  27
ATOM     27  C   UNL A   1      31.367  31.356  26.227  1.00  0.00     0.202 C 
BRANCH  27  28
ATOM     28  C   UNL A   1      31.870  32.666  26.859  1.00  0.00     0.261 C 
BRANCH  28  29
ATOM     29  O   UNL A   1      32.845  32.528  27.904  1.00  0.00    -0.460 OA
BRANCH  29  30
ATOM     30  C   UNL A   1      33.825  33.452  27.954  1.00  0.00     0.338 C 
ATOM     31  O   UNL A   1      33.692  34.666  27.984  1.00  0.00    -0.246 OA
BRANCH  30  32
ATOM     32  C   UNL A   1      35.110  32.758  28.167  1.00  0.00     0.060 A 
ATOM     33  C   UNL A   1      35.109  31.358  28.241  1.00  0.00     0.016 A 
ATOM     34  C   UNL A   1      36.298  33.476  28.330  1.00  0.00     0.016 A 
ATOM     35  C   UNL A   1      36.282  30.676  28.558  1.00  0.00     0.010 A 
ATOM     36  C   UNL A   1      37.471  32.792  28.667  1.00  0.00     0.010 A 
ATOM     37  C   UNL A   1      37.450  31.396  28.841  1.00  0.00    -0.014 A 
BRANCH  37  38
ATOM     38  C   UNL A   1      38.544  30.716  29.578  1.00  0.00     0.031 A 
ATOM     39  C   UNL A   1      38.730  31.057  31.033  1.00  0.00     0.074 A 
ATOM     40  C   UNL A   1      39.308  29.773  29.001  1.00  0.00     0.049 A 
ATOM     41  N   UNL A   1      39.606  30.604  31.894  1.00  0.00    -0.248 NA
ATOM     42  C   UNL A   1      37.797  32.049  31.594  1.00  0.00     0.031 C 
ATOM     43  C   UNL A   1      39.191  29.317  27.619  1.00  0.00     0.029 A 
ATOM     44  N   UNL A   1      40.336  29.026  29.519  1.00  0.00    -0.354 N 
ATOM     45  C   UNL A   1      39.330  31.258  33.089  1.00  0.00     0.074 A 
ATOM     46  C   UNL A   1      38.239  32.171  32.834  1.00  0.00     0.031 C 
ATOM     47  C   UNL A   1      40.119  28.369  27.395  1.00  0.00     0.029 A 
ATOM     48  C   UNL A   1      40.910  28.174  28.610  1.00  0.00     0.049 A 
ATOM     49  H   UNL A   1      40.634  29.095  30.455  1.00  0.00     0.167 HD
ATOM     50  C   UNL A   1      39.924  31.103  34.297  1.00  0.00     0.037 A 
ATOM     51  C   UNL A   1      41.963  27.344  28.744  1.00  0.00     0.037 A 
ATOM     52  C   UNL A   1      41.013  30.195  34.548  1.00  0.00     0.049 A 
ATOM     53  C   UNL A   1      42.657  27.243  30.081  1.00  0.00     0.074 A 
ATOM     54  C   UNL A   1      41.688  29.964  35.733  1.00  0.00     0.029 A 
ATOM     55  N   UNL A   1      41.590  29.374  33.590  1.00  0.00    -0.354 N 
ATOM     56  N   UNL A   1      42.385  27.854  31.209  1.00  0.00    -0.248 NA
ATOM     57  C   UNL A   1      43.800  26.323  30.163  1.00  0.00     0.031 C 
ATOM     58  C   UNL A   1      42.713  29.046  35.479  1.00  0.00     0.029 A 
ATOM     59  C   UNL A   1      42.626  28.647  34.155  1.00  0.00     0.049 A 
ATOM     60  H   UNL A   1      41.305  29.315  32.650  1.00  0.00     0.167 HD
ATOM     61  C   UNL A   1      43.288  27.358  32.143  1.00  0.00     0.074 A 
ATOM     62  C   UNL A   1      44.109  26.388  31.449  1.00  0.00     0.031 C 
ATOM     63  C   UNL A   1      43.423  27.671  33.457  1.00  0.00     0.037 A 
BRANCH  50  64
ATOM     64  C   UNL A   1      39.427  31.958  35.428  1.00  0.00     0.064 A 
ATOM     65  C   UNL A   1      38.504  31.478  36.371  1.00  0.00     0.173 A 
ATOM     66  C   UNL A   1      39.890  33.273  35.578  1.00  0.00     0.173 A 
ATOM     67  F   UNL A   1      38.013  30.233  36.263  1.00  0.00    -0.203 F 
ATOM     68  C   UNL A   1      38.043  32.293  37.402  1.00  0.00     0.198 A 
ATOM     69  C   UNL A   1      39.454  34.072  36.631  1.00  0.00     0.198 A 
ATOM     70  F   UNL A   1      40.772  33.783  34.706  1.00  0.00    -0.203 F 
ATOM     71  F   UNL A   1      37.116  31.832  38.255  1.00  0.00    -0.200 F 
ATOM     72  C   UNL A   1      38.524  33.586  37.536  1.00  0.00     0.200 A 
ATOM     73  F   UNL A   1      39.931  35.318  36.766  1.00  0.00    -0.200 F 
ATOM     74  F   UNL A   1      38.083  34.366  38.532  1.00  0.00    -0.200 F 
ENDBRANCH  50  64
BRANCH  51  75
ATOM     75  C   UNL A   1      42.435  26.536  27.586  1.00  0.00     0.064 A 
ATOM     76  C   UNL A   1      41.915  25.259  27.333  1.00  0.00     0.173 A 
ATOM     77  C   UNL A   1      43.444  27.008  26.735  1.00  0.00     0.173 A 
ATOM     78  F   UNL A   1      40.966  24.750  28.133  1.00  0.00    -0.203 F 
ATOM     79  C   UNL A   1      42.408  24.473  26.292  1.00  0.00     0.198 A 
ATOM     80  C   UNL A   1      43.913  26.235  25.674  1.00  0.00     0.198 A 
ATOM     81  F   UNL A   1      43.978  28.222  26.933  1.00  0.00    -0.203 F 
ATOM     82  F   UNL A   1      41.937  23.231  26.112  1.00  0.00    -0.200 F 
ATOM     83  C   UNL A   1      43.403  24.964  25.461  1.00  0.00     0.200 A 
ATOM     84  F   UNL A   1      44.865  26.721  24.866  1.00  0.00    -0.200 F 
ATOM     85  F   UNL A   1      43.879  24.208  24.462  1.00  0.00    -0.200 F 
ENDBRANCH  51  75
BRANCH  63  86
ATOM     86  C   UNL A   1      44.446  26.902  34.249  1.00  0.00     0.064 A 
ATOM     87  C   UNL A   1      44.158  25.665  34.844  1.00  0.00     0.173 A 
ATOM     88  C   UNL A   1      45.745  27.413  34.402  1.00  0.00     0.173 A 
ATOM     89  F   UNL A   1      42.931  25.132  34.736  1.00  0.00    -0.203 F 
ATOM     90  C   UNL A   1      45.114  24.993  35.603  1.00  0.00     0.198 A 
ATOM     91  C   UNL A   1      46.711  26.720  35.127  1.00  0.00     0.198 A 
ATOM     92  F   UNL A   1      46.082  28.585  33.843  1.00  0.00    -0.203 F 
ATOM     93  F   UNL A   1      44.792  23.850  36.223  1.00  0.00    -0.200 F 
ATOM     94  C   UNL A   1      46.390  25.518  35.739  1.00  0.00     0.200 A 
ATOM     95  F   UNL A   1      47.950  27.219  35.238  1.00  0.00    -0.200 F 
ATOM     96  F   UNL A   1      47.309  24.872  36.470  1.00  0.00    -0.200 F 
ENDBRANCH  63  86
ENDBRANCH  37  38
ENDBRANCH  30  32
ENDBRANCH  29  30
ENDBRANCH  28  29
ENDBRANCH  27  28
ENDBRANCH  26  27
ENDBRANCH  25  26
ENDBRANCH   1  25
TORSDOF 21
ENDMDL
MODEL 2
REMARK VINA RESULT:     -10.5      1.213      3.365
REMARK SMILES C[C@H]1[NH2+]CC[C@H]1C(=O)N1CC(C(=O)OCCOCCOCCOCCOC(=O)c2ccc(-c3c4nc(c(-c5c(F)c(F)c(F)c(F)c5F)c5ccc([nH]5)c(-c5c(F)c(F)c(F)c(F)c5F)c5nc(c(-c6c(F)c(F)c(F)c(F)c6F)c6ccc3[nH]6)C=C5)C=C4)cc2)C1
REMARK SMILES IDX 21 1 20 2 19 3 18 4 17 5 16 6 15 7 14 8 12 9 13 10 11 11
REMARK SMILES IDX 7 12 8 13 9 14 10 15 92 16 6 17 1 18 2 19 3 20 4 21 5 24
REMARK SMILES IDX 22 25 23 26 24 27 25 28 26 29 27 30 28 31 29 32 30 33 91 34
REMARK SMILES IDX 31 35 90 36 32 37 33 38 34 39 84 40 35 41 89 42 83 43 85 44
REMARK SMILES IDX 36 45 88 46 82 47 81 48 37 50 69 51 49 52 68 53 50 54 53 55
REMARK SMILES IDX 67 56 86 57 51 58 52 59 66 61 87 62 54 63 38 64 39 65 47 66
REMARK SMILES IDX 40 67 41 68 45 69 48 70 42 71 43 72 46 73 44 74 70 75 71 76
REMARK SMILES IDX 79 77 72 78 73 79 77 80 80 81 74 82 75 83 78 84 76 85 55 86
REMARK SMILES IDX 56 87 64 88 57 89 58 90 62 91 65 92 59 93 60 94 63 95 61 96
REMARK H PARENT 3 22 3 23 85 49 53 60
REMARK Flexibility Score: inf
ROOT
ATOM      1  C   UNL A   1      32.466  27.917  26.957  1.00  0.00     0.188 C 
ENDROOT
BRANCH   1   2
ATOM      2  O   UNL A   1      31.760  26.725  27.285  1.00  0.00    -0.377 OA
BRANCH   2   3
ATOM      3  C   UNL A   1      31.869  25.672  26.349  1.00  0.00     0.188 C 
BRANCH   3   4
ATOM      4  C   UNL A   1      33.303  25.167  26.124  1.00  0.00     0.188 C 
BRANCH   4   5
ATOM      5  O   UNL A   1      33.635  23.799  26.315  1.00  0.00    -0.376 OA
BRANCH   5   6
ATOM      6  C   UNL A   1      32.642  22.810  26.543  1.00  0.00     0.202 C 
BRANCH   6   7
ATOM      7  C   UNL A   1      32.560  21.503  25.735  1.00  0.00     0.261 C 
BRANCH   7   8
ATOM      8  O   UNL A   1      33.284  21.488  24.501  1.00  0.00    -0.463 OA
BRANCH   8   9
ATOM      9  C   UNL A   1      32.566  21.324  23.354  1.00  0.00     0.312 C 
ATOM     10  O   UNL A   1      32.147  20.233  22.973  1.00  0.00    -0.252 OA
BRANCH   9  11
ATOM     11  C   UNL A   1      32.283  22.659  22.644  1.00  0.00     0.138 C 
ATOM     12  C   UNL A   1      31.931  25.788  22.193  1.00  0.00     0.231 C 
ATOM     13  O   UNL A   1      31.902  25.689  20.968  1.00  0.00    -0.274 OA
ATOM     14  N   UNL A   1      32.254  24.726  23.015  1.00  0.00    -0.340 N 
ATOM     15  C   UNL A   1      33.332  23.756  22.752  1.00  0.00     0.136 C 
ATOM     16  C   UNL A   1      31.291  23.648  23.243  1.00  0.00     0.136 C 
BRANCH  12  17
ATOM     17  C   UNL A   1      31.571  27.081  22.913  1.00  0.00     0.142 C 
ATOM     18  C   UNL A   1      33.809  28.276  22.262  1.00  0.00     0.076 C 
ATOM     19  C   UNL A   1      32.698  28.046  23.284  1.00  0.00     0.192 C 
ATOM     20  N   UNL A   1      32.006  29.325  23.546  1.00  0.00    -0.343 N 
ATOM     21  C   UNL A   1      30.707  29.307  22.870  1.00  0.00     0.261 C 
ATOM     22  H   UNL A   1      32.567  30.098  23.189  1.00  0.00     0.346 HD
ATOM     23  H   UNL A   1      31.872  29.445  24.549  1.00  0.00     0.346 HD
ATOM     24  C   UNL A   1      30.577  27.965  22.178  1.00  0.00     0.081 C 
ENDBRANCH  12  17
ENDBRANCH   9  11
ENDBRANCH   8   9
ENDBRANCH   7   8
ENDBRANCH   6   7
ENDBRANCH   5   6
ENDBRANCH   4   5
ENDBRANCH   3   4
ENDBRANCH   2   3
ENDBRANCH   1   2
BRANCH   1  25
ATOM     25  C   UNL A   1      31.776  29.271  27.242  1.00  0.00     0.188 C 
BRANCH  25  26
ATOM     26  O   UNL A   1      32.131  30.311  26.338  1.00  0.00    -0.376 OA
BRANCH  26  27
ATOM     27  C   UNL A   1      31.327  31.481  26.289  1.00  0.00     0.202 C 
BRANCH  27  28
ATOM     28  C   UNL A   1      31.923  32.776  26.867  1.00  0.00     0.261 C 
BRANCH  28  29
ATOM     29  O   UNL A   1      32.896  32.612  27.911  1.00  0.00    -0.460 OA
BRANCH  29  30
ATOM     30  C   UNL A   1      33.889  33.519  27.972  1.00  0.00     0.338 C 
ATOM     31  O   UNL A   1      33.776  34.735  27.998  1.00  0.00    -0.246 OA
BRANCH  30  32
ATOM     32  C   UNL A   1      35.160  32.804  28.203  1.00  0.00     0.060 A 
ATOM     33  C   UNL A   1      35.129  31.409  28.325  1.00  0.00     0.016 A 
ATOM     34  C   UNL A   1      36.364  33.501  28.336  1.00  0.00     0.016 A 
ATOM     35  C   UNL A   1      36.288  30.712  28.660  1.00  0.00     0.010 A 
ATOM     36  C   UNL A   1      37.524  32.803  28.690  1.00  0.00     0.010 A 
ATOM     37  C   UNL A   1      37.473  31.415  28.913  1.00  0.00    -0.014 A 
BRANCH  37  38
ATOM     38  C   UNL A   1      38.556  30.737  29.668  1.00  0.00     0.031 A 
ATOM     39  C   UNL A   1      38.721  31.083  31.124  1.00  0.00     0.074 A 
ATOM     40  C   UNL A   1      39.327  29.790  29.105  1.00  0.00     0.049 A 
ATOM     41  N   UNL A   1      39.584  30.632  31.999  1.00  0.00    -0.248 NA
ATOM     42  C   UNL A   1      37.782  32.078  31.668  1.00  0.00     0.031 C 
ATOM     43  C   UNL A   1      39.229  29.330  27.724  1.00  0.00     0.029 A 
ATOM     44  N   UNL A   1      40.347  29.044  29.641  1.00  0.00    -0.354 N 
ATOM     45  C   UNL A   1      39.293  31.291  33.188  1.00  0.00     0.074 A 
ATOM     46  C   UNL A   1      38.206  32.204  32.914  1.00  0.00     0.031 C 
ATOM     47  C   UNL A   1      40.158  28.379  27.516  1.00  0.00     0.029 A 
ATOM     48  C   UNL A   1      40.932  28.188  28.743  1.00  0.00     0.049 A 
ATOM     49  H   UNL A   1      40.631  29.117  30.581  1.00  0.00     0.167 HD
ATOM     50  C   UNL A   1      39.870  31.140  34.404  1.00  0.00     0.037 A 
ATOM     51  C   UNL A   1      41.982  27.357  28.895  1.00  0.00     0.037 A 
ATOM     52  C   UNL A   1      40.953  30.232  34.674  1.00  0.00     0.049 A 
ATOM     53  C   UNL A   1      42.657  27.261  30.243  1.00  0.00     0.074 A 
ATOM     54  C   UNL A   1      41.612  30.004  35.869  1.00  0.00     0.029 A 
ATOM     55  N   UNL A   1      41.543  29.406  33.728  1.00  0.00    -0.354 N 
ATOM     56  N   UNL A   1      42.370  27.877  31.364  1.00  0.00    -0.248 NA
ATOM     57  C   UNL A   1      43.798  26.340  30.344  1.00  0.00     0.031 C 
ATOM     58  C   UNL A   1      42.639  29.085  35.634  1.00  0.00     0.029 A 
ATOM     59  C   UNL A   1      42.571  28.681  34.310  1.00  0.00     0.049 A 
ATOM     60  H   UNL A   1      41.271  29.344  32.784  1.00  0.00     0.167 HD
ATOM     61  C   UNL A   1      43.259  27.383  32.312  1.00  0.00     0.074 A 
ATOM     62  C   UNL A   1      44.089  26.410  31.634  1.00  0.00     0.031 C 
ATOM     63  C   UNL A   1      43.376  27.701  33.627  1.00  0.00     0.037 A 
BRANCH  50  64
ATOM     64  C   UNL A   1      39.357  32.000  35.524  1.00  0.00     0.064 A 
ATOM     65  C   UNL A   1      39.738  33.344  35.664  1.00  0.00     0.173 A 
ATOM     66  C   UNL A   1      38.460  31.474  36.466  1.00  0.00     0.173 A 
ATOM     67  F   UNL A   1      40.609  33.892  34.802  1.00  0.00    -0.203 F 
ATOM     68  C   UNL A   1      39.264  34.118  36.720  1.00  0.00     0.198 A 
ATOM     69  C   UNL A   1      37.961  32.262  37.500  1.00  0.00     0.198 A 
ATOM     70  F   UNL A   1      38.063  30.196  36.382  1.00  0.00    -0.203 F 
ATOM     71  F   UNL A   1      39.689  35.381  36.866  1.00  0.00    -0.200 F 
ATOM     72  C   UNL A   1      38.370  33.579  37.632  1.00  0.00     0.200 A 
ATOM     73  F   UNL A   1      37.086  31.742  38.372  1.00  0.00    -0.200 F 
ATOM     74  F   UNL A   1      37.911  34.328  38.644  1.00  0.00    -0.200 F 
ENDBRANCH  50  64
BRANCH  51  75
ATOM     75  C   UNL A   1      42.469  26.544  27.747  1.00  0.00     0.064 A 
ATOM     76  C   UNL A   1      43.459  27.030  26.881  1.00  0.00     0.173 A 
ATOM     77  C   UNL A   1      41.924  25.283  27.468  1.00  0.00     0.173 A 
ATOM     78  F   UNL A   1      43.995  28.242  27.089  1.00  0.00    -0.203 F 
ATOM     79  C   UNL A   1      43.862  26.300  25.764  1.00  0.00     0.198 A 
ATOM     80  C   UNL A   1      42.352  24.538  26.371  1.00  0.00     0.198 A 
ATOM     81  F   UNL A   1      40.972  24.771  28.263  1.00  0.00    -0.203 F 
ATOM     82  F   UNL A   1      44.765  26.816  24.919  1.00  0.00    -0.200 F 
ATOM     83  C   UNL A   1      43.312  25.053  25.513  1.00  0.00     0.200 A 
ATOM     84  F   UNL A   1      41.827  23.327  26.141  1.00  0.00    -0.200 F 
ATOM     85  F   UNL A   1      43.698  24.351  24.439  1.00  0.00    -0.200 F 
ENDBRANCH  51  75
BRANCH  63  86
ATOM     86  C   UNL A   1      44.387  26.934  34.437  1.00  0.00     0.064 A 
ATOM     87  C   UNL A   1      45.697  27.394  34.631  1.00  0.00     0.173 A 
ATOM     88  C   UNL A   1      44.026  25.719  35.041  1.00  0.00     0.173 A 
ATOM     89  F   UNL A   1      46.098  28.546  34.071  1.00  0.00    -0.203 F 
ATOM     90  C   UNL A   1      46.621  26.644  35.355  1.00  0.00     0.198 A 
ATOM     91  C   UNL A   1      44.939  24.991  35.798  1.00  0.00     0.198 A 
ATOM     92  F   UNL A   1      42.781  25.236  34.901  1.00  0.00    -0.203 F 
ATOM     93  F   UNL A   1      47.887  27.069  35.464  1.00  0.00    -0.200 F 
ATOM     94  C   UNL A   1      46.241  25.447  35.942  1.00  0.00     0.200 A 
ATOM     95  F   UNL A   1      44.563  23.845  36.382  1.00  0.00    -0.200 F 
ATOM     96  F   UNL A   1      47.131  24.726  36.638  1.00  0.00    -0.200 F 
ENDBRANCH  63  86
ENDBRANCH  37  38
ENDBRANCH  30  32
ENDBRANCH  29  30
ENDBRANCH  28  29
ENDBRANCH  27  28
ENDBRANCH  26  27
ENDBRANCH  25  26
ENDBRANCH   1  25
TORSDOF 21
ENDMDL
MODEL 3
REMARK VINA RESULT:     -10.3      0.942      2.425
REMARK SMILES C[C@H]1[NH2+]CC[C@H]1C(=O)N1CC(C(=O)OCCOCCOCCOCCOC(=O)c2ccc(-c3c4nc(c(-c5c(F)c(F)c(F)c(F)c5F)c5ccc([nH]5)c(-c5c(F)c(F)c(F)c(F)c5F)c5nc(c(-c6c(F)c(F)c(F)c(F)c6F)c6ccc3[nH]6)C=C5)C=C4)cc2)C1
REMARK SMILES IDX 21 1 20 2 19 3 18 4 17 5 16 6 15 7 14 8 12 9 13 10 11 11
REMARK SMILES IDX 7 12 8 13 9 14 10 15 92 16 6 17 1 18 2 19 3 20 4 21 5 24
REMARK SMILES IDX 22 25 23 26 24 27 25 28 26 29 27 30 28 31 29 32 30 33 91 34
REMARK SMILES IDX 31 35 90 36 32 37 33 38 34 39 84 40 35 41 89 42 83 43 85 44
REMARK SMILES IDX 36 45 88 46 82 47 81 48 37 50 69 51 49 52 68 53 50 54 53 55
REMARK SMILES IDX 67 56 86 57 51 58 52 59 66 61 87 62 54 63 38 64 39 65 47 66
REMARK SMILES IDX 40 67 41 68 45 69 48 70 42 71 43 72 46 73 44 74 70 75 71 76
REMARK SMILES IDX 79 77 72 78 73 79 77 80 80 81 74 82 75 83 78 84 76 85 55 86
REMARK SMILES IDX 56 87 64 88 57 89 58 90 62 91 65 92 59 93 60 94 63 95 61 96
REMARK H PARENT 3 22 3 23 85 49 53 60
REMARK Flexibility Score: inf
ROOT
ATOM      1  C   UNL A   1      33.464  28.434  26.777  1.00  0.00     0.188 C 
ENDROOT
BRANCH   1   2
ATOM      2  O   UNL A   1      33.232  27.714  25.570  1.00  0.00    -0.377 OA
BRANCH   2   3
ATOM      3  C   UNL A   1      34.043  28.083  24.474  1.00  0.00     0.188 C 
BRANCH   3   4
ATOM      4  C   UNL A   1      33.264  28.449  23.200  1.00  0.00     0.188 C 
BRANCH   4   5
ATOM      5  O   UNL A   1      31.943  28.968  23.275  1.00  0.00    -0.376 OA
BRANCH   5   6
ATOM      6  C   UNL A   1      30.847  28.324  22.644  1.00  0.00     0.202 C 
BRANCH   6   7
ATOM      7  C   UNL A   1      30.141  27.093  23.240  1.00  0.00     0.261 C 
BRANCH   7   8
ATOM      8  O   UNL A   1      30.024  27.073  24.666  1.00  0.00    -0.463 OA
BRANCH   8   9
ATOM      9  C   UNL A   1      30.270  25.892  25.300  1.00  0.00     0.312 C 
ATOM     10  O   UNL A   1      29.692  25.548  26.328  1.00  0.00    -0.252 OA
BRANCH   9  11
ATOM     11  C   UNL A   1      31.288  25.021  24.543  1.00  0.00     0.138 C 
ATOM     12  C   UNL A   1      32.845  22.437  23.535  1.00  0.00     0.231 C 
ATOM     13  O   UNL A   1      33.416  23.038  22.628  1.00  0.00    -0.274 OA
ATOM     14  N   UNL A   1      31.833  23.010  24.282  1.00  0.00    -0.340 N 
ATOM     15  C   UNL A   1      30.755  23.849  23.732  1.00  0.00     0.136 C 
ATOM     16  C   UNL A   1      32.144  24.014  25.300  1.00  0.00     0.136 C 
BRANCH  12  17
ATOM     17  C   UNL A   1      33.233  21.022  23.946  1.00  0.00     0.142 C 
ATOM     18  C   UNL A   1      34.939  21.828  25.762  1.00  0.00     0.076 C 
ATOM     19  C   UNL A   1      34.556  20.817  24.685  1.00  0.00     0.192 C 
ATOM     20  N   UNL A   1      34.420  19.479  25.299  1.00  0.00    -0.343 N 
ATOM     21  C   UNL A   1      32.998  19.151  25.411  1.00  0.00     0.261 C 
ATOM     22  H   UNL A   1      34.844  19.483  26.226  1.00  0.00     0.346 HD
ATOM     23  H   UNL A   1      34.891  18.784  24.720  1.00  0.00     0.346 HD
ATOM     24  C   UNL A   1      32.219  20.316  24.832  1.00  0.00     0.081 C 
ENDBRANCH  12  17
ENDBRANCH   9  11
ENDBRANCH   8   9
ENDBRANCH   7   8
ENDBRANCH   6   7
ENDBRANCH   5   6
ENDBRANCH   4   5
ENDBRANCH   3   4
ENDBRANCH   2   3
ENDBRANCH   1   2
BRANCH   1  25
ATOM     25  C   UNL A   1      32.443  29.521  27.181  1.00  0.00     0.188 C 
BRANCH  25  26
ATOM     26  O   UNL A   1      32.197  30.497  26.176  1.00  0.00    -0.376 OA
BRANCH  26  27
ATOM     27  C   UNL A   1      31.403  31.630  26.498  1.00  0.00     0.202 C 
BRANCH  27  28
ATOM     28  C   UNL A   1      32.140  32.926  26.878  1.00  0.00     0.261 C 
BRANCH  28  29
ATOM     29  O   UNL A   1      32.884  32.892  28.106  1.00  0.00    -0.460 OA
BRANCH  29  30
ATOM     30  C   UNL A   1      33.914  33.753  28.222  1.00  0.00     0.338 C 
ATOM     31  O   UNL A   1      33.851  34.969  28.315  1.00  0.00    -0.246 OA
BRANCH  30  32
ATOM     32  C   UNL A   1      35.153  32.974  28.421  1.00  0.00     0.060 A 
ATOM     33  C   UNL A   1      35.045  31.597  28.656  1.00  0.00     0.016 A 
ATOM     34  C   UNL A   1      36.403  33.597  28.413  1.00  0.00     0.016 A 
ATOM     35  C   UNL A   1      36.180  30.852  28.964  1.00  0.00     0.010 A 
ATOM     36  C   UNL A   1      37.541  32.852  28.740  1.00  0.00     0.010 A 
ATOM     37  C   UNL A   1      37.422  31.490  29.076  1.00  0.00    -0.014 A 
BRANCH  37  38
ATOM     38  C   UNL A   1      38.515  30.801  29.805  1.00  0.00     0.031 A 
ATOM     39  C   UNL A   1      38.713  31.139  31.260  1.00  0.00     0.074 A 
ATOM     40  C   UNL A   1      39.266  29.850  29.223  1.00  0.00     0.049 A 
ATOM     41  N   UNL A   1      39.591  30.677  32.115  1.00  0.00    -0.248 NA
ATOM     42  C   UNL A   1      37.793  32.139  31.827  1.00  0.00     0.031 C 
ATOM     43  C   UNL A   1      39.137  29.397  27.842  1.00  0.00     0.029 A 
ATOM     44  N   UNL A   1      40.291  29.094  29.734  1.00  0.00    -0.354 N 
ATOM     45  C   UNL A   1      39.329  31.333  33.312  1.00  0.00     0.074 A 
ATOM     46  C   UNL A   1      38.244  32.256  33.065  1.00  0.00     0.031 C 
ATOM     47  C   UNL A   1      40.054  28.440  27.611  1.00  0.00     0.029 A 
ATOM     48  C   UNL A   1      40.851  28.237  28.820  1.00  0.00     0.049 A 
ATOM     49  H   UNL A   1      40.595  29.160  30.668  1.00  0.00     0.167 HD
ATOM     50  C   UNL A   1      39.930  31.172  34.515  1.00  0.00     0.037 A 
ATOM     51  C   UNL A   1      41.898  27.397  28.948  1.00  0.00     0.037 A 
ATOM     52  C   UNL A   1      41.011  30.254  34.759  1.00  0.00     0.049 A 
ATOM     53  C   UNL A   1      42.599  27.290  30.280  1.00  0.00     0.074 A 
ATOM     54  C   UNL A   1      41.693  30.016  35.939  1.00  0.00     0.029 A 
ATOM     55  N   UNL A   1      41.575  29.428  33.797  1.00  0.00    -0.354 N 
ATOM     56  N   UNL A   1      42.340  27.903  31.410  1.00  0.00    -0.248 NA
ATOM     57  C   UNL A   1      43.734  26.359  30.354  1.00  0.00     0.031 C 
ATOM     58  C   UNL A   1      42.707  29.089  35.679  1.00  0.00     0.029 A 
ATOM     59  C   UNL A   1      42.608  28.692  34.355  1.00  0.00     0.049 A 
ATOM     60  H   UNL A   1      41.283  29.372  32.859  1.00  0.00     0.167 HD
ATOM     61  C   UNL A   1      43.245  27.398  32.337  1.00  0.00     0.074 A 
ATOM     62  C   UNL A   1      44.052  26.421  31.638  1.00  0.00     0.031 C 
ATOM     63  C   UNL A   1      43.392  27.708  33.651  1.00  0.00     0.037 A 
BRANCH  50  64
ATOM     64  C   UNL A   1      39.447  32.031  35.650  1.00  0.00     0.064 A 
ATOM     65  C   UNL A   1      39.954  33.321  35.873  1.00  0.00     0.173 A 
ATOM     66  C   UNL A   1      38.453  31.561  36.520  1.00  0.00     0.173 A 
ATOM     67  F   UNL A   1      40.921  33.813  35.082  1.00  0.00    -0.203 F 
ATOM     68  C   UNL A   1      39.505  34.093  36.941  1.00  0.00     0.198 A 
ATOM     69  C   UNL A   1      37.981  32.350  37.565  1.00  0.00     0.198 A 
ATOM     70  F   UNL A   1      37.933  30.335  36.354  1.00  0.00    -0.203 F 
ATOM     71  F   UNL A   1      40.047  35.298  37.169  1.00  0.00    -0.200 F 
ATOM     72  C   UNL A   1      38.513  33.611  37.781  1.00  0.00     0.200 A 
ATOM     73  F   UNL A   1      37.012  31.886  38.368  1.00  0.00    -0.200 F 
ATOM     74  F   UNL A   1      38.078  34.358  38.805  1.00  0.00    -0.200 F 
ENDBRANCH  50  64
BRANCH  51  75
ATOM     75  C   UNL A   1      42.354  26.586  27.786  1.00  0.00     0.064 A 
ATOM     76  C   UNL A   1      43.351  27.055  26.920  1.00  0.00     0.173 A 
ATOM     77  C   UNL A   1      41.772  25.344  27.495  1.00  0.00     0.173 A 
ATOM     78  F   UNL A   1      43.922  28.249  27.139  1.00  0.00    -0.203 F 
ATOM     79  C   UNL A   1      43.727  26.328  25.791  1.00  0.00     0.198 A 
ATOM     80  C   UNL A   1      42.172  24.601  26.386  1.00  0.00     0.198 A 
ATOM     81  F   UNL A   1      40.811  24.849  28.290  1.00  0.00    -0.203 F 
ATOM     82  F   UNL A   1      44.638  26.830  24.946  1.00  0.00    -0.200 F 
ATOM     83  C   UNL A   1      43.140  25.100  25.528  1.00  0.00     0.200 A 
ATOM     84  F   UNL A   1      41.611  23.409  26.144  1.00  0.00    -0.200 F 
ATOM     85  F   UNL A   1      43.500  24.401  24.442  1.00  0.00    -0.200 F 
ENDBRANCH  51  75
BRANCH  63  86
ATOM     86  C   UNL A   1      44.412  26.930  34.436  1.00  0.00     0.064 A 
ATOM     87  C   UNL A   1      45.731  27.377  34.602  1.00  0.00     0.173 A 
ATOM     88  C   UNL A   1      44.053  25.717  35.045  1.00  0.00     0.173 A 
ATOM     89  F   UNL A   1      46.131  28.527  34.037  1.00  0.00    -0.203 F 
ATOM     90  C   UNL A   1      46.664  26.617  35.304  1.00  0.00     0.198 A 
ATOM     91  C   UNL A   1      44.977  24.979  35.781  1.00  0.00     0.198 A 
ATOM     92  F   UNL A   1      42.801  25.246  34.932  1.00  0.00    -0.203 F 
ATOM     93  F   UNL A   1      47.936  27.029  35.386  1.00  0.00    -0.200 F 
ATOM     94  C   UNL A   1      46.285  25.422  35.897  1.00  0.00     0.200 A 
ATOM     95  F   UNL A   1      44.602  23.835  36.370  1.00  0.00    -0.200 F 
ATOM     96  F   UNL A   1      47.183  24.690  36.570  1.00  0.00    -0.200 F 
ENDBRANCH  63  86
ENDBRANCH  37  38
ENDBRANCH  30  32
ENDBRANCH  29  30
ENDBRANCH  28  29
ENDBRANCH  27  28
ENDBRANCH  26  27
ENDBRANCH  25  26
ENDBRANCH   1  25
TORSDOF 21
ENDMDL
