MODEL 1
REMARK VINA RESULT:     -10.9      0.000      0.000
REMARK SMILES C[C@@H]1CCC[C@@]1(C(=O)OCCOCCOCCOCCOC(=O)c1ccc(-c2c3nc(c(-c4c(F)c(F)c(F)c(F)c4F)c4ccc([nH]4)c(-c4c(F)c(F)c(F)c(F)c4F)c4nc(c(-c5c(F)c(F)c(F)c(F)c5F)c5ccc2[nH]5)C=C4)C=C3)cc1)c1ccc(Cl)cc1Cl
REMARK SMILES IDX 16 1 15 2 14 3 13 4 12 5 11 6 10 7 9 8 7 9 8 10 6 11 1 12
REMARK SMILES IDX 2 13 3 14 4 15 5 16 87 17 88 18 93 19 89 20 92 21 94 22
REMARK SMILES IDX 90 23 91 24 17 25 18 26 19 27 20 28 21 29 22 30 23 31 24 32
REMARK SMILES IDX 25 33 86 34 26 35 85 36 27 37 28 38 29 39 79 40 30 41 84 42
REMARK SMILES IDX 78 43 80 44 31 45 83 46 77 47 76 48 32 50 64 51 44 52 63 53
REMARK SMILES IDX 45 54 48 55 62 56 81 57 46 58 47 59 61 61 82 62 49 63 33 64
REMARK SMILES IDX 34 65 42 66 35 67 36 68 40 69 43 70 37 71 38 72 41 73 39 74
REMARK SMILES IDX 65 75 66 76 74 77 67 78 68 79 72 80 75 81 69 82 70 83 73 84
REMARK SMILES IDX 71 85 50 86 51 87 59 88 52 89 53 90 57 91 60 92 54 93 55 94
REMARK SMILES IDX 58 95 56 96
REMARK H PARENT 80 49 48 60
REMARK Flexibility Score: inf
ROOT
ATOM      1  C   UNL A   1      34.151  34.946  29.145  1.00  0.00     0.188 C 
ENDROOT
BRANCH   1   2
ATOM      2  O   UNL A   1      34.824  33.704  29.355  1.00  0.00    -0.377 OA
BRANCH   2   3
ATOM      3  C   UNL A   1      34.278  32.527  28.782  1.00  0.00     0.188 C 
BRANCH   3   4
ATOM      4  C   UNL A   1      35.142  31.891  27.698  1.00  0.00     0.188 C 
BRANCH   4   5
ATOM      5  O   UNL A   1      35.313  30.503  27.915  1.00  0.00    -0.376 OA
BRANCH   5   6
ATOM      6  C   UNL A   1      34.684  29.595  27.014  1.00  0.00     0.202 C 
BRANCH   6   7
ATOM      7  C   UNL A   1      33.364  28.870  27.330  1.00  0.00     0.261 C 
BRANCH   7   8
ATOM      8  O   UNL A   1      33.177  27.488  26.907  1.00  0.00    -0.463 OA
BRANCH   8   9
ATOM      9  C   UNL A   1      31.885  27.159  26.587  1.00  0.00     0.316 C 
ATOM     10  O   UNL A   1      30.965  27.270  27.401  1.00  0.00    -0.251 OA
BRANCH   9  11
ATOM     11  C   UNL A   1      31.630  26.486  25.193  1.00  0.00     0.097 C 
ATOM     12  C   UNL A   1      31.485  28.863  23.998  1.00  0.00     0.009 C 
ATOM     13  C   UNL A   1      31.633  27.359  23.875  1.00  0.00     0.008 C 
ATOM     14  C   UNL A   1      30.443  26.884  23.010  1.00  0.00     0.005 C 
ATOM     15  C   UNL A   1      29.407  26.339  23.971  1.00  0.00     0.002 C 
ATOM     16  C   UNL A   1      30.115  26.062  25.289  1.00  0.00     0.024 C 
BRANCH  11  17
ATOM     17  C   UNL A   1      32.526  25.196  24.949  1.00  0.00    -0.012 A 
ATOM     18  C   UNL A   1      33.501  25.250  23.917  1.00  0.00     0.008 A 
ATOM     19  C   UNL A   1      32.517  23.985  25.681  1.00  0.00     0.046 A 
ATOM     20  C   UNL A   1      34.450  24.245  23.694  1.00  0.00     0.021 A 
ATOM     21  C   UNL A   1      33.464  22.967  25.446  1.00  0.00     0.041 A 
ATOM     22  Cl  UNL A   1      31.385  23.522  26.886  1.00  0.00    -0.084 Cl
ATOM     23  C   UNL A   1      34.436  23.108  24.474  1.00  0.00     0.042 A 
ATOM     24  Cl  UNL A   1      35.594  21.866  24.224  1.00  0.00    -0.084 Cl
ENDBRANCH  11  17
ENDBRANCH   9  11
ENDBRANCH   8   9
ENDBRANCH   7   8
ENDBRANCH   6   7
ENDBRANCH   5   6
ENDBRANCH   4   5
ENDBRANCH   3   4
ENDBRANCH   2   3
ENDBRANCH   1   2
BRANCH   1  25
ATOM     25  C   UNL A   1      33.268  35.457  30.279  1.00  0.00     0.188 C 
BRANCH  25  26
ATOM     26  O   UNL A   1      33.155  34.630  31.436  1.00  0.00    -0.376 OA
BRANCH  26  27
ATOM     27  C   UNL A   1      34.135  34.753  32.464  1.00  0.00     0.202 C 
BRANCH  27  28
ATOM     28  C   UNL A   1      34.355  33.499  33.308  1.00  0.00     0.261 C 
BRANCH  28  29
ATOM     29  O   UNL A   1      35.121  32.502  32.610  1.00  0.00    -0.460 OA
BRANCH  29  30
ATOM     30  C   UNL A   1      36.230  32.082  33.259  1.00  0.00     0.338 C 
ATOM     31  O   UNL A   1      36.562  32.342  34.402  1.00  0.00    -0.246 OA
BRANCH  30  32
ATOM     32  C   UNL A   1      37.006  31.156  32.413  1.00  0.00     0.060 A 
ATOM     33  C   UNL A   1      38.031  30.427  33.027  1.00  0.00     0.016 A 
ATOM     34  C   UNL A   1      36.846  31.129  31.024  1.00  0.00     0.016 A 
ATOM     35  C   UNL A   1      38.962  29.747  32.248  1.00  0.00     0.010 A 
ATOM     36  C   UNL A   1      37.783  30.449  30.242  1.00  0.00     0.010 A 
ATOM     37  C   UNL A   1      38.880  29.812  30.850  1.00  0.00    -0.014 A 
BRANCH  37  38
ATOM     38  C   UNL A   1      40.066  29.431  30.048  1.00  0.00     0.031 A 
ATOM     39  C   UNL A   1      41.162  30.448  29.865  1.00  0.00     0.074 A 
ATOM     40  C   UNL A   1      40.199  28.191  29.547  1.00  0.00     0.049 A 
ATOM     41  N   UNL A   1      42.296  30.347  29.220  1.00  0.00    -0.248 NA
ATOM     42  C   UNL A   1      40.948  31.759  30.500  1.00  0.00     0.031 C 
ATOM     43  C   UNL A   1      39.227  27.111  29.698  1.00  0.00     0.029 A 
ATOM     44  N   UNL A   1      41.215  27.636  28.811  1.00  0.00    -0.354 N 
ATOM     45  C   UNL A   1      42.925  31.576  29.368  1.00  0.00     0.074 A 
ATOM     46  C   UNL A   1      42.036  32.420  30.135  1.00  0.00     0.031 C 
ATOM     47  C   UNL A   1      39.693  26.018  29.067  1.00  0.00     0.029 A 
ATOM     48  C   UNL A   1      40.982  26.332  28.452  1.00  0.00     0.049 A 
ATOM     49  H   UNL A   1      42.033  28.125  28.565  1.00  0.00     0.167 HD
ATOM     50  C   UNL A   1      44.142  31.964  28.917  1.00  0.00     0.037 A 
ATOM     51  C   UNL A   1      41.726  25.495  27.704  1.00  0.00     0.037 A 
ATOM     52  C   UNL A   1      45.026  31.124  28.156  1.00  0.00     0.049 A 
ATOM     53  C   UNL A   1      43.054  25.967  27.170  1.00  0.00     0.074 A 
ATOM     54  C   UNL A   1      46.276  31.421  27.644  1.00  0.00     0.029 A 
ATOM     55  N   UNL A   1      44.746  29.814  27.796  1.00  0.00    -0.354 N 
ATOM     56  N   UNL A   1      43.647  27.126  27.325  1.00  0.00    -0.248 NA
ATOM     57  C   UNL A   1      43.821  25.005  26.365  1.00  0.00     0.031 C 
ATOM     58  C   UNL A   1      46.736  30.302  26.940  1.00  0.00     0.029 A 
ATOM     59  C   UNL A   1      45.795  29.292  27.058  1.00  0.00     0.049 A 
ATOM     60  H   UNL A   1      43.923  29.326  28.031  1.00  0.00     0.167 HD
ATOM     61  C   UNL A   1      44.869  27.023  26.671  1.00  0.00     0.074 A 
ATOM     62  C   UNL A   1      44.934  25.683  26.123  1.00  0.00     0.031 C 
ATOM     63  C   UNL A   1      45.848  27.950  26.538  1.00  0.00     0.037 A 
BRANCH  50  64
ATOM     64  C   UNL A   1      44.571  33.372  29.217  1.00  0.00     0.064 A 
ATOM     65  C   UNL A   1      45.264  33.696  30.393  1.00  0.00     0.173 A 
ATOM     66  C   UNL A   1      44.297  34.405  28.310  1.00  0.00     0.173 A 
ATOM     67  F   UNL A   1      45.535  32.746  31.301  1.00  0.00    -0.203 F 
ATOM     68  C   UNL A   1      45.642  35.009  30.662  1.00  0.00     0.198 A 
ATOM     69  C   UNL A   1      44.701  35.713  28.569  1.00  0.00     0.198 A 
ATOM     70  F   UNL A   1      43.637  34.149  27.171  1.00  0.00    -0.203 F 
ATOM     71  F   UNL A   1      46.260  35.304  31.814  1.00  0.00    -0.200 F 
ATOM     72  C   UNL A   1      45.366  36.015  29.748  1.00  0.00     0.200 A 
ATOM     73  F   UNL A   1      44.440  36.681  27.681  1.00  0.00    -0.200 F 
ATOM     74  F   UNL A   1      45.732  37.277  30.007  1.00  0.00    -0.200 F 
ENDBRANCH  50  64
BRANCH  51  75
ATOM     75  C   UNL A   1      41.236  24.122  27.418  1.00  0.00     0.064 A 
ATOM     76  C   UNL A   1      40.139  23.905  26.573  1.00  0.00     0.173 A 
ATOM     77  C   UNL A   1      41.845  23.000  27.999  1.00  0.00     0.173 A 
ATOM     78  F   UNL A   1      39.509  24.948  26.014  1.00  0.00    -0.203 F 
ATOM     79  C   UNL A   1      39.656  22.619  26.336  1.00  0.00     0.198 A 
ATOM     80  C   UNL A   1      41.378  21.713  27.740  1.00  0.00     0.198 A 
ATOM     81  F   UNL A   1      42.896  23.154  28.816  1.00  0.00    -0.203 F 
ATOM     82  F   UNL A   1      38.578  22.443  25.562  1.00  0.00    -0.200 F 
ATOM     83  C   UNL A   1      40.280  21.524  26.915  1.00  0.00     0.200 A 
ATOM     84  F   UNL A   1      41.989  20.657  28.293  1.00  0.00    -0.200 F 
ATOM     85  F   UNL A   1      39.816  20.288  26.686  1.00  0.00    -0.200 F 
ENDBRANCH  51  75
BRANCH  63  86
ATOM     86  C   UNL A   1      47.099  27.531  25.820  1.00  0.00     0.064 A 
ATOM     87  C   UNL A   1      48.179  26.945  26.496  1.00  0.00     0.173 A 
ATOM     88  C   UNL A   1      47.200  27.690  24.430  1.00  0.00     0.173 A 
ATOM     89  F   UNL A   1      48.135  26.784  27.827  1.00  0.00    -0.203 F 
ATOM     90  C   UNL A   1      49.329  26.563  25.810  1.00  0.00     0.198 A 
ATOM     91  C   UNL A   1      48.339  27.279  23.742  1.00  0.00     0.198 A 
ATOM     92  F   UNL A   1      46.191  28.237  23.736  1.00  0.00    -0.203 F 
ATOM     93  F   UNL A   1      50.369  26.053  26.482  1.00  0.00    -0.200 F 
ATOM     94  C   UNL A   1      49.405  26.725  24.434  1.00  0.00     0.200 A 
ATOM     95  F   UNL A   1      48.406  27.423  22.412  1.00  0.00    -0.200 F 
ATOM     96  F   UNL A   1      50.511  26.353  23.775  1.00  0.00    -0.200 F 
ENDBRANCH  63  86
ENDBRANCH  37  38
ENDBRANCH  30  32
ENDBRANCH  29  30
ENDBRANCH  28  29
ENDBRANCH  27  28
ENDBRANCH  26  27
ENDBRANCH  25  26
ENDBRANCH   1  25
TORSDOF 21
ENDMDL
MODEL 2
REMARK VINA RESULT:     -10.9      1.289      2.257
REMARK SMILES C[C@@H]1CCC[C@@]1(C(=O)OCCOCCOCCOCCOC(=O)c1ccc(-c2c3nc(c(-c4c(F)c(F)c(F)c(F)c4F)c4ccc([nH]4)c(-c4c(F)c(F)c(F)c(F)c4F)c4nc(c(-c5c(F)c(F)c(F)c(F)c5F)c5ccc2[nH]5)C=C4)C=C3)cc1)c1ccc(Cl)cc1Cl
REMARK SMILES IDX 16 1 15 2 14 3 13 4 12 5 11 6 10 7 9 8 7 9 8 10 6 11 1 12
REMARK SMILES IDX 2 13 3 14 4 15 5 16 87 17 88 18 93 19 89 20 92 21 94 22
REMARK SMILES IDX 90 23 91 24 17 25 18 26 19 27 20 28 21 29 22 30 23 31 24 32
REMARK SMILES IDX 25 33 86 34 26 35 85 36 27 37 28 38 29 39 79 40 30 41 84 42
REMARK SMILES IDX 78 43 80 44 31 45 83 46 77 47 76 48 32 50 64 51 44 52 63 53
REMARK SMILES IDX 45 54 48 55 62 56 81 57 46 58 47 59 61 61 82 62 49 63 33 64
REMARK SMILES IDX 34 65 42 66 35 67 36 68 40 69 43 70 37 71 38 72 41 73 39 74
REMARK SMILES IDX 65 75 66 76 74 77 67 78 68 79 72 80 75 81 69 82 70 83 73 84
REMARK SMILES IDX 71 85 50 86 51 87 59 88 52 89 53 90 57 91 60 92 54 93 55 94
REMARK SMILES IDX 58 95 56 96
REMARK H PARENT 80 49 48 60
REMARK Flexibility Score: inf
ROOT
ATOM      1  C   UNL A   1      34.256  34.870  29.040  1.00  0.00     0.188 C 
ENDROOT
BRANCH   1   2
ATOM      2  O   UNL A   1      34.857  33.588  29.224  1.00  0.00    -0.377 OA
BRANCH   2   3
ATOM      3  C   UNL A   1      34.123  32.431  28.855  1.00  0.00     0.188 C 
BRANCH   3   4
ATOM      4  C   UNL A   1      34.670  31.697  27.636  1.00  0.00     0.188 C 
BRANCH   4   5
ATOM      5  O   UNL A   1      35.216  30.439  27.987  1.00  0.00    -0.376 OA
BRANCH   5   6
ATOM      6  C   UNL A   1      34.850  29.303  27.208  1.00  0.00     0.202 C 
BRANCH   6   7
ATOM      7  C   UNL A   1      33.420  28.737  27.159  1.00  0.00     0.261 C 
BRANCH   7   8
ATOM      8  O   UNL A   1      33.182  27.414  26.597  1.00  0.00    -0.463 OA
BRANCH   8   9
ATOM      9  C   UNL A   1      31.860  27.095  26.428  1.00  0.00     0.316 C 
ATOM     10  O   UNL A   1      31.034  27.244  27.332  1.00  0.00    -0.251 OA
BRANCH   9  11
ATOM     11  C   UNL A   1      31.448  26.383  25.092  1.00  0.00     0.097 C 
ATOM     12  C   UNL A   1      30.708  24.190  26.411  1.00  0.00     0.009 C 
ATOM     13  C   UNL A   1      30.683  25.000  25.130  1.00  0.00     0.008 C 
ATOM     14  C   UNL A   1      31.317  24.099  24.045  1.00  0.00     0.005 C 
ATOM     15  C   UNL A   1      32.749  24.565  23.885  1.00  0.00     0.002 C 
ATOM     16  C   UNL A   1      32.840  25.961  24.485  1.00  0.00     0.024 C 
BRANCH  11  17
ATOM     17  C   UNL A   1      30.698  27.349  24.076  1.00  0.00    -0.012 A 
ATOM     18  C   UNL A   1      29.316  27.119  23.837  1.00  0.00     0.008 A 
ATOM     19  C   UNL A   1      31.228  28.473  23.400  1.00  0.00     0.046 A 
ATOM     20  C   UNL A   1      28.506  27.978  23.085  1.00  0.00     0.021 A 
ATOM     21  C   UNL A   1      30.415  29.329  22.630  1.00  0.00     0.041 A 
ATOM     22  Cl  UNL A   1      32.876  28.953  23.341  1.00  0.00    -0.084 Cl
ATOM     23  C   UNL A   1      29.060  29.094  22.493  1.00  0.00     0.042 A 
ATOM     24  Cl  UNL A   1      28.085  30.165  21.572  1.00  0.00    -0.084 Cl
ENDBRANCH  11  17
ENDBRANCH   9  11
ENDBRANCH   8   9
ENDBRANCH   7   8
ENDBRANCH   6   7
ENDBRANCH   5   6
ENDBRANCH   4   5
ENDBRANCH   3   4
ENDBRANCH   2   3
ENDBRANCH   1   2
BRANCH   1  25
ATOM     25  C   UNL A   1      33.364  35.388  30.164  1.00  0.00     0.188 C 
BRANCH  25  26
ATOM     26  O   UNL A   1      33.230  34.559  31.318  1.00  0.00    -0.376 OA
BRANCH  26  27
ATOM     27  C   UNL A   1      34.165  34.710  32.383  1.00  0.00     0.202 C 
BRANCH  27  28
ATOM     28  C   UNL A   1      34.375  33.468  33.246  1.00  0.00     0.261 C 
BRANCH  28  29
ATOM     29  O   UNL A   1      35.127  32.451  32.561  1.00  0.00    -0.460 OA
BRANCH  29  30
ATOM     30  C   UNL A   1      36.241  32.039  33.206  1.00  0.00     0.338 C 
ATOM     31  O   UNL A   1      36.575  32.301  34.348  1.00  0.00    -0.246 OA
BRANCH  30  32
ATOM     32  C   UNL A   1      37.019  31.117  32.358  1.00  0.00     0.060 A 
ATOM     33  C   UNL A   1      38.035  30.376  32.973  1.00  0.00     0.016 A 
ATOM     34  C   UNL A   1      36.872  31.106  30.967  1.00  0.00     0.016 A 
ATOM     35  C   UNL A   1      38.970  29.700  32.195  1.00  0.00     0.010 A 
ATOM     36  C   UNL A   1      37.813  30.429  30.186  1.00  0.00     0.010 A 
ATOM     37  C   UNL A   1      38.901  29.780  30.797  1.00  0.00    -0.014 A 
BRANCH  37  38
ATOM     38  C   UNL A   1      40.092  29.401  30.002  1.00  0.00     0.031 A 
ATOM     39  C   UNL A   1      41.181  30.425  29.814  1.00  0.00     0.074 A 
ATOM     40  C   UNL A   1      40.236  28.159  29.512  1.00  0.00     0.049 A 
ATOM     41  N   UNL A   1      42.318  30.327  29.173  1.00  0.00    -0.248 NA
ATOM     42  C   UNL A   1      40.956  31.740  30.438  1.00  0.00     0.031 C 
ATOM     43  C   UNL A   1      39.271  27.073  29.668  1.00  0.00     0.029 A 
ATOM     44  N   UNL A   1      41.258  27.605  28.783  1.00  0.00    -0.354 N 
ATOM     45  C   UNL A   1      42.938  31.562  29.314  1.00  0.00     0.074 A 
ATOM     46  C   UNL A   1      42.040  32.405  30.072  1.00  0.00     0.031 C 
ATOM     47  C   UNL A   1      39.747  25.979  29.047  1.00  0.00     0.029 A 
ATOM     48  C   UNL A   1      41.035  26.296  28.434  1.00  0.00     0.049 A 
ATOM     49  H   UNL A   1      42.073  28.098  28.535  1.00  0.00     0.167 HD
ATOM     50  C   UNL A   1      44.153  31.955  28.864  1.00  0.00     0.037 A 
ATOM     51  C   UNL A   1      41.788  25.459  27.695  1.00  0.00     0.037 A 
ATOM     52  C   UNL A   1      45.046  31.115  28.112  1.00  0.00     0.049 A 
ATOM     53  C   UNL A   1      43.114  25.937  27.160  1.00  0.00     0.074 A 
ATOM     54  C   UNL A   1      46.295  31.417  27.602  1.00  0.00     0.029 A 
ATOM     55  N   UNL A   1      44.776  29.801  27.762  1.00  0.00    -0.354 N 
ATOM     56  N   UNL A   1      43.698  27.101  27.309  1.00  0.00    -0.248 NA
ATOM     57  C   UNL A   1      43.891  24.974  26.366  1.00  0.00     0.031 C 
ATOM     58  C   UNL A   1      46.766  30.296  26.908  1.00  0.00     0.029 A 
ATOM     59  C   UNL A   1      45.831  29.280  27.031  1.00  0.00     0.049 A 
ATOM     60  H   UNL A   1      43.956  29.309  27.998  1.00  0.00     0.167 HD
ATOM     61  C   UNL A   1      44.923  27.001  26.659  1.00  0.00     0.074 A 
ATOM     62  C   UNL A   1      45.000  25.658  26.122  1.00  0.00     0.031 C 
ATOM     63  C   UNL A   1      45.896  27.935  26.522  1.00  0.00     0.037 A 
BRANCH  50  64
ATOM     64  C   UNL A   1      44.571  33.368  29.154  1.00  0.00     0.064 A 
ATOM     65  C   UNL A   1      45.309  33.697  30.301  1.00  0.00     0.173 A 
ATOM     66  C   UNL A   1      44.240  34.402  28.266  1.00  0.00     0.173 A 
ATOM     67  F   UNL A   1      45.635  32.747  31.190  1.00  0.00    -0.203 F 
ATOM     68  C   UNL A   1      45.677  35.015  30.561  1.00  0.00     0.198 A 
ATOM     69  C   UNL A   1      44.633  35.714  28.516  1.00  0.00     0.198 A 
ATOM     70  F   UNL A   1      43.536  34.141  27.155  1.00  0.00    -0.203 F 
ATOM     71  F   UNL A   1      46.338  35.314  31.688  1.00  0.00    -0.200 F 
ATOM     72  C   UNL A   1      45.344  36.021  29.667  1.00  0.00     0.200 A 
ATOM     73  F   UNL A   1      44.318  36.683  27.646  1.00  0.00    -0.200 F 
ATOM     74  F   UNL A   1      45.700  37.288  29.917  1.00  0.00    -0.200 F 
ENDBRANCH  50  64
BRANCH  51  75
ATOM     75  C   UNL A   1      41.309  24.080  27.418  1.00  0.00     0.064 A 
ATOM     76  C   UNL A   1      40.202  23.850  26.589  1.00  0.00     0.173 A 
ATOM     77  C   UNL A   1      41.938  22.966  27.991  1.00  0.00     0.173 A 
ATOM     78  F   UNL A   1      39.552  24.885  26.038  1.00  0.00    -0.203 F 
ATOM     79  C   UNL A   1      39.729  22.559  26.361  1.00  0.00     0.198 A 
ATOM     80  C   UNL A   1      41.482  21.674  27.741  1.00  0.00     0.198 A 
ATOM     81  F   UNL A   1      43.000  23.133  28.793  1.00  0.00    -0.203 F 
ATOM     82  F   UNL A   1      38.642  22.370  25.604  1.00  0.00    -0.200 F 
ATOM     83  C   UNL A   1      40.374  21.471  26.933  1.00  0.00     0.200 A 
ATOM     84  F   UNL A   1      42.113  20.625  28.287  1.00  0.00    -0.200 F 
ATOM     85  F   UNL A   1      39.920  20.230  26.713  1.00  0.00    -0.200 F 
ENDBRANCH  51  75
BRANCH  63  86
ATOM     86  C   UNL A   1      47.152  27.520  25.811  1.00  0.00     0.064 A 
ATOM     87  C   UNL A   1      48.227  26.931  26.492  1.00  0.00     0.173 A 
ATOM     88  C   UNL A   1      47.263  27.684  24.422  1.00  0.00     0.173 A 
ATOM     89  F   UNL A   1      48.174  26.764  27.822  1.00  0.00    -0.203 F 
ATOM     90  C   UNL A   1      49.382  26.552  25.813  1.00  0.00     0.198 A 
ATOM     91  C   UNL A   1      48.407  27.277  23.741  1.00  0.00     0.198 A 
ATOM     92  F   UNL A   1      46.259  28.234  23.723  1.00  0.00    -0.203 F 
ATOM     93  F   UNL A   1      50.418  26.039  26.491  1.00  0.00    -0.200 F 
ATOM     94  C   UNL A   1      49.469  26.719  24.439  1.00  0.00     0.200 A 
ATOM     95  F   UNL A   1      48.484  27.426  22.412  1.00  0.00    -0.200 F 
ATOM     96  F   UNL A   1      50.579  26.350  23.786  1.00  0.00    -0.200 F 
ENDBRANCH  63  86
ENDBRANCH  37  38
ENDBRANCH  30  32
ENDBRANCH  29  30
ENDBRANCH  28  29
ENDBRANCH  27  28
ENDBRANCH  26  27
ENDBRANCH  25  26
ENDBRANCH   1  25
TORSDOF 21
ENDMDL
MODEL 3
REMARK VINA RESULT:     -10.7      4.225      7.129
REMARK SMILES C[C@@H]1CCC[C@@]1(C(=O)OCCOCCOCCOCCOC(=O)c1ccc(-c2c3nc(c(-c4c(F)c(F)c(F)c(F)c4F)c4ccc([nH]4)c(-c4c(F)c(F)c(F)c(F)c4F)c4nc(c(-c5c(F)c(F)c(F)c(F)c5F)c5ccc2[nH]5)C=C4)C=C3)cc1)c1ccc(Cl)cc1Cl
REMARK SMILES IDX 16 1 15 2 14 3 13 4 12 5 11 6 10 7 9 8 7 9 8 10 6 11 1 12
REMARK SMILES IDX 2 13 3 14 4 15 5 16 87 17 88 18 93 19 89 20 92 21 94 22
REMARK SMILES IDX 90 23 91 24 17 25 18 26 19 27 20 28 21 29 22 30 23 31 24 32
REMARK SMILES IDX 25 33 86 34 26 35 85 36 27 37 28 38 29 39 79 40 30 41 84 42
REMARK SMILES IDX 78 43 80 44 31 45 83 46 77 47 76 48 32 50 64 51 44 52 63 53
REMARK SMILES IDX 45 54 48 55 62 56 81 57 46 58 47 59 61 61 82 62 49 63 33 64
REMARK SMILES IDX 34 65 42 66 35 67 36 68 40 69 43 70 37 71 38 72 41 73 39 74
REMARK SMILES IDX 65 75 66 76 74 77 67 78 68 79 72 80 75 81 69 82 70 83 73 84
REMARK SMILES IDX 71 85 50 86 51 87 59 88 52 89 53 90 57 91 60 92 54 93 55 94
REMARK SMILES IDX 58 95 56 96
REMARK H PARENT 80 49 48 60
REMARK Flexibility Score: inf
ROOT
ATOM      1  C   UNL A   1      29.661  28.105  23.406  1.00  0.00     0.188 C 
ENDROOT
BRANCH   1   2
ATOM      2  O   UNL A   1      30.303  26.838  23.251  1.00  0.00    -0.377 OA
BRANCH   2   3
ATOM      3  C   UNL A   1      29.993  25.799  24.165  1.00  0.00     0.188 C 
BRANCH   3   4
ATOM      4  C   UNL A   1      30.580  25.986  25.560  1.00  0.00     0.188 C 
BRANCH   4   5
ATOM      5  O   UNL A   1      30.016  25.079  26.488  1.00  0.00    -0.376 OA
BRANCH   5   6
ATOM      6  C   UNL A   1      30.283  23.689  26.322  1.00  0.00     0.202 C 
BRANCH   6   7
ATOM      7  C   UNL A   1      31.596  23.021  26.766  1.00  0.00     0.261 C 
BRANCH   7   8
ATOM      8  O   UNL A   1      32.853  23.752  26.662  1.00  0.00    -0.463 OA
BRANCH   8   9
ATOM      9  C   UNL A   1      33.963  22.960  26.524  1.00  0.00     0.316 C 
ATOM     10  O   UNL A   1      34.370  22.244  27.442  1.00  0.00    -0.251 OA
BRANCH   9  11
ATOM     11  C   UNL A   1      34.801  23.107  25.206  1.00  0.00     0.097 C 
ATOM     12  C   UNL A   1      35.889  20.699  25.550  1.00  0.00     0.009 C 
ATOM     13  C   UNL A   1      35.607  21.873  24.633  1.00  0.00     0.008 C 
ATOM     14  C   UNL A   1      36.989  22.401  24.183  1.00  0.00     0.005 C 
ATOM     15  C   UNL A   1      37.286  23.611  25.043  1.00  0.00     0.002 C 
ATOM     16  C   UNL A   1      35.967  24.072  25.646  1.00  0.00     0.024 C 
BRANCH  11  17
ATOM     17  C   UNL A   1      33.983  23.774  24.018  1.00  0.00    -0.012 A 
ATOM     18  C   UNL A   1      34.194  25.155  23.758  1.00  0.00     0.008 A 
ATOM     19  C   UNL A   1      33.087  23.142  23.123  1.00  0.00     0.046 A 
ATOM     20  C   UNL A   1      33.653  25.829  22.656  1.00  0.00     0.021 A 
ATOM     21  C   UNL A   1      32.531  23.825  22.022  1.00  0.00     0.041 A 
ATOM     22  Cl  UNL A   1      32.491  21.536  23.230  1.00  0.00    -0.084 Cl
ATOM     23  C   UNL A   1      32.830  25.152  21.780  1.00  0.00     0.042 A 
ATOM     24  Cl  UNL A   1      32.161  25.955  20.419  1.00  0.00    -0.084 Cl
ENDBRANCH  11  17
ENDBRANCH   9  11
ENDBRANCH   8   9
ENDBRANCH   7   8
ENDBRANCH   6   7
ENDBRANCH   5   6
ENDBRANCH   4   5
ENDBRANCH   3   4
ENDBRANCH   2   3
ENDBRANCH   1   2
BRANCH   1  25
ATOM     25  C   UNL A   1      30.555  29.306  23.693  1.00  0.00     0.188 C 
BRANCH  25  26
ATOM     26  O   UNL A   1      31.741  29.066  24.450  1.00  0.00    -0.376 OA
BRANCH  26  27
ATOM     27  C   UNL A   1      31.741  29.383  25.840  1.00  0.00     0.202 C 
BRANCH  27  28
ATOM     28  C   UNL A   1      32.220  30.791  26.187  1.00  0.00     0.261 C 
BRANCH  28  29
ATOM     29  O   UNL A   1      32.801  30.860  27.501  1.00  0.00    -0.460 OA
BRANCH  29  30
ATOM     30  C   UNL A   1      33.644  31.898  27.694  1.00  0.00     0.338 C 
ATOM     31  O   UNL A   1      33.354  33.076  27.806  1.00  0.00    -0.246 OA
BRANCH  30  32
ATOM     32  C   UNL A   1      35.031  31.419  27.843  1.00  0.00     0.060 A 
ATOM     33  C   UNL A   1      35.230  30.036  27.933  1.00  0.00     0.016 A 
ATOM     34  C   UNL A   1      36.090  32.306  28.060  1.00  0.00     0.016 A 
ATOM     35  C   UNL A   1      36.464  29.537  28.338  1.00  0.00     0.010 A 
ATOM     36  C   UNL A   1      37.328  31.805  28.470  1.00  0.00     0.010 A 
ATOM     37  C   UNL A   1      37.497  30.423  28.673  1.00  0.00    -0.014 A 
BRANCH  37  38
ATOM     38  C   UNL A   1      38.644  29.915  29.460  1.00  0.00     0.031 A 
ATOM     39  C   UNL A   1      38.824  30.421  30.868  1.00  0.00     0.074 A 
ATOM     40  C   UNL A   1      39.470  28.979  28.964  1.00  0.00     0.049 A 
ATOM     41  N   UNL A   1      39.739  30.117  31.754  1.00  0.00    -0.248 NA
ATOM     42  C   UNL A   1      37.834  31.403  31.341  1.00  0.00     0.031 C 
ATOM     43  C   UNL A   1      39.368  28.383  27.635  1.00  0.00     0.029 A 
ATOM     44  N   UNL A   1      40.558  28.365  29.530  1.00  0.00    -0.354 N 
ATOM     45  C   UNL A   1      39.436  30.870  32.881  1.00  0.00     0.074 A 
ATOM     46  C   UNL A   1      38.275  31.670  32.560  1.00  0.00     0.031 C 
ATOM     47  C   UNL A   1      40.360  27.488  27.484  1.00  0.00     0.029 A 
ATOM     48  C   UNL A   1      41.177  27.467  28.697  1.00  0.00     0.049 A 
ATOM     49  H   UNL A   1      40.867  28.550  30.447  1.00  0.00     0.167 HD
ATOM     50  C   UNL A   1      40.062  30.885  34.082  1.00  0.00     0.037 A 
ATOM     51  C   UNL A   1      42.282  26.724  28.894  1.00  0.00     0.037 A 
ATOM     52  C   UNL A   1      41.216  30.088  34.401  1.00  0.00     0.049 A 
ATOM     53  C   UNL A   1      42.991  26.796  30.222  1.00  0.00     0.074 A 
ATOM     54  C   UNL A   1      41.931  30.033  35.584  1.00  0.00     0.029 A 
ATOM     55  N   UNL A   1      41.824  29.204  33.523  1.00  0.00    -0.354 N 
ATOM     56  N   UNL A   1      42.692  27.500  31.286  1.00  0.00    -0.248 NA
ATOM     57  C   UNL A   1      44.188  25.956  30.378  1.00  0.00     0.031 C 
ATOM     58  C   UNL A   1      42.997  29.144  35.408  1.00  0.00     0.029 A 
ATOM     59  C   UNL A   1      42.914  28.607  34.133  1.00  0.00     0.049 A 
ATOM     60  H   UNL A   1      41.526  29.026  32.601  1.00  0.00     0.167 HD
ATOM     61  C   UNL A   1      43.637  27.164  32.248  1.00  0.00     0.074 A 
ATOM     62  C   UNL A   1      44.516  26.186  31.641  1.00  0.00     0.031 C 
ATOM     63  C   UNL A   1      43.765  27.621  33.518  1.00  0.00     0.037 A 
BRANCH  50  64
ATOM     64  C   UNL A   1      39.521  31.815  35.129  1.00  0.00     0.064 A 
ATOM     65  C   UNL A   1      39.892  33.167  35.176  1.00  0.00     0.173 A 
ATOM     66  C   UNL A   1      38.609  31.351  36.089  1.00  0.00     0.173 A 
ATOM     67  F   UNL A   1      40.774  33.656  34.292  1.00  0.00    -0.203 F 
ATOM     68  C   UNL A   1      39.391  34.014  36.163  1.00  0.00     0.198 A 
ATOM     69  C   UNL A   1      38.089  32.206  37.057  1.00  0.00     0.198 A 
ATOM     70  F   UNL A   1      38.221  30.067  36.087  1.00  0.00    -0.203 F 
ATOM     71  F   UNL A   1      39.798  35.289  36.219  1.00  0.00    -0.200 F 
ATOM     72  C   UNL A   1      38.487  33.534  37.098  1.00  0.00     0.200 A 
ATOM     73  F   UNL A   1      37.209  31.743  37.954  1.00  0.00    -0.200 F 
ATOM     74  F   UNL A   1      38.004  34.349  38.046  1.00  0.00    -0.200 F 
ENDBRANCH  50  64
BRANCH  51  75
ATOM     75  C   UNL A   1      42.786  25.841  27.810  1.00  0.00     0.064 A 
ATOM     76  C   UNL A   1      43.736  26.298  26.887  1.00  0.00     0.173 A 
ATOM     77  C   UNL A   1      42.313  24.529  27.666  1.00  0.00     0.173 A 
ATOM     78  F   UNL A   1      44.200  27.553  26.969  1.00  0.00    -0.203 F 
ATOM     79  C   UNL A   1      44.179  25.483  25.847  1.00  0.00     0.198 A 
ATOM     80  C   UNL A   1      42.777  23.705  26.642  1.00  0.00     0.198 A 
ATOM     81  F   UNL A   1      41.401  24.045  28.522  1.00  0.00    -0.203 F 
ATOM     82  F   UNL A   1      45.053  25.959  24.950  1.00  0.00    -0.200 F 
ATOM     83  C   UNL A   1      43.703  24.185  25.730  1.00  0.00     0.200 A 
ATOM     84  F   UNL A   1      42.321  22.449  26.537  1.00  0.00    -0.200 F 
ATOM     85  F   UNL A   1      44.131  23.400  24.730  1.00  0.00    -0.200 F 
ENDBRANCH  51  75
BRANCH  63  86
ATOM     86  C   UNL A   1      44.860  27.027  34.356  1.00  0.00     0.064 A 
ATOM     87  C   UNL A   1      46.132  27.612  34.434  1.00  0.00     0.173 A 
ATOM     88  C   UNL A   1      44.619  25.873  35.116  1.00  0.00     0.173 A 
ATOM     89  F   UNL A   1      46.416  28.708  33.716  1.00  0.00    -0.203 F 
ATOM     90  C   UNL A   1      47.133  27.045  35.219  1.00  0.00     0.198 A 
ATOM     91  C   UNL A   1      45.612  25.325  35.923  1.00  0.00     0.198 A 
ATOM     92  F   UNL A   1      43.416  25.280  35.083  1.00  0.00    -0.203 F 
ATOM     93  F   UNL A   1      48.356  27.591  35.239  1.00  0.00    -0.200 F 
ATOM     94  C   UNL A   1      46.870  25.906  35.967  1.00  0.00     0.200 A 
ATOM     95  F   UNL A   1      45.353  24.234  36.657  1.00  0.00    -0.200 F 
ATOM     96  F   UNL A   1      47.834  25.364  36.725  1.00  0.00    -0.200 F 
ENDBRANCH  63  86
ENDBRANCH  37  38
ENDBRANCH  30  32
ENDBRANCH  29  30
ENDBRANCH  28  29
ENDBRANCH  27  28
ENDBRANCH  26  27
ENDBRANCH  25  26
ENDBRANCH   1  25
TORSDOF 21
ENDMDL
