MODEL 1
REMARK VINA RESULT:     -10.8      0.000      0.000
REMARK SMILES C[C@H]1CCC[C@](Cc2cn3ccccc3n2)(C(=O)OCCOCCOCCOCCOC(=O)c2ccc(-c3c4nc(c(-c5c(F)c(F)c(F)c(F)c5F)c5ccc([nH]5)c(-c5c(F)c(F)c(F)c(F)c5F)c5nc(c(-c6c(F)c(F)c(F)c(F)c6F)c6ccc3[nH]6)C=C5)C=C4)cc2)C1
REMARK SMILES IDX 25 1 24 2 23 3 22 4 21 5 20 6 19 7 17 8 18 9 6 10 1 11 2 12
REMARK SMILES IDX 3 13 97 14 4 15 5 16 7 17 8 18 9 19 16 20 10 21 15 22 11 23
REMARK SMILES IDX 14 24 12 25 13 26 26 27 27 28 28 29 29 30 30 31 31 32 32 33
REMARK SMILES IDX 33 34 34 35 35 36 96 37 36 38 95 39 37 40 38 41 39 42 89 43
REMARK SMILES IDX 40 44 94 45 88 46 90 47 41 48 93 49 87 50 86 51 42 53 74 54
REMARK SMILES IDX 54 55 73 56 55 57 58 58 72 59 91 60 56 61 57 62 71 64 92 65
REMARK SMILES IDX 59 66 43 67 44 68 52 69 45 70 46 71 50 72 53 73 47 74 48 75
REMARK SMILES IDX 51 76 49 77 75 78 76 79 84 80 77 81 78 82 82 83 85 84 79 85
REMARK SMILES IDX 80 86 83 87 81 88 60 89 61 90 69 91 62 92 63 93 67 94 70 95
REMARK SMILES IDX 64 96 65 97 68 98 66 99
REMARK H PARENT 90 52 58 63
REMARK Flexibility Score: inf
ROOT
ATOM      1  O   UNL A   1      31.035  29.009  25.282  1.00  0.00    -0.377 OA
ENDROOT
BRANCH   1   2
ATOM      2  C   UNL A   1      30.677  27.921  24.443  1.00  0.00     0.188 C 
BRANCH   2   3
ATOM      3  C   UNL A   1      30.066  28.215  23.066  1.00  0.00     0.188 C 
BRANCH   3   4
ATOM      4  O   UNL A   1      30.713  27.558  22.001  1.00  0.00    -0.376 OA
BRANCH   4   5
ATOM      5  C   UNL A   1      31.929  26.869  22.207  1.00  0.00     0.202 C 
BRANCH   5   6
ATOM      6  C   UNL A   1      32.276  25.500  21.594  1.00  0.00     0.261 C 
BRANCH   6   7
ATOM      7  O   UNL A   1      32.083  24.321  22.380  1.00  0.00    -0.463 OA
BRANCH   7   8
ATOM      8  C   UNL A   1      33.188  23.580  22.607  1.00  0.00     0.312 C 
ATOM      9  O   UNL A   1      34.010  23.329  21.727  1.00  0.00    -0.252 OA
BRANCH   8  10
ATOM     10  C   UNL A   1      33.300  22.998  24.032  1.00  0.00     0.074 C 
ATOM     11  C   UNL A   1      33.840  26.429  25.799  1.00  0.00     0.007 C 
ATOM     12  C   UNL A   1      34.181  25.233  24.917  1.00  0.00    -0.013 C 
ATOM     13  C   UNL A   1      35.490  24.580  25.375  1.00  0.00     0.003 C 
ATOM     14  C   UNL A   1      33.019  24.217  24.939  1.00  0.00     0.022 C 
ATOM     15  C   UNL A   1      35.825  23.332  24.570  1.00  0.00     0.001 C 
ATOM     16  C   UNL A   1      34.640  22.371  24.501  1.00  0.00     0.019 C 
BRANCH  10  17
ATOM     17  C   UNL A   1      32.169  21.921  24.039  1.00  0.00     0.076 C 
BRANCH  17  18
ATOM     18  C   UNL A   1      32.526  20.493  24.279  1.00  0.00     0.061 A 
ATOM     19  C   UNL A   1      32.440  19.745  25.431  1.00  0.00     0.116 A 
ATOM     20  N   UNL A   1      32.888  19.686  23.216  1.00  0.00    -0.234 NA
ATOM     21  N   UNL A   1      32.793  18.471  25.083  1.00  0.00    -0.307 N 
ATOM     22  C   UNL A   1      33.013  18.472  23.713  1.00  0.00     0.136 A 
ATOM     23  C   UNL A   1      32.900  17.344  25.890  1.00  0.00     0.093 A 
ATOM     24  C   UNL A   1      33.305  17.214  23.111  1.00  0.00     0.048 A 
ATOM     25  C   UNL A   1      33.208  16.165  25.324  1.00  0.00     0.018 A 
ATOM     26  C   UNL A   1      33.393  16.110  23.880  1.00  0.00     0.005 A 
ENDBRANCH  17  18
ENDBRANCH  10  17
ENDBRANCH   8  10
ENDBRANCH   7   8
ENDBRANCH   6   7
ENDBRANCH   5   6
ENDBRANCH   4   5
ENDBRANCH   3   4
ENDBRANCH   2   3
ENDBRANCH   1   2
BRANCH   1  27
ATOM     27  C   UNL A   1      32.260  29.702  25.062  1.00  0.00     0.188 C 
BRANCH  27  28
ATOM     28  C   UNL A   1      33.261  29.940  26.214  1.00  0.00     0.188 C 
BRANCH  28  29
ATOM     29  O   UNL A   1      32.890  30.948  27.136  1.00  0.00    -0.376 OA
BRANCH  29  30
ATOM     30  C   UNL A   1      31.731  31.717  26.862  1.00  0.00     0.202 C 
BRANCH  30  31
ATOM     31  C   UNL A   1      31.827  33.247  26.984  1.00  0.00     0.261 C 
BRANCH  31  32
ATOM     32  O   UNL A   1      33.126  33.786  27.283  1.00  0.00    -0.460 OA
BRANCH  32  33
ATOM     33  C   UNL A   1      33.254  34.559  28.380  1.00  0.00     0.338 C 
ATOM     34  O   UNL A   1      32.526  35.470  28.738  1.00  0.00    -0.246 OA
BRANCH  33  35
ATOM     35  C   UNL A   1      34.347  33.996  29.197  1.00  0.00     0.060 A 
ATOM     36  C   UNL A   1      35.668  34.381  28.932  1.00  0.00     0.016 A 
ATOM     37  C   UNL A   1      34.063  33.085  30.215  1.00  0.00     0.016 A 
ATOM     38  C   UNL A   1      36.717  33.822  29.663  1.00  0.00     0.010 A 
ATOM     39  C   UNL A   1      35.115  32.507  30.929  1.00  0.00     0.010 A 
ATOM     40  C   UNL A   1      36.448  32.845  30.630  1.00  0.00    -0.014 A 
BRANCH  40  41
ATOM     41  C   UNL A   1      37.559  32.029  31.176  1.00  0.00     0.031 A 
ATOM     42  C   UNL A   1      38.013  32.303  32.585  1.00  0.00     0.074 A 
ATOM     43  C   UNL A   1      38.133  31.049  30.456  1.00  0.00     0.049 A 
ATOM     44  N   UNL A   1      39.005  31.779  33.259  1.00  0.00    -0.248 NA
ATOM     45  C   UNL A   1      37.244  33.310  33.334  1.00  0.00     0.031 C 
ATOM     46  C   UNL A   1      37.745  30.652  29.106  1.00  0.00     0.029 A 
ATOM     47  N   UNL A   1      39.180  30.215  30.766  1.00  0.00    -0.354 N 
ATOM     48  C   UNL A   1      38.978  32.394  34.504  1.00  0.00     0.074 A 
ATOM     49  C   UNL A   1      37.897  33.354  34.484  1.00  0.00     0.031 C 
ATOM     50  C   UNL A   1      38.555  29.661  28.693  1.00  0.00     0.029 A 
ATOM     51  C   UNL A   1      39.542  29.382  29.736  1.00  0.00     0.049 A 
ATOM     52  H   UNL A   1      39.628  30.214  31.643  1.00  0.00     0.167 HD
ATOM     53  C   UNL A   1      39.778  32.167  35.572  1.00  0.00     0.037 A 
ATOM     54  C   UNL A   1      40.572  28.517  29.641  1.00  0.00     0.037 A 
ATOM     55  C   UNL A   1      40.855  31.213  35.588  1.00  0.00     0.049 A 
ATOM     56  C   UNL A   1      41.508  28.356  30.817  1.00  0.00     0.074 A 
ATOM     57  C   UNL A   1      41.723  30.910  36.620  1.00  0.00     0.029 A 
ATOM     58  N   UNL A   1      41.211  30.410  34.515  1.00  0.00    -0.354 N 
ATOM     59  N   UNL A   1      41.469  28.926  31.996  1.00  0.00    -0.248 NA
ATOM     60  C   UNL A   1      42.632  27.423  30.645  1.00  0.00     0.031 C 
ATOM     61  C   UNL A   1      42.642  29.966  36.154  1.00  0.00     0.029 A 
ATOM     62  C   UNL A   1      42.303  29.629  34.854  1.00  0.00     0.049 A 
ATOM     63  H   UNL A   1      40.756  30.396  33.642  1.00  0.00     0.167 HD
ATOM     64  C   UNL A   1      42.532  28.394  32.717  1.00  0.00     0.074 A 
ATOM     65  C   UNL A   1      43.189  27.443  31.847  1.00  0.00     0.031 C 
ATOM     66  C   UNL A   1      42.931  28.668  33.984  1.00  0.00     0.037 A 
BRANCH  53  67
ATOM     67  C   UNL A   1      39.536  32.981  36.810  1.00  0.00     0.064 A 
ATOM     68  C   UNL A   1      38.584  32.602  37.767  1.00  0.00     0.173 A 
ATOM     69  C   UNL A   1      40.308  34.124  37.069  1.00  0.00     0.173 A 
ATOM     70  F   UNL A   1      37.809  31.527  37.560  1.00  0.00    -0.203 F 
ATOM     71  C   UNL A   1      38.402  33.346  38.930  1.00  0.00     0.198 A 
ATOM     72  C   UNL A   1      40.146  34.847  38.248  1.00  0.00     0.198 A 
ATOM     73  F   UNL A   1      41.234  34.530  36.188  1.00  0.00    -0.203 F 
ATOM     74  F   UNL A   1      37.458  32.987  39.812  1.00  0.00    -0.200 F 
ATOM     75  C   UNL A   1      39.190  34.461  39.175  1.00  0.00     0.200 A 
ATOM     76  F   UNL A   1      40.919  35.915  38.489  1.00  0.00    -0.200 F 
ATOM     77  F   UNL A   1      39.025  35.165  40.303  1.00  0.00    -0.200 F 
ENDBRANCH  53  67
BRANCH  54  78
ATOM     78  C   UNL A   1      40.807  27.755  28.384  1.00  0.00     0.064 A 
ATOM     79  C   UNL A   1      40.247  26.483  28.191  1.00  0.00     0.173 A 
ATOM     80  C   UNL A   1      41.649  28.252  27.378  1.00  0.00     0.173 A 
ATOM     81  F   UNL A   1      39.456  25.949  29.133  1.00  0.00    -0.203 F 
ATOM     82  C   UNL A   1      40.550  25.725  27.060  1.00  0.00     0.198 A 
ATOM     83  C   UNL A   1      41.922  27.509  26.231  1.00  0.00     0.198 A 
ATOM     84  F   UNL A   1      42.214  29.461  27.511  1.00  0.00    -0.203 F 
ATOM     85  F   UNL A   1      40.060  24.484  26.939  1.00  0.00    -0.200 F 
ATOM     86  C   UNL A   1      41.385  26.240  26.080  1.00  0.00     0.200 A 
ATOM     87  F   UNL A   1      42.718  28.016  25.280  1.00  0.00    -0.200 F 
ATOM     88  F   UNL A   1      41.682  25.508  24.998  1.00  0.00    -0.200 F 
ENDBRANCH  54  78
BRANCH  66  89
ATOM     89  C   UNL A   1      44.094  27.889  34.532  1.00  0.00     0.064 A 
ATOM     90  C   UNL A   1      45.410  28.368  34.460  1.00  0.00     0.173 A 
ATOM     91  C   UNL A   1      43.879  26.660  35.177  1.00  0.00     0.173 A 
ATOM     92  F   UNL A   1      45.673  29.531  33.844  1.00  0.00    -0.203 F 
ATOM     93  C   UNL A   1      46.470  27.633  34.985  1.00  0.00     0.198 A 
ATOM     94  C   UNL A   1      44.936  25.946  35.734  1.00  0.00     0.198 A 
ATOM     95  F   UNL A   1      42.638  26.159  35.283  1.00  0.00    -0.203 F 
ATOM     96  F   UNL A   1      47.725  28.085  34.856  1.00  0.00    -0.200 F 
ATOM     97  C   UNL A   1      46.232  26.428  35.629  1.00  0.00     0.200 A 
ATOM     98  F   UNL A   1      44.700  24.792  36.372  1.00  0.00    -0.200 F 
ATOM     99  F   UNL A   1      47.252  25.727  36.142  1.00  0.00    -0.200 F 
ENDBRANCH  66  89
ENDBRANCH  40  41
ENDBRANCH  33  35
ENDBRANCH  32  33
ENDBRANCH  31  32
ENDBRANCH  30  31
ENDBRANCH  29  30
ENDBRANCH  28  29
ENDBRANCH  27  28
ENDBRANCH   1  27
TORSDOF 22
ENDMDL
MODEL 2
REMARK VINA RESULT:     -10.3      1.226      7.143
REMARK SMILES C[C@H]1CCC[C@](Cc2cn3ccccc3n2)(C(=O)OCCOCCOCCOCCOC(=O)c2ccc(-c3c4nc(c(-c5c(F)c(F)c(F)c(F)c5F)c5ccc([nH]5)c(-c5c(F)c(F)c(F)c(F)c5F)c5nc(c(-c6c(F)c(F)c(F)c(F)c6F)c6ccc3[nH]6)C=C5)C=C4)cc2)C1
REMARK SMILES IDX 25 1 24 2 23 3 22 4 21 5 20 6 19 7 17 8 18 9 6 10 1 11 2 12
REMARK SMILES IDX 3 13 97 14 4 15 5 16 7 17 8 18 9 19 16 20 10 21 15 22 11 23
REMARK SMILES IDX 14 24 12 25 13 26 26 27 27 28 28 29 29 30 30 31 31 32 32 33
REMARK SMILES IDX 33 34 34 35 35 36 96 37 36 38 95 39 37 40 38 41 39 42 89 43
REMARK SMILES IDX 40 44 94 45 88 46 90 47 41 48 93 49 87 50 86 51 42 53 74 54
REMARK SMILES IDX 54 55 73 56 55 57 58 58 72 59 91 60 56 61 57 62 71 64 92 65
REMARK SMILES IDX 59 66 43 67 44 68 52 69 45 70 46 71 50 72 53 73 47 74 48 75
REMARK SMILES IDX 51 76 49 77 75 78 76 79 84 80 77 81 78 82 82 83 85 84 79 85
REMARK SMILES IDX 80 86 83 87 81 88 60 89 61 90 69 91 62 92 63 93 67 94 70 95
REMARK SMILES IDX 64 96 65 97 68 98 66 99
REMARK H PARENT 90 52 58 63
REMARK Flexibility Score: inf
ROOT
ATOM      1  O   UNL A   1      30.587  28.514  24.347  1.00  0.00    -0.377 OA
ENDROOT
BRANCH   1   2
ATOM      2  C   UNL A   1      30.835  27.264  23.722  1.00  0.00     0.188 C 
BRANCH   2   3
ATOM      3  C   UNL A   1      30.752  27.169  22.192  1.00  0.00     0.188 C 
BRANCH   3   4
ATOM      4  O   UNL A   1      31.715  26.316  21.620  1.00  0.00    -0.376 OA
BRANCH   4   5
ATOM      5  C   UNL A   1      32.881  25.958  22.332  1.00  0.00     0.202 C 
BRANCH   5   6
ATOM      6  C   UNL A   1      33.391  24.517  22.513  1.00  0.00     0.261 C 
BRANCH   6   7
ATOM      7  O   UNL A   1      32.789  23.690  23.514  1.00  0.00    -0.463 OA
BRANCH   7   8
ATOM      8  C   UNL A   1      33.638  23.136  24.405  1.00  0.00     0.312 C 
ATOM      9  O   UNL A   1      34.760  23.590  24.623  1.00  0.00    -0.252 OA
BRANCH   8  10
ATOM     10  C   UNL A   1      33.129  21.839  25.069  1.00  0.00     0.074 C 
ATOM     11  C   UNL A   1      30.149  23.516  26.937  1.00  0.00     0.007 C 
ATOM     12  C   UNL A   1      31.603  23.187  26.621  1.00  0.00    -0.013 C 
ATOM     13  C   UNL A   1      32.313  22.634  27.863  1.00  0.00     0.003 C 
ATOM     14  C   UNL A   1      31.672  22.182  25.452  1.00  0.00     0.022 C 
ATOM     15  C   UNL A   1      33.747  22.216  27.569  1.00  0.00     0.001 C 
ATOM     16  C   UNL A   1      33.830  21.305  26.347  1.00  0.00     0.019 C 
BRANCH  10  17
ATOM     17  C   UNL A   1      33.259  20.801  23.909  1.00  0.00     0.076 C 
BRANCH  17  18
ATOM     18  C   UNL A   1      33.338  19.349  24.238  1.00  0.00     0.061 A 
ATOM     19  C   UNL A   1      34.433  18.517  24.294  1.00  0.00     0.116 A 
ATOM     20  N   UNL A   1      32.213  18.683  24.688  1.00  0.00    -0.234 NA
ATOM     21  N   UNL A   1      33.970  17.312  24.744  1.00  0.00    -0.307 N 
ATOM     22  C   UNL A   1      32.619  17.473  25.015  1.00  0.00     0.136 A 
ATOM     23  C   UNL A   1      34.670  16.127  24.942  1.00  0.00     0.093 A 
ATOM     24  C   UNL A   1      31.944  16.357  25.590  1.00  0.00     0.048 A 
ATOM     25  C   UNL A   1      34.024  15.067  25.453  1.00  0.00     0.018 A 
ATOM     26  C   UNL A   1      32.617  15.208  25.805  1.00  0.00     0.005 A 
ENDBRANCH  17  18
ENDBRANCH  10  17
ENDBRANCH   8  10
ENDBRANCH   7   8
ENDBRANCH   6   7
ENDBRANCH   5   6
ENDBRANCH   4   5
ENDBRANCH   3   4
ENDBRANCH   2   3
ENDBRANCH   1   2
BRANCH   1  27
ATOM     27  C   UNL A   1      31.679  29.346  24.730  1.00  0.00     0.188 C 
BRANCH  27  28
ATOM     28  C   UNL A   1      32.201  29.361  26.183  1.00  0.00     0.188 C 
BRANCH  28  29
ATOM     29  O   UNL A   1      32.477  30.644  26.711  1.00  0.00    -0.376 OA
BRANCH  29  30
ATOM     30  C   UNL A   1      31.437  31.607  26.720  1.00  0.00     0.202 C 
BRANCH  30  31
ATOM     31  C   UNL A   1      31.810  33.080  26.956  1.00  0.00     0.261 C 
BRANCH  31  32
ATOM     32  O   UNL A   1      33.105  33.329  27.527  1.00  0.00    -0.460 OA
BRANCH  32  33
ATOM     33  C   UNL A   1      33.223  34.335  28.418  1.00  0.00     0.338 C 
ATOM     34  O   UNL A   1      32.452  35.264  28.598  1.00  0.00    -0.246 OA
BRANCH  33  35
ATOM     35  C   UNL A   1      34.374  34.028  29.288  1.00  0.00     0.060 A 
ATOM     36  C   UNL A   1      35.671  34.290  28.827  1.00  0.00     0.016 A 
ATOM     37  C   UNL A   1      34.169  33.475  30.553  1.00  0.00     0.016 A 
ATOM     38  C   UNL A   1      36.772  33.962  29.617  1.00  0.00     0.010 A 
ATOM     39  C   UNL A   1      35.273  33.124  31.334  1.00  0.00     0.010 A 
ATOM     40  C   UNL A   1      36.579  33.331  30.853  1.00  0.00    -0.014 A 
BRANCH  40  41
ATOM     41  C   UNL A   1      37.730  32.700  31.542  1.00  0.00     0.031 A 
ATOM     42  C   UNL A   1      38.411  31.540  30.864  1.00  0.00     0.074 A 
ATOM     43  C   UNL A   1      38.182  33.157  32.722  1.00  0.00     0.049 A 
ATOM     44  N   UNL A   1      39.386  30.779  31.292  1.00  0.00    -0.248 NA
ATOM     45  C   UNL A   1      37.923  31.192  29.520  1.00  0.00     0.031 C 
ATOM     46  C   UNL A   1      37.643  34.303  33.449  1.00  0.00     0.029 A 
ATOM     47  N   UNL A   1      39.198  32.696  33.524  1.00  0.00    -0.354 N 
ATOM     48  C   UNL A   1      39.622  29.864  30.274  1.00  0.00     0.074 A 
ATOM     49  C   UNL A   1      38.668  30.139  29.222  1.00  0.00     0.031 C 
ATOM     50  C   UNL A   1      38.323  34.448  34.600  1.00  0.00     0.029 A 
ATOM     51  C   UNL A   1      39.318  33.381  34.708  1.00  0.00     0.049 A 
ATOM     52  H   UNL A   1      39.786  31.947  33.273  1.00  0.00     0.167 HD
ATOM     53  C   UNL A   1      40.558  28.888  30.219  1.00  0.00     0.037 A 
ATOM     54  C   UNL A   1      40.119  33.149  35.767  1.00  0.00     0.037 A 
ATOM     55  C   UNL A   1      41.503  28.615  31.269  1.00  0.00     0.049 A 
ATOM     56  C   UNL A   1      41.089  31.992  35.716  1.00  0.00     0.074 A 
ATOM     57  C   UNL A   1      42.491  27.649  31.309  1.00  0.00     0.029 A 
ATOM     58  N   UNL A   1      41.572  29.310  32.467  1.00  0.00    -0.354 N 
ATOM     59  N   UNL A   1      41.320  31.141  34.746  1.00  0.00    -0.248 NA
ATOM     60  C   UNL A   1      41.915  31.767  36.913  1.00  0.00     0.031 C 
ATOM     61  C   UNL A   1      43.120  27.719  32.555  1.00  0.00     0.029 A 
ATOM     62  C   UNL A   1      42.571  28.776  33.264  1.00  0.00     0.049 A 
ATOM     63  H   UNL A   1      40.997  30.070  32.715  1.00  0.00     0.167 HD
ATOM     64  C   UNL A   1      42.339  30.310  35.197  1.00  0.00     0.074 A 
ATOM     65  C   UNL A   1      42.695  30.769  36.522  1.00  0.00     0.031 C 
ATOM     66  C   UNL A   1      42.929  29.260  34.572  1.00  0.00     0.037 A 
BRANCH  53  67
ATOM     67  C   UNL A   1      40.596  28.026  28.990  1.00  0.00     0.064 A 
ATOM     68  C   UNL A   1      39.821  26.862  28.882  1.00  0.00     0.173 A 
ATOM     69  C   UNL A   1      41.376  28.401  27.885  1.00  0.00     0.173 A 
ATOM     70  F   UNL A   1      39.072  26.451  29.916  1.00  0.00    -0.203 F 
ATOM     71  C   UNL A   1      39.838  26.097  27.719  1.00  0.00     0.198 A 
ATOM     72  C   UNL A   1      41.364  27.652  26.712  1.00  0.00     0.198 A 
ATOM     73  F   UNL A   1      42.133  29.507  27.935  1.00  0.00    -0.203 F 
ATOM     74  F   UNL A   1      39.120  24.966  27.653  1.00  0.00    -0.200 F 
ATOM     75  C   UNL A   1      40.600  26.497  26.632  1.00  0.00     0.200 A 
ATOM     76  F   UNL A   1      42.089  28.049  25.658  1.00  0.00    -0.200 F 
ATOM     77  F   UNL A   1      40.600  25.768  25.507  1.00  0.00    -0.200 F 
ENDBRANCH  53  67
BRANCH  54  78
ATOM     78  C   UNL A   1      40.028  34.000  36.986  1.00  0.00     0.064 A 
ATOM     79  C   UNL A   1      39.171  33.663  38.044  1.00  0.00     0.173 A 
ATOM     80  C   UNL A   1      40.745  35.201  37.090  1.00  0.00     0.173 A 
ATOM     81  F   UNL A   1      38.442  32.538  37.984  1.00  0.00    -0.203 F 
ATOM     82  C   UNL A   1      39.007  34.512  39.138  1.00  0.00     0.198 A 
ATOM     83  C   UNL A   1      40.608  36.031  38.201  1.00  0.00     0.198 A 
ATOM     84  F   UNL A   1      41.576  35.575  36.106  1.00  0.00    -0.203 F 
ATOM     85  F   UNL A   1      38.125  34.200  40.098  1.00  0.00    -0.200 F 
ATOM     86  C   UNL A   1      39.727  35.693  39.217  1.00  0.00     0.200 A 
ATOM     87  F   UNL A   1      41.316  37.165  38.279  1.00  0.00    -0.200 F 
ATOM     88  F   UNL A   1      39.563  36.512  40.264  1.00  0.00    -0.200 F 
ENDBRANCH  54  78
BRANCH  66  89
ATOM     89  C   UNL A   1      44.060  28.572  35.283  1.00  0.00     0.064 A 
ATOM     90  C   UNL A   1      43.843  27.511  36.174  1.00  0.00     0.173 A 
ATOM     91  C   UNL A   1      45.388  28.957  35.035  1.00  0.00     0.173 A 
ATOM     92  F   UNL A   1      42.593  27.111  36.455  1.00  0.00    -0.203 F 
ATOM     93  C   UNL A   1      44.908  26.881  36.812  1.00  0.00     0.198 A 
ATOM     94  C   UNL A   1      46.453  28.301  35.646  1.00  0.00     0.198 A 
ATOM     95  F   UNL A   1      45.654  29.960  34.184  1.00  0.00    -0.203 F 
ATOM     96  F   UNL A   1      44.672  25.906  37.700  1.00  0.00    -0.200 F 
ATOM     97  C   UNL A   1      46.212  27.270  36.542  1.00  0.00     0.200 A 
ATOM     98  F   UNL A   1      47.711  28.666  35.367  1.00  0.00    -0.200 F 
ATOM     99  F   UNL A   1      47.236  26.657  37.150  1.00  0.00    -0.200 F 
ENDBRANCH  66  89
ENDBRANCH  40  41
ENDBRANCH  33  35
ENDBRANCH  32  33
ENDBRANCH  31  32
ENDBRANCH  30  31
ENDBRANCH  29  30
ENDBRANCH  28  29
ENDBRANCH  27  28
ENDBRANCH   1  27
TORSDOF 22
ENDMDL
MODEL 3
REMARK VINA RESULT:     -10.2      2.067      7.735
REMARK SMILES C[C@H]1CCC[C@](Cc2cn3ccccc3n2)(C(=O)OCCOCCOCCOCCOC(=O)c2ccc(-c3c4nc(c(-c5c(F)c(F)c(F)c(F)c5F)c5ccc([nH]5)c(-c5c(F)c(F)c(F)c(F)c5F)c5nc(c(-c6c(F)c(F)c(F)c(F)c6F)c6ccc3[nH]6)C=C5)C=C4)cc2)C1
REMARK SMILES IDX 25 1 24 2 23 3 22 4 21 5 20 6 19 7 17 8 18 9 6 10 1 11 2 12
REMARK SMILES IDX 3 13 97 14 4 15 5 16 7 17 8 18 9 19 16 20 10 21 15 22 11 23
REMARK SMILES IDX 14 24 12 25 13 26 26 27 27 28 28 29 29 30 30 31 31 32 32 33
REMARK SMILES IDX 33 34 34 35 35 36 96 37 36 38 95 39 37 40 38 41 39 42 89 43
REMARK SMILES IDX 40 44 94 45 88 46 90 47 41 48 93 49 87 50 86 51 42 53 74 54
REMARK SMILES IDX 54 55 73 56 55 57 58 58 72 59 91 60 56 61 57 62 71 64 92 65
REMARK SMILES IDX 59 66 43 67 44 68 52 69 45 70 46 71 50 72 53 73 47 74 48 75
REMARK SMILES IDX 51 76 49 77 75 78 76 79 84 80 77 81 78 82 82 83 85 84 79 85
REMARK SMILES IDX 80 86 83 87 81 88 60 89 61 90 69 91 62 92 63 93 67 94 70 95
REMARK SMILES IDX 64 96 65 97 68 98 66 99
REMARK H PARENT 90 52 58 63
REMARK Flexibility Score: inf
ROOT
ATOM      1  O   UNL A   1      30.504  28.302  24.228  1.00  0.00    -0.377 OA
ENDROOT
BRANCH   1   2
ATOM      2  C   UNL A   1      30.812  26.920  24.327  1.00  0.00     0.188 C 
BRANCH   2   3
ATOM      3  C   UNL A   1      29.753  25.891  23.910  1.00  0.00     0.188 C 
BRANCH   3   4
ATOM      4  O   UNL A   1      30.289  24.709  23.362  1.00  0.00    -0.376 OA
BRANCH   4   5
ATOM      5  C   UNL A   1      31.635  24.654  22.937  1.00  0.00     0.202 C 
BRANCH   5   6
ATOM      6  C   UNL A   1      32.629  23.538  23.312  1.00  0.00     0.261 C 
BRANCH   6   7
ATOM      7  O   UNL A   1      33.750  23.860  24.140  1.00  0.00    -0.463 OA
BRANCH   7   8
ATOM      8  C   UNL A   1      34.891  23.194  23.866  1.00  0.00     0.312 C 
ATOM      9  O   UNL A   1      35.321  23.056  22.722  1.00  0.00    -0.252 OA
BRANCH   8  10
ATOM     10  C   UNL A   1      35.573  22.542  25.088  1.00  0.00     0.074 C 
ATOM     11  C   UNL A   1      34.014  19.011  24.548  1.00  0.00     0.007 C 
ATOM     12  C   UNL A   1      34.046  20.495  24.895  1.00  0.00    -0.013 C 
ATOM     13  C   UNL A   1      33.485  20.733  26.302  1.00  0.00     0.003 C 
ATOM     14  C   UNL A   1      35.490  21.030  24.778  1.00  0.00     0.022 C 
ATOM     15  C   UNL A   1      33.575  22.194  26.719  1.00  0.00     0.001 C 
ATOM     16  C   UNL A   1      34.978  22.757  26.505  1.00  0.00     0.019 C 
BRANCH  10  17
ATOM     17  C   UNL A   1      37.017  23.131  25.014  1.00  0.00     0.076 C 
BRANCH  17  18
ATOM     18  C   UNL A   1      38.145  22.371  25.626  1.00  0.00     0.061 A 
ATOM     19  C   UNL A   1      38.595  21.097  25.361  1.00  0.00     0.116 A 
ATOM     20  N   UNL A   1      39.000  23.002  26.512  1.00  0.00    -0.234 NA
ATOM     21  N   UNL A   1      39.717  20.926  26.124  1.00  0.00    -0.307 N 
ATOM     22  C   UNL A   1      39.952  22.130  26.773  1.00  0.00     0.136 A 
ATOM     23  C   UNL A   1      40.526  19.802  26.245  1.00  0.00     0.093 A 
ATOM     24  C   UNL A   1      41.138  22.211  27.560  1.00  0.00     0.048 A 
ATOM     25  C   UNL A   1      41.626  19.872  27.013  1.00  0.00     0.018 A 
ATOM     26  C   UNL A   1      41.941  21.134  27.670  1.00  0.00     0.005 A 
ENDBRANCH  17  18
ENDBRANCH  10  17
ENDBRANCH   8  10
ENDBRANCH   7   8
ENDBRANCH   6   7
ENDBRANCH   5   6
ENDBRANCH   4   5
ENDBRANCH   3   4
ENDBRANCH   2   3
ENDBRANCH   1   2
BRANCH   1  27
ATOM     27  C   UNL A   1      31.550  29.269  24.273  1.00  0.00     0.188 C 
BRANCH  27  28
ATOM     28  C   UNL A   1      32.614  29.242  25.392  1.00  0.00     0.188 C 
BRANCH  28  29
ATOM     29  O   UNL A   1      32.856  30.485  26.024  1.00  0.00    -0.376 OA
BRANCH  29  30
ATOM     30  C   UNL A   1      31.817  31.058  26.800  1.00  0.00     0.202 C 
BRANCH  30  31
ATOM     31  C   UNL A   1      31.930  32.543  27.184  1.00  0.00     0.261 C 
BRANCH  31  32
ATOM     32  O   UNL A   1      33.246  33.023  27.509  1.00  0.00    -0.460 OA
BRANCH  32  33
ATOM     33  C   UNL A   1      33.347  34.101  28.312  1.00  0.00     0.338 C 
ATOM     34  O   UNL A   1      32.599  35.064  28.364  1.00  0.00    -0.246 OA
BRANCH  33  35
ATOM     35  C   UNL A   1      34.438  33.843  29.271  1.00  0.00     0.060 A 
ATOM     36  C   UNL A   1      35.733  34.286  28.971  1.00  0.00     0.016 A 
ATOM     37  C   UNL A   1      34.180  33.157  30.459  1.00  0.00     0.016 A 
ATOM     38  C   UNL A   1      36.785  34.008  29.844  1.00  0.00     0.010 A 
ATOM     39  C   UNL A   1      35.238  32.857  31.320  1.00  0.00     0.010 A 
ATOM     40  C   UNL A   1      36.551  33.249  30.998  1.00  0.00    -0.014 A 
BRANCH  40  41
ATOM     41  C   UNL A   1      37.697  32.686  31.750  1.00  0.00     0.031 A 
ATOM     42  C   UNL A   1      38.434  31.519  31.149  1.00  0.00     0.074 A 
ATOM     43  C   UNL A   1      38.096  33.210  32.922  1.00  0.00     0.049 A 
ATOM     44  N   UNL A   1      39.417  30.809  31.642  1.00  0.00    -0.248 NA
ATOM     45  C   UNL A   1      38.001  31.095  29.807  1.00  0.00     0.031 C 
ATOM     46  C   UNL A   1      37.499  34.370  33.578  1.00  0.00     0.029 A 
ATOM     47  N   UNL A   1      39.099  32.818  33.776  1.00  0.00    -0.354 N 
ATOM     48  C   UNL A   1      39.713  29.857  30.675  1.00  0.00     0.074 A 
ATOM     49  C   UNL A   1      38.787  30.054  29.582  1.00  0.00     0.031 C 
ATOM     50  C   UNL A   1      38.137  34.588  34.742  1.00  0.00     0.029 A 
ATOM     51  C   UNL A   1      39.159  33.559  34.930  1.00  0.00     0.049 A 
ATOM     52  H   UNL A   1      39.717  32.077  33.578  1.00  0.00     0.167 HD
ATOM     53  C   UNL A   1      40.680  28.910  30.694  1.00  0.00     0.037 A 
ATOM     54  C   UNL A   1      39.932  33.400  36.024  1.00  0.00     0.037 A 
ATOM     55  C   UNL A   1      41.598  28.714  31.785  1.00  0.00     0.049 A 
ATOM     56  C   UNL A   1      40.938  32.274  36.056  1.00  0.00     0.074 A 
ATOM     57  C   UNL A   1      42.613  27.782  31.901  1.00  0.00     0.029 A 
ATOM     58  N   UNL A   1      41.607  29.464  32.951  1.00  0.00    -0.354 N 
ATOM     59  N   UNL A   1      41.225  31.387  35.135  1.00  0.00    -0.248 NA
ATOM     60  C   UNL A   1      41.731  32.129  37.287  1.00  0.00     0.031 C 
ATOM     61  C   UNL A   1      43.199  27.929  33.161  1.00  0.00     0.029 A 
ATOM     62  C   UNL A   1      42.595  28.999  33.803  1.00  0.00     0.049 A 
ATOM     63  H   UNL A   1      41.001  30.216  33.145  1.00  0.00     0.167 HD
ATOM     64  C   UNL A   1      42.254  30.610  35.655  1.00  0.00     0.074 A 
ATOM     65  C   UNL A   1      42.552  31.140  36.968  1.00  0.00     0.031 C 
ATOM     66  C   UNL A   1      42.895  29.553  35.098  1.00  0.00     0.037 A 
BRANCH  53  67
ATOM     67  C   UNL A   1      40.784  27.995  29.509  1.00  0.00     0.064 A 
ATOM     68  C   UNL A   1      41.781  28.159  28.535  1.00  0.00     0.173 A 
ATOM     69  C   UNL A   1      39.910  26.905  29.376  1.00  0.00     0.173 A 
ATOM     70  F   UNL A   1      42.631  29.194  28.607  1.00  0.00    -0.203 F 
ATOM     71  C   UNL A   1      41.888  27.275  27.465  1.00  0.00     0.198 A 
ATOM     72  C   UNL A   1      40.040  26.005  28.322  1.00  0.00     0.198 A 
ATOM     73  F   UNL A   1      38.940  26.700  30.280  1.00  0.00    -0.203 F 
ATOM     74  F   UNL A   1      42.823  27.475  26.525  1.00  0.00    -0.200 F 
ATOM     75  C   UNL A   1      41.026  26.193  27.365  1.00  0.00     0.200 A 
ATOM     76  F   UNL A   1      39.216  24.952  28.236  1.00  0.00    -0.200 F 
ATOM     77  F   UNL A   1      41.142  25.334  26.342  1.00  0.00    -0.200 F 
ENDBRANCH  53  67
BRANCH  54  78
ATOM     78  C   UNL A   1      39.775  34.302  37.198  1.00  0.00     0.064 A 
ATOM     79  C   UNL A   1      40.511  35.492  37.303  1.00  0.00     0.173 A 
ATOM     80  C   UNL A   1      38.938  33.962  38.271  1.00  0.00     0.173 A 
ATOM     81  F   UNL A   1      41.347  35.852  36.318  1.00  0.00    -0.203 F 
ATOM     82  C   UNL A   1      40.443  36.284  38.449  1.00  0.00     0.198 A 
ATOM     83  C   UNL A   1      38.842  34.773  39.400  1.00  0.00     0.198 A 
ATOM     84  F   UNL A   1      38.213  32.833  38.226  1.00  0.00    -0.203 F 
ATOM     85  F   UNL A   1      41.214  37.376  38.552  1.00  0.00    -0.200 F 
ATOM     86  C   UNL A   1      39.607  35.925  39.495  1.00  0.00     0.200 A 
ATOM     87  F   UNL A   1      38.023  34.429  40.402  1.00  0.00    -0.200 F 
ATOM     88  F   UNL A   1      39.548  36.682  40.599  1.00  0.00    -0.200 F 
ENDBRANCH  54  78
BRANCH  66  89
ATOM     89  C   UNL A   1      44.023  28.934  35.875  1.00  0.00     0.064 A 
ATOM     90  C   UNL A   1      45.334  29.425  35.802  1.00  0.00     0.173 A 
ATOM     91  C   UNL A   1      43.775  27.856  36.740  1.00  0.00     0.173 A 
ATOM     92  F   UNL A   1      45.628  30.447  34.982  1.00  0.00    -0.203 F 
ATOM     93  C   UNL A   1      46.361  28.842  36.541  1.00  0.00     0.198 A 
ATOM     94  C   UNL A   1      44.796  27.299  37.506  1.00  0.00     0.198 A 
ATOM     95  F   UNL A   1      42.537  27.352  36.857  1.00  0.00    -0.203 F 
ATOM     96  F   UNL A   1      47.616  29.294  36.412  1.00  0.00    -0.200 F 
ATOM     97  C   UNL A   1      46.090  27.786  37.398  1.00  0.00     0.200 A 
ATOM     98  F   UNL A   1      44.527  26.292  38.347  1.00  0.00    -0.200 F 
ATOM     99  F   UNL A   1      47.077  27.233  38.115  1.00  0.00    -0.200 F 
ENDBRANCH  66  89
ENDBRANCH  40  41
ENDBRANCH  33  35
ENDBRANCH  32  33
ENDBRANCH  31  32
ENDBRANCH  30  31
ENDBRANCH  29  30
ENDBRANCH  28  29
ENDBRANCH  27  28
ENDBRANCH   1  27
TORSDOF 22
ENDMDL
