MODEL 1
REMARK VINA RESULT:     -11.5      0.000      0.000
REMARK SMILES Cc1ccc2occ(/C=N/NC(=O)CCC(=O)Nc3ccc(C(=O)OCCOCCOCCOCCOC(=O)c4ccc(-c5c6nc(c(-c7c(F)c(F)c(F)c(F)c7F)c7ccc([nH]7)c(-c7c(F)c(F)c(F)c(F)c7F)c7nc(c(-c8c(F)c(F)c(F)c(F)c8F)c8ccc5[nH]8)C=C7)C=C6)cc4)cc3)c(=O)c2c1
REMARK SMILES IDX 29 1 28 2 27 3 26 4 25 5 23 6 24 7 22 8 19 9 20 10 104 11
REMARK SMILES IDX 21 12 103 13 18 14 16 15 17 16 15 18 14 19 12 20 11 21 13 23
REMARK SMILES IDX 10 24 9 25 8 26 1 27 2 28 3 29 108 30 4 31 107 32 5 33
REMARK SMILES IDX 105 34 6 35 106 36 7 37 30 38 31 39 32 40 33 41 34 42 35 43
REMARK SMILES IDX 36 44 37 45 38 46 39 47 40 48 41 49 102 50 42 51 101 52
REMARK SMILES IDX 43 53 44 54 45 55 95 56 46 57 100 58 94 59 96 60 47 61 99 62
REMARK SMILES IDX 93 63 92 64 48 66 80 67 60 68 79 69 61 70 64 71 78 72 97 73
REMARK SMILES IDX 62 74 63 75 77 77 98 78 65 79 49 80 50 81 58 82 51 83 52 84
REMARK SMILES IDX 56 85 59 86 53 87 54 88 57 89 55 90 81 91 82 92 90 93 83 94
REMARK SMILES IDX 84 95 88 96 91 97 85 98 86 99 89 100 87 101 66 102 67 103
REMARK SMILES IDX 75 104 68 105 69 106 73 107 76 108 70 109 71 110 74 111
REMARK SMILES IDX 72 112
REMARK H PARENT 18 17 11 22 96 65 64 76
REMARK Flexibility Score: inf
ROOT
ATOM      1  C   UNL A   1      33.264  29.941  26.123  1.00  0.00     0.188 C 
ENDROOT
BRANCH   1   2
ATOM      2  O   UNL A   1      31.885  29.929  25.774  1.00  0.00    -0.376 OA
BRANCH   2   3
ATOM      3  C   UNL A   1      31.473  29.444  24.513  1.00  0.00     0.202 C 
BRANCH   3   4
ATOM      4  C   UNL A   1      31.760  27.957  24.337  1.00  0.00     0.261 C 
BRANCH   4   5
ATOM      5  O   UNL A   1      30.766  27.127  24.931  1.00  0.00    -0.460 OA
BRANCH   5   6
ATOM      6  C   UNL A   1      30.987  26.633  26.171  1.00  0.00     0.338 C 
ATOM      7  O   UNL A   1      30.931  27.220  27.235  1.00  0.00    -0.246 OA
BRANCH   6   8
ATOM      8  C   UNL A   1      31.160  25.182  25.999  1.00  0.00     0.060 A 
ATOM      9  C   UNL A   1      31.425  22.429  25.566  1.00  0.00     0.041 A 
ATOM     10  C   UNL A   1      31.729  22.979  26.819  1.00  0.00     0.027 A 
ATOM     11  C   UNL A   1      30.936  23.271  24.580  1.00  0.00     0.027 A 
ATOM     12  C   UNL A   1      31.616  24.362  27.035  1.00  0.00     0.018 A 
ATOM     13  C   UNL A   1      30.794  24.627  24.782  1.00  0.00     0.018 A 
BRANCH   9  14
ATOM     14  N   UNL A   1      31.648  21.060  25.368  1.00  0.00    -0.326 N 
ATOM     15  C   UNL A   1      32.677  20.362  24.807  1.00  0.00     0.224 C 
ATOM     16  O   UNL A   1      32.609  19.127  24.856  1.00  0.00    -0.275 OA
ATOM     17  H   UNL A   1      30.918  20.490  25.698  1.00  0.00     0.169 HD
BRANCH  15  18
ATOM     18  C   UNL A   1      33.925  21.014  24.242  1.00  0.00     0.110 C 
BRANCH  18  19
ATOM     19  C   UNL A   1      35.256  20.915  24.998  1.00  0.00     0.112 C 
BRANCH  19  20
ATOM     20  C   UNL A   1      35.728  22.019  25.949  1.00  0.00     0.240 C 
ATOM     21  N   UNL A   1      37.060  22.208  26.233  1.00  0.00    -0.247 N 
ATOM     22  H   UNL A   1      37.280  22.926  26.868  1.00  0.00     0.193 HD
ATOM     23  O   UNL A   1      34.898  22.764  26.482  1.00  0.00    -0.273 OA
BRANCH  21  24
ATOM     24  N   UNL A   1      38.102  21.500  25.721  1.00  0.00    -0.180 NA
ATOM     25  C   UNL A   1      39.251  21.823  26.218  1.00  0.00     0.148 C 
BRANCH  25  26
ATOM     26  C   UNL A   1      40.467  21.013  26.106  1.00  0.00     0.078 A 
ATOM     27  C   UNL A   1      46.506  21.286  24.617  1.00  0.00     0.044 C 
ATOM     28  C   UNL A   1      45.214  20.640  25.015  1.00  0.00    -0.050 A 
ATOM     29  C   UNL A   1      45.046  19.248  24.991  1.00  0.00     0.007 A 
ATOM     30  C   UNL A   1      44.145  21.445  25.411  1.00  0.00     0.019 A 
ATOM     31  C   UNL A   1      43.825  18.665  25.354  1.00  0.00     0.048 A 
ATOM     32  C   UNL A   1      42.919  20.859  25.725  1.00  0.00     0.066 A 
ATOM     33  C   UNL A   1      42.753  19.477  25.712  1.00  0.00     0.137 A 
ATOM     34  C   UNL A   1      41.757  21.709  25.976  1.00  0.00     0.201 A 
ATOM     35  O   UNL A   1      41.557  18.865  26.011  1.00  0.00    -0.463 OA
ATOM     36  O   UNL A   1      41.844  22.931  26.029  1.00  0.00    -0.288 OA
ATOM     37  C   UNL A   1      40.452  19.678  26.149  1.00  0.00     0.209 A 
ENDBRANCH  25  26
ENDBRANCH  21  24
ENDBRANCH  19  20
ENDBRANCH  18  19
ENDBRANCH  15  18
ENDBRANCH   9  14
ENDBRANCH   6   8
ENDBRANCH   5   6
ENDBRANCH   4   5
ENDBRANCH   3   4
ENDBRANCH   2   3
ENDBRANCH   1   2
BRANCH   1  38
ATOM     38  C   UNL A   1      33.573  30.822  27.360  1.00  0.00     0.188 C 
BRANCH  38  39
ATOM     39  O   UNL A   1      34.615  31.803  27.334  1.00  0.00    -0.377 OA
BRANCH  39  40
ATOM     40  C   UNL A   1      35.071  32.301  28.588  1.00  0.00     0.188 C 
BRANCH  40  41
ATOM     41  C   UNL A   1      34.301  33.562  29.040  1.00  0.00     0.188 C 
BRANCH  41  42
ATOM     42  O   UNL A   1      34.688  34.725  28.324  1.00  0.00    -0.376 OA
BRANCH  42  43
ATOM     43  C   UNL A   1      34.151  35.978  28.711  1.00  0.00     0.202 C 
BRANCH  43  44
ATOM     44  C   UNL A   1      32.920  36.056  29.629  1.00  0.00     0.261 C 
BRANCH  44  45
ATOM     45  O   UNL A   1      33.131  36.492  30.979  1.00  0.00    -0.460 OA
BRANCH  45  46
ATOM     46  C   UNL A   1      32.667  35.721  31.983  1.00  0.00     0.338 C 
ATOM     47  O   UNL A   1      31.508  35.502  32.279  1.00  0.00    -0.246 OA
BRANCH  46  48
ATOM     48  C   UNL A   1      33.839  35.018  32.547  1.00  0.00     0.060 A 
ATOM     49  C   UNL A   1      35.093  35.646  32.534  1.00  0.00     0.016 A 
ATOM     50  C   UNL A   1      33.684  33.758  33.128  1.00  0.00     0.016 A 
ATOM     51  C   UNL A   1      36.203  35.002  33.082  1.00  0.00     0.010 A 
ATOM     52  C   UNL A   1      34.799  33.101  33.648  1.00  0.00     0.010 A 
ATOM     53  C   UNL A   1      36.067  33.707  33.598  1.00  0.00    -0.014 A 
BRANCH  53  54
ATOM     54  C   UNL A   1      37.270  32.888  33.871  1.00  0.00     0.031 A 
ATOM     55  C   UNL A   1      38.021  33.156  35.145  1.00  0.00     0.074 A 
ATOM     56  C   UNL A   1      37.692  31.943  33.015  1.00  0.00     0.049 A 
ATOM     57  N   UNL A   1      39.156  32.660  35.565  1.00  0.00    -0.248 NA
ATOM     58  C   UNL A   1      37.407  34.124  36.069  1.00  0.00     0.031 C 
ATOM     59  C   UNL A   1      37.022  31.561  31.775  1.00  0.00     0.029 A 
ATOM     60  N   UNL A   1      38.809  31.144  33.057  1.00  0.00    -0.354 N 
ATOM     61  C   UNL A   1      39.394  33.263  36.793  1.00  0.00     0.074 A 
ATOM     62  C   UNL A   1      38.304  34.180  37.039  1.00  0.00     0.031 C 
ATOM     63  C   UNL A   1      37.752  30.613  31.162  1.00  0.00     0.029 A 
ATOM     64  C   UNL A   1      38.959  30.353  31.945  1.00  0.00     0.049 A 
ATOM     65  H   UNL A   1      39.440  31.138  33.813  1.00  0.00     0.167 HD
ATOM     66  C   UNL A   1      40.430  33.065  37.641  1.00  0.00     0.037 A 
ATOM     67  C   UNL A   1      39.975  29.540  31.594  1.00  0.00     0.037 A 
ATOM     68  C   UNL A   1      41.514  32.156  37.386  1.00  0.00     0.049 A 
ATOM     69  C   UNL A   1      41.163  29.402  32.515  1.00  0.00     0.074 A 
ATOM     70  C   UNL A   1      42.608  31.874  38.184  1.00  0.00     0.029 A 
ATOM     71  N   UNL A   1      41.644  31.389  36.237  1.00  0.00    -0.354 N 
ATOM     72  N   UNL A   1      41.377  29.958  33.684  1.00  0.00    -0.248 NA
ATOM     73  C   UNL A   1      42.253  28.522  32.066  1.00  0.00     0.031 C 
ATOM     74  C   UNL A   1      43.430  30.979  37.493  1.00  0.00     0.029 A 
ATOM     75  C   UNL A   1      42.816  30.652  36.294  1.00  0.00     0.049 A 
ATOM     76  H   UNL A   1      41.000  31.371  35.493  1.00  0.00     0.167 HD
ATOM     77  C   UNL A   1      42.601  29.468  34.124  1.00  0.00     0.074 A 
ATOM     78  C   UNL A   1      43.080  28.564  33.101  1.00  0.00     0.031 C 
ATOM     79  C   UNL A   1      43.267  29.741  35.273  1.00  0.00     0.037 A 
BRANCH  66  80
ATOM     80  C   UNL A   1      40.454  33.871  38.905  1.00  0.00     0.064 A 
ATOM     81  C   UNL A   1      39.902  33.387  40.101  1.00  0.00     0.173 A 
ATOM     82  C   UNL A   1      41.062  35.135  38.928  1.00  0.00     0.173 A 
ATOM     83  F   UNL A   1      39.291  32.192  40.128  1.00  0.00    -0.203 F 
ATOM     84  C   UNL A   1      39.937  34.148  41.267  1.00  0.00     0.198 A 
ATOM     85  C   UNL A   1      41.124  35.880  40.102  1.00  0.00     0.198 A 
ATOM     86  F   UNL A   1      41.604  35.645  37.812  1.00  0.00    -0.203 F 
ATOM     87  F   UNL A   1      39.361  33.686  42.385  1.00  0.00    -0.200 F 
ATOM     88  C   UNL A   1      40.556  35.390  41.268  1.00  0.00     0.200 A 
ATOM     89  F   UNL A   1      41.733  37.074  40.105  1.00  0.00    -0.200 F 
ATOM     90  F   UNL A   1      40.598  36.117  42.393  1.00  0.00    -0.200 F 
ENDBRANCH  66  80
BRANCH  67  91
ATOM     91  C   UNL A   1      39.933  28.807  30.299  1.00  0.00     0.064 A 
ATOM     92  C   UNL A   1      39.427  27.502  30.224  1.00  0.00     0.173 A 
ATOM     93  C   UNL A   1      40.431  29.381  29.120  1.00  0.00     0.173 A 
ATOM     94  F   UNL A   1      38.967  26.897  31.330  1.00  0.00    -0.203 F 
ATOM     95  C   UNL A   1      39.442  26.791  29.026  1.00  0.00     0.198 A 
ATOM     96  C   UNL A   1      40.416  28.680  27.916  1.00  0.00     0.198 A 
ATOM     97  F   UNL A   1      40.933  30.624  29.137  1.00  0.00    -0.203 F 
ATOM     98  F   UNL A   1      39.005  25.525  28.995  1.00  0.00    -0.200 F 
ATOM     99  C   UNL A   1      39.931  27.383  27.871  1.00  0.00     0.200 A 
ATOM    100  F   UNL A   1      40.882  29.260  26.800  1.00  0.00    -0.200 F 
ATOM    101  F   UNL A   1      39.947  26.698  26.719  1.00  0.00    -0.200 F 
ENDBRANCH  67  91
BRANCH  79 102
ATOM    102  C   UNL A   1      44.558  29.014  35.520  1.00  0.00     0.064 A 
ATOM    103  C   UNL A   1      45.796  29.547  35.130  1.00  0.00     0.173 A 
ATOM    104  C   UNL A   1      44.559  27.795  36.217  1.00  0.00     0.173 A 
ATOM    105  F   UNL A   1      45.849  30.703  34.451  1.00  0.00    -0.203 F 
ATOM    106  C   UNL A   1      46.984  28.875  35.408  1.00  0.00     0.198 A 
ATOM    107  C   UNL A   1      45.751  27.144  36.523  1.00  0.00     0.198 A 
ATOM    108  F   UNL A   1      43.404  27.246  36.621  1.00  0.00    -0.203 F 
ATOM    109  F   UNL A   1      48.151  29.382  34.987  1.00  0.00    -0.200 F 
ATOM    110  C   UNL A   1      46.961  27.681  36.112  1.00  0.00     0.200 A 
ATOM    111  F   UNL A   1      45.728  25.998  37.219  1.00  0.00    -0.200 F 
ATOM    112  F   UNL A   1      48.107  27.044  36.391  1.00  0.00    -0.200 F 
ENDBRANCH  79 102
ENDBRANCH  53  54
ENDBRANCH  46  48
ENDBRANCH  45  46
ENDBRANCH  44  45
ENDBRANCH  43  44
ENDBRANCH  42  43
ENDBRANCH  41  42
ENDBRANCH  40  41
ENDBRANCH  39  40
ENDBRANCH  38  39
ENDBRANCH   1  38
TORSDOF 26
ENDMDL
MODEL 2
REMARK VINA RESULT:     -11.3      0.554      6.679
REMARK SMILES Cc1ccc2occ(/C=N/NC(=O)CCC(=O)Nc3ccc(C(=O)OCCOCCOCCOCCOC(=O)c4ccc(-c5c6nc(c(-c7c(F)c(F)c(F)c(F)c7F)c7ccc([nH]7)c(-c7c(F)c(F)c(F)c(F)c7F)c7nc(c(-c8c(F)c(F)c(F)c(F)c8F)c8ccc5[nH]8)C=C7)C=C6)cc4)cc3)c(=O)c2c1
REMARK SMILES IDX 29 1 28 2 27 3 26 4 25 5 23 6 24 7 22 8 19 9 20 10 104 11
REMARK SMILES IDX 21 12 103 13 18 14 16 15 17 16 15 18 14 19 12 20 11 21 13 23
REMARK SMILES IDX 10 24 9 25 8 26 1 27 2 28 3 29 108 30 4 31 107 32 5 33
REMARK SMILES IDX 105 34 6 35 106 36 7 37 30 38 31 39 32 40 33 41 34 42 35 43
REMARK SMILES IDX 36 44 37 45 38 46 39 47 40 48 41 49 102 50 42 51 101 52
REMARK SMILES IDX 43 53 44 54 45 55 95 56 46 57 100 58 94 59 96 60 47 61 99 62
REMARK SMILES IDX 93 63 92 64 48 66 80 67 60 68 79 69 61 70 64 71 78 72 97 73
REMARK SMILES IDX 62 74 63 75 77 77 98 78 65 79 49 80 50 81 58 82 51 83 52 84
REMARK SMILES IDX 56 85 59 86 53 87 54 88 57 89 55 90 81 91 82 92 90 93 83 94
REMARK SMILES IDX 84 95 88 96 91 97 85 98 86 99 89 100 87 101 66 102 67 103
REMARK SMILES IDX 75 104 68 105 69 106 73 107 76 108 70 109 71 110 74 111
REMARK SMILES IDX 72 112
REMARK H PARENT 18 17 11 22 96 65 64 76
REMARK Flexibility Score: inf
ROOT
ATOM      1  C   UNL A   1      33.186  29.974  26.115  1.00  0.00     0.188 C 
ENDROOT
BRANCH   1   2
ATOM      2  O   UNL A   1      31.843  30.132  25.673  1.00  0.00    -0.376 OA
BRANCH   2   3
ATOM      3  C   UNL A   1      31.419  29.545  24.459  1.00  0.00     0.202 C 
BRANCH   3   4
ATOM      4  C   UNL A   1      31.826  28.081  24.345  1.00  0.00     0.261 C 
BRANCH   4   5
ATOM      5  O   UNL A   1      30.851  27.190  24.881  1.00  0.00    -0.460 OA
BRANCH   5   6
ATOM      6  C   UNL A   1      31.022  26.720  26.137  1.00  0.00     0.338 C 
ATOM      7  O   UNL A   1      30.946  27.332  27.186  1.00  0.00    -0.246 OA
BRANCH   6   8
ATOM      8  C   UNL A   1      31.165  25.262  26.003  1.00  0.00     0.060 A 
ATOM      9  C   UNL A   1      31.374  22.494  25.642  1.00  0.00     0.041 A 
ATOM     10  C   UNL A   1      31.690  23.070  26.880  1.00  0.00     0.027 A 
ATOM     11  C   UNL A   1      30.901  23.320  24.634  1.00  0.00     0.027 A 
ATOM     12  C   UNL A   1      31.605  24.459  27.059  1.00  0.00     0.018 A 
ATOM     13  C   UNL A   1      30.786  24.683  24.802  1.00  0.00     0.018 A 
BRANCH   9  14
ATOM     14  N   UNL A   1      31.569  21.116  25.479  1.00  0.00    -0.326 N 
ATOM     15  C   UNL A   1      32.576  20.383  24.923  1.00  0.00     0.224 C 
ATOM     16  O   UNL A   1      32.486  19.152  25.007  1.00  0.00    -0.275 OA
ATOM     17  H   UNL A   1      30.833  20.569  25.836  1.00  0.00     0.169 HD
BRANCH  15  18
ATOM     18  C   UNL A   1      33.826  20.996  24.321  1.00  0.00     0.110 C 
BRANCH  18  19
ATOM     19  C   UNL A   1      35.165  20.902  25.064  1.00  0.00     0.112 C 
BRANCH  19  20
ATOM     20  C   UNL A   1      35.689  22.050  25.933  1.00  0.00     0.240 C 
ATOM     21  N   UNL A   1      37.028  22.195  26.208  1.00  0.00    -0.247 N 
ATOM     22  H   UNL A   1      37.282  22.948  26.790  1.00  0.00     0.193 HD
ATOM     23  O   UNL A   1      34.895  22.872  26.405  1.00  0.00    -0.273 OA
BRANCH  21  24
ATOM     24  N   UNL A   1      38.035  21.402  25.756  1.00  0.00    -0.180 NA
ATOM     25  C   UNL A   1      39.216  21.820  26.075  1.00  0.00     0.148 C 
BRANCH  25  26
ATOM     26  C   UNL A   1      40.433  21.005  26.018  1.00  0.00     0.078 A 
ATOM     27  C   UNL A   1      46.499  21.219  24.630  1.00  0.00     0.044 C 
ATOM     28  C   UNL A   1      45.199  20.589  25.030  1.00  0.00    -0.050 A 
ATOM     29  C   UNL A   1      45.031  19.198  25.059  1.00  0.00     0.007 A 
ATOM     30  C   UNL A   1      44.124  21.410  25.374  1.00  0.00     0.019 A 
ATOM     31  C   UNL A   1      43.803  18.630  25.422  1.00  0.00     0.048 A 
ATOM     32  C   UNL A   1      42.892  20.837  25.688  1.00  0.00     0.066 A 
ATOM     33  C   UNL A   1      42.725  19.455  25.728  1.00  0.00     0.137 A 
ATOM     34  C   UNL A   1      41.726  21.696  25.884  1.00  0.00     0.201 A 
ATOM     35  O   UNL A   1      41.524  18.856  26.029  1.00  0.00    -0.463 OA
ATOM     36  O   UNL A   1      41.813  22.919  25.891  1.00  0.00    -0.288 OA
ATOM     37  C   UNL A   1      40.416  19.673  26.114  1.00  0.00     0.209 A 
ENDBRANCH  25  26
ENDBRANCH  21  24
ENDBRANCH  19  20
ENDBRANCH  18  19
ENDBRANCH  15  18
ENDBRANCH   9  14
ENDBRANCH   6   8
ENDBRANCH   5   6
ENDBRANCH   4   5
ENDBRANCH   3   4
ENDBRANCH   2   3
ENDBRANCH   1   2
BRANCH   1  38
ATOM     38  C   UNL A   1      33.535  30.865  27.334  1.00  0.00     0.188 C 
BRANCH  38  39
ATOM     39  O   UNL A   1      34.580  31.841  27.267  1.00  0.00    -0.377 OA
BRANCH  39  40
ATOM     40  C   UNL A   1      35.068  32.358  28.501  1.00  0.00     0.188 C 
BRANCH  40  41
ATOM     41  C   UNL A   1      34.195  33.509  29.049  1.00  0.00     0.188 C 
BRANCH  41  42
ATOM     42  O   UNL A   1      34.354  34.713  28.312  1.00  0.00    -0.376 OA
BRANCH  42  43
ATOM     43  C   UNL A   1      33.732  35.893  28.789  1.00  0.00     0.202 C 
BRANCH  43  44
ATOM     44  C   UNL A   1      32.656  35.828  29.886  1.00  0.00     0.261 C 
BRANCH  44  45
ATOM     45  O   UNL A   1      33.024  36.272  31.199  1.00  0.00    -0.460 OA
BRANCH  45  46
ATOM     46  C   UNL A   1      32.860  35.424  32.234  1.00  0.00     0.338 C 
ATOM     47  O   UNL A   1      31.828  35.146  32.813  1.00  0.00    -0.246 OA
BRANCH  46  48
ATOM     48  C   UNL A   1      34.153  34.728  32.414  1.00  0.00     0.060 A 
ATOM     49  C   UNL A   1      34.165  33.409  32.893  1.00  0.00     0.016 A 
ATOM     50  C   UNL A   1      35.344  35.366  32.065  1.00  0.00     0.016 A 
ATOM     51  C   UNL A   1      35.377  32.734  33.047  1.00  0.00     0.010 A 
ATOM     52  C   UNL A   1      36.557  34.703  32.249  1.00  0.00     0.010 A 
ATOM     53  C   UNL A   1      36.579  33.397  32.770  1.00  0.00    -0.014 A 
BRANCH  53  54
ATOM     54  C   UNL A   1      37.863  32.828  33.238  1.00  0.00     0.031 A 
ATOM     55  C   UNL A   1      38.525  31.793  32.371  1.00  0.00     0.074 A 
ATOM     56  C   UNL A   1      38.425  33.206  34.398  1.00  0.00     0.049 A 
ATOM     57  N   UNL A   1      39.587  31.066  32.601  1.00  0.00    -0.248 NA
ATOM     58  C   UNL A   1      37.891  31.540  31.066  1.00  0.00     0.031 C 
ATOM     59  C   UNL A   1      37.903  34.232  35.297  1.00  0.00     0.029 A 
ATOM     60  N   UNL A   1      39.556  32.748  35.026  1.00  0.00    -0.354 N 
ATOM     61  C   UNL A   1      39.741  30.266  31.477  1.00  0.00     0.074 A 
ATOM     62  C   UNL A   1      38.652  30.574  30.578  1.00  0.00     0.031 C 
ATOM     63  C   UNL A   1      38.705  34.312  36.375  1.00  0.00     0.029 A 
ATOM     64  C   UNL A   1      39.768  33.315  36.259  1.00  0.00     0.049 A 
ATOM     65  H   UNL A   1      40.159  32.077  34.630  1.00  0.00     0.167 HD
ATOM     66  C   UNL A   1      40.710  29.357  31.218  1.00  0.00     0.037 A 
ATOM     67  C   UNL A   1      40.698  33.032  37.192  1.00  0.00     0.037 A 
ATOM     68  C   UNL A   1      41.787  29.051  32.119  1.00  0.00     0.049 A 
ATOM     69  C   UNL A   1      41.716  31.952  36.917  1.00  0.00     0.074 A 
ATOM     70  C   UNL A   1      42.825  28.154  31.949  1.00  0.00     0.029 A 
ATOM     71  N   UNL A   1      41.955  29.630  33.369  1.00  0.00    -0.354 N 
ATOM     72  N   UNL A   1      41.872  31.211  35.846  1.00  0.00    -0.248 NA
ATOM     73  C   UNL A   1      42.688  31.669  37.983  1.00  0.00     0.031 C 
ATOM     74  C   UNL A   1      43.590  28.148  33.119  1.00  0.00     0.029 A 
ATOM     75  C   UNL A   1      43.067  29.090  33.993  1.00  0.00     0.049 A 
ATOM     76  H   UNL A   1      41.371  30.323  33.755  1.00  0.00     0.167 HD
ATOM     77  C   UNL A   1      42.977  30.404  36.094  1.00  0.00     0.074 A 
ATOM     78  C   UNL A   1      43.457  30.753  37.414  1.00  0.00     0.031 C 
ATOM     79  C   UNL A   1      43.543  29.463  35.300  1.00  0.00     0.037 A 
BRANCH  66  80
ATOM     80  C   UNL A   1      40.627  28.608  29.921  1.00  0.00     0.064 A 
ATOM     81  C   UNL A   1      39.870  27.434  29.793  1.00  0.00     0.173 A 
ATOM     82  C   UNL A   1      41.294  29.086  28.784  1.00  0.00     0.173 A 
ATOM     83  F   UNL A   1      39.229  26.923  30.856  1.00  0.00    -0.203 F 
ATOM     84  C   UNL A   1      39.803  26.753  28.580  1.00  0.00     0.198 A 
ATOM     85  C   UNL A   1      41.199  28.422  27.564  1.00  0.00     0.198 A 
ATOM     86  F   UNL A   1      42.032  30.204  28.852  1.00  0.00    -0.203 F 
ATOM     87  F   UNL A   1      39.113  25.607  28.493  1.00  0.00    -0.200 F 
ATOM     88  C   UNL A   1      40.460  27.253  27.465  1.00  0.00     0.200 A 
ATOM     89  F   UNL A   1      41.824  28.912  26.485  1.00  0.00    -0.200 F 
ATOM     90  F   UNL A   1      40.386  26.603  26.295  1.00  0.00    -0.200 F 
ENDBRANCH  66  80
BRANCH  67  91
ATOM     91  C   UNL A   1      40.702  33.763  38.489  1.00  0.00     0.064 A 
ATOM     92  C   UNL A   1      39.842  33.389  39.531  1.00  0.00     0.173 A 
ATOM     93  C   UNL A   1      41.537  34.869  38.699  1.00  0.00     0.173 A 
ATOM     94  F   UNL A   1      39.002  32.356  39.369  1.00  0.00    -0.203 F 
ATOM     95  C   UNL A   1      39.801  34.107  40.725  1.00  0.00     0.198 A 
ATOM     96  C   UNL A   1      41.518  35.568  39.905  1.00  0.00     0.198 A 
ATOM     97  F   UNL A   1      42.374  35.273  37.733  1.00  0.00    -0.203 F 
ATOM     98  F   UNL A   1      38.929  33.764  41.682  1.00  0.00    -0.200 F 
ATOM     99  C   UNL A   1      40.644  35.193  40.913  1.00  0.00     0.200 A 
ATOM    100  F   UNL A   1      42.341  36.611  40.086  1.00  0.00    -0.200 F 
ATOM    101  F   UNL A   1      40.603  35.885  42.060  1.00  0.00    -0.200 F 
ENDBRANCH  67  91
BRANCH  79 102
ATOM    102  C   UNL A   1      44.781  28.778  35.804  1.00  0.00     0.064 A 
ATOM    103  C   UNL A   1      44.722  27.583  36.536  1.00  0.00     0.173 A 
ATOM    104  C   UNL A   1      46.049  29.295  35.494  1.00  0.00     0.173 A 
ATOM    105  F   UNL A   1      43.535  27.054  36.869  1.00  0.00    -0.203 F 
ATOM    106  C   UNL A   1      45.886  26.943  36.956  1.00  0.00     0.198 A 
ATOM    107  C   UNL A   1      47.210  28.634  35.886  1.00  0.00     0.198 A 
ATOM    108  F   UNL A   1      46.163  30.430  34.789  1.00  0.00    -0.203 F 
ATOM    109  F   UNL A   1      45.803  25.825  37.691  1.00  0.00    -0.200 F 
ATOM    110  C   UNL A   1      47.127  27.463  36.623  1.00  0.00     0.200 A 
ATOM    111  F   UNL A   1      48.409  29.130  35.548  1.00  0.00    -0.200 F 
ATOM    112  F   UNL A   1      48.245  26.837  37.016  1.00  0.00    -0.200 F 
ENDBRANCH  79 102
ENDBRANCH  53  54
ENDBRANCH  46  48
ENDBRANCH  45  46
ENDBRANCH  44  45
ENDBRANCH  43  44
ENDBRANCH  42  43
ENDBRANCH  41  42
ENDBRANCH  40  41
ENDBRANCH  39  40
ENDBRANCH  38  39
ENDBRANCH   1  38
TORSDOF 26
ENDMDL
MODEL 3
REMARK VINA RESULT:     -10.8      3.294     10.286
REMARK SMILES Cc1ccc2occ(/C=N/NC(=O)CCC(=O)Nc3ccc(C(=O)OCCOCCOCCOCCOC(=O)c4ccc(-c5c6nc(c(-c7c(F)c(F)c(F)c(F)c7F)c7ccc([nH]7)c(-c7c(F)c(F)c(F)c(F)c7F)c7nc(c(-c8c(F)c(F)c(F)c(F)c8F)c8ccc5[nH]8)C=C7)C=C6)cc4)cc3)c(=O)c2c1
REMARK SMILES IDX 29 1 28 2 27 3 26 4 25 5 23 6 24 7 22 8 19 9 20 10 104 11
REMARK SMILES IDX 21 12 103 13 18 14 16 15 17 16 15 18 14 19 12 20 11 21 13 23
REMARK SMILES IDX 10 24 9 25 8 26 1 27 2 28 3 29 108 30 4 31 107 32 5 33
REMARK SMILES IDX 105 34 6 35 106 36 7 37 30 38 31 39 32 40 33 41 34 42 35 43
REMARK SMILES IDX 36 44 37 45 38 46 39 47 40 48 41 49 102 50 42 51 101 52
REMARK SMILES IDX 43 53 44 54 45 55 95 56 46 57 100 58 94 59 96 60 47 61 99 62
REMARK SMILES IDX 93 63 92 64 48 66 80 67 60 68 79 69 61 70 64 71 78 72 97 73
REMARK SMILES IDX 62 74 63 75 77 77 98 78 65 79 49 80 50 81 58 82 51 83 52 84
REMARK SMILES IDX 56 85 59 86 53 87 54 88 57 89 55 90 81 91 82 92 90 93 83 94
REMARK SMILES IDX 84 95 88 96 91 97 85 98 86 99 89 100 87 101 66 102 67 103
REMARK SMILES IDX 75 104 68 105 69 106 73 107 76 108 70 109 71 110 74 111
REMARK SMILES IDX 72 112
REMARK H PARENT 18 17 11 22 96 65 64 76
REMARK Flexibility Score: inf
ROOT
ATOM      1  C   UNL A   1      40.357  21.126  26.404  1.00  0.00     0.188 C 
ENDROOT
BRANCH   1   2
ATOM      2  O   UNL A   1      39.599  22.185  26.977  1.00  0.00    -0.376 OA
BRANCH   2   3
ATOM      3  C   UNL A   1      39.295  23.337  26.217  1.00  0.00     0.202 C 
BRANCH   3   4
ATOM      4  C   UNL A   1      37.884  23.850  26.475  1.00  0.00     0.261 C 
BRANCH   4   5
ATOM      5  O   UNL A   1      37.084  23.893  25.295  1.00  0.00    -0.460 OA
BRANCH   5   6
ATOM      6  C   UNL A   1      35.768  24.178  25.412  1.00  0.00     0.338 C 
ATOM      7  O   UNL A   1      35.212  25.246  25.240  1.00  0.00    -0.246 OA
BRANCH   6   8
ATOM      8  C   UNL A   1      35.097  22.888  25.639  1.00  0.00     0.060 A 
ATOM      9  C   UNL A   1      33.789  20.474  26.183  1.00  0.00     0.041 A 
ATOM     10  C   UNL A   1      34.639  20.582  25.073  1.00  0.00     0.027 A 
ATOM     11  C   UNL A   1      33.667  21.567  27.026  1.00  0.00     0.027 A 
ATOM     12  C   UNL A   1      35.281  21.796  24.786  1.00  0.00     0.018 A 
ATOM     13  C   UNL A   1      34.311  22.759  26.773  1.00  0.00     0.018 A 
BRANCH   9  14
ATOM     14  N   UNL A   1      33.091  19.274  26.373  1.00  0.00    -0.326 N 
ATOM     15  C   UNL A   1      32.761  18.252  25.533  1.00  0.00     0.224 C 
ATOM     16  O   UNL A   1      32.197  17.272  26.036  1.00  0.00    -0.275 OA
ATOM     17  H   UNL A   1      32.777  19.143  27.297  1.00  0.00     0.169 HD
BRANCH  15  18
ATOM     18  C   UNL A   1      33.148  18.213  24.066  1.00  0.00     0.110 C 
BRANCH  18  19
ATOM     19  C   UNL A   1      32.065  18.097  22.986  1.00  0.00     0.112 C 
BRANCH  19  20
ATOM     20  C   UNL A   1      32.100  18.949  21.713  1.00  0.00     0.240 C 
ATOM     21  N   UNL A   1      32.031  20.321  21.760  1.00  0.00    -0.247 N 
ATOM     22  H   UNL A   1      32.041  20.796  20.898  1.00  0.00     0.193 HD
ATOM     23  O   UNL A   1      32.191  18.399  20.610  1.00  0.00    -0.273 OA
BRANCH  21  24
ATOM     24  N   UNL A   1      31.952  21.087  22.881  1.00  0.00    -0.180 NA
ATOM     25  C   UNL A   1      32.208  22.338  22.682  1.00  0.00     0.148 C 
BRANCH  25  26
ATOM     26  C   UNL A   1      31.871  23.418  23.614  1.00  0.00     0.078 A 
ATOM     27  C   UNL A   1      32.945  29.422  24.867  1.00  0.00     0.044 C 
ATOM     28  C   UNL A   1      32.383  28.049  25.082  1.00  0.00    -0.050 A 
ATOM     29  C   UNL A   1      31.795  27.674  26.299  1.00  0.00     0.007 A 
ATOM     30  C   UNL A   1      32.454  27.116  24.047  1.00  0.00     0.019 A 
ATOM     31  C   UNL A   1      31.289  26.381  26.483  1.00  0.00     0.048 A 
ATOM     32  C   UNL A   1      31.990  25.817  24.256  1.00  0.00     0.066 A 
ATOM     33  C   UNL A   1      31.396  25.445  25.459  1.00  0.00     0.137 A 
ATOM     34  C   UNL A   1      32.216  24.797  23.234  1.00  0.00     0.201 A 
ATOM     35  O   UNL A   1      30.933  24.173  25.701  1.00  0.00    -0.463 OA
ATOM     36  O   UNL A   1      32.706  25.068  22.142  1.00  0.00    -0.288 OA
ATOM     37  C   UNL A   1      31.240  23.203  24.771  1.00  0.00     0.209 A 
ENDBRANCH  25  26
ENDBRANCH  21  24
ENDBRANCH  19  20
ENDBRANCH  18  19
ENDBRANCH  15  18
ENDBRANCH   9  14
ENDBRANCH   6   8
ENDBRANCH   5   6
ENDBRANCH   4   5
ENDBRANCH   3   4
ENDBRANCH   2   3
ENDBRANCH   1   2
BRANCH   1  38
ATOM     38  C   UNL A   1      41.833  21.511  26.131  1.00  0.00     0.188 C 
BRANCH  38  39
ATOM     39  O   UNL A   1      42.757  21.722  27.204  1.00  0.00    -0.377 OA
BRANCH  39  40
ATOM     40  C   UNL A   1      43.116  23.068  27.498  1.00  0.00     0.188 C 
BRANCH  40  41
ATOM     41  C   UNL A   1      44.344  23.164  28.430  1.00  0.00     0.188 C 
BRANCH  41  42
ATOM     42  O   UNL A   1      45.448  23.812  27.813  1.00  0.00    -0.376 OA
BRANCH  42  43
ATOM     43  C   UNL A   1      45.946  23.298  26.590  1.00  0.00     0.202 C 
BRANCH  43  44
ATOM     44  C   UNL A   1      45.933  24.156  25.313  1.00  0.00     0.261 C 
BRANCH  44  45
ATOM     45  O   UNL A   1      44.916  25.161  25.204  1.00  0.00    -0.460 OA
BRANCH  45  46
ATOM     46  C   UNL A   1      45.284  26.456  25.268  1.00  0.00     0.338 C 
ATOM     47  O   UNL A   1      46.013  27.062  24.506  1.00  0.00    -0.246 OA
BRANCH  46  48
ATOM     48  C   UNL A   1      44.470  27.071  26.339  1.00  0.00     0.060 A 
ATOM     49  C   UNL A   1      44.799  28.352  26.806  1.00  0.00     0.016 A 
ATOM     50  C   UNL A   1      43.359  26.395  26.846  1.00  0.00     0.016 A 
ATOM     51  C   UNL A   1      44.026  28.951  27.802  1.00  0.00     0.010 A 
ATOM     52  C   UNL A   1      42.606  26.981  27.863  1.00  0.00     0.010 A 
ATOM     53  C   UNL A   1      42.955  28.247  28.366  1.00  0.00    -0.014 A 
BRANCH  53  54
ATOM     54  C   UNL A   1      42.344  28.716  29.630  1.00  0.00     0.031 A 
ATOM     55  C   UNL A   1      40.973  29.329  29.556  1.00  0.00     0.074 A 
ATOM     56  C   UNL A   1      42.983  28.612  30.807  1.00  0.00     0.049 A 
ATOM     57  N   UNL A   1      40.268  29.912  30.490  1.00  0.00    -0.248 NA
ATOM     58  C   UNL A   1      40.313  29.283  28.241  1.00  0.00     0.031 C 
ATOM     59  C   UNL A   1      44.291  27.995  31.010  1.00  0.00     0.029 A 
ATOM     60  N   UNL A   1      42.616  29.049  32.056  1.00  0.00    -0.354 N 
ATOM     61  C   UNL A   1      39.089  30.309  29.874  1.00  0.00     0.074 A 
ATOM     62  C   UNL A   1      39.183  29.928  28.482  1.00  0.00     0.031 C 
ATOM     63  C   UNL A   1      44.628  28.110  32.308  1.00  0.00     0.029 A 
ATOM     64  C   UNL A   1      43.579  28.845  33.014  1.00  0.00     0.049 A 
ATOM     65  H   UNL A   1      41.746  29.468  32.247  1.00  0.00     0.167 HD
ATOM     66  C   UNL A   1      38.022  30.934  30.422  1.00  0.00     0.037 A 
ATOM     67  C   UNL A   1      43.614  29.239  34.302  1.00  0.00     0.037 A 
ATOM     68  C   UNL A   1      37.938  31.316  31.806  1.00  0.00     0.049 A 
ATOM     69  C   UNL A   1      42.449  30.012  34.870  1.00  0.00     0.074 A 
ATOM     70  C   UNL A   1      36.898  31.946  32.465  1.00  0.00     0.029 A 
ATOM     71  N   UNL A   1      38.944  31.113  32.740  1.00  0.00    -0.354 N 
ATOM     72  N   UNL A   1      41.327  30.369  34.291  1.00  0.00    -0.248 NA
ATOM     73  C   UNL A   1      42.556  30.438  36.273  1.00  0.00     0.031 C 
ATOM     74  C   UNL A   1      37.296  32.174  33.785  1.00  0.00     0.029 A 
ATOM     75  C   UNL A   1      38.557  31.629  33.966  1.00  0.00     0.049 A 
ATOM     76  H   UNL A   1      39.803  30.668  32.559  1.00  0.00     0.167 HD
ATOM     77  C   UNL A   1      40.583  31.026  35.264  1.00  0.00     0.074 A 
ATOM     78  C   UNL A   1      41.378  31.011  36.474  1.00  0.00     0.031 C 
ATOM     79  C   UNL A   1      39.353  31.587  35.166  1.00  0.00     0.037 A 
BRANCH  66  80
ATOM     80  C   UNL A   1      36.875  31.270  29.517  1.00  0.00     0.064 A 
ATOM     81  C   UNL A   1      35.950  30.299  29.103  1.00  0.00     0.173 A 
ATOM     82  C   UNL A   1      36.683  32.589  29.078  1.00  0.00     0.173 A 
ATOM     83  F   UNL A   1      36.100  29.020  29.478  1.00  0.00    -0.203 F 
ATOM     84  C   UNL A   1      34.889  30.632  28.264  1.00  0.00     0.198 A 
ATOM     85  C   UNL A   1      35.603  32.924  28.266  1.00  0.00     0.198 A 
ATOM     86  F   UNL A   1      37.538  33.555  29.444  1.00  0.00    -0.203 F 
ATOM     87  F   UNL A   1      34.046  29.679  27.842  1.00  0.00    -0.200 F 
ATOM     88  C   UNL A   1      34.711  31.945  27.854  1.00  0.00     0.200 A 
ATOM     89  F   UNL A   1      35.425  34.195  27.881  1.00  0.00    -0.200 F 
ATOM     90  F   UNL A   1      33.684  32.265  27.055  1.00  0.00    -0.200 F 
ENDBRANCH  66  80
BRANCH  67  91
ATOM     91  C   UNL A   1      44.801  28.933  35.145  1.00  0.00     0.064 A 
ATOM     92  C   UNL A   1      44.903  27.718  35.837  1.00  0.00     0.173 A 
ATOM     93  C   UNL A   1      45.840  29.862  35.307  1.00  0.00     0.173 A 
ATOM     94  F   UNL A   1      43.922  26.808  35.741  1.00  0.00    -0.203 F 
ATOM     95  C   UNL A   1      45.985  27.453  36.675  1.00  0.00     0.198 A 
ATOM     96  C   UNL A   1      46.937  29.583  36.120  1.00  0.00     0.198 A 
ATOM     97  F   UNL A   1      45.790  31.042  34.673  1.00  0.00    -0.203 F 
ATOM     98  F   UNL A   1      46.027  26.308  37.369  1.00  0.00    -0.200 F 
ATOM     99  C   UNL A   1      47.004  28.384  36.811  1.00  0.00     0.200 A 
ATOM    100  F   UNL A   1      47.924  30.482  36.241  1.00  0.00    -0.200 F 
ATOM    101  F   UNL A   1      48.043  28.130  37.619  1.00  0.00    -0.200 F 
ENDBRANCH  67  91
BRANCH  79 102
ATOM    102  C   UNL A   1      38.758  32.184  36.410  1.00  0.00     0.064 A 
ATOM    103  C   UNL A   1      37.972  31.428  37.292  1.00  0.00     0.173 A 
ATOM    104  C   UNL A   1      39.034  33.517  36.754  1.00  0.00     0.173 A 
ATOM    105  F   UNL A   1      37.669  30.153  37.004  1.00  0.00    -0.203 F 
ATOM    106  C   UNL A   1      37.466  31.992  38.461  1.00  0.00     0.198 A 
ATOM    107  C   UNL A   1      38.554  34.066  37.940  1.00  0.00     0.198 A 
ATOM    108  F   UNL A   1      39.788  34.281  35.950  1.00  0.00    -0.203 F 
ATOM    109  F   UNL A   1      36.681  31.263  39.267  1.00  0.00    -0.200 F 
ATOM    110  C   UNL A   1      37.765  33.306  38.789  1.00  0.00     0.200 A 
ATOM    111  F   UNL A   1      38.860  35.331  38.262  1.00  0.00    -0.200 F 
ATOM    112  F   UNL A   1      37.290  33.841  39.921  1.00  0.00    -0.200 F 
ENDBRANCH  79 102
ENDBRANCH  53  54
ENDBRANCH  46  48
ENDBRANCH  45  46
ENDBRANCH  44  45
ENDBRANCH  43  44
ENDBRANCH  42  43
ENDBRANCH  41  42
ENDBRANCH  40  41
ENDBRANCH  39  40
ENDBRANCH  38  39
ENDBRANCH   1  38
TORSDOF 26
ENDMDL
