MODEL 1
REMARK VINA RESULT:     -10.0      0.000      0.000
REMARK SMILES O=C(COc1ccccc1C[NH+]1CCC2(CC[NH2+]CC2)CC1)OCCOCCOCCOCCOC(=O)c1ccc(-c2c3nc(c(-c4c(F)c(F)c(F)c(F)c4F)c4ccc([nH]4)c(-c4c(F)c(F)c(F)c(F)c4F)c4nc(c(-c5c(F)c(F)c(F)c(F)c5F)c5ccc2[nH]5)C=C4)C=C3)cc1
REMARK SMILES IDX 28 1 27 2 26 3 25 4 24 5 23 6 2 7 1 8 3 9 4 10 5 11 6 12
REMARK SMILES IDX 10 13 7 14 9 15 8 16 11 17 12 18 13 19 22 20 14 22 21 23
REMARK SMILES IDX 15 24 16 25 20 26 17 27 19 28 18 29 29 32 30 33 31 34 32 35
REMARK SMILES IDX 33 36 34 37 35 38 36 39 37 40 38 41 39 42 100 43 40 44 99 45
REMARK SMILES IDX 41 46 42 47 43 48 93 49 44 50 98 51 92 52 94 53 45 54 97 55
REMARK SMILES IDX 91 56 90 57 46 59 78 60 58 61 77 62 59 63 62 64 76 65 95 66
REMARK SMILES IDX 60 67 61 68 75 70 96 71 63 72 47 73 48 74 56 75 49 76 50 77
REMARK SMILES IDX 54 78 57 79 51 80 52 81 55 82 53 83 79 84 80 85 88 86 81 87
REMARK SMILES IDX 82 88 86 89 89 90 83 91 84 92 87 93 85 94 64 95 65 96 73 97
REMARK SMILES IDX 66 98 67 99 71 100 74 101 68 102 69 103 72 104 70 105
REMARK H PARENT 12 21 18 30 18 31 94 58 62 69
REMARK Flexibility Score: inf
ROOT
ATOM      1  C   UNL A   1      42.745  42.129  24.445  1.00  0.00     0.188 C 
ENDROOT
BRANCH   1   2
ATOM      2  C   UNL A   1      43.480  43.308  23.750  1.00  0.00     0.188 C 
BRANCH   2   3
ATOM      3  O   UNL A   1      43.607  43.222  22.336  1.00  0.00    -0.376 OA
BRANCH   3   4
ATOM      4  C   UNL A   1      42.672  42.564  21.506  1.00  0.00     0.202 C 
BRANCH   4   5
ATOM      5  C   UNL A   1      41.547  43.383  20.892  1.00  0.00     0.261 C 
BRANCH   5   6
ATOM      6  O   UNL A   1      41.317  43.151  19.490  1.00  0.00    -0.461 OA
BRANCH   6   7
ATOM      7  C   UNL A   1      40.860  44.046  18.582  1.00  0.00     0.344 C 
ATOM      8  O   UNL A   1      39.664  44.327  18.530  1.00  0.00    -0.248 OA
BRANCH   7   9
ATOM      9  C   UNL A   1      41.861  44.692  17.673  1.00  0.00     0.351 C 
BRANCH   9  10
ATOM     10  O   UNL A   1      42.656  45.592  18.435  1.00  0.00    -0.481 OA
BRANCH  10  11
ATOM     11  C   UNL A   1      42.746  46.809  17.829  1.00  0.00     0.129 A 
ATOM     12  C   UNL A   1      41.916  46.928  16.706  1.00  0.00     0.047 A 
ATOM     13  C   UNL A   1      43.611  47.844  18.238  1.00  0.00     0.048 A 
ATOM     14  C   UNL A   1      41.869  48.120  16.003  1.00  0.00     0.004 A 
ATOM     15  C   UNL A   1      43.477  49.060  17.549  1.00  0.00     0.013 A 
ATOM     16  C   UNL A   1      42.634  49.194  16.440  1.00  0.00     0.001 A 
BRANCH  13  17
ATOM     17  C   UNL A   1      44.627  47.785  19.374  1.00  0.00     0.302 C 
BRANCH  17  18
ATOM     18  N   UNL A   1      46.053  47.531  19.137  1.00  0.00    -0.331 N 
ATOM     19  C   UNL A   1      46.863  47.125  20.271  1.00  0.00     0.263 C 
ATOM     20  C   UNL A   1      46.424  46.807  17.941  1.00  0.00     0.263 C 
ATOM     21  H   UNL A   1      46.303  48.503  18.953  1.00  0.00     0.348 HD
ATOM     22  C   UNL A   1      46.657  45.665  20.634  1.00  0.00     0.069 C 
ATOM     23  C   UNL A   1      46.330  45.293  18.093  1.00  0.00     0.069 C 
ATOM     24  C   UNL A   1      46.849  44.697  19.434  1.00  0.00    -0.008 C 
ATOM     25  C   UNL A   1      48.346  44.325  19.294  1.00  0.00     0.069 C 
ATOM     26  C   UNL A   1      46.043  43.399  19.698  1.00  0.00     0.069 C 
ATOM     27  C   UNL A   1      48.842  43.405  20.416  1.00  0.00     0.261 C 
ATOM     28  C   UNL A   1      46.620  42.560  20.832  1.00  0.00     0.261 C 
ATOM     29  N   UNL A   1      48.013  42.207  20.561  1.00  0.00    -0.346 N 
ATOM     30  H   UNL A   1      48.370  41.646  21.335  1.00  0.00     0.346 HD
ATOM     31  H   UNL A   1      48.049  41.680  19.689  1.00  0.00     0.346 HD
ENDBRANCH  17  18
ENDBRANCH  13  17
ENDBRANCH  10  11
ENDBRANCH   9  10
ENDBRANCH   7   9
ENDBRANCH   6   7
ENDBRANCH   5   6
ENDBRANCH   4   5
ENDBRANCH   3   4
ENDBRANCH   2   3
ENDBRANCH   1   2
BRANCH   1  32
ATOM     32  O   UNL A   1      43.517  41.147  25.127  1.00  0.00    -0.377 OA
BRANCH  32  33
ATOM     33  C   UNL A   1      43.076  40.792  26.426  1.00  0.00     0.188 C 
BRANCH  33  34
ATOM     34  C   UNL A   1      43.454  39.352  26.807  1.00  0.00     0.188 C 
BRANCH  34  35
ATOM     35  O   UNL A   1      44.694  38.861  26.345  1.00  0.00    -0.376 OA
BRANCH  35  36
ATOM     36  C   UNL A   1      45.622  38.188  27.182  1.00  0.00     0.202 C 
BRANCH  36  37
ATOM     37  C   UNL A   1      47.049  37.727  26.820  1.00  0.00     0.261 C 
BRANCH  37  38
ATOM     38  O   UNL A   1      47.473  36.414  27.174  1.00  0.00    -0.460 OA
BRANCH  38  39
ATOM     39  C   UNL A   1      47.551  36.105  28.481  1.00  0.00     0.338 C 
ATOM     40  O   UNL A   1      48.045  36.762  29.378  1.00  0.00    -0.246 OA
BRANCH  39  41
ATOM     41  C   UNL A   1      46.721  34.895  28.652  1.00  0.00     0.060 A 
ATOM     42  C   UNL A   1      47.014  34.006  29.695  1.00  0.00     0.016 A 
ATOM     43  C   UNL A   1      45.614  34.684  27.825  1.00  0.00     0.016 A 
ATOM     44  C   UNL A   1      46.206  32.893  29.910  1.00  0.00     0.010 A 
ATOM     45  C   UNL A   1      44.838  33.542  28.006  1.00  0.00     0.010 A 
ATOM     46  C   UNL A   1      45.152  32.632  29.029  1.00  0.00    -0.014 A 
BRANCH  46  47
ATOM     47  C   UNL A   1      44.547  31.287  28.999  1.00  0.00     0.031 A 
ATOM     48  C   UNL A   1      45.379  30.175  28.426  1.00  0.00     0.074 A 
ATOM     49  C   UNL A   1      43.296  31.068  29.433  1.00  0.00     0.049 A 
ATOM     50  N   UNL A   1      45.043  28.945  28.145  1.00  0.00    -0.248 NA
ATOM     51  C   UNL A   1      46.783  30.503  28.118  1.00  0.00     0.031 C 
ATOM     52  C   UNL A   1      42.428  32.066  30.053  1.00  0.00     0.029 A 
ATOM     53  N   UNL A   1      42.530  29.931  29.386  1.00  0.00    -0.354 N 
ATOM     54  C   UNL A   1      46.182  28.363  27.607  1.00  0.00     0.074 A 
ATOM     55  C   UNL A   1      47.219  29.369  27.595  1.00  0.00     0.031 C 
ATOM     56  C   UNL A   1      41.229  31.507  30.294  1.00  0.00     0.029 A 
ATOM     57  C   UNL A   1      41.237  30.129  29.803  1.00  0.00     0.049 A 
ATOM     58  H   UNL A   1      42.874  29.059  29.085  1.00  0.00     0.167 HD
ATOM     59  C   UNL A   1      46.340  27.100  27.156  1.00  0.00     0.037 A 
ATOM     60  C   UNL A   1      40.176  29.300  29.740  1.00  0.00     0.037 A 
ATOM     61  C   UNL A   1      45.300  26.110  27.174  1.00  0.00     0.049 A 
ATOM     62  C   UNL A   1      40.361  27.918  29.158  1.00  0.00     0.074 A 
ATOM     63  C   UNL A   1      45.363  24.786  26.786  1.00  0.00     0.029 A 
ATOM     64  N   UNL A   1      43.998  26.350  27.590  1.00  0.00    -0.354 N 
ATOM     65  N   UNL A   1      41.449  27.353  28.692  1.00  0.00    -0.248 NA
ATOM     66  C   UNL A   1      39.167  27.064  29.082  1.00  0.00     0.031 C 
ATOM     67  C   UNL A   1      44.082  24.240  26.902  1.00  0.00     0.029 A 
ATOM     68  C   UNL A   1      43.236  25.206  27.425  1.00  0.00     0.049 A 
ATOM     69  H   UNL A   1      43.666  27.203  27.948  1.00  0.00     0.167 HD
ATOM     70  C   UNL A   1      41.079  26.074  28.296  1.00  0.00     0.074 A 
ATOM     71  C   UNL A   1      39.668  25.940  28.589  1.00  0.00     0.031 C 
ATOM     72  C   UNL A   1      41.834  25.097  27.735  1.00  0.00     0.037 A 
BRANCH  59  73
ATOM     73  C   UNL A   1      47.665  26.729  26.562  1.00  0.00     0.064 A 
ATOM     74  C   UNL A   1      48.680  26.133  27.323  1.00  0.00     0.173 A 
ATOM     75  C   UNL A   1      47.901  26.933  25.194  1.00  0.00     0.173 A 
ATOM     76  F   UNL A   1      48.511  25.936  28.640  1.00  0.00    -0.203 F 
ATOM     77  C   UNL A   1      49.889  25.765  26.738  1.00  0.00     0.198 A 
ATOM     78  C   UNL A   1      49.099  26.538  24.607  1.00  0.00     0.198 A 
ATOM     79  F   UNL A   1      46.963  27.505  24.424  1.00  0.00    -0.203 F 
ATOM     80  F   UNL A   1      50.860  25.229  27.491  1.00  0.00    -0.200 F 
ATOM     81  C   UNL A   1      50.092  25.957  25.379  1.00  0.00     0.200 A 
ATOM     82  F   UNL A   1      49.288  26.715  23.292  1.00  0.00    -0.200 F 
ATOM     83  F   UNL A   1      51.249  25.586  24.814  1.00  0.00    -0.200 F 
ENDBRANCH  59  73
BRANCH  60  84
ATOM     84  C   UNL A   1      38.834  29.762  30.185  1.00  0.00     0.064 A 
ATOM     85  C   UNL A   1      37.912  30.297  29.275  1.00  0.00     0.173 A 
ATOM     86  C   UNL A   1      38.462  29.719  31.538  1.00  0.00     0.173 A 
ATOM     87  F   UNL A   1      38.230  30.385  27.975  1.00  0.00    -0.203 F 
ATOM     88  C   UNL A   1      36.684  30.797  29.703  1.00  0.00     0.198 A 
ATOM     89  C   UNL A   1      37.220  30.189  31.960  1.00  0.00     0.198 A 
ATOM     90  F   UNL A   1      39.307  29.221  32.453  1.00  0.00    -0.203 F 
ATOM     91  F   UNL A   1      35.847  31.359  28.820  1.00  0.00    -0.200 F 
ATOM     92  C   UNL A   1      36.336  30.738  31.045  1.00  0.00     0.200 A 
ATOM     93  F   UNL A   1      36.884  30.117  33.255  1.00  0.00    -0.200 F 
ATOM     94  F   UNL A   1      35.156  31.221  31.456  1.00  0.00    -0.200 F 
ENDBRANCH  60  84
BRANCH  72  95
ATOM     95  C   UNL A   1      41.164  23.788  27.431  1.00  0.00     0.064 A 
ATOM     96  C   UNL A   1      40.153  23.688  26.466  1.00  0.00     0.173 A 
ATOM     97  C   UNL A   1      41.597  22.609  28.058  1.00  0.00     0.173 A 
ATOM     98  F   UNL A   1      39.696  24.788  25.848  1.00  0.00    -0.203 F 
ATOM     99  C   UNL A   1      39.586  22.456  26.151  1.00  0.00     0.198 A 
ATOM    100  C   UNL A   1      41.052  21.375  27.716  1.00  0.00     0.198 A 
ATOM    101  F   UNL A   1      42.569  22.650  28.981  1.00  0.00    -0.203 F 
ATOM    102  F   UNL A   1      38.593  22.387  25.253  1.00  0.00    -0.200 F 
ATOM    103  C   UNL A   1      40.044  21.301  26.767  1.00  0.00     0.200 A 
ATOM    104  F   UNL A   1      41.508  20.258  28.300  1.00  0.00    -0.200 F 
ATOM    105  F   UNL A   1      39.510  20.113  26.448  1.00  0.00    -0.200 F 
ENDBRANCH  72  95
ENDBRANCH  46  47
ENDBRANCH  39  41
ENDBRANCH  38  39
ENDBRANCH  37  38
ENDBRANCH  36  37
ENDBRANCH  35  36
ENDBRANCH  34  35
ENDBRANCH  33  34
ENDBRANCH  32  33
ENDBRANCH   1  32
TORSDOF 24
ENDMDL
MODEL 2
REMARK VINA RESULT:      -9.9     10.952     15.843
REMARK SMILES O=C(COc1ccccc1C[NH+]1CCC2(CC[NH2+]CC2)CC1)OCCOCCOCCOCCOC(=O)c1ccc(-c2c3nc(c(-c4c(F)c(F)c(F)c(F)c4F)c4ccc([nH]4)c(-c4c(F)c(F)c(F)c(F)c4F)c4nc(c(-c5c(F)c(F)c(F)c(F)c5F)c5ccc2[nH]5)C=C4)C=C3)cc1
REMARK SMILES IDX 28 1 27 2 26 3 25 4 24 5 23 6 2 7 1 8 3 9 4 10 5 11 6 12
REMARK SMILES IDX 10 13 7 14 9 15 8 16 11 17 12 18 13 19 22 20 14 22 21 23
REMARK SMILES IDX 15 24 16 25 20 26 17 27 19 28 18 29 29 32 30 33 31 34 32 35
REMARK SMILES IDX 33 36 34 37 35 38 36 39 37 40 38 41 39 42 100 43 40 44 99 45
REMARK SMILES IDX 41 46 42 47 43 48 93 49 44 50 98 51 92 52 94 53 45 54 97 55
REMARK SMILES IDX 91 56 90 57 46 59 78 60 58 61 77 62 59 63 62 64 76 65 95 66
REMARK SMILES IDX 60 67 61 68 75 70 96 71 63 72 47 73 48 74 56 75 49 76 50 77
REMARK SMILES IDX 54 78 57 79 51 80 52 81 55 82 53 83 79 84 80 85 88 86 81 87
REMARK SMILES IDX 82 88 86 89 89 90 83 91 84 92 87 93 85 94 64 95 65 96 73 97
REMARK SMILES IDX 66 98 67 99 71 100 74 101 68 102 69 103 72 104 70 105
REMARK H PARENT 12 21 18 30 18 31 94 58 62 69
REMARK Flexibility Score: inf
ROOT
ATOM      1  C   UNL A   1      40.935  24.446  27.264  1.00  0.00     0.188 C 
ENDROOT
BRANCH   1   2
ATOM      2  C   UNL A   1      39.442  24.240  27.641  1.00  0.00     0.188 C 
BRANCH   2   3
ATOM      3  O   UNL A   1      38.697  23.369  26.799  1.00  0.00    -0.376 OA
BRANCH   3   4
ATOM      4  C   UNL A   1      37.439  23.702  26.249  1.00  0.00     0.202 C 
BRANCH   4   5
ATOM      5  C   UNL A   1      37.272  23.646  24.738  1.00  0.00     0.261 C 
BRANCH   5   6
ATOM      6  O   UNL A   1      37.056  22.331  24.194  1.00  0.00    -0.461 OA
BRANCH   6   7
ATOM      7  C   UNL A   1      36.958  21.172  24.889  1.00  0.00     0.344 C 
ATOM      8  O   UNL A   1      37.922  20.414  24.978  1.00  0.00    -0.248 OA
BRANCH   7   9
ATOM      9  C   UNL A   1      35.651  20.867  25.557  1.00  0.00     0.351 C 
BRANCH   9  10
ATOM     10  O   UNL A   1      34.718  21.886  25.218  1.00  0.00    -0.481 OA
BRANCH  10  11
ATOM     11  C   UNL A   1      33.769  21.422  24.357  1.00  0.00     0.129 A 
ATOM     12  C   UNL A   1      33.635  20.028  24.384  1.00  0.00     0.047 A 
ATOM     13  C   UNL A   1      33.017  22.234  23.483  1.00  0.00     0.048 A 
ATOM     14  C   UNL A   1      32.685  19.408  23.590  1.00  0.00     0.004 A 
ATOM     15  C   UNL A   1      32.012  21.578  22.753  1.00  0.00     0.013 A 
ATOM     16  C   UNL A   1      31.857  20.187  22.791  1.00  0.00     0.001 A 
BRANCH  13  17
ATOM     17  C   UNL A   1      33.154  23.740  23.297  1.00  0.00     0.302 C 
BRANCH  17  18
ATOM     18  N   UNL A   1      33.249  24.665  24.434  1.00  0.00    -0.331 N 
ATOM     19  C   UNL A   1      33.820  25.977  24.191  1.00  0.00     0.263 C 
ATOM     20  C   UNL A   1      32.125  24.742  25.341  1.00  0.00     0.263 C 
ATOM     21  H   UNL A   1      33.966  24.140  24.936  1.00  0.00     0.348 HD
ATOM     22  C   UNL A   1      32.842  26.913  23.503  1.00  0.00     0.069 C 
ATOM     23  C   UNL A   1      31.020  25.676  24.863  1.00  0.00     0.069 C 
ATOM     24  C   UNL A   1      31.476  27.024  24.233  1.00  0.00    -0.008 C 
ATOM     25  C   UNL A   1      31.556  28.112  25.333  1.00  0.00     0.069 C 
ATOM     26  C   UNL A   1      30.388  27.441  23.211  1.00  0.00     0.069 C 
ATOM     27  C   UNL A   1      31.631  29.534  24.765  1.00  0.00     0.261 C 
ATOM     28  C   UNL A   1      30.557  28.869  22.709  1.00  0.00     0.261 C 
ATOM     29  N   UNL A   1      30.547  29.817  23.824  1.00  0.00    -0.346 N 
ATOM     30  H   UNL A   1      30.660  30.762  23.458  1.00  0.00     0.346 HD
ATOM     31  H   UNL A   1      29.659  29.726  24.317  1.00  0.00     0.346 HD
ENDBRANCH  17  18
ENDBRANCH  13  17
ENDBRANCH  10  11
ENDBRANCH   9  10
ENDBRANCH   7   9
ENDBRANCH   6   7
ENDBRANCH   5   6
ENDBRANCH   4   5
ENDBRANCH   3   4
ENDBRANCH   2   3
ENDBRANCH   1   2
BRANCH   1  32
ATOM     32  O   UNL A   1      41.936  23.835  28.070  1.00  0.00    -0.377 OA
BRANCH  32  33
ATOM     33  C   UNL A   1      42.152  22.451  27.862  1.00  0.00     0.188 C 
BRANCH  33  34
ATOM     34  C   UNL A   1      43.292  22.172  26.869  1.00  0.00     0.188 C 
BRANCH  34  35
ATOM     35  O   UNL A   1      43.029  22.390  25.499  1.00  0.00    -0.376 OA
BRANCH  35  36
ATOM     36  C   UNL A   1      43.719  23.357  24.723  1.00  0.00     0.202 C 
BRANCH  36  37
ATOM     37  C   UNL A   1      43.659  24.892  24.866  1.00  0.00     0.261 C 
BRANCH  37  38
ATOM     38  O   UNL A   1      44.868  25.644  24.880  1.00  0.00    -0.460 OA
BRANCH  38  39
ATOM     39  C   UNL A   1      45.742  25.417  25.876  1.00  0.00     0.338 C 
ATOM     40  O   UNL A   1      46.797  24.812  25.824  1.00  0.00    -0.246 OA
BRANCH  39  41
ATOM     41  C   UNL A   1      45.271  26.237  27.011  1.00  0.00     0.060 A 
ATOM     42  C   UNL A   1      44.622  25.611  28.085  1.00  0.00     0.016 A 
ATOM     43  C   UNL A   1      45.538  27.608  27.040  1.00  0.00     0.016 A 
ATOM     44  C   UNL A   1      44.226  26.358  29.190  1.00  0.00     0.010 A 
ATOM     45  C   UNL A   1      45.094  28.365  28.122  1.00  0.00     0.010 A 
ATOM     46  C   UNL A   1      44.411  27.744  29.182  1.00  0.00    -0.014 A 
BRANCH  46  47
ATOM     47  C   UNL A   1      43.663  28.583  30.138  1.00  0.00     0.031 A 
ATOM     48  C   UNL A   1      44.253  28.751  31.509  1.00  0.00     0.074 A 
ATOM     49  C   UNL A   1      42.490  29.146  29.810  1.00  0.00     0.049 A 
ATOM     50  N   UNL A   1      43.738  29.303  32.573  1.00  0.00    -0.248 NA
ATOM     51  C   UNL A   1      45.610  28.211  31.705  1.00  0.00     0.031 C 
ATOM     52  C   UNL A   1      41.859  29.087  28.494  1.00  0.00     0.029 A 
ATOM     53  N   UNL A   1      41.604  29.856  30.581  1.00  0.00    -0.354 N 
ATOM     54  C   UNL A   1      44.694  29.155  33.568  1.00  0.00     0.074 A 
ATOM     55  C   UNL A   1      45.820  28.460  32.988  1.00  0.00     0.031 C 
ATOM     56  C   UNL A   1      40.665  29.702  28.558  1.00  0.00     0.029 A 
ATOM     57  C   UNL A   1      40.433  30.154  29.929  1.00  0.00     0.049 A 
ATOM     58  H   UNL A   1      41.791  30.126  31.509  1.00  0.00     0.167 HD
ATOM     59  C   UNL A   1      44.629  29.558  34.855  1.00  0.00     0.037 A 
ATOM     60  C   UNL A   1      39.291  30.684  30.410  1.00  0.00     0.037 A 
ATOM     61  C   UNL A   1      43.503  30.249  35.419  1.00  0.00     0.049 A 
ATOM     62  C   UNL A   1      39.216  31.055  31.873  1.00  0.00     0.074 A 
ATOM     63  C   UNL A   1      43.349  30.746  36.698  1.00  0.00     0.029 A 
ATOM     64  N   UNL A   1      42.327  30.521  34.733  1.00  0.00    -0.354 N 
ATOM     65  N   UNL A   1      40.137  30.957  32.802  1.00  0.00    -0.248 NA
ATOM     66  C   UNL A   1      37.939  31.599  32.356  1.00  0.00     0.031 C 
ATOM     67  C   UNL A   1      42.054  31.260  36.810  1.00  0.00     0.029 A 
ATOM     68  C   UNL A   1      41.425  31.142  35.580  1.00  0.00     0.049 A 
ATOM     69  H   UNL A   1      42.160  30.307  33.788  1.00  0.00     0.167 HD
ATOM     70  C   UNL A   1      39.562  31.450  33.967  1.00  0.00     0.074 A 
ATOM     71  C   UNL A   1      38.218  31.861  33.625  1.00  0.00     0.031 C 
ATOM     72  C   UNL A   1      40.095  31.551  35.210  1.00  0.00     0.037 A 
BRANCH  59  73
ATOM     73  C   UNL A   1      45.780  29.224  35.753  1.00  0.00     0.064 A 
ATOM     74  C   UNL A   1      46.863  30.097  35.931  1.00  0.00     0.173 A 
ATOM     75  C   UNL A   1      45.774  28.026  36.484  1.00  0.00     0.173 A 
ATOM     76  F   UNL A   1      46.926  31.245  35.238  1.00  0.00    -0.203 F 
ATOM     77  C   UNL A   1      47.903  29.778  36.799  1.00  0.00     0.198 A 
ATOM     78  C   UNL A   1      46.801  27.723  37.373  1.00  0.00     0.198 A 
ATOM     79  F   UNL A   1      44.763  27.155  36.346  1.00  0.00    -0.203 F 
ATOM     80  F   UNL A   1      48.946  30.609  36.927  1.00  0.00    -0.200 F 
ATOM     81  C   UNL A   1      47.865  28.598  37.528  1.00  0.00     0.200 A 
ATOM     82  F   UNL A   1      46.756  26.588  38.083  1.00  0.00    -0.200 F 
ATOM     83  F   UNL A   1      48.858  28.300  38.376  1.00  0.00    -0.200 F 
ENDBRANCH  59  73
BRANCH  60  84
ATOM     84  C   UNL A   1      38.107  30.847  29.525  1.00  0.00     0.064 A 
ATOM     85  C   UNL A   1      37.770  32.096  28.986  1.00  0.00     0.173 A 
ATOM     86  C   UNL A   1      37.260  29.765  29.237  1.00  0.00     0.173 A 
ATOM     87  F   UNL A   1      38.531  33.168  29.254  1.00  0.00    -0.203 F 
ATOM     88  C   UNL A   1      36.619  32.263  28.218  1.00  0.00     0.198 A 
ATOM     89  C   UNL A   1      36.129  29.926  28.441  1.00  0.00     0.198 A 
ATOM     90  F   UNL A   1      37.532  28.547  29.730  1.00  0.00    -0.203 F 
ATOM     91  F   UNL A   1      36.288  33.481  27.766  1.00  0.00    -0.200 F 
ATOM     92  C   UNL A   1      35.802  31.176  27.941  1.00  0.00     0.200 A 
ATOM     93  F   UNL A   1      35.350  28.871  28.166  1.00  0.00    -0.200 F 
ATOM     94  F   UNL A   1      34.694  31.338  27.205  1.00  0.00    -0.200 F 
ENDBRANCH  60  84
BRANCH  72  95
ATOM     95  C   UNL A   1      39.240  32.156  36.285  1.00  0.00     0.064 A 
ATOM     96  C   UNL A   1      38.300  31.393  36.993  1.00  0.00     0.173 A 
ATOM     97  C   UNL A   1      39.421  33.496  36.665  1.00  0.00     0.173 A 
ATOM     98  F   UNL A   1      38.081  30.112  36.660  1.00  0.00    -0.203 F 
ATOM     99  C   UNL A   1      37.561  31.954  38.031  1.00  0.00     0.198 A 
ATOM    100  C   UNL A   1      38.704  34.043  37.724  1.00  0.00     0.198 A 
ATOM    101  F   UNL A   1      40.315  34.265  36.025  1.00  0.00    -0.203 F 
ATOM    102  F   UNL A   1      36.640  31.218  38.669  1.00  0.00    -0.200 F 
ATOM    103  C   UNL A   1      37.771  33.274  38.402  1.00  0.00     0.200 A 
ATOM    104  F   UNL A   1      38.922  35.313  38.093  1.00  0.00    -0.200 F 
ATOM    105  F   UNL A   1      37.071  33.806  39.414  1.00  0.00    -0.200 F 
ENDBRANCH  72  95
ENDBRANCH  46  47
ENDBRANCH  39  41
ENDBRANCH  38  39
ENDBRANCH  37  38
ENDBRANCH  36  37
ENDBRANCH  35  36
ENDBRANCH  34  35
ENDBRANCH  33  34
ENDBRANCH  32  33
ENDBRANCH   1  32
TORSDOF 24
ENDMDL
MODEL 3
REMARK VINA RESULT:      -9.8     10.527     15.136
REMARK SMILES O=C(COc1ccccc1C[NH+]1CCC2(CC[NH2+]CC2)CC1)OCCOCCOCCOCCOC(=O)c1ccc(-c2c3nc(c(-c4c(F)c(F)c(F)c(F)c4F)c4ccc([nH]4)c(-c4c(F)c(F)c(F)c(F)c4F)c4nc(c(-c5c(F)c(F)c(F)c(F)c5F)c5ccc2[nH]5)C=C4)C=C3)cc1
REMARK SMILES IDX 28 1 27 2 26 3 25 4 24 5 23 6 2 7 1 8 3 9 4 10 5 11 6 12
REMARK SMILES IDX 10 13 7 14 9 15 8 16 11 17 12 18 13 19 22 20 14 22 21 23
REMARK SMILES IDX 15 24 16 25 20 26 17 27 19 28 18 29 29 32 30 33 31 34 32 35
REMARK SMILES IDX 33 36 34 37 35 38 36 39 37 40 38 41 39 42 100 43 40 44 99 45
REMARK SMILES IDX 41 46 42 47 43 48 93 49 44 50 98 51 92 52 94 53 45 54 97 55
REMARK SMILES IDX 91 56 90 57 46 59 78 60 58 61 77 62 59 63 62 64 76 65 95 66
REMARK SMILES IDX 60 67 61 68 75 70 96 71 63 72 47 73 48 74 56 75 49 76 50 77
REMARK SMILES IDX 54 78 57 79 51 80 52 81 55 82 53 83 79 84 80 85 88 86 81 87
REMARK SMILES IDX 82 88 86 89 89 90 83 91 84 92 87 93 85 94 64 95 65 96 73 97
REMARK SMILES IDX 66 98 67 99 71 100 74 101 68 102 69 103 72 104 70 105
REMARK H PARENT 12 21 18 30 18 31 94 58 62 69
REMARK Flexibility Score: inf
ROOT
ATOM      1  C   UNL A   1      33.152  34.609  28.418  1.00  0.00     0.188 C 
ENDROOT
BRANCH   1   2
ATOM      2  C   UNL A   1      34.701  34.508  28.377  1.00  0.00     0.188 C 
BRANCH   2   3
ATOM      3  O   UNL A   1      35.243  33.197  28.265  1.00  0.00    -0.376 OA
BRANCH   3   4
ATOM      4  C   UNL A   1      34.520  32.024  28.577  1.00  0.00     0.202 C 
BRANCH   4   5
ATOM      5  C   UNL A   1      33.707  31.361  27.475  1.00  0.00     0.261 C 
BRANCH   5   6
ATOM      6  O   UNL A   1      34.210  30.089  27.027  1.00  0.00    -0.461 OA
BRANCH   6   7
ATOM      7  C   UNL A   1      33.490  29.072  26.496  1.00  0.00     0.344 C 
ATOM      8  O   UNL A   1      33.690  27.912  26.852  1.00  0.00    -0.248 OA
BRANCH   7   9
ATOM      9  C   UNL A   1      32.434  29.417  25.489  1.00  0.00     0.351 C 
BRANCH   9  10
ATOM     10  O   UNL A   1      32.471  28.454  24.442  1.00  0.00    -0.481 OA
BRANCH  10  11
ATOM     11  C   UNL A   1      31.236  27.930  24.208  1.00  0.00     0.129 A 
ATOM     12  C   UNL A   1      30.386  28.805  23.520  1.00  0.00     0.047 A 
ATOM     13  C   UNL A   1      30.812  26.657  24.643  1.00  0.00     0.048 A 
ATOM     14  C   UNL A   1      29.107  28.402  23.176  1.00  0.00     0.004 A 
ATOM     15  C   UNL A   1      29.539  26.255  24.208  1.00  0.00     0.013 A 
ATOM     16  C   UNL A   1      28.692  27.117  23.501  1.00  0.00     0.001 A 
BRANCH  13  17
ATOM     17  C   UNL A   1      31.613  25.670  25.485  1.00  0.00     0.302 C 
BRANCH  17  18
ATOM     18  N   UNL A   1      33.001  25.313  25.164  1.00  0.00    -0.331 N 
ATOM     19  C   UNL A   1      33.728  24.503  26.124  1.00  0.00     0.263 C 
ATOM     20  C   UNL A   1      33.304  24.915  23.807  1.00  0.00     0.263 C 
ATOM     21  H   UNL A   1      33.376  26.257  25.259  1.00  0.00     0.348 HD
ATOM     22  C   UNL A   1      33.331  23.039  26.062  1.00  0.00     0.069 C 
ATOM     23  C   UNL A   1      33.015  23.445  23.525  1.00  0.00     0.069 C 
ATOM     24  C   UNL A   1      33.425  22.434  24.635  1.00  0.00    -0.008 C 
ATOM     25  C   UNL A   1      34.866  21.929  24.372  1.00  0.00     0.069 C 
ATOM     26  C   UNL A   1      32.457  21.228  24.531  1.00  0.00     0.069 C 
ATOM     27  C   UNL A   1      35.217  20.673  25.180  1.00  0.00     0.261 C 
ATOM     28  C   UNL A   1      32.897  20.036  25.372  1.00  0.00     0.261 C 
ATOM     29  N   UNL A   1      34.240  19.599  24.992  1.00  0.00    -0.346 N 
ATOM     30  H   UNL A   1      34.506  18.802  25.570  1.00  0.00     0.346 HD
ATOM     31  H   UNL A   1      34.229  19.341  24.006  1.00  0.00     0.346 HD
ENDBRANCH  17  18
ENDBRANCH  13  17
ENDBRANCH  10  11
ENDBRANCH   9  10
ENDBRANCH   7   9
ENDBRANCH   6   7
ENDBRANCH   5   6
ENDBRANCH   4   5
ENDBRANCH   3   4
ENDBRANCH   2   3
ENDBRANCH   1   2
BRANCH   1  32
ATOM     32  O   UNL A   1      32.519  34.930  29.652  1.00  0.00    -0.377 OA
BRANCH  32  33
ATOM     33  C   UNL A   1      33.037  36.046  30.352  1.00  0.00     0.188 C 
BRANCH  33  34
ATOM     34  C   UNL A   1      33.636  35.666  31.717  1.00  0.00     0.188 C 
BRANCH  34  35
ATOM     35  O   UNL A   1      34.773  34.830  31.716  1.00  0.00    -0.376 OA
BRANCH  35  36
ATOM     36  C   UNL A   1      34.841  33.615  32.447  1.00  0.00     0.202 C 
BRANCH  36  37
ATOM     37  C   UNL A   1      35.105  33.443  33.957  1.00  0.00     0.261 C 
BRANCH  37  38
ATOM     38  O   UNL A   1      36.271  32.750  34.392  1.00  0.00    -0.460 OA
BRANCH  38  39
ATOM     39  C   UNL A   1      37.440  33.415  34.388  1.00  0.00     0.338 C 
ATOM     40  O   UNL A   1      37.658  34.550  34.768  1.00  0.00    -0.246 OA
BRANCH  39  41
ATOM     41  C   UNL A   1      38.464  32.414  34.023  1.00  0.00     0.060 A 
ATOM     42  C   UNL A   1      38.304  31.086  34.442  1.00  0.00     0.016 A 
ATOM     43  C   UNL A   1      39.540  32.780  33.209  1.00  0.00     0.016 A 
ATOM     44  C   UNL A   1      39.226  30.118  34.057  1.00  0.00     0.010 A 
ATOM     45  C   UNL A   1      40.492  31.823  32.868  1.00  0.00     0.010 A 
ATOM     46  C   UNL A   1      40.350  30.499  33.317  1.00  0.00    -0.014 A 
BRANCH  46  47
ATOM     47  C   UNL A   1      41.511  29.591  33.240  1.00  0.00     0.031 A 
ATOM     48  C   UNL A   1      42.479  29.618  34.388  1.00  0.00     0.074 A 
ATOM     49  C   UNL A   1      41.714  28.798  32.176  1.00  0.00     0.049 A 
ATOM     50  N   UNL A   1      43.644  29.043  34.507  1.00  0.00    -0.248 NA
ATOM     51  C   UNL A   1      42.077  30.417  35.561  1.00  0.00     0.031 C 
ATOM     52  C   UNL A   1      40.809  28.660  31.038  1.00  0.00     0.029 A 
ATOM     53  N   UNL A   1      42.772  27.980  31.873  1.00  0.00    -0.354 N 
ATOM     54  C   UNL A   1      44.123  29.427  35.751  1.00  0.00     0.074 A 
ATOM     55  C   UNL A   1      43.130  30.287  36.352  1.00  0.00     0.031 C 
ATOM     56  C   UNL A   1      41.371  27.835  30.137  1.00  0.00     0.029 A 
ATOM     57  C   UNL A   1      42.691  27.428  30.619  1.00  0.00     0.049 A 
ATOM     58  H   UNL A   1      43.516  27.805  32.494  1.00  0.00     0.167 HD
ATOM     59  C   UNL A   1      45.296  29.095  36.334  1.00  0.00     0.037 A 
ATOM     60  C   UNL A   1      43.607  26.720  29.929  1.00  0.00     0.037 A 
ATOM     61  C   UNL A   1      46.274  28.238  35.724  1.00  0.00     0.049 A 
ATOM     62  C   UNL A   1      44.942  26.429  30.572  1.00  0.00     0.074 A 
ATOM     63  C   UNL A   1      47.475  27.796  36.244  1.00  0.00     0.029 A 
ATOM     64  N   UNL A   1      46.165  27.708  34.447  1.00  0.00    -0.354 N 
ATOM     65  N   UNL A   1      45.376  26.754  31.767  1.00  0.00    -0.248 NA
ATOM     66  C   UNL A   1      45.919  25.682  29.767  1.00  0.00     0.031 C 
ATOM     67  C   UNL A   1      48.127  27.054  35.256  1.00  0.00     0.029 A 
ATOM     68  C   UNL A   1      47.302  26.979  34.144  1.00  0.00     0.049 A 
ATOM     69  H   UNL A   1      45.395  27.831  33.846  1.00  0.00     0.167 HD
ATOM     70  C   UNL A   1      46.660  26.230  31.865  1.00  0.00     0.074 A 
ATOM     71  C   UNL A   1      46.929  25.552  30.615  1.00  0.00     0.031 C 
ATOM     72  C   UNL A   1      47.539  26.304  32.894  1.00  0.00     0.037 A 
BRANCH  59  73
ATOM     73  C   UNL A   1      45.608  29.693  37.671  1.00  0.00     0.064 A 
ATOM     74  C   UNL A   1      45.424  28.981  38.865  1.00  0.00     0.173 A 
ATOM     75  C   UNL A   1      46.145  30.987  37.751  1.00  0.00     0.173 A 
ATOM     76  F   UNL A   1      44.894  27.749  38.843  1.00  0.00    -0.203 F 
ATOM     77  C   UNL A   1      45.757  29.548  40.093  1.00  0.00     0.198 A 
ATOM     78  C   UNL A   1      46.502  31.539  38.977  1.00  0.00     0.198 A 
ATOM     79  F   UNL A   1      46.334  31.711  36.638  1.00  0.00    -0.203 F 
ATOM     80  F   UNL A   1      45.540  28.865  41.225  1.00  0.00    -0.200 F 
ATOM     81  C   UNL A   1      46.306  30.821  40.146  1.00  0.00     0.200 A 
ATOM     82  F   UNL A   1      47.043  32.765  39.025  1.00  0.00    -0.200 F 
ATOM     83  F   UNL A   1      46.641  31.359  41.327  1.00  0.00    -0.200 F 
ENDBRANCH  59  73
BRANCH  60  84
ATOM     84  C   UNL A   1      43.326  26.285  28.534  1.00  0.00     0.064 A 
ATOM     85  C   UNL A   1      42.851  24.995  28.258  1.00  0.00     0.173 A 
ATOM     86  C   UNL A   1      43.570  27.134  27.444  1.00  0.00     0.173 A 
ATOM     87  F   UNL A   1      42.628  24.135  29.264  1.00  0.00    -0.203 F 
ATOM     88  C   UNL A   1      42.659  24.563  26.948  1.00  0.00     0.198 A 
ATOM     89  C   UNL A   1      43.345  26.712  26.136  1.00  0.00     0.198 A 
ATOM     90  F   UNL A   1      44.029  28.378  27.649  1.00  0.00    -0.203 F 
ATOM     91  F   UNL A   1      42.263  23.304  26.711  1.00  0.00    -0.200 F 
ATOM     92  C   UNL A   1      42.900  25.424  25.887  1.00  0.00     0.200 A 
ATOM     93  F   UNL A   1      43.568  27.552  25.115  1.00  0.00    -0.200 F 
ATOM     94  F   UNL A   1      42.718  25.007  24.627  1.00  0.00    -0.200 F 
ENDBRANCH  60  84
BRANCH  72  95
ATOM     95  C   UNL A   1      48.862  25.612  32.730  1.00  0.00     0.064 A 
ATOM     96  C   UNL A   1      49.928  26.218  32.051  1.00  0.00     0.173 A 
ATOM     97  C   UNL A   1      49.086  24.362  33.327  1.00  0.00     0.173 A 
ATOM     98  F   UNL A   1      49.761  27.407  31.452  1.00  0.00    -0.203 F 
ATOM     99  C   UNL A   1      51.168  25.590  31.963  1.00  0.00     0.198 A 
ATOM    100  C   UNL A   1      50.335  23.752  33.265  1.00  0.00     0.198 A 
ATOM    101  F   UNL A   1      48.100  23.745  33.996  1.00  0.00    -0.203 F 
ATOM    102  F   UNL A   1      52.163  26.169  31.276  1.00  0.00    -0.200 F 
ATOM    103  C   UNL A   1      51.373  24.365  32.579  1.00  0.00     0.200 A 
ATOM    104  F   UNL A   1      50.536  22.577  33.877  1.00  0.00    -0.200 F 
ATOM    105  F   UNL A   1      52.573  23.770  32.508  1.00  0.00    -0.200 F 
ENDBRANCH  72  95
ENDBRANCH  46  47
ENDBRANCH  39  41
ENDBRANCH  38  39
ENDBRANCH  37  38
ENDBRANCH  36  37
ENDBRANCH  35  36
ENDBRANCH  34  35
ENDBRANCH  33  34
ENDBRANCH  32  33
ENDBRANCH   1  32
TORSDOF 24
ENDMDL
