MODEL 1
REMARK VINA RESULT:      -8.6      0.000      0.000
REMARK SMILES Nc1ccc(-c2cc(Cl)cc3c2O[C@H](C(F)(F)F)C(C(=O)OCCOCCOCCOCCOC(=O)c2ccc(-c4c5nc(c(-c6c(F)c(F)c(F)c(F)c6F)c6ccc([nH]6)c(-c6c(F)c(F)c(F)c(F)c6F)c6nc(c(-c7c(F)c(F)c(F)c(F)c7F)c7ccc4[nH]7)C=C6)C=C5)cc2)=C3)cc1
REMARK SMILES IDX 28 1 27 2 26 3 25 4 24 5 23 6 22 7 20 8 21 9 19 10 6 11 7 12
REMARK SMILES IDX 12 13 8 14 11 15 13 16 9 17 10 18 100 19 14 20 5 21 2 22
REMARK SMILES IDX 3 23 102 24 4 25 101 26 1 27 15 30 16 31 17 32 18 33 29 34
REMARK SMILES IDX 30 35 31 36 32 37 33 38 34 39 35 40 36 41 37 42 38 43 99 44
REMARK SMILES IDX 39 45 98 46 40 47 41 48 42 49 92 50 43 51 97 52 91 53 93 54
REMARK SMILES IDX 44 55 96 56 90 57 89 58 45 60 77 61 57 62 76 63 58 64 61 65
REMARK SMILES IDX 75 66 94 67 59 68 60 69 74 71 95 72 62 73 46 74 47 75 55 76
REMARK SMILES IDX 48 77 49 78 53 79 56 80 50 81 51 82 54 83 52 84 78 85 79 86
REMARK SMILES IDX 87 87 80 88 81 89 85 90 88 91 82 92 83 93 86 94 84 95 63 96
REMARK SMILES IDX 64 97 72 98 65 99 66 100 70 101 73 102 67 103 68 104 71 105
REMARK SMILES IDX 69 106
REMARK H PARENT 1 28 1 29 93 59 61 70
REMARK Flexibility Score: inf
ROOT
ATOM      1  O   UNL A   1      42.380  23.433  27.402  1.00  0.00    -0.377 OA
ENDROOT
BRANCH   1   2
ATOM      2  C   UNL A   1      41.062  22.954  27.621  1.00  0.00     0.188 C 
BRANCH   2   3
ATOM      3  C   UNL A   1      39.999  23.812  26.910  1.00  0.00     0.188 C 
BRANCH   3   4
ATOM      4  O   UNL A   1      39.193  24.557  27.821  1.00  0.00    -0.376 OA
BRANCH   4   5
ATOM      5  C   UNL A   1      39.461  25.947  27.955  1.00  0.00     0.202 C 
BRANCH   5   6
ATOM      6  C   UNL A   1      40.723  26.372  28.725  1.00  0.00     0.261 C 
BRANCH   6   7
ATOM      7  O   UNL A   1      40.550  27.456  29.648  1.00  0.00    -0.460 OA
BRANCH   7   8
ATOM      8  C   UNL A   1      40.652  28.711  29.173  1.00  0.00     0.338 C 
ATOM      9  O   UNL A   1      41.215  29.063  28.152  1.00  0.00    -0.246 OA
BRANCH   8  10
ATOM     10  C   UNL A   1      39.814  29.585  30.025  1.00  0.00     0.087 C 
ATOM     11  C   UNL A   1      37.314  31.933  32.445  1.00  0.00     0.026 A 
ATOM     12  C   UNL A   1      37.433  31.807  33.841  1.00  0.00     0.033 A 
ATOM     13  C   UNL A   1      38.218  31.206  31.635  1.00  0.00     0.135 A 
ATOM     14  C   UNL A   1      38.405  30.983  34.404  1.00  0.00     0.042 A 
ATOM     15  C   UNL A   1      39.150  30.328  32.204  1.00  0.00     0.019 A 
ATOM     16  O   UNL A   1      38.140  31.410  30.283  1.00  0.00    -0.475 OA
ATOM     17  Cl  UNL A   1      38.525  30.849  36.115  1.00  0.00    -0.084 Cl
ATOM     18  C   UNL A   1      39.258  30.238  33.594  1.00  0.00     0.032 A 
ATOM     19  C   UNL A   1      39.957  29.469  31.351  1.00  0.00     0.027 C 
ATOM     20  C   UNL A   1      38.921  30.605  29.368  1.00  0.00     0.316 C 
BRANCH  11  21
ATOM     21  C   UNL A   1      36.216  32.744  31.873  1.00  0.00    -0.014 A 
ATOM     22  C   UNL A   1      34.077  34.254  30.770  1.00  0.00     0.031 A 
ATOM     23  C   UNL A   1      34.409  33.007  30.247  1.00  0.00     0.026 A 
ATOM     24  C   UNL A   1      34.786  34.721  31.877  1.00  0.00     0.026 A 
ATOM     25  C   UNL A   1      35.464  32.265  30.788  1.00  0.00     0.011 A 
ATOM     26  C   UNL A   1      35.852  33.985  32.414  1.00  0.00     0.011 A 
BRANCH  22  27
ATOM     27  N   UNL A   1      32.981  34.948  30.285  1.00  0.00    -0.399 N 
ATOM     28  H   UNL A   1      33.111  35.793  29.797  1.00  0.00     0.156 HD
ATOM     29  H   UNL A   1      32.072  34.598  30.429  1.00  0.00     0.156 HD
ENDBRANCH  22  27
ENDBRANCH  11  21
BRANCH  20  30
ATOM     30  C   UNL A   1      37.954  29.977  28.356  1.00  0.00     0.430 C 
ATOM     31  F   UNL A   1      37.436  28.815  28.823  1.00  0.00    -0.167 F 
ATOM     32  F   UNL A   1      36.904  30.784  28.079  1.00  0.00    -0.167 F 
ATOM     33  F   UNL A   1      38.570  29.700  27.182  1.00  0.00    -0.167 F 
ENDBRANCH  20  30
ENDBRANCH   8  10
ENDBRANCH   7   8
ENDBRANCH   6   7
ENDBRANCH   5   6
ENDBRANCH   4   5
ENDBRANCH   3   4
ENDBRANCH   2   3
ENDBRANCH   1   2
BRANCH   1  34
ATOM     34  C   UNL A   1      43.213  23.594  28.550  1.00  0.00     0.188 C 
BRANCH  34  35
ATOM     35  C   UNL A   1      44.747  23.411  28.470  1.00  0.00     0.188 C 
BRANCH  35  36
ATOM     36  O   UNL A   1      45.323  23.906  27.263  1.00  0.00    -0.376 OA
BRANCH  36  37
ATOM     37  C   UNL A   1      45.667  22.946  26.273  1.00  0.00     0.202 C 
BRANCH  37  38
ATOM     38  C   UNL A   1      46.325  23.550  25.026  1.00  0.00     0.261 C 
BRANCH  38  39
ATOM     39  O   UNL A   1      45.810  24.830  24.630  1.00  0.00    -0.460 OA
BRANCH  39  40
ATOM     40  C   UNL A   1      46.658  25.881  24.646  1.00  0.00     0.338 C 
ATOM     41  O   UNL A   1      47.616  26.070  23.918  1.00  0.00    -0.246 OA
BRANCH  40  42
ATOM     42  C   UNL A   1      46.106  26.884  25.582  1.00  0.00     0.060 A 
ATOM     43  C   UNL A   1      44.730  27.124  25.629  1.00  0.00     0.016 A 
ATOM     44  C   UNL A   1      46.982  27.609  26.398  1.00  0.00     0.016 A 
ATOM     45  C   UNL A   1      44.227  28.061  26.531  1.00  0.00     0.010 A 
ATOM     46  C   UNL A   1      46.477  28.551  27.299  1.00  0.00     0.010 A 
ATOM     47  C   UNL A   1      45.093  28.757  27.393  1.00  0.00    -0.014 A 
BRANCH  47  48
ATOM     48  C   UNL A   1      44.523  29.518  28.529  1.00  0.00     0.031 A 
ATOM     49  C   UNL A   1      44.169  28.878  29.833  1.00  0.00     0.074 A 
ATOM     50  C   UNL A   1      44.334  30.840  28.349  1.00  0.00     0.049 A 
ATOM     51  N   UNL A   1      43.777  29.449  30.944  1.00  0.00    -0.248 NA
ATOM     52  C   UNL A   1      44.255  27.413  29.902  1.00  0.00     0.031 C 
ATOM     53  C   UNL A   1      44.606  31.558  27.103  1.00  0.00     0.029 A 
ATOM     54  N   UNL A   1      43.888  31.812  29.206  1.00  0.00    -0.354 N 
ATOM     55  C   UNL A   1      43.594  28.419  31.857  1.00  0.00     0.074 A 
ATOM     56  C   UNL A   1      43.868  27.183  31.153  1.00  0.00     0.031 C 
ATOM     57  C   UNL A   1      44.355  32.862  27.285  1.00  0.00     0.029 A 
ATOM     58  C   UNL A   1      43.887  33.067  28.652  1.00  0.00     0.049 A 
ATOM     59  H   UNL A   1      43.597  31.628  30.128  1.00  0.00     0.167 HD
ATOM     60  C   UNL A   1      43.248  28.512  33.164  1.00  0.00     0.037 A 
ATOM     61  C   UNL A   1      43.559  34.258  29.188  1.00  0.00     0.037 A 
ATOM     62  C   UNL A   1      42.961  29.750  33.846  1.00  0.00     0.049 A 
ATOM     63  C   UNL A   1      43.147  34.325  30.629  1.00  0.00     0.074 A 
ATOM     64  C   UNL A   1      42.651  29.946  35.182  1.00  0.00     0.029 A 
ATOM     65  N   UNL A   1      42.931  31.001  33.246  1.00  0.00    -0.354 N 
ATOM     66  N   UNL A   1      43.070  33.358  31.509  1.00  0.00    -0.248 NA
ATOM     67  C   UNL A   1      42.783  35.648  31.155  1.00  0.00     0.031 C 
ATOM     68  C   UNL A   1      42.380  31.304  35.377  1.00  0.00     0.029 A 
ATOM     69  C   UNL A   1      42.574  31.966  34.176  1.00  0.00     0.049 A 
ATOM     70  H   UNL A   1      43.133  31.178  32.299  1.00  0.00     0.167 HD
ATOM     71  C   UNL A   1      42.671  33.955  32.697  1.00  0.00     0.074 A 
ATOM     72  C   UNL A   1      42.537  35.371  32.428  1.00  0.00     0.031 C 
ATOM     73  C   UNL A   1      42.440  33.375  33.899  1.00  0.00     0.037 A 
BRANCH  60  74
ATOM     74  C   UNL A   1      43.175  27.244  33.966  1.00  0.00     0.064 A 
ATOM     75  C   UNL A   1      44.338  26.610  34.429  1.00  0.00     0.173 A 
ATOM     76  C   UNL A   1      41.937  26.718  34.365  1.00  0.00     0.173 A 
ATOM     77  F   UNL A   1      45.546  27.074  34.077  1.00  0.00    -0.203 F 
ATOM     78  C   UNL A   1      44.262  25.489  35.252  1.00  0.00     0.198 A 
ATOM     79  C   UNL A   1      41.866  25.612  35.209  1.00  0.00     0.198 A 
ATOM     80  F   UNL A   1      40.795  27.294  33.962  1.00  0.00    -0.203 F 
ATOM     81  F   UNL A   1      45.387  24.888  35.666  1.00  0.00    -0.200 F 
ATOM     82  C   UNL A   1      43.029  24.998  35.650  1.00  0.00     0.200 A 
ATOM     83  F   UNL A   1      40.673  25.151  35.607  1.00  0.00    -0.200 F 
ATOM     84  F   UNL A   1      42.959  23.933  36.461  1.00  0.00    -0.200 F 
ENDBRANCH  60  74
BRANCH  61  85
ATOM     85  C   UNL A   1      43.672  35.483  28.357  1.00  0.00     0.064 A 
ATOM     86  C   UNL A   1      42.533  36.072  27.794  1.00  0.00     0.173 A 
ATOM     87  C   UNL A   1      44.908  36.116  28.155  1.00  0.00     0.173 A 
ATOM     88  F   UNL A   1      41.333  35.496  27.952  1.00  0.00    -0.203 F 
ATOM     89  C   UNL A   1      42.627  37.248  27.052  1.00  0.00     0.198 A 
ATOM     90  C   UNL A   1      44.995  37.305  27.435  1.00  0.00     0.198 A 
ATOM     91  F   UNL A   1      46.024  35.594  28.684  1.00  0.00    -0.203 F 
ATOM     92  F   UNL A   1      41.527  37.778  26.502  1.00  0.00    -0.200 F 
ATOM     93  C   UNL A   1      43.856  37.867  26.881  1.00  0.00     0.200 A 
ATOM     94  F   UNL A   1      46.181  37.910  27.288  1.00  0.00    -0.200 F 
ATOM     95  F   UNL A   1      43.941  39.007  26.182  1.00  0.00    -0.200 F 
ENDBRANCH  61  85
BRANCH  73  96
ATOM     96  C   UNL A   1      42.020  34.269  35.031  1.00  0.00     0.064 A 
ATOM     97  C   UNL A   1      42.965  34.913  35.843  1.00  0.00     0.173 A 
ATOM     98  C   UNL A   1      40.663  34.540  35.259  1.00  0.00     0.173 A 
ATOM     99  F   UNL A   1      44.274  34.673  35.675  1.00  0.00    -0.203 F 
ATOM    100  C   UNL A   1      42.565  35.789  36.847  1.00  0.00     0.198 A 
ATOM    101  C   UNL A   1      40.268  35.440  36.246  1.00  0.00     0.198 A 
ATOM    102  F   UNL A   1      39.720  33.953  34.507  1.00  0.00    -0.203 F 
ATOM    103  F   UNL A   1      43.484  36.370  37.632  1.00  0.00    -0.200 F 
ATOM    104  C   UNL A   1      41.219  36.061  37.041  1.00  0.00     0.200 A 
ATOM    105  F   UNL A   1      38.968  35.711  36.422  1.00  0.00    -0.200 F 
ATOM    106  F   UNL A   1      40.838  36.920  37.996  1.00  0.00    -0.200 F 
ENDBRANCH  73  96
ENDBRANCH  47  48
ENDBRANCH  40  42
ENDBRANCH  39  40
ENDBRANCH  38  39
ENDBRANCH  37  38
ENDBRANCH  36  37
ENDBRANCH  35  36
ENDBRANCH  34  35
ENDBRANCH   1  34
TORSDOF 23
ENDMDL
MODEL 2
REMARK VINA RESULT:      -8.4      1.058      2.139
REMARK SMILES Nc1ccc(-c2cc(Cl)cc3c2O[C@H](C(F)(F)F)C(C(=O)OCCOCCOCCOCCOC(=O)c2ccc(-c4c5nc(c(-c6c(F)c(F)c(F)c(F)c6F)c6ccc([nH]6)c(-c6c(F)c(F)c(F)c(F)c6F)c6nc(c(-c7c(F)c(F)c(F)c(F)c7F)c7ccc4[nH]7)C=C6)C=C5)cc2)=C3)cc1
REMARK SMILES IDX 28 1 27 2 26 3 25 4 24 5 23 6 22 7 20 8 21 9 19 10 6 11 7 12
REMARK SMILES IDX 12 13 8 14 11 15 13 16 9 17 10 18 100 19 14 20 5 21 2 22
REMARK SMILES IDX 3 23 102 24 4 25 101 26 1 27 15 30 16 31 17 32 18 33 29 34
REMARK SMILES IDX 30 35 31 36 32 37 33 38 34 39 35 40 36 41 37 42 38 43 99 44
REMARK SMILES IDX 39 45 98 46 40 47 41 48 42 49 92 50 43 51 97 52 91 53 93 54
REMARK SMILES IDX 44 55 96 56 90 57 89 58 45 60 77 61 57 62 76 63 58 64 61 65
REMARK SMILES IDX 75 66 94 67 59 68 60 69 74 71 95 72 62 73 46 74 47 75 55 76
REMARK SMILES IDX 48 77 49 78 53 79 56 80 50 81 51 82 54 83 52 84 78 85 79 86
REMARK SMILES IDX 87 87 80 88 81 89 85 90 88 91 82 92 83 93 86 94 84 95 63 96
REMARK SMILES IDX 64 97 72 98 65 99 66 100 70 101 73 102 67 103 68 104 71 105
REMARK SMILES IDX 69 106
REMARK H PARENT 1 28 1 29 93 59 61 70
REMARK Flexibility Score: inf
ROOT
ATOM      1  O   UNL A   1      42.751  25.086  27.570  1.00  0.00    -0.377 OA
ENDROOT
BRANCH   1   2
ATOM      2  C   UNL A   1      41.372  25.425  27.597  1.00  0.00     0.188 C 
BRANCH   2   3
ATOM      3  C   UNL A   1      41.063  26.557  28.593  1.00  0.00     0.188 C 
BRANCH   3   4
ATOM      4  O   UNL A   1      39.664  26.765  28.774  1.00  0.00    -0.376 OA
BRANCH   4   5
ATOM      5  C   UNL A   1      39.254  27.597  29.852  1.00  0.00     0.202 C 
BRANCH   5   6
ATOM      6  C   UNL A   1      40.340  28.184  30.770  1.00  0.00     0.261 C 
BRANCH   6   7
ATOM      7  O   UNL A   1      39.907  29.228  31.654  1.00  0.00    -0.460 OA
BRANCH   7   8
ATOM      8  C   UNL A   1      40.285  30.489  31.374  1.00  0.00     0.338 C 
ATOM      9  O   UNL A   1      41.182  30.834  30.627  1.00  0.00    -0.246 OA
BRANCH   8  10
ATOM     10  C   UNL A   1      39.308  31.403  32.008  1.00  0.00     0.087 C 
ATOM     11  C   UNL A   1      36.419  33.861  33.805  1.00  0.00     0.026 A 
ATOM     12  C   UNL A   1      36.346  33.882  35.210  1.00  0.00     0.033 A 
ATOM     13  C   UNL A   1      37.451  33.100  33.206  1.00  0.00     0.135 A 
ATOM     14  C   UNL A   1      37.256  33.164  35.983  1.00  0.00     0.042 A 
ATOM     15  C   UNL A   1      38.322  32.328  33.986  1.00  0.00     0.019 A 
ATOM     16  O   UNL A   1      37.556  33.165  31.843  1.00  0.00    -0.475 OA
ATOM     17  Cl  UNL A   1      37.139  33.207  37.699  1.00  0.00    -0.084 Cl
ATOM     18  C   UNL A   1      38.237  32.382  35.380  1.00  0.00     0.032 A 
ATOM     19  C   UNL A   1      39.268  31.427  33.346  1.00  0.00     0.027 C 
ATOM     20  C   UNL A   1      38.483  32.309  31.132  1.00  0.00     0.316 C 
BRANCH  11  21
ATOM     21  C   UNL A   1      35.387  34.559  33.007  1.00  0.00    -0.014 A 
ATOM     22  C   UNL A   1      33.430  35.950  31.487  1.00  0.00     0.031 A 
ATOM     23  C   UNL A   1      33.849  36.438  32.722  1.00  0.00     0.026 A 
ATOM     24  C   UNL A   1      34.028  34.790  30.993  1.00  0.00     0.026 A 
ATOM     25  C   UNL A   1      34.810  35.752  33.471  1.00  0.00     0.011 A 
ATOM     26  C   UNL A   1      34.983  34.094  31.748  1.00  0.00     0.011 A 
BRANCH  22  27
ATOM     27  N   UNL A   1      32.539  36.674  30.712  1.00  0.00    -0.399 N 
ATOM     28  H   UNL A   1      31.595  36.743  30.983  1.00  0.00     0.156 HD
ATOM     29  H   UNL A   1      32.849  37.119  29.890  1.00  0.00     0.156 HD
ENDBRANCH  22  27
ENDBRANCH  11  21
BRANCH  20  30
ATOM     30  C   UNL A   1      37.688  31.539  30.070  1.00  0.00     0.430 C 
ATOM     31  F   UNL A   1      36.597  32.235  29.669  1.00  0.00    -0.167 F 
ATOM     32  F   UNL A   1      38.419  31.294  28.958  1.00  0.00    -0.167 F 
ATOM     33  F   UNL A   1      37.254  30.345  30.539  1.00  0.00    -0.167 F 
ENDBRANCH  20  30
ENDBRANCH   8  10
ENDBRANCH   7   8
ENDBRANCH   6   7
ENDBRANCH   5   6
ENDBRANCH   4   5
ENDBRANCH   3   4
ENDBRANCH   2   3
ENDBRANCH   1   2
BRANCH   1  34
ATOM     34  C   UNL A   1      43.178  24.026  28.426  1.00  0.00     0.188 C 
BRANCH  34  35
ATOM     35  C   UNL A   1      44.327  23.073  28.023  1.00  0.00     0.188 C 
BRANCH  35  36
ATOM     36  O   UNL A   1      45.223  23.626  27.062  1.00  0.00    -0.376 OA
BRANCH  36  37
ATOM     37  C   UNL A   1      45.606  22.787  25.981  1.00  0.00     0.202 C 
BRANCH  37  38
ATOM     38  C   UNL A   1      46.088  23.553  24.743  1.00  0.00     0.261 C 
BRANCH  38  39
ATOM     39  O   UNL A   1      45.621  24.908  24.648  1.00  0.00    -0.460 OA
BRANCH  39  40
ATOM     40  C   UNL A   1      46.540  25.895  24.702  1.00  0.00     0.338 C 
ATOM     41  O   UNL A   1      47.525  26.028  23.997  1.00  0.00    -0.246 OA
BRANCH  40  42
ATOM     42  C   UNL A   1      46.040  26.918  25.644  1.00  0.00     0.060 A 
ATOM     43  C   UNL A   1      44.680  27.238  25.683  1.00  0.00     0.016 A 
ATOM     44  C   UNL A   1      46.950  27.583  26.475  1.00  0.00     0.016 A 
ATOM     45  C   UNL A   1      44.224  28.193  26.592  1.00  0.00     0.010 A 
ATOM     46  C   UNL A   1      46.493  28.543  27.381  1.00  0.00     0.010 A 
ATOM     47  C   UNL A   1      45.122  28.829  27.468  1.00  0.00    -0.014 A 
BRANCH  47  48
ATOM     48  C   UNL A   1      44.588  29.610  28.608  1.00  0.00     0.031 A 
ATOM     49  C   UNL A   1      44.245  28.986  29.923  1.00  0.00     0.074 A 
ATOM     50  C   UNL A   1      44.422  30.933  28.421  1.00  0.00     0.049 A 
ATOM     51  N   UNL A   1      43.885  29.573  31.037  1.00  0.00    -0.248 NA
ATOM     52  C   UNL A   1      44.303  27.521  30.002  1.00  0.00     0.031 C 
ATOM     53  C   UNL A   1      44.686  31.636  27.164  1.00  0.00     0.029 A 
ATOM     54  N   UNL A   1      44.011  31.920  29.277  1.00  0.00    -0.354 N 
ATOM     55  C   UNL A   1      43.698  28.555  31.960  1.00  0.00     0.074 A 
ATOM     56  C   UNL A   1      43.935  27.307  31.262  1.00  0.00     0.031 C 
ATOM     57  C   UNL A   1      44.464  32.947  27.340  1.00  0.00     0.029 A 
ATOM     58  C   UNL A   1      44.025  33.171  28.714  1.00  0.00     0.049 A 
ATOM     59  H   UNL A   1      43.734  31.749  30.206  1.00  0.00     0.167 HD
ATOM     60  C   UNL A   1      43.378  28.665  33.273  1.00  0.00     0.037 A 
ATOM     61  C   UNL A   1      43.731  34.372  29.246  1.00  0.00     0.037 A 
ATOM     62  C   UNL A   1      43.128  29.913  33.951  1.00  0.00     0.049 A 
ATOM     63  C   UNL A   1      43.346  34.459  30.694  1.00  0.00     0.074 A 
ATOM     64  C   UNL A   1      42.846  30.126  35.289  1.00  0.00     0.029 A 
ATOM     65  N   UNL A   1      43.112  31.160  33.340  1.00  0.00    -0.354 N 
ATOM     66  N   UNL A   1      43.266  33.500  31.583  1.00  0.00    -0.248 NA
ATOM     67  C   UNL A   1      43.018  35.793  31.215  1.00  0.00     0.031 C 
ATOM     68  C   UNL A   1      42.606  31.490  35.479  1.00  0.00     0.029 A 
ATOM     69  C   UNL A   1      42.791  32.139  34.270  1.00  0.00     0.049 A 
ATOM     70  H   UNL A   1      43.300  31.325  32.389  1.00  0.00     0.167 HD
ATOM     71  C   UNL A   1      42.901  34.114  32.773  1.00  0.00     0.074 A 
ATOM     72  C   UNL A   1      42.789  35.531  32.495  1.00  0.00     0.031 C 
ATOM     73  C   UNL A   1      42.680  33.548  33.984  1.00  0.00     0.037 A 
BRANCH  60  74
ATOM     74  C   UNL A   1      43.295  27.404  34.086  1.00  0.00     0.064 A 
ATOM     75  C   UNL A   1      42.055  26.848  34.438  1.00  0.00     0.173 A 
ATOM     76  C   UNL A   1      44.454  26.691  34.426  1.00  0.00     0.173 A 
ATOM     77  F   UNL A   1      40.918  27.491  34.135  1.00  0.00    -0.203 F 
ATOM     78  C   UNL A   1      41.982  25.630  35.108  1.00  0.00     0.198 A 
ATOM     79  C   UNL A   1      44.376  25.460  35.074  1.00  0.00     0.198 A 
ATOM     80  F   UNL A   1      45.664  27.171  34.101  1.00  0.00    -0.203 F 
ATOM     81  F   UNL A   1      40.787  25.128  35.452  1.00  0.00    -0.200 F 
ATOM     82  C   UNL A   1      43.140  24.933  35.417  1.00  0.00     0.200 A 
ATOM     83  F   UNL A   1      45.495  24.779  35.354  1.00  0.00    -0.200 F 
ATOM     84  F   UNL A   1      43.065  23.750  36.043  1.00  0.00    -0.200 F 
ENDBRANCH  60  74
BRANCH  61  85
ATOM     85  C   UNL A   1      43.852  35.588  28.404  1.00  0.00     0.064 A 
ATOM     86  C   UNL A   1      42.720  36.174  27.824  1.00  0.00     0.173 A 
ATOM     87  C   UNL A   1      45.091  36.218  28.205  1.00  0.00     0.173 A 
ATOM     88  F   UNL A   1      41.517  35.601  27.978  1.00  0.00    -0.203 F 
ATOM     89  C   UNL A   1      42.821  37.341  27.071  1.00  0.00     0.198 A 
ATOM     90  C   UNL A   1      45.187  37.399  27.474  1.00  0.00     0.198 A 
ATOM     91  F   UNL A   1      46.201  35.700  28.750  1.00  0.00    -0.203 F 
ATOM     92  F   UNL A   1      41.727  37.868  26.506  1.00  0.00    -0.200 F 
ATOM     93  C   UNL A   1      44.053  37.957  26.904  1.00  0.00     0.200 A 
ATOM     94  F   UNL A   1      46.375  38.001  27.331  1.00  0.00    -0.200 F 
ATOM     95  F   UNL A   1      44.146  39.089  26.194  1.00  0.00    -0.200 F 
ENDBRANCH  61  85
BRANCH  73  96
ATOM     96  C   UNL A   1      42.299  34.459  35.116  1.00  0.00     0.064 A 
ATOM     97  C   UNL A   1      40.999  34.971  35.237  1.00  0.00     0.173 A 
ATOM     98  C   UNL A   1      43.223  34.763  36.127  1.00  0.00     0.173 A 
ATOM     99  F   UNL A   1      40.085  34.722  34.287  1.00  0.00    -0.203 F 
ATOM    100  C   UNL A   1      40.641  35.762  36.325  1.00  0.00     0.198 A 
ATOM    101  C   UNL A   1      42.853  35.531  37.228  1.00  0.00     0.198 A 
ATOM    102  F   UNL A   1      44.478  34.295  36.059  1.00  0.00    -0.203 F 
ATOM    103  F   UNL A   1      39.402  36.266  36.405  1.00  0.00    -0.200 F 
ATOM    104  C   UNL A   1      41.564  36.032  37.324  1.00  0.00     0.200 A 
ATOM    105  F   UNL A   1      43.742  35.779  38.199  1.00  0.00    -0.200 F 
ATOM    106  F   UNL A   1      41.211  36.777  38.380  1.00  0.00    -0.200 F 
ENDBRANCH  73  96
ENDBRANCH  47  48
ENDBRANCH  40  42
ENDBRANCH  39  40
ENDBRANCH  38  39
ENDBRANCH  37  38
ENDBRANCH  36  37
ENDBRANCH  35  36
ENDBRANCH  34  35
ENDBRANCH   1  34
TORSDOF 23
ENDMDL
MODEL 3
REMARK VINA RESULT:      -8.3      5.293      8.988
REMARK SMILES Nc1ccc(-c2cc(Cl)cc3c2O[C@H](C(F)(F)F)C(C(=O)OCCOCCOCCOCCOC(=O)c2ccc(-c4c5nc(c(-c6c(F)c(F)c(F)c(F)c6F)c6ccc([nH]6)c(-c6c(F)c(F)c(F)c(F)c6F)c6nc(c(-c7c(F)c(F)c(F)c(F)c7F)c7ccc4[nH]7)C=C6)C=C5)cc2)=C3)cc1
REMARK SMILES IDX 28 1 27 2 26 3 25 4 24 5 23 6 22 7 20 8 21 9 19 10 6 11 7 12
REMARK SMILES IDX 12 13 8 14 11 15 13 16 9 17 10 18 100 19 14 20 5 21 2 22
REMARK SMILES IDX 3 23 102 24 4 25 101 26 1 27 15 30 16 31 17 32 18 33 29 34
REMARK SMILES IDX 30 35 31 36 32 37 33 38 34 39 35 40 36 41 37 42 38 43 99 44
REMARK SMILES IDX 39 45 98 46 40 47 41 48 42 49 92 50 43 51 97 52 91 53 93 54
REMARK SMILES IDX 44 55 96 56 90 57 89 58 45 60 77 61 57 62 76 63 58 64 61 65
REMARK SMILES IDX 75 66 94 67 59 68 60 69 74 71 95 72 62 73 46 74 47 75 55 76
REMARK SMILES IDX 48 77 49 78 53 79 56 80 50 81 51 82 54 83 52 84 78 85 79 86
REMARK SMILES IDX 87 87 80 88 81 89 85 90 88 91 82 92 83 93 86 94 84 95 63 96
REMARK SMILES IDX 64 97 72 98 65 99 66 100 70 101 73 102 67 103 68 104 71 105
REMARK SMILES IDX 69 106
REMARK H PARENT 1 28 1 29 93 59 61 70
REMARK Flexibility Score: inf
ROOT
ATOM      1  O   UNL A   1      38.473  21.711  25.898  1.00  0.00    -0.377 OA
ENDROOT
BRANCH   1   2
ATOM      2  C   UNL A   1      37.326  22.282  25.286  1.00  0.00     0.188 C 
BRANCH   2   3
ATOM      3  C   UNL A   1      36.328  21.216  24.797  1.00  0.00     0.188 C 
BRANCH   3   4
ATOM      4  O   UNL A   1      35.078  21.276  25.480  1.00  0.00    -0.376 OA
BRANCH   4   5
ATOM      5  C   UNL A   1      34.013  20.477  24.981  1.00  0.00     0.202 C 
BRANCH   5   6
ATOM      6  C   UNL A   1      32.576  21.004  25.137  1.00  0.00     0.261 C 
BRANCH   6   7
ATOM      7  O   UNL A   1      32.437  22.432  25.144  1.00  0.00    -0.460 OA
BRANCH   7   8
ATOM      8  C   UNL A   1      32.359  23.064  23.958  1.00  0.00     0.338 C 
ATOM      9  O   UNL A   1      32.355  22.550  22.854  1.00  0.00    -0.246 OA
BRANCH   8  10
ATOM     10  C   UNL A   1      32.110  24.499  24.228  1.00  0.00     0.087 C 
ATOM     11  C   UNL A   1      31.540  28.605  24.881  1.00  0.00     0.026 A 
ATOM     12  C   UNL A   1      30.674  29.301  24.019  1.00  0.00     0.033 A 
ATOM     13  C   UNL A   1      31.661  27.206  24.712  1.00  0.00     0.135 A 
ATOM     14  C   UNL A   1      29.967  28.630  23.022  1.00  0.00     0.042 A 
ATOM     15  C   UNL A   1      31.000  26.547  23.668  1.00  0.00     0.019 A 
ATOM     16  O   UNL A   1      32.441  26.538  25.617  1.00  0.00    -0.475 OA
ATOM     17  Cl  UNL A   1      28.917  29.509  21.980  1.00  0.00    -0.084 Cl
ATOM     18  C   UNL A   1      30.131  27.260  22.837  1.00  0.00     0.032 A 
ATOM     19  C   UNL A   1      31.265  25.139  23.410  1.00  0.00     0.027 C 
ATOM     20  C   UNL A   1      32.742  25.133  25.439  1.00  0.00     0.316 C 
BRANCH  11  21
ATOM     21  C   UNL A   1      32.345  29.354  25.871  1.00  0.00    -0.014 A 
ATOM     22  C   UNL A   1      33.939  30.785  27.740  1.00  0.00     0.031 A 
ATOM     23  C   UNL A   1      34.413  29.616  27.149  1.00  0.00     0.026 A 
ATOM     24  C   UNL A   1      32.684  31.261  27.357  1.00  0.00     0.026 A 
ATOM     25  C   UNL A   1      33.628  28.911  26.232  1.00  0.00     0.011 A 
ATOM     26  C   UNL A   1      31.890  30.549  26.446  1.00  0.00     0.011 A 
BRANCH  22  27
ATOM     27  N   UNL A   1      34.750  31.523  28.585  1.00  0.00    -0.399 N 
ATOM     28  H   UNL A   1      35.460  31.076  29.101  1.00  0.00     0.156 HD
ATOM     29  H   UNL A   1      34.618  32.495  28.670  1.00  0.00     0.156 HD
ENDBRANCH  22  27
ENDBRANCH  11  21
BRANCH  20  30
ATOM     30  C   UNL A   1      34.268  24.975  25.460  1.00  0.00     0.430 C 
ATOM     31  F   UNL A   1      34.754  24.717  24.221  1.00  0.00    -0.167 F 
ATOM     32  F   UNL A   1      34.894  26.092  25.895  1.00  0.00    -0.167 F 
ATOM     33  F   UNL A   1      34.653  23.956  26.264  1.00  0.00    -0.167 F 
ENDBRANCH  20  30
ENDBRANCH   8  10
ENDBRANCH   7   8
ENDBRANCH   6   7
ENDBRANCH   5   6
ENDBRANCH   4   5
ENDBRANCH   3   4
ENDBRANCH   2   3
ENDBRANCH   1   2
BRANCH   1  34
ATOM     34  C   UNL A   1      38.959  20.485  25.352  1.00  0.00     0.188 C 
BRANCH  34  35
ATOM     35  C   UNL A   1      39.965  19.598  26.122  1.00  0.00     0.188 C 
BRANCH  35  36
ATOM     36  O   UNL A   1      41.125  19.255  25.366  1.00  0.00    -0.376 OA
BRANCH  36  37
ATOM     37  C   UNL A   1      42.379  19.365  26.025  1.00  0.00     0.202 C 
BRANCH  37  38
ATOM     38  C   UNL A   1      43.459  18.432  25.464  1.00  0.00     0.261 C 
BRANCH  38  39
ATOM     39  O   UNL A   1      44.724  19.058  25.204  1.00  0.00    -0.460 OA
BRANCH  39  40
ATOM     40  C   UNL A   1      44.781  19.970  24.210  1.00  0.00     0.338 C 
ATOM     41  O   UNL A   1      44.681  19.768  23.013  1.00  0.00    -0.246 OA
BRANCH  40  42
ATOM     42  C   UNL A   1      44.786  21.309  24.836  1.00  0.00     0.060 A 
ATOM     43  C   UNL A   1      45.183  21.467  26.166  1.00  0.00     0.016 A 
ATOM     44  C   UNL A   1      44.359  22.413  24.087  1.00  0.00     0.016 A 
ATOM     45  C   UNL A   1      45.198  22.741  26.733  1.00  0.00     0.010 A 
ATOM     46  C   UNL A   1      44.370  23.688  24.657  1.00  0.00     0.010 A 
ATOM     47  C   UNL A   1      44.822  23.863  25.974  1.00  0.00    -0.014 A 
BRANCH  47  48
ATOM     48  C   UNL A   1      45.122  25.219  26.491  1.00  0.00     0.031 A 
ATOM     49  C   UNL A   1      46.485  25.827  26.419  1.00  0.00     0.074 A 
ATOM     50  C   UNL A   1      44.100  25.907  27.037  1.00  0.00     0.049 A 
ATOM     51  N   UNL A   1      46.854  27.046  26.724  1.00  0.00    -0.248 NA
ATOM     52  C   UNL A   1      47.578  24.962  25.956  1.00  0.00     0.031 C 
ATOM     53  C   UNL A   1      42.739  25.392  27.195  1.00  0.00     0.029 A 
ATOM     54  N   UNL A   1      44.038  27.179  27.542  1.00  0.00    -0.354 N 
ATOM     55  C   UNL A   1      48.216  27.107  26.466  1.00  0.00     0.074 A 
ATOM     56  C   UNL A   1      48.619  25.786  26.027  1.00  0.00     0.031 C 
ATOM     57  C   UNL A   1      41.967  26.349  27.727  1.00  0.00     0.029 A 
ATOM     58  C   UNL A   1      42.782  27.536  27.965  1.00  0.00     0.049 A 
ATOM     59  H   UNL A   1      44.817  27.778  27.598  1.00  0.00     0.167 HD
ATOM     60  C   UNL A   1      49.039  28.179  26.570  1.00  0.00     0.037 A 
ATOM     61  C   UNL A   1      42.329  28.697  28.474  1.00  0.00     0.037 A 
ATOM     62  C   UNL A   1      48.627  29.484  27.025  1.00  0.00     0.049 A 
ATOM     63  C   UNL A   1      43.273  29.856  28.609  1.00  0.00     0.074 A 
ATOM     64  C   UNL A   1      49.380  30.643  27.116  1.00  0.00     0.029 A 
ATOM     65  N   UNL A   1      47.356  29.802  27.482  1.00  0.00    -0.354 N 
ATOM     66  N   UNL A   1      44.536  29.933  28.272  1.00  0.00    -0.248 NA
ATOM     67  C   UNL A   1      42.728  31.092  29.187  1.00  0.00     0.031 C 
ATOM     68  C   UNL A   1      48.583  31.645  27.677  1.00  0.00     0.029 A 
ATOM     69  C   UNL A   1      47.315  31.129  27.887  1.00  0.00     0.049 A 
ATOM     70  H   UNL A   1      46.595  29.179  27.514  1.00  0.00     0.167 HD
ATOM     71  C   UNL A   1      44.934  31.227  28.575  1.00  0.00     0.074 A 
ATOM     72  C   UNL A   1      43.772  31.906  29.111  1.00  0.00     0.031 C 
ATOM     73  C   UNL A   1      46.154  31.796  28.422  1.00  0.00     0.037 A 
BRANCH  60  74
ATOM     74  C   UNL A   1      50.477  28.006  26.168  1.00  0.00     0.064 A 
ATOM     75  C   UNL A   1      50.870  28.092  24.824  1.00  0.00     0.173 A 
ATOM     76  C   UNL A   1      51.480  27.860  27.138  1.00  0.00     0.173 A 
ATOM     77  F   UNL A   1      49.950  28.232  23.859  1.00  0.00    -0.203 F 
ATOM     78  C   UNL A   1      52.215  28.026  24.467  1.00  0.00     0.198 A 
ATOM     79  C   UNL A   1      52.825  27.821  26.778  1.00  0.00     0.198 A 
ATOM     80  F   UNL A   1      51.159  27.787  28.439  1.00  0.00    -0.203 F 
ATOM     81  F   UNL A   1      52.565  28.090  23.175  1.00  0.00    -0.200 F 
ATOM     82  C   UNL A   1      53.191  27.902  25.443  1.00  0.00     0.200 A 
ATOM     83  F   UNL A   1      53.768  27.719  27.725  1.00  0.00    -0.200 F 
ATOM     84  F   UNL A   1      54.485  27.861  25.098  1.00  0.00    -0.200 F 
ENDBRANCH  60  74
BRANCH  61  85
ATOM     85  C   UNL A   1      40.895  28.822  28.832  1.00  0.00     0.064 A 
ATOM     86  C   UNL A   1      39.942  29.164  27.864  1.00  0.00     0.173 A 
ATOM     87  C   UNL A   1      40.441  28.550  30.132  1.00  0.00     0.173 A 
ATOM     88  F   UNL A   1      40.331  29.443  26.611  1.00  0.00    -0.203 F 
ATOM     89  C   UNL A   1      38.588  29.237  28.184  1.00  0.00     0.198 A 
ATOM     90  C   UNL A   1      39.085  28.598  30.443  1.00  0.00     0.198 A 
ATOM     91  F   UNL A   1      41.315  28.208  31.089  1.00  0.00    -0.203 F 
ATOM     92  F   UNL A   1      37.700  29.592  27.246  1.00  0.00    -0.200 F 
ATOM     93  C   UNL A   1      38.160  28.946  29.470  1.00  0.00     0.200 A 
ATOM     94  F   UNL A   1      38.673  28.297  31.682  1.00  0.00    -0.200 F 
ATOM     95  F   UNL A   1      36.856  28.999  29.772  1.00  0.00    -0.200 F 
ENDBRANCH  61  85
BRANCH  73  96
ATOM     96  C   UNL A   1      46.305  33.233  28.830  1.00  0.00     0.064 A 
ATOM     97  C   UNL A   1      46.007  34.280  27.947  1.00  0.00     0.173 A 
ATOM     98  C   UNL A   1      46.682  33.566  30.141  1.00  0.00     0.173 A 
ATOM     99  F   UNL A   1      45.659  34.014  26.679  1.00  0.00    -0.203 F 
ATOM    100  C   UNL A   1      46.090  35.608  28.357  1.00  0.00     0.198 A 
ATOM    101  C   UNL A   1      46.736  34.894  30.555  1.00  0.00     0.198 A 
ATOM    102  F   UNL A   1      46.974  32.601  31.026  1.00  0.00    -0.203 F 
ATOM    103  F   UNL A   1      45.831  36.593  27.486  1.00  0.00    -0.200 F 
ATOM    104  C   UNL A   1      46.443  35.913  29.663  1.00  0.00     0.200 A 
ATOM    105  F   UNL A   1      47.064  35.186  31.821  1.00  0.00    -0.200 F 
ATOM    106  F   UNL A   1      46.503  37.191  30.060  1.00  0.00    -0.200 F 
ENDBRANCH  73  96
ENDBRANCH  47  48
ENDBRANCH  40  42
ENDBRANCH  39  40
ENDBRANCH  38  39
ENDBRANCH  37  38
ENDBRANCH  36  37
ENDBRANCH  35  36
ENDBRANCH  34  35
ENDBRANCH   1  34
TORSDOF 23
ENDMDL
