MODEL 1
REMARK VINA RESULT:     -10.4      0.000      0.000
REMARK SMILES Cc1ccc2c(c1)C=C(C(=O)OCCOCCOCCOCCOC(=O)c1ccc(-c3c4nc(c(-c5c(F)c(F)c(F)c(F)c5F)c5ccc([nH]5)c(-c5c(F)c(F)c(F)c(F)c5F)c5nc(c(-c6c(F)c(F)c(F)c(F)c6F)c6ccc3[nH]6)C=C5)C=C4)cc1)[C@@H](C(F)(F)F)O2
REMARK SMILES IDX 19 1 18 2 17 3 16 4 15 5 14 6 13 7 12 8 10 9 11 10 9 11 1 12
REMARK SMILES IDX 2 13 3 14 7 15 4 16 6 17 5 18 8 19 95 20 90 21 91 22 92 23
REMARK SMILES IDX 93 24 94 25 20 26 21 27 22 28 23 29 24 30 25 31 26 32 27 33
REMARK SMILES IDX 28 34 89 35 29 36 88 37 30 38 31 39 32 40 82 41 33 42 87 43
REMARK SMILES IDX 81 44 83 45 34 46 86 47 80 48 79 49 35 51 67 52 47 53 66 54
REMARK SMILES IDX 48 55 51 56 65 57 84 58 49 59 50 60 64 62 85 63 52 64 36 65
REMARK SMILES IDX 37 66 45 67 38 68 39 69 43 70 46 71 40 72 41 73 44 74 42 75
REMARK SMILES IDX 68 76 69 77 77 78 70 79 71 80 75 81 78 82 72 83 73 84 76 85
REMARK SMILES IDX 74 86 53 87 54 88 62 89 55 90 56 91 60 92 63 93 57 94 58 95
REMARK SMILES IDX 61 96 59 97
REMARK H PARENT 83 50 51 61
REMARK Flexibility Score: inf
ROOT
ATOM      1  C   UNL A   1      43.257  19.954  25.691  1.00  0.00     0.188 C 
ENDROOT
BRANCH   1   2
ATOM      2  O   UNL A   1      42.012  19.338  25.359  1.00  0.00    -0.377 OA
BRANCH   2   3
ATOM      3  C   UNL A   1      40.896  19.621  26.188  1.00  0.00     0.188 C 
BRANCH   3   4
ATOM      4  C   UNL A   1      40.838  21.090  26.641  1.00  0.00     0.188 C 
BRANCH   4   5
ATOM      5  O   UNL A   1      39.553  21.682  26.454  1.00  0.00    -0.376 OA
BRANCH   5   6
ATOM      6  C   UNL A   1      39.505  23.100  26.343  1.00  0.00     0.202 C 
BRANCH   6   7
ATOM      7  C   UNL A   1      38.114  23.750  26.412  1.00  0.00     0.261 C 
BRANCH   7   8
ATOM      8  O   UNL A   1      37.023  22.884  26.068  1.00  0.00    -0.460 OA
BRANCH   8   9
ATOM      9  C   UNL A   1      36.493  23.007  24.835  1.00  0.00     0.338 C 
ATOM     10  O   UNL A   1      37.035  22.731  23.779  1.00  0.00    -0.246 OA
BRANCH   9  11
ATOM     11  C   UNL A   1      35.071  23.384  24.985  1.00  0.00     0.087 C 
ATOM     12  C   UNL A   1      31.404  27.935  26.943  1.00  0.00     0.044 C 
ATOM     13  C   UNL A   1      31.743  26.612  26.324  1.00  0.00    -0.050 A 
ATOM     14  C   UNL A   1      30.740  25.700  25.980  1.00  0.00     0.007 A 
ATOM     15  C   UNL A   1      33.085  26.256  26.126  1.00  0.00     0.015 A 
ATOM     16  C   UNL A   1      31.073  24.462  25.426  1.00  0.00     0.047 A 
ATOM     17  C   UNL A   1      33.422  25.000  25.604  1.00  0.00     0.017 A 
ATOM     18  C   UNL A   1      32.410  24.114  25.235  1.00  0.00     0.128 A 
ATOM     19  C   UNL A   1      34.814  24.599  25.484  1.00  0.00     0.027 C 
ATOM     20  O   UNL A   1      32.636  22.881  24.696  1.00  0.00    -0.475 OA
ATOM     21  C   UNL A   1      34.005  22.432  24.501  1.00  0.00     0.316 C 
BRANCH  21  22
ATOM     22  C   UNL A   1      34.141  21.039  25.133  1.00  0.00     0.430 C 
ATOM     23  F   UNL A   1      35.219  20.379  24.645  1.00  0.00    -0.167 F 
ATOM     24  F   UNL A   1      34.307  21.102  26.475  1.00  0.00    -0.167 F 
ATOM     25  F   UNL A   1      33.053  20.269  24.899  1.00  0.00    -0.167 F 
ENDBRANCH  21  22
ENDBRANCH   9  11
ENDBRANCH   8   9
ENDBRANCH   7   8
ENDBRANCH   6   7
ENDBRANCH   5   6
ENDBRANCH   4   5
ENDBRANCH   3   4
ENDBRANCH   2   3
ENDBRANCH   1   2
BRANCH   1  26
ATOM     26  C   UNL A   1      44.595  19.489  25.071  1.00  0.00     0.188 C 
BRANCH  26  27
ATOM     27  O   UNL A   1      45.296  20.513  24.369  1.00  0.00    -0.376 OA
BRANCH  27  28
ATOM     28  C   UNL A   1      44.506  21.491  23.705  1.00  0.00     0.202 C 
BRANCH  28  29
ATOM     29  C   UNL A   1      44.874  22.932  24.078  1.00  0.00     0.261 C 
BRANCH  29  30
ATOM     30  O   UNL A   1      44.154  23.468  25.200  1.00  0.00    -0.460 OA
BRANCH  30  31
ATOM     31  C   UNL A   1      44.832  23.631  26.356  1.00  0.00     0.338 C 
ATOM     32  O   UNL A   1      45.932  23.192  26.637  1.00  0.00    -0.246 OA
BRANCH  31  33
ATOM     33  C   UNL A   1      44.092  24.619  27.169  1.00  0.00     0.060 A 
ATOM     34  C   UNL A   1      42.966  24.235  27.901  1.00  0.00     0.016 A 
ATOM     35  C   UNL A   1      44.520  25.953  27.171  1.00  0.00     0.016 A 
ATOM     36  C   UNL A   1      42.291  25.181  28.674  1.00  0.00     0.010 A 
ATOM     37  C   UNL A   1      43.839  26.901  27.939  1.00  0.00     0.010 A 
ATOM     38  C   UNL A   1      42.741  26.513  28.720  1.00  0.00    -0.014 A 
BRANCH  38  39
ATOM     39  C   UNL A   1      42.201  27.428  29.753  1.00  0.00     0.031 A 
ATOM     40  C   UNL A   1      40.977  28.259  29.531  1.00  0.00     0.074 A 
ATOM     41  C   UNL A   1      42.863  27.494  30.923  1.00  0.00     0.049 A 
ATOM     42  N   UNL A   1      40.347  29.029  30.383  1.00  0.00    -0.248 NA
ATOM     43  C   UNL A   1      40.387  28.235  28.186  1.00  0.00     0.031 C 
ATOM     44  C   UNL A   1      44.087  26.752  31.231  1.00  0.00     0.029 A 
ATOM     45  N   UNL A   1      42.603  28.202  32.067  1.00  0.00    -0.354 N 
ATOM     46  C   UNL A   1      39.270  29.563  29.690  1.00  0.00     0.074 A 
ATOM     47  C   UNL A   1      39.360  29.066  28.330  1.00  0.00     0.031 C 
ATOM     48  C   UNL A   1      44.459  27.023  32.489  1.00  0.00     0.029 A 
ATOM     49  C   UNL A   1      43.511  27.971  33.070  1.00  0.00     0.049 A 
ATOM     50  H   UNL A   1      41.840  28.817  32.161  1.00  0.00     0.167 HD
ATOM     51  C   UNL A   1      38.293  30.375  30.158  1.00  0.00     0.037 A 
ATOM     52  C   UNL A   1      43.571  28.457  34.323  1.00  0.00     0.037 A 
ATOM     53  C   UNL A   1      38.225  30.878  31.509  1.00  0.00     0.049 A 
ATOM     54  C   UNL A   1      42.494  29.385  34.802  1.00  0.00     0.074 A 
ATOM     55  C   UNL A   1      37.247  31.670  32.086  1.00  0.00     0.029 A 
ATOM     56  N   UNL A   1      39.179  30.648  32.491  1.00  0.00    -0.354 N 
ATOM     57  N   UNL A   1      41.432  29.814  34.166  1.00  0.00    -0.248 NA
ATOM     58  C   UNL A   1      42.617  29.890  36.177  1.00  0.00     0.031 C 
ATOM     59  C   UNL A   1      37.634  31.965  33.396  1.00  0.00     0.029 A 
ATOM     60  C   UNL A   1      38.827  31.311  33.658  1.00  0.00     0.049 A 
ATOM     61  H   UNL A   1      39.987  30.098  32.376  1.00  0.00     0.167 HD
ATOM     62  C   UNL A   1      40.747  30.616  35.066  1.00  0.00     0.074 A 
ATOM     63  C   UNL A   1      41.508  30.608  36.298  1.00  0.00     0.031 C 
ATOM     64  C   UNL A   1      39.589  31.297  34.881  1.00  0.00     0.037 A 
BRANCH  51  65
ATOM     65  C   UNL A   1      37.192  30.769  29.217  1.00  0.00     0.064 A 
ATOM     66  C   UNL A   1      36.196  29.857  28.841  1.00  0.00     0.173 A 
ATOM     67  C   UNL A   1      37.067  32.096  28.773  1.00  0.00     0.173 A 
ATOM     68  F   UNL A   1      36.267  28.578  29.239  1.00  0.00    -0.203 F 
ATOM     69  C   UNL A   1      35.121  30.253  28.049  1.00  0.00     0.198 A 
ATOM     70  C   UNL A   1      35.978  32.494  28.002  1.00  0.00     0.198 A 
ATOM     71  F   UNL A   1      37.984  33.012  29.115  1.00  0.00    -0.203 F 
ATOM     72  F   UNL A   1      34.191  29.358  27.686  1.00  0.00    -0.200 F 
ATOM     73  C   UNL A   1      35.007  31.573  27.638  1.00  0.00     0.200 A 
ATOM     74  F   UNL A   1      35.860  33.774  27.622  1.00  0.00    -0.200 F 
ATOM     75  F   UNL A   1      33.961  31.958  26.895  1.00  0.00    -0.200 F 
ENDBRANCH  51  65
BRANCH  52  76
ATOM     76  C   UNL A   1      44.668  28.016  35.219  1.00  0.00     0.064 A 
ATOM     77  C   UNL A   1      44.490  26.930  36.087  1.00  0.00     0.173 A 
ATOM     78  C   UNL A   1      45.928  28.632  35.188  1.00  0.00     0.173 A 
ATOM     79  F   UNL A   1      43.299  26.318  36.157  1.00  0.00    -0.203 F 
ATOM     80  C   UNL A   1      45.530  26.480  36.896  1.00  0.00     0.198 A 
ATOM     81  C   UNL A   1      46.974  28.165  35.979  1.00  0.00     0.198 A 
ATOM     82  F   UNL A   1      46.149  29.667  34.367  1.00  0.00    -0.203 F 
ATOM     83  F   UNL A   1      45.327  25.455  37.734  1.00  0.00    -0.200 F 
ATOM     84  C   UNL A   1      46.774  27.092  36.835  1.00  0.00     0.200 A 
ATOM     85  F   UNL A   1      48.179  28.746  35.904  1.00  0.00    -0.200 F 
ATOM     86  F   UNL A   1      47.779  26.647  37.601  1.00  0.00    -0.200 F 
ENDBRANCH  52  76
BRANCH  64  87
ATOM     87  C   UNL A   1      39.055  32.083  36.043  1.00  0.00     0.064 A 
ATOM     88  C   UNL A   1      38.204  31.502  36.993  1.00  0.00     0.173 A 
ATOM     89  C   UNL A   1      39.459  33.412  36.247  1.00  0.00     0.173 A 
ATOM     90  F   UNL A   1      37.778  30.239  36.834  1.00  0.00    -0.203 F 
ATOM     91  C   UNL A   1      37.768  32.224  38.101  1.00  0.00     0.198 A 
ATOM     92  C   UNL A   1      39.042  34.123  37.369  1.00  0.00     0.198 A 
ATOM     93  F   UNL A   1      40.275  34.014  35.369  1.00  0.00    -0.203 F 
ATOM     94  F   UNL A   1      36.930  31.658  38.980  1.00  0.00    -0.200 F 
ATOM     95  C   UNL A   1      38.196  33.530  38.293  1.00  0.00     0.200 A 
ATOM     96  F   UNL A   1      39.468  35.379  37.561  1.00  0.00    -0.200 F 
ATOM     97  F   UNL A   1      37.789  34.217  39.369  1.00  0.00    -0.200 F 
ENDBRANCH  64  87
ENDBRANCH  38  39
ENDBRANCH  31  33
ENDBRANCH  30  31
ENDBRANCH  29  30
ENDBRANCH  28  29
ENDBRANCH  27  28
ENDBRANCH  26  27
ENDBRANCH   1  26
TORSDOF 21
ENDMDL
MODEL 2
REMARK VINA RESULT:     -10.4      3.761      9.425
REMARK SMILES Cc1ccc2c(c1)C=C(C(=O)OCCOCCOCCOCCOC(=O)c1ccc(-c3c4nc(c(-c5c(F)c(F)c(F)c(F)c5F)c5ccc([nH]5)c(-c5c(F)c(F)c(F)c(F)c5F)c5nc(c(-c6c(F)c(F)c(F)c(F)c6F)c6ccc3[nH]6)C=C5)C=C4)cc1)[C@@H](C(F)(F)F)O2
REMARK SMILES IDX 19 1 18 2 17 3 16 4 15 5 14 6 13 7 12 8 10 9 11 10 9 11 1 12
REMARK SMILES IDX 2 13 3 14 7 15 4 16 6 17 5 18 8 19 95 20 90 21 91 22 92 23
REMARK SMILES IDX 93 24 94 25 20 26 21 27 22 28 23 29 24 30 25 31 26 32 27 33
REMARK SMILES IDX 28 34 89 35 29 36 88 37 30 38 31 39 32 40 82 41 33 42 87 43
REMARK SMILES IDX 81 44 83 45 34 46 86 47 80 48 79 49 35 51 67 52 47 53 66 54
REMARK SMILES IDX 48 55 51 56 65 57 84 58 49 59 50 60 64 62 85 63 52 64 36 65
REMARK SMILES IDX 37 66 45 67 38 68 39 69 43 70 46 71 40 72 41 73 44 74 42 75
REMARK SMILES IDX 68 76 69 77 77 78 70 79 71 80 75 81 78 82 72 83 73 84 76 85
REMARK SMILES IDX 74 86 53 87 54 88 62 89 55 90 56 91 60 92 63 93 57 94 58 95
REMARK SMILES IDX 61 96 59 97
REMARK H PARENT 83 50 51 61
REMARK Flexibility Score: inf
ROOT
ATOM      1  C   UNL A   1      34.332  32.710  28.155  1.00  0.00     0.188 C 
ENDROOT
BRANCH   1   2
ATOM      2  O   UNL A   1      34.831  31.390  28.373  1.00  0.00    -0.377 OA
BRANCH   2   3
ATOM      3  C   UNL A   1      34.322  30.349  27.554  1.00  0.00     0.188 C 
BRANCH   3   4
ATOM      4  C   UNL A   1      32.826  30.511  27.235  1.00  0.00     0.188 C 
BRANCH   4   5
ATOM      5  O   UNL A   1      32.534  30.383  25.843  1.00  0.00    -0.376 OA
BRANCH   5   6
ATOM      6  C   UNL A   1      32.794  29.120  25.242  1.00  0.00     0.202 C 
BRANCH   6   7
ATOM      7  C   UNL A   1      31.842  27.972  25.611  1.00  0.00     0.261 C 
BRANCH   7   8
ATOM      8  O   UNL A   1      32.230  26.681  25.119  1.00  0.00    -0.460 OA
BRANCH   8   9
ATOM      9  C   UNL A   1      31.858  25.602  25.835  1.00  0.00     0.338 C 
ATOM     10  O   UNL A   1      30.849  25.488  26.509  1.00  0.00    -0.246 OA
BRANCH   9  11
ATOM     11  C   UNL A   1      32.805  24.507  25.536  1.00  0.00     0.087 C 
ATOM     12  C   UNL A   1      38.718  22.866  26.124  1.00  0.00     0.044 C 
ATOM     13  C   UNL A   1      37.274  22.698  25.755  1.00  0.00    -0.050 A 
ATOM     14  C   UNL A   1      36.838  21.571  25.051  1.00  0.00     0.007 A 
ATOM     15  C   UNL A   1      36.349  23.703  26.075  1.00  0.00     0.015 A 
ATOM     16  C   UNL A   1      35.494  21.441  24.694  1.00  0.00     0.047 A 
ATOM     17  C   UNL A   1      35.008  23.590  25.686  1.00  0.00     0.017 A 
ATOM     18  C   UNL A   1      34.580  22.445  25.013  1.00  0.00     0.128 A 
ATOM     19  C   UNL A   1      34.071  24.672  25.939  1.00  0.00     0.027 C 
ATOM     20  O   UNL A   1      33.293  22.231  24.615  1.00  0.00    -0.475 OA
ATOM     21  C   UNL A   1      32.291  23.250  24.878  1.00  0.00     0.316 C 
BRANCH  21  22
ATOM     22  C   UNL A   1      31.555  23.544  23.562  1.00  0.00     0.430 C 
ATOM     23  F   UNL A   1      32.173  24.524  22.860  1.00  0.00    -0.167 F 
ATOM     24  F   UNL A   1      31.510  22.461  22.751  1.00  0.00    -0.167 F 
ATOM     25  F   UNL A   1      30.279  23.939  23.775  1.00  0.00    -0.167 F 
ENDBRANCH  21  22
ENDBRANCH   9  11
ENDBRANCH   8   9
ENDBRANCH   7   8
ENDBRANCH   6   7
ENDBRANCH   5   6
ENDBRANCH   4   5
ENDBRANCH   3   4
ENDBRANCH   2   3
ENDBRANCH   1   2
BRANCH   1  26
ATOM     26  C   UNL A   1      35.208  33.966  28.371  1.00  0.00     0.188 C 
BRANCH  26  27
ATOM     27  O   UNL A   1      34.465  35.176  28.497  1.00  0.00    -0.376 OA
BRANCH  27  28
ATOM     28  C   UNL A   1      33.150  35.069  29.025  1.00  0.00     0.202 C 
BRANCH  28  29
ATOM     29  C   UNL A   1      32.773  36.216  29.971  1.00  0.00     0.261 C 
BRANCH  29  30
ATOM     30  O   UNL A   1      32.103  35.810  31.175  1.00  0.00    -0.460 OA
BRANCH  30  31
ATOM     31  C   UNL A   1      32.703  36.098  32.350  1.00  0.00     0.338 C 
ATOM     32  O   UNL A   1      32.288  36.828  33.232  1.00  0.00    -0.246 OA
BRANCH  31  33
ATOM     33  C   UNL A   1      33.875  35.206  32.481  1.00  0.00     0.060 A 
ATOM     34  C   UNL A   1      35.143  35.640  32.090  1.00  0.00     0.016 A 
ATOM     35  C   UNL A   1      33.689  33.910  32.978  1.00  0.00     0.016 A 
ATOM     36  C   UNL A   1      36.239  34.788  32.237  1.00  0.00     0.010 A 
ATOM     37  C   UNL A   1      34.785  33.055  33.117  1.00  0.00     0.010 A 
ATOM     38  C   UNL A   1      36.070  33.501  32.779  1.00  0.00    -0.014 A 
BRANCH  38  39
ATOM     39  C   UNL A   1      37.262  32.724  33.193  1.00  0.00     0.031 A 
ATOM     40  C   UNL A   1      37.852  31.642  32.345  1.00  0.00     0.074 A 
ATOM     41  C   UNL A   1      37.808  33.026  34.386  1.00  0.00     0.049 A 
ATOM     42  N   UNL A   1      38.946  30.951  32.548  1.00  0.00    -0.248 NA
ATOM     43  C   UNL A   1      37.125  31.280  31.122  1.00  0.00     0.031 C 
ATOM     44  C   UNL A   1      37.291  34.039  35.307  1.00  0.00     0.029 A 
ATOM     45  N   UNL A   1      38.912  32.525  35.025  1.00  0.00    -0.354 N 
ATOM     46  C   UNL A   1      39.057  30.088  31.467  1.00  0.00     0.074 A 
ATOM     47  C   UNL A   1      37.891  30.310  30.634  1.00  0.00     0.031 C 
ATOM     48  C   UNL A   1      38.089  34.104  36.380  1.00  0.00     0.029 A 
ATOM     49  C   UNL A   1      39.163  33.126  36.232  1.00  0.00     0.049 A 
ATOM     50  H   UNL A   1      39.470  31.804  34.654  1.00  0.00     0.167 HD
ATOM     51  C   UNL A   1      40.052  29.211  31.195  1.00  0.00     0.037 A 
ATOM     52  C   UNL A   1      40.154  32.923  37.119  1.00  0.00     0.037 A 
ATOM     53  C   UNL A   1      41.199  28.987  32.043  1.00  0.00     0.049 A 
ATOM     54  C   UNL A   1      41.224  31.917  36.808  1.00  0.00     0.074 A 
ATOM     55  C   UNL A   1      42.281  28.150  31.825  1.00  0.00     0.029 A 
ATOM     56  N   UNL A   1      41.406  29.591  33.275  1.00  0.00    -0.354 N 
ATOM     57  N   UNL A   1      41.366  31.169  35.741  1.00  0.00    -0.248 NA
ATOM     58  C   UNL A   1      42.275  31.733  37.818  1.00  0.00     0.031 C 
ATOM     59  C   UNL A   1      43.113  28.206  32.947  1.00  0.00     0.029 A 
ATOM     60  C   UNL A   1      42.581  29.120  33.842  1.00  0.00     0.049 A 
ATOM     61  H   UNL A   1      40.807  30.255  33.687  1.00  0.00     0.167 HD
ATOM     62  C   UNL A   1      42.533  30.446  35.937  1.00  0.00     0.074 A 
ATOM     63  C   UNL A   1      43.067  30.851  37.221  1.00  0.00     0.031 C 
ATOM     64  C   UNL A   1      43.107  29.529  35.120  1.00  0.00     0.037 A 
BRANCH  51  65
ATOM     65  C   UNL A   1      39.972  28.428  29.917  1.00  0.00     0.064 A 
ATOM     66  C   UNL A   1      40.600  28.880  28.747  1.00  0.00     0.173 A 
ATOM     67  C   UNL A   1      39.360  27.165  29.885  1.00  0.00     0.173 A 
ATOM     68  F   UNL A   1      41.201  30.079  28.725  1.00  0.00    -0.203 F 
ATOM     69  C   UNL A   1      40.609  28.104  27.591  1.00  0.00     0.198 A 
ATOM     70  C   UNL A   1      39.392  26.380  28.735  1.00  0.00     0.198 A 
ATOM     71  F   UNL A   1      38.757  26.678  30.981  1.00  0.00    -0.203 F 
ATOM     72  F   UNL A   1      41.199  28.565  26.480  1.00  0.00    -0.200 F 
ATOM     73  C   UNL A   1      40.015  26.850  27.589  1.00  0.00     0.200 A 
ATOM     74  F   UNL A   1      38.834  25.162  28.740  1.00  0.00    -0.200 F 
ATOM     75  F   UNL A   1      40.044  26.095  26.483  1.00  0.00    -0.200 F 
ENDBRANCH  51  65
BRANCH  52  76
ATOM     76  C   UNL A   1      40.199  33.741  38.356  1.00  0.00     0.064 A 
ATOM     77  C   UNL A   1      40.984  34.899  38.420  1.00  0.00     0.173 A 
ATOM     78  C   UNL A   1      39.418  33.415  39.475  1.00  0.00     0.173 A 
ATOM     79  F   UNL A   1      41.754  35.243  37.377  1.00  0.00    -0.203 F 
ATOM     80  C   UNL A   1      40.993  35.699  39.560  1.00  0.00     0.198 A 
ATOM     81  C   UNL A   1      39.409  34.228  40.605  1.00  0.00     0.198 A 
ATOM     82  F   UNL A   1      38.642  32.322  39.457  1.00  0.00    -0.203 F 
ATOM     83  F   UNL A   1      41.771  36.788  39.605  1.00  0.00    -0.200 F 
ATOM     84  C   UNL A   1      40.199  35.367  40.648  1.00  0.00     0.200 A 
ATOM     85  F   UNL A   1      38.626  33.916  41.647  1.00  0.00    -0.200 F 
ATOM     86  F   UNL A   1      40.195  36.146  41.738  1.00  0.00    -0.200 F 
ENDBRANCH  52  76
BRANCH  64  87
ATOM     87  C   UNL A   1      44.392  28.903  35.577  1.00  0.00     0.064 A 
ATOM     88  C   UNL A   1      45.636  29.472  35.268  1.00  0.00     0.173 A 
ATOM     89  C   UNL A   1      44.376  27.761  36.393  1.00  0.00     0.173 A 
ATOM     90  F   UNL A   1      45.704  30.554  34.478  1.00  0.00    -0.203 F 
ATOM     91  C   UNL A   1      46.817  28.917  35.752  1.00  0.00     0.198 A 
ATOM     92  C   UNL A   1      45.557  27.224  36.897  1.00  0.00     0.198 A 
ATOM     93  F   UNL A   1      43.212  27.180  36.721  1.00  0.00    -0.203 F 
ATOM     94  F   UNL A   1      47.996  29.459  35.420  1.00  0.00    -0.200 F 
ATOM     95  C   UNL A   1      46.776  27.800  36.575  1.00  0.00     0.200 A 
ATOM     96  F   UNL A   1      45.515  26.154  37.703  1.00  0.00    -0.200 F 
ATOM     97  F   UNL A   1      47.913  27.278  37.054  1.00  0.00    -0.200 F 
ENDBRANCH  64  87
ENDBRANCH  38  39
ENDBRANCH  31  33
ENDBRANCH  30  31
ENDBRANCH  29  30
ENDBRANCH  28  29
ENDBRANCH  27  28
ENDBRANCH  26  27
ENDBRANCH   1  26
TORSDOF 21
ENDMDL
MODEL 3
REMARK VINA RESULT:     -10.4      4.366      9.325
REMARK SMILES Cc1ccc2c(c1)C=C(C(=O)OCCOCCOCCOCCOC(=O)c1ccc(-c3c4nc(c(-c5c(F)c(F)c(F)c(F)c5F)c5ccc([nH]5)c(-c5c(F)c(F)c(F)c(F)c5F)c5nc(c(-c6c(F)c(F)c(F)c(F)c6F)c6ccc3[nH]6)C=C5)C=C4)cc1)[C@@H](C(F)(F)F)O2
REMARK SMILES IDX 19 1 18 2 17 3 16 4 15 5 14 6 13 7 12 8 10 9 11 10 9 11 1 12
REMARK SMILES IDX 2 13 3 14 7 15 4 16 6 17 5 18 8 19 95 20 90 21 91 22 92 23
REMARK SMILES IDX 93 24 94 25 20 26 21 27 22 28 23 29 24 30 25 31 26 32 27 33
REMARK SMILES IDX 28 34 89 35 29 36 88 37 30 38 31 39 32 40 82 41 33 42 87 43
REMARK SMILES IDX 81 44 83 45 34 46 86 47 80 48 79 49 35 51 67 52 47 53 66 54
REMARK SMILES IDX 48 55 51 56 65 57 84 58 49 59 50 60 64 62 85 63 52 64 36 65
REMARK SMILES IDX 37 66 45 67 38 68 39 69 43 70 46 71 40 72 41 73 44 74 42 75
REMARK SMILES IDX 68 76 69 77 77 78 70 79 71 80 75 81 78 82 72 83 73 84 76 85
REMARK SMILES IDX 74 86 53 87 54 88 62 89 55 90 56 91 60 92 63 93 57 94 58 95
REMARK SMILES IDX 61 96 59 97
REMARK H PARENT 83 50 51 61
REMARK Flexibility Score: inf
ROOT
ATOM      1  C   UNL A   1      34.790  31.956  28.067  1.00  0.00     0.188 C 
ENDROOT
BRANCH   1   2
ATOM      2  O   UNL A   1      35.832  31.073  27.651  1.00  0.00    -0.377 OA
BRANCH   2   3
ATOM      3  C   UNL A   1      35.643  29.683  27.863  1.00  0.00     0.188 C 
BRANCH   3   4
ATOM      4  C   UNL A   1      34.193  29.229  27.617  1.00  0.00     0.188 C 
BRANCH   4   5
ATOM      5  O   UNL A   1      34.073  28.309  26.532  1.00  0.00    -0.376 OA
BRANCH   5   6
ATOM      6  C   UNL A   1      33.644  28.838  25.282  1.00  0.00     0.202 C 
BRANCH   6   7
ATOM      7  C   UNL A   1      33.810  27.928  24.055  1.00  0.00     0.261 C 
BRANCH   7   8
ATOM      8  O   UNL A   1      33.253  26.613  24.197  1.00  0.00    -0.460 OA
BRANCH   8   9
ATOM      9  C   UNL A   1      32.525  26.129  23.171  1.00  0.00     0.338 C 
ATOM     10  O   UNL A   1      32.818  25.195  22.447  1.00  0.00    -0.246 OA
BRANCH   9  11
ATOM     11  C   UNL A   1      31.219  26.825  23.171  1.00  0.00     0.087 C 
ATOM     12  C   UNL A   1      28.389  31.898  21.110  1.00  0.00     0.044 C 
ATOM     13  C   UNL A   1      28.504  30.570  21.796  1.00  0.00    -0.050 A 
ATOM     14  C   UNL A   1      27.428  30.035  22.512  1.00  0.00     0.007 A 
ATOM     15  C   UNL A   1      29.718  29.870  21.766  1.00  0.00     0.015 A 
ATOM     16  C   UNL A   1      27.557  28.807  23.165  1.00  0.00     0.047 A 
ATOM     17  C   UNL A   1      29.861  28.656  22.451  1.00  0.00     0.017 A 
ATOM     18  C   UNL A   1      28.769  28.118  23.133  1.00  0.00     0.128 A 
ATOM     19  C   UNL A   1      31.145  27.977  22.493  1.00  0.00     0.027 C 
ATOM     20  O   UNL A   1      28.801  26.932  23.808  1.00  0.00    -0.475 OA
ATOM     21  C   UNL A   1      30.041  26.174  23.851  1.00  0.00     0.316 C 
BRANCH  21  22
ATOM     22  C   UNL A   1      30.336  25.830  25.319  1.00  0.00     0.430 C 
ATOM     23  F   UNL A   1      30.963  26.852  25.949  1.00  0.00    -0.167 F 
ATOM     24  F   UNL A   1      29.205  25.583  26.021  1.00  0.00    -0.167 F 
ATOM     25  F   UNL A   1      31.125  24.737  25.432  1.00  0.00    -0.167 F 
ENDBRANCH  21  22
ENDBRANCH   9  11
ENDBRANCH   8   9
ENDBRANCH   7   8
ENDBRANCH   6   7
ENDBRANCH   5   6
ENDBRANCH   4   5
ENDBRANCH   3   4
ENDBRANCH   2   3
ENDBRANCH   1   2
BRANCH   1  26
ATOM     26  C   UNL A   1      35.063  33.431  28.439  1.00  0.00     0.188 C 
BRANCH  26  27
ATOM     27  O   UNL A   1      34.084  34.344  27.949  1.00  0.00    -0.376 OA
BRANCH  27  28
ATOM     28  C   UNL A   1      34.135  35.671  28.456  1.00  0.00     0.202 C 
BRANCH  28  29
ATOM     29  C   UNL A   1      32.900  36.061  29.279  1.00  0.00     0.261 C 
BRANCH  29  30
ATOM     30  O   UNL A   1      32.570  35.149  30.339  1.00  0.00    -0.460 OA
BRANCH  30  31
ATOM     31  C   UNL A   1      32.655  35.608  31.606  1.00  0.00     0.338 C 
ATOM     32  O   UNL A   1      31.847  36.299  32.199  1.00  0.00    -0.246 OA
BRANCH  31  33
ATOM     33  C   UNL A   1      33.821  34.952  32.238  1.00  0.00     0.060 A 
ATOM     34  C   UNL A   1      33.672  33.736  32.908  1.00  0.00     0.016 A 
ATOM     35  C   UNL A   1      35.069  35.583  32.178  1.00  0.00     0.016 A 
ATOM     36  C   UNL A   1      34.787  33.126  33.484  1.00  0.00     0.010 A 
ATOM     37  C   UNL A   1      36.184  34.976  32.761  1.00  0.00     0.010 A 
ATOM     38  C   UNL A   1      36.055  33.728  33.388  1.00  0.00    -0.014 A 
BRANCH  38  39
ATOM     39  C   UNL A   1      37.261  32.945  33.744  1.00  0.00     0.031 A 
ATOM     40  C   UNL A   1      37.826  31.886  32.852  1.00  0.00     0.074 A 
ATOM     41  C   UNL A   1      37.846  33.219  34.926  1.00  0.00     0.049 A 
ATOM     42  N   UNL A   1      38.928  31.193  33.002  1.00  0.00    -0.248 NA
ATOM     43  C   UNL A   1      37.061  31.551  31.645  1.00  0.00     0.031 C 
ATOM     44  C   UNL A   1      37.357  34.209  35.888  1.00  0.00     0.029 A 
ATOM     45  N   UNL A   1      38.972  32.707  35.516  1.00  0.00    -0.354 N 
ATOM     46  C   UNL A   1      39.006  30.358  31.897  1.00  0.00     0.074 A 
ATOM     47  C   UNL A   1      37.812  30.595  31.108  1.00  0.00     0.031 C 
ATOM     48  C   UNL A   1      38.190  34.250  36.936  1.00  0.00     0.029 A 
ATOM     49  C   UNL A   1      39.261  33.280  36.728  1.00  0.00     0.049 A 
ATOM     50  H   UNL A   1      39.520  31.997  35.109  1.00  0.00     0.167 HD
ATOM     51  C   UNL A   1      39.994  29.491  31.571  1.00  0.00     0.037 A 
ATOM     52  C   UNL A   1      40.281  33.059  37.577  1.00  0.00     0.037 A 
ATOM     53  C   UNL A   1      41.168  29.250  32.375  1.00  0.00     0.049 A 
ATOM     54  C   UNL A   1      41.343  32.064  37.206  1.00  0.00     0.074 A 
ATOM     55  C   UNL A   1      42.245  28.423  32.102  1.00  0.00     0.029 A 
ATOM     56  N   UNL A   1      41.415  29.825  33.614  1.00  0.00    -0.354 N 
ATOM     57  N   UNL A   1      41.452  31.343  36.118  1.00  0.00    -0.248 NA
ATOM     58  C   UNL A   1      42.427  31.859  38.177  1.00  0.00     0.031 C 
ATOM     59  C   UNL A   1      43.114  28.454  33.196  1.00  0.00     0.029 A 
ATOM     60  C   UNL A   1      42.609  29.345  34.130  1.00  0.00     0.049 A 
ATOM     61  H   UNL A   1      40.828  30.476  34.061  1.00  0.00     0.167 HD
ATOM     62  C   UNL A   1      42.626  30.619  36.257  1.00  0.00     0.074 A 
ATOM     63  C   UNL A   1      43.201  30.994  37.533  1.00  0.00     0.031 C 
ATOM     64  C   UNL A   1      43.175  29.724  35.400  1.00  0.00     0.037 A 
BRANCH  51  65
ATOM     65  C   UNL A   1      39.874  28.738  30.277  1.00  0.00     0.064 A 
ATOM     66  C   UNL A   1      40.420  29.245  29.089  1.00  0.00     0.173 A 
ATOM     67  C   UNL A   1      39.308  27.454  30.243  1.00  0.00     0.173 A 
ATOM     68  F   UNL A   1      40.974  30.466  29.068  1.00  0.00    -0.203 F 
ATOM     69  C   UNL A   1      40.396  28.500  27.913  1.00  0.00     0.198 A 
ATOM     70  C   UNL A   1      39.308  26.702  29.071  1.00  0.00     0.198 A 
ATOM     71  F   UNL A   1      38.785  26.916  31.355  1.00  0.00    -0.203 F 
ATOM     72  F   UNL A   1      40.906  29.013  26.785  1.00  0.00    -0.200 F 
ATOM     73  C   UNL A   1      39.849  27.225  27.907  1.00  0.00     0.200 A 
ATOM     74  F   UNL A   1      38.796  25.463  29.072  1.00  0.00    -0.200 F 
ATOM     75  F   UNL A   1      39.846  26.500  26.780  1.00  0.00    -0.200 F 
ENDBRANCH  51  65
BRANCH  52  76
ATOM     76  C   UNL A   1      40.364  33.846  38.831  1.00  0.00     0.064 A 
ATOM     77  C   UNL A   1      41.077  35.052  38.873  1.00  0.00     0.173 A 
ATOM     78  C   UNL A   1      39.690  33.442  39.993  1.00  0.00     0.173 A 
ATOM     79  F   UNL A   1      41.745  35.472  37.789  1.00  0.00    -0.203 F 
ATOM     80  C   UNL A   1      41.119  35.822  40.033  1.00  0.00     0.198 A 
ATOM     81  C   UNL A   1      39.712  34.225  41.144  1.00  0.00     0.198 A 
ATOM     82  F   UNL A   1      38.986  32.301  39.998  1.00  0.00    -0.203 F 
ATOM     83  F   UNL A   1      41.827  36.958  40.055  1.00  0.00    -0.200 F 
ATOM     84  C   UNL A   1      40.429  35.412  41.165  1.00  0.00     0.200 A 
ATOM     85  F   UNL A   1      39.029  33.836  42.230  1.00  0.00    -0.200 F 
ATOM     86  F   UNL A   1      40.455  36.161  42.275  1.00  0.00    -0.200 F 
ENDBRANCH  52  76
BRANCH  64  87
ATOM     87  C   UNL A   1      44.477  29.091  35.799  1.00  0.00     0.064 A 
ATOM     88  C   UNL A   1      44.519  27.874  36.492  1.00  0.00     0.173 A 
ATOM     89  C   UNL A   1      45.696  29.674  35.417  1.00  0.00     0.173 A 
ATOM     90  F   UNL A   1      43.381  27.286  36.892  1.00  0.00    -0.203 F 
ATOM     91  C   UNL A   1      45.734  27.266  36.799  1.00  0.00     0.198 A 
ATOM     92  C   UNL A   1      46.908  29.050  35.702  1.00  0.00     0.198 A 
ATOM     93  F   UNL A   1      45.711  30.837  34.749  1.00  0.00    -0.203 F 
ATOM     94  F   UNL A   1      45.751  26.117  37.489  1.00  0.00    -0.200 F 
ATOM     95  C   UNL A   1      46.926  27.849  36.394  1.00  0.00     0.200 A 
ATOM     96  F   UNL A   1      48.058  29.607  35.298  1.00  0.00    -0.200 F 
ATOM     97  F   UNL A   1      48.093  27.253  36.674  1.00  0.00    -0.200 F 
ENDBRANCH  64  87
ENDBRANCH  38  39
ENDBRANCH  31  33
ENDBRANCH  30  31
ENDBRANCH  29  30
ENDBRANCH  28  29
ENDBRANCH  27  28
ENDBRANCH  26  27
ENDBRANCH   1  26
TORSDOF 21
ENDMDL
