MODEL 1
REMARK VINA RESULT:      -7.5      0.000      0.000
REMARK SMILES CC[NH2+][C@]1(C(=O)OCCOCCOCCOCCOC(=O)c2ccc(-c3c4nc(c(-c5c(F)c(F)c(F)c(F)c5F)c5ccc([nH]5)c(-c5c(F)c(F)c(F)c(F)c5F)c5nc(c(-c6c(F)c(F)c(F)c(F)c6F)c6ccc3[nH]6)C=C5)C=C4)cc2)CCC[C@H]1CC[N@@H+]1CCC[C@@H](CC)C1
REMARK SMILES IDX 12 1 11 2 10 3 9 4 8 5 7 6 5 7 6 8 4 9 85 10 88 11 86 12
REMARK SMILES IDX 87 13 3 14 2 17 1 18 89 19 90 20 91 21 92 22 98 23 93 25
REMARK SMILES IDX 95 26 94 27 96 28 97 29 13 30 14 31 15 32 16 33 17 34 18 35
REMARK SMILES IDX 19 36 20 37 21 38 22 39 23 40 84 41 24 42 83 43 25 44 26 45
REMARK SMILES IDX 27 46 77 47 28 48 82 49 76 50 78 51 29 52 81 53 75 54 74 55
REMARK SMILES IDX 30 57 62 58 42 59 61 60 43 61 46 62 60 63 79 64 44 65 45 66
REMARK SMILES IDX 59 68 80 69 47 70 31 71 32 72 40 73 33 74 34 75 38 76 41 77
REMARK SMILES IDX 35 78 36 79 39 80 37 81 63 82 64 83 72 84 65 85 66 86 70 87
REMARK SMILES IDX 73 88 67 89 68 90 71 91 69 92 48 93 49 94 57 95 50 96 51 97
REMARK SMILES IDX 55 98 58 99 52 100 53 101 56 102 54 103
REMARK H PARENT 3 15 3 16 91 24 78 56 46 67
REMARK Flexibility Score: inf
ROOT
ATOM      1  C   UNL A   1      36.221  31.470  28.242  1.00  0.00     0.188 C 
ENDROOT
BRANCH   1   2
ATOM      2  C   UNL A   1      37.032  31.259  29.517  1.00  0.00     0.188 C 
BRANCH   2   3
ATOM      3  O   UNL A   1      38.149  30.380  29.436  1.00  0.00    -0.376 OA
BRANCH   3   4
ATOM      4  C   UNL A   1      38.448  29.872  28.150  1.00  0.00     0.202 C 
BRANCH   4   5
ATOM      5  C   UNL A   1      39.008  28.444  28.214  1.00  0.00     0.261 C 
BRANCH   5   6
ATOM      6  O   UNL A   1      40.413  28.320  28.535  1.00  0.00    -0.459 OA
BRANCH   6   7
ATOM      7  C   UNL A   1      41.291  27.849  27.582  1.00  0.00     0.368 C 
ATOM      8  O   UNL A   1      41.019  27.729  26.395  1.00  0.00    -0.245 OA
BRANCH   7   9
ATOM      9  C   UNL A   1      42.625  27.333  28.254  1.00  0.00     0.197 C 
ATOM     10  C   UNL A   1      42.272  27.015  29.721  1.00  0.00     0.081 C 
ATOM     11  C   UNL A   1      43.271  25.990  27.768  1.00  0.00     0.068 C 
ATOM     12  C   UNL A   1      43.308  26.022  30.233  1.00  0.00     0.008 C 
ATOM     13  C   UNL A   1      44.077  25.532  29.011  1.00  0.00     0.011 C 
BRANCH   9  14
ATOM     14  N   UNL A   1      43.700  28.357  28.023  1.00  0.00    -0.332 N 
ATOM     15  H   UNL A   1      43.267  29.130  27.518  1.00  0.00     0.347 HD
ATOM     16  H   UNL A   1      44.048  28.547  28.963  1.00  0.00     0.347 HD
BRANCH  14  17
ATOM     17  C   UNL A   1      44.900  27.999  27.292  1.00  0.00     0.257 C 
ATOM     18  C   UNL A   1      44.701  28.375  25.827  1.00  0.00     0.071 C 
ENDBRANCH  14  17
ENDBRANCH   9  14
BRANCH  11  19
ATOM     19  C   UNL A   1      42.406  24.793  27.291  1.00  0.00     0.072 C 
BRANCH  19  20
ATOM     20  C   UNL A   1      43.099  23.792  26.325  1.00  0.00     0.262 C 
BRANCH  20  21
ATOM     21  N   UNL A   1      42.607  22.417  26.363  1.00  0.00    -0.335 N 
ATOM     22  C   UNL A   1      42.049  22.006  27.637  1.00  0.00     0.262 C 
ATOM     23  C   UNL A   1      43.479  21.368  25.808  1.00  0.00     0.265 C 
ATOM     24  H   UNL A   1      41.840  22.494  25.694  1.00  0.00     0.348 HD
ATOM     25  C   UNL A   1      41.023  20.904  27.332  1.00  0.00     0.062 C 
ATOM     26  C   UNL A   1      42.991  19.928  26.187  1.00  0.00     0.044 C 
ATOM     27  C   UNL A   1      41.473  19.898  26.307  1.00  0.00     0.015 C 
BRANCH  26  28
ATOM     28  C   UNL A   1      43.462  18.850  25.207  1.00  0.00     0.006 C 
ATOM     29  C   UNL A   1      44.958  18.558  25.330  1.00  0.00     0.004 C 
ENDBRANCH  26  28
ENDBRANCH  20  21
ENDBRANCH  19  20
ENDBRANCH  11  19
ENDBRANCH   7   9
ENDBRANCH   6   7
ENDBRANCH   5   6
ENDBRANCH   4   5
ENDBRANCH   3   4
ENDBRANCH   2   3
ENDBRANCH   1   2
BRANCH   1  30
ATOM     30  O   UNL A   1      36.197  32.844  27.882  1.00  0.00    -0.377 OA
BRANCH  30  31
ATOM     31  C   UNL A   1      35.633  33.744  28.832  1.00  0.00     0.188 C 
BRANCH  31  32
ATOM     32  C   UNL A   1      34.144  33.557  29.184  1.00  0.00     0.188 C 
BRANCH  32  33
ATOM     33  O   UNL A   1      33.900  33.805  30.570  1.00  0.00    -0.376 OA
BRANCH  33  34
ATOM     34  C   UNL A   1      35.063  33.917  31.403  1.00  0.00     0.202 C 
BRANCH  34  35
ATOM     35  C   UNL A   1      35.009  33.019  32.660  1.00  0.00     0.261 C 
BRANCH  35  36
ATOM     36  O   UNL A   1      36.067  32.046  32.696  1.00  0.00    -0.460 OA
BRANCH  36  37
ATOM     37  C   UNL A   1      36.834  32.126  33.805  1.00  0.00     0.338 C 
ATOM     38  O   UNL A   1      36.555  32.706  34.835  1.00  0.00    -0.246 OA
BRANCH  37  39
ATOM     39  C   UNL A   1      37.990  31.216  33.682  1.00  0.00     0.060 A 
ATOM     40  C   UNL A   1      39.159  31.611  34.344  1.00  0.00     0.016 A 
ATOM     41  C   UNL A   1      37.963  30.041  32.924  1.00  0.00     0.016 A 
ATOM     42  C   UNL A   1      40.326  30.877  34.200  1.00  0.00     0.010 A 
ATOM     43  C   UNL A   1      39.150  29.321  32.745  1.00  0.00     0.010 A 
ATOM     44  C   UNL A   1      40.343  29.778  33.334  1.00  0.00    -0.014 A 
BRANCH  44  45
ATOM     45  C   UNL A   1      41.664  29.355  32.821  1.00  0.00     0.031 A 
ATOM     46  C   UNL A   1      42.312  30.229  31.780  1.00  0.00     0.074 A 
ATOM     47  C   UNL A   1      42.326  28.319  33.359  1.00  0.00     0.049 A 
ATOM     48  N   UNL A   1      43.487  30.124  31.216  1.00  0.00    -0.248 NA
ATOM     49  C   UNL A   1      41.530  31.392  31.326  1.00  0.00     0.031 C 
ATOM     50  C   UNL A   1      41.827  27.461  34.430  1.00  0.00     0.029 A 
ATOM     51  N   UNL A   1      43.575  27.827  33.082  1.00  0.00    -0.354 N 
ATOM     52  C   UNL A   1      43.580  31.203  30.345  1.00  0.00     0.074 A 
ATOM     53  C   UNL A   1      42.335  31.930  30.425  1.00  0.00     0.031 C 
ATOM     54  C   UNL A   1      42.762  26.538  34.717  1.00  0.00     0.029 A 
ATOM     55  C   UNL A   1      43.908  26.727  33.830  1.00  0.00     0.049 A 
ATOM     56  H   UNL A   1      44.175  28.225  32.411  1.00  0.00     0.167 HD
ATOM     57  C   UNL A   1      44.618  31.561  29.556  1.00  0.00     0.037 A 
ATOM     58  C   UNL A   1      45.010  25.952  33.779  1.00  0.00     0.037 A 
ATOM     59  C   UNL A   1      45.852  30.829  29.480  1.00  0.00     0.049 A 
ATOM     60  C   UNL A   1      46.112  26.312  32.813  1.00  0.00     0.074 A 
ATOM     61  C   UNL A   1      46.969  31.096  28.709  1.00  0.00     0.029 A 
ATOM     62  N   UNL A   1      46.125  29.673  30.198  1.00  0.00    -0.354 N 
ATOM     63  N   UNL A   1      46.200  27.335  31.996  1.00  0.00    -0.248 NA
ATOM     64  C   UNL A   1      47.272  25.410  32.767  1.00  0.00     0.031 C 
ATOM     65  C   UNL A   1      47.892  30.065  28.912  1.00  0.00     0.029 A 
ATOM     66  C   UNL A   1      47.380  29.196  29.862  1.00  0.00     0.049 A 
ATOM     67  H   UNL A   1      45.516  29.254  30.848  1.00  0.00     0.167 HD
ATOM     68  C   UNL A   1      47.432  27.218  31.364  1.00  0.00     0.074 A 
ATOM     69  C   UNL A   1      48.063  26.032  31.905  1.00  0.00     0.031 C 
ATOM     70  C   UNL A   1      47.993  28.016  30.421  1.00  0.00     0.037 A 
BRANCH  57  71
ATOM     71  C   UNL A   1      44.440  32.769  28.683  1.00  0.00     0.064 A 
ATOM     72  C   UNL A   1      44.079  32.664  27.330  1.00  0.00     0.173 A 
ATOM     73  C   UNL A   1      44.622  34.055  29.215  1.00  0.00     0.173 A 
ATOM     74  F   UNL A   1      43.915  31.458  26.767  1.00  0.00    -0.203 F 
ATOM     75  C   UNL A   1      43.934  33.799  26.538  1.00  0.00     0.198 A 
ATOM     76  C   UNL A   1      44.443  35.188  28.427  1.00  0.00     0.198 A 
ATOM     77  F   UNL A   1      44.971  34.212  30.500  1.00  0.00    -0.203 F 
ATOM     78  F   UNL A   1      43.644  33.673  25.235  1.00  0.00    -0.200 F 
ATOM     79  C   UNL A   1      44.107  35.060  27.088  1.00  0.00     0.200 A 
ATOM     80  F   UNL A   1      44.600  36.407  28.965  1.00  0.00    -0.200 F 
ATOM     81  F   UNL A   1      43.961  36.153  26.325  1.00  0.00    -0.200 F 
ENDBRANCH  57  71
BRANCH  58  82
ATOM     82  C   UNL A   1      45.116  24.750  34.646  1.00  0.00     0.064 A 
ATOM     83  C   UNL A   1      45.612  24.833  35.954  1.00  0.00     0.173 A 
ATOM     84  C   UNL A   1      44.748  23.482  34.171  1.00  0.00     0.173 A 
ATOM     85  F   UNL A   1      46.002  26.017  36.449  1.00  0.00    -0.203 F 
ATOM     86  C   UNL A   1      45.758  23.693  36.743  1.00  0.00     0.198 A 
ATOM     87  C   UNL A   1      44.862  22.348  34.972  1.00  0.00     0.198 A 
ATOM     88  F   UNL A   1      44.271  23.343  32.925  1.00  0.00    -0.203 F 
ATOM     89  F   UNL A   1      46.286  23.794  37.972  1.00  0.00    -0.200 F 
ATOM     90  C   UNL A   1      45.376  22.453  36.255  1.00  0.00     0.200 A 
ATOM     91  F   UNL A   1      44.480  21.154  34.499  1.00  0.00    -0.200 F 
ATOM     92  F   UNL A   1      45.515  21.358  37.015  1.00  0.00    -0.200 F 
ENDBRANCH  58  82
BRANCH  70  93
ATOM     93  C   UNL A   1      49.373  27.662  29.945  1.00  0.00     0.064 A 
ATOM     94  C   UNL A   1      50.524  28.182  30.557  1.00  0.00     0.173 A 
ATOM     95  C   UNL A   1      49.545  26.750  28.892  1.00  0.00     0.173 A 
ATOM     96  F   UNL A   1      50.415  29.066  31.559  1.00  0.00    -0.203 F 
ATOM     97  C   UNL A   1      51.793  27.825  30.110  1.00  0.00     0.198 A 
ATOM     98  C   UNL A   1      50.815  26.368  28.474  1.00  0.00     0.198 A 
ATOM     99  F   UNL A   1      48.478  26.213  28.280  1.00  0.00    -0.203 F 
ATOM    100  F   UNL A   1      52.877  28.377  30.672  1.00  0.00    -0.200 F 
ATOM    101  C   UNL A   1      51.939  26.912  29.076  1.00  0.00     0.200 A 
ATOM    102  F   UNL A   1      50.953  25.469  27.488  1.00  0.00    -0.200 F 
ATOM    103  F   UNL A   1      53.162  26.563  28.655  1.00  0.00    -0.200 F 
ENDBRANCH  70  93
ENDBRANCH  44  45
ENDBRANCH  37  39
ENDBRANCH  36  37
ENDBRANCH  35  36
ENDBRANCH  34  35
ENDBRANCH  33  34
ENDBRANCH  32  33
ENDBRANCH  31  32
ENDBRANCH  30  31
ENDBRANCH   1  30
TORSDOF 26
ENDMDL
MODEL 2
REMARK VINA RESULT:      -7.4      6.763     13.315
REMARK SMILES CC[NH2+][C@]1(C(=O)OCCOCCOCCOCCOC(=O)c2ccc(-c3c4nc(c(-c5c(F)c(F)c(F)c(F)c5F)c5ccc([nH]5)c(-c5c(F)c(F)c(F)c(F)c5F)c5nc(c(-c6c(F)c(F)c(F)c(F)c6F)c6ccc3[nH]6)C=C5)C=C4)cc2)CCC[C@H]1CC[N@@H+]1CCC[C@@H](CC)C1
REMARK SMILES IDX 12 1 11 2 10 3 9 4 8 5 7 6 5 7 6 8 4 9 85 10 88 11 86 12
REMARK SMILES IDX 87 13 3 14 2 17 1 18 89 19 90 20 91 21 92 22 98 23 93 25
REMARK SMILES IDX 95 26 94 27 96 28 97 29 13 30 14 31 15 32 16 33 17 34 18 35
REMARK SMILES IDX 19 36 20 37 21 38 22 39 23 40 84 41 24 42 83 43 25 44 26 45
REMARK SMILES IDX 27 46 77 47 28 48 82 49 76 50 78 51 29 52 81 53 75 54 74 55
REMARK SMILES IDX 30 57 62 58 42 59 61 60 43 61 46 62 60 63 79 64 44 65 45 66
REMARK SMILES IDX 59 68 80 69 47 70 31 71 32 72 40 73 33 74 34 75 38 76 41 77
REMARK SMILES IDX 35 78 36 79 39 80 37 81 63 82 64 83 72 84 65 85 66 86 70 87
REMARK SMILES IDX 73 88 67 89 68 90 71 91 69 92 48 93 49 94 57 95 50 96 51 97
REMARK SMILES IDX 55 98 58 99 52 100 53 101 56 102 54 103
REMARK H PARENT 3 15 3 16 91 24 78 56 46 67
REMARK Flexibility Score: inf
ROOT
ATOM      1  C   UNL A   1      47.197  20.282  34.209  1.00  0.00     0.188 C 
ENDROOT
BRANCH   1   2
ATOM      2  C   UNL A   1      46.381  20.855  35.362  1.00  0.00     0.188 C 
BRANCH   2   3
ATOM      3  O   UNL A   1      45.346  20.034  35.893  1.00  0.00    -0.376 OA
BRANCH   3   4
ATOM      4  C   UNL A   1      45.668  19.304  37.061  1.00  0.00     0.202 C 
BRANCH   4   5
ATOM      5  C   UNL A   1      46.859  19.919  37.810  1.00  0.00     0.261 C 
BRANCH   5   6
ATOM      6  O   UNL A   1      47.252  19.264  39.038  1.00  0.00    -0.459 OA
BRANCH   6   7
ATOM      7  C   UNL A   1      46.427  19.332  40.141  1.00  0.00     0.368 C 
ATOM      8  O   UNL A   1      45.671  20.264  40.378  1.00  0.00    -0.245 OA
BRANCH   7   9
ATOM      9  C   UNL A   1      46.714  18.135  41.131  1.00  0.00     0.197 C 
ATOM     10  C   UNL A   1      46.661  18.730  42.553  1.00  0.00     0.081 C 
ATOM     11  C   UNL A   1      45.696  16.947  41.229  1.00  0.00     0.068 C 
ATOM     12  C   UNL A   1      46.366  17.586  43.514  1.00  0.00     0.008 C 
ATOM     13  C   UNL A   1      45.955  16.396  42.656  1.00  0.00     0.011 C 
BRANCH   9  14
ATOM     14  N   UNL A   1      48.002  17.478  40.721  1.00  0.00    -0.332 N 
ATOM     15  H   UNL A   1      47.868  16.473  40.833  1.00  0.00     0.347 HD
ATOM     16  H   UNL A   1      48.152  17.829  39.775  1.00  0.00     0.347 HD
BRANCH  14  17
ATOM     17  C   UNL A   1      49.238  17.814  41.399  1.00  0.00     0.257 C 
ATOM     18  C   UNL A   1      50.326  18.006  40.349  1.00  0.00     0.071 C 
ENDBRANCH  14  17
ENDBRANCH   9  14
BRANCH  11  19
ATOM     19  C   UNL A   1      44.168  17.165  41.071  1.00  0.00     0.072 C 
BRANCH  19  20
ATOM     20  C   UNL A   1      43.416  16.118  40.202  1.00  0.00     0.262 C 
BRANCH  20  21
ATOM     21  N   UNL A   1      42.870  14.965  40.914  1.00  0.00    -0.335 N 
ATOM     22  C   UNL A   1      41.653  14.419  40.346  1.00  0.00     0.262 C 
ATOM     23  C   UNL A   1      42.770  15.058  42.380  1.00  0.00     0.265 C 
ATOM     24  H   UNL A   1      43.622  14.295  40.750  1.00  0.00     0.348 HD
ATOM     25  C   UNL A   1      41.617  12.933  40.731  1.00  0.00     0.062 C 
ATOM     26  C   UNL A   1      41.894  13.910  42.989  1.00  0.00     0.044 C 
ATOM     27  C   UNL A   1      42.020  12.645  42.152  1.00  0.00     0.015 C 
BRANCH  26  28
ATOM     28  C   UNL A   1      42.224  13.607  44.453  1.00  0.00     0.006 C 
ATOM     29  C   UNL A   1      43.702  13.832  44.781  1.00  0.00     0.004 C 
ENDBRANCH  26  28
ENDBRANCH  20  21
ENDBRANCH  19  20
ENDBRANCH  11  19
ENDBRANCH   7   9
ENDBRANCH   6   7
ENDBRANCH   5   6
ENDBRANCH   4   5
ENDBRANCH   3   4
ENDBRANCH   2   3
ENDBRANCH   1   2
BRANCH   1  30
ATOM     30  O   UNL A   1      48.515  19.963  34.634  1.00  0.00    -0.377 OA
BRANCH  30  31
ATOM     31  C   UNL A   1      49.561  20.181  33.690  1.00  0.00     0.188 C 
BRANCH  31  32
ATOM     32  C   UNL A   1      50.549  21.327  33.983  1.00  0.00     0.188 C 
BRANCH  32  33
ATOM     33  O   UNL A   1      50.042  22.583  33.530  1.00  0.00    -0.376 OA
BRANCH  33  34
ATOM     34  C   UNL A   1      49.519  23.453  34.544  1.00  0.00     0.202 C 
BRANCH  34  35
ATOM     35  C   UNL A   1      48.172  24.107  34.160  1.00  0.00     0.261 C 
BRANCH  35  36
ATOM     36  O   UNL A   1      47.397  24.505  35.304  1.00  0.00    -0.460 OA
BRANCH  36  37
ATOM     37  C   UNL A   1      47.625  25.778  35.691  1.00  0.00     0.338 C 
ATOM     38  O   UNL A   1      48.692  26.251  36.027  1.00  0.00    -0.246 OA
BRANCH  37  39
ATOM     39  C   UNL A   1      46.424  26.600  35.442  1.00  0.00     0.060 A 
ATOM     40  C   UNL A   1      45.196  25.928  35.484  1.00  0.00     0.016 A 
ATOM     41  C   UNL A   1      46.479  27.965  35.139  1.00  0.00     0.016 A 
ATOM     42  C   UNL A   1      44.024  26.592  35.159  1.00  0.00     0.010 A 
ATOM     43  C   UNL A   1      45.302  28.626  34.771  1.00  0.00     0.010 A 
ATOM     44  C   UNL A   1      44.087  27.920  34.722  1.00  0.00    -0.014 A 
BRANCH  44  45
ATOM     45  C   UNL A   1      42.945  28.412  33.920  1.00  0.00     0.031 A 
ATOM     46  C   UNL A   1      42.003  29.381  34.584  1.00  0.00     0.074 A 
ATOM     47  C   UNL A   1      42.830  28.126  32.614  1.00  0.00     0.049 A 
ATOM     48  N   UNL A   1      40.969  30.011  34.092  1.00  0.00    -0.248 NA
ATOM     49  C   UNL A   1      42.278  29.693  35.998  1.00  0.00     0.031 C 
ATOM     50  C   UNL A   1      43.736  27.270  31.853  1.00  0.00     0.029 A 
ATOM     51  N   UNL A   1      41.903  28.546  31.695  1.00  0.00    -0.354 N 
ATOM     52  C   UNL A   1      40.475  30.788  35.133  1.00  0.00     0.074 A 
ATOM     53  C   UNL A   1      41.295  30.527  36.292  1.00  0.00     0.031 C 
ATOM     54  C   UNL A   1      43.315  27.221  30.577  1.00  0.00     0.029 A 
ATOM     55  C   UNL A   1      42.096  28.018  30.444  1.00  0.00     0.049 A 
ATOM     56  H   UNL A   1      41.171  29.166  31.912  1.00  0.00     0.167 HD
ATOM     57  C   UNL A   1      39.435  31.652  35.118  1.00  0.00     0.037 A 
ATOM     58  C   UNL A   1      41.353  28.153  29.328  1.00  0.00     0.037 A 
ATOM     59  C   UNL A   1      38.621  31.902  33.960  1.00  0.00     0.049 A 
ATOM     60  C   UNL A   1      40.134  29.042  29.365  1.00  0.00     0.074 A 
ATOM     61  C   UNL A   1      37.538  32.751  33.833  1.00  0.00     0.029 A 
ATOM     62  N   UNL A   1      38.801  31.291  32.727  1.00  0.00    -0.354 N 
ATOM     63  N   UNL A   1      39.672  29.779  30.349  1.00  0.00    -0.248 NA
ATOM     64  C   UNL A   1      39.334  29.120  28.135  1.00  0.00     0.031 C 
ATOM     65  C   UNL A   1      37.021  32.605  32.542  1.00  0.00     0.029 A 
ATOM     66  C   UNL A   1      37.826  31.719  31.843  1.00  0.00     0.049 A 
ATOM     67  H   UNL A   1      39.515  30.648  32.514  1.00  0.00     0.167 HD
ATOM     68  C   UNL A   1      38.551  30.430  29.848  1.00  0.00     0.074 A 
ATOM     69  C   UNL A   1      38.412  30.012  28.468  1.00  0.00     0.031 C 
ATOM     70  C   UNL A   1      37.712  31.296  30.470  1.00  0.00     0.037 A 
BRANCH  57  71
ATOM     71  C   UNL A   1      39.094  32.349  36.404  1.00  0.00     0.064 A 
ATOM     72  C   UNL A   1      38.142  31.836  37.299  1.00  0.00     0.173 A 
ATOM     73  C   UNL A   1      39.744  33.543  36.750  1.00  0.00     0.173 A 
ATOM     74  F   UNL A   1      37.476  30.709  37.005  1.00  0.00    -0.203 F 
ATOM     75  C   UNL A   1      37.834  32.508  38.479  1.00  0.00     0.198 A 
ATOM     76  C   UNL A   1      39.457  34.194  37.947  1.00  0.00     0.198 A 
ATOM     77  F   UNL A   1      40.659  34.078  35.929  1.00  0.00    -0.203 F 
ATOM     78  F   UNL A   1      36.881  32.030  39.291  1.00  0.00    -0.200 F 
ATOM     79  C   UNL A   1      38.497  33.681  38.806  1.00  0.00     0.200 A 
ATOM     80  F   UNL A   1      40.107  35.322  38.266  1.00  0.00    -0.200 F 
ATOM     81  F   UNL A   1      38.204  34.324  39.945  1.00  0.00    -0.200 F 
ENDBRANCH  57  71
BRANCH  58  82
ATOM     82  C   UNL A   1      41.721  27.414  28.092  1.00  0.00     0.064 A 
ATOM     83  C   UNL A   1      41.183  26.151  27.809  1.00  0.00     0.173 A 
ATOM     84  C   UNL A   1      42.646  27.946  27.180  1.00  0.00     0.173 A 
ATOM     85  F   UNL A   1      40.314  25.586  28.660  1.00  0.00    -0.203 F 
ATOM     86  C   UNL A   1      41.573  25.441  26.674  1.00  0.00     0.198 A 
ATOM     87  C   UNL A   1      43.009  27.249  26.030  1.00  0.00     0.198 A 
ATOM     88  F   UNL A   1      43.196  29.149  27.405  1.00  0.00    -0.203 F 
ATOM     89  F   UNL A   1      41.084  24.211  26.455  1.00  0.00    -0.200 F 
ATOM     90  C   UNL A   1      42.480  25.993  25.783  1.00  0.00     0.200 A 
ATOM     91  F   UNL A   1      43.877  27.793  25.166  1.00  0.00    -0.200 F 
ATOM     92  F   UNL A   1      42.853  25.310  24.692  1.00  0.00    -0.200 F 
ENDBRANCH  58  82
BRANCH  70  93
ATOM     93  C   UNL A   1      36.594  31.883  29.655  1.00  0.00     0.064 A 
ATOM     94  C   UNL A   1      36.596  33.227  29.255  1.00  0.00     0.173 A 
ATOM     95  C   UNL A   1      35.529  31.073  29.229  1.00  0.00     0.173 A 
ATOM     96  F   UNL A   1      37.584  34.046  29.645  1.00  0.00    -0.203 F 
ATOM     97  C   UNL A   1      35.558  33.745  28.485  1.00  0.00     0.198 A 
ATOM     98  C   UNL A   1      34.514  31.585  28.428  1.00  0.00     0.198 A 
ATOM     99  F   UNL A   1      35.485  29.776  29.573  1.00  0.00    -0.203 F 
ATOM    100  F   UNL A   1      35.553  35.045  28.161  1.00  0.00    -0.200 F 
ATOM    101  C   UNL A   1      34.523  32.922  28.065  1.00  0.00     0.200 A 
ATOM    102  F   UNL A   1      33.526  30.783  28.006  1.00  0.00    -0.200 F 
ATOM    103  F   UNL A   1      33.531  33.422  27.315  1.00  0.00    -0.200 F 
ENDBRANCH  70  93
ENDBRANCH  44  45
ENDBRANCH  37  39
ENDBRANCH  36  37
ENDBRANCH  35  36
ENDBRANCH  34  35
ENDBRANCH  33  34
ENDBRANCH  32  33
ENDBRANCH  31  32
ENDBRANCH  30  31
ENDBRANCH   1  30
TORSDOF 26
ENDMDL
MODEL 3
REMARK VINA RESULT:      -7.4      1.543      2.648
REMARK SMILES CC[NH2+][C@]1(C(=O)OCCOCCOCCOCCOC(=O)c2ccc(-c3c4nc(c(-c5c(F)c(F)c(F)c(F)c5F)c5ccc([nH]5)c(-c5c(F)c(F)c(F)c(F)c5F)c5nc(c(-c6c(F)c(F)c(F)c(F)c6F)c6ccc3[nH]6)C=C5)C=C4)cc2)CCC[C@H]1CC[N@@H+]1CCC[C@@H](CC)C1
REMARK SMILES IDX 12 1 11 2 10 3 9 4 8 5 7 6 5 7 6 8 4 9 85 10 88 11 86 12
REMARK SMILES IDX 87 13 3 14 2 17 1 18 89 19 90 20 91 21 92 22 98 23 93 25
REMARK SMILES IDX 95 26 94 27 96 28 97 29 13 30 14 31 15 32 16 33 17 34 18 35
REMARK SMILES IDX 19 36 20 37 21 38 22 39 23 40 84 41 24 42 83 43 25 44 26 45
REMARK SMILES IDX 27 46 77 47 28 48 82 49 76 50 78 51 29 52 81 53 75 54 74 55
REMARK SMILES IDX 30 57 62 58 42 59 61 60 43 61 46 62 60 63 79 64 44 65 45 66
REMARK SMILES IDX 59 68 80 69 47 70 31 71 32 72 40 73 33 74 34 75 38 76 41 77
REMARK SMILES IDX 35 78 36 79 39 80 37 81 63 82 64 83 72 84 65 85 66 86 70 87
REMARK SMILES IDX 73 88 67 89 68 90 71 91 69 92 48 93 49 94 57 95 50 96 51 97
REMARK SMILES IDX 55 98 58 99 52 100 53 101 56 102 54 103
REMARK H PARENT 3 15 3 16 91 24 78 56 46 67
REMARK Flexibility Score: inf
ROOT
ATOM      1  C   UNL A   1      35.687  32.170  28.776  1.00  0.00     0.188 C 
ENDROOT
BRANCH   1   2
ATOM      2  C   UNL A   1      36.752  31.828  29.813  1.00  0.00     0.188 C 
BRANCH   2   3
ATOM      3  O   UNL A   1      37.791  30.943  29.405  1.00  0.00    -0.376 OA
BRANCH   3   4
ATOM      4  C   UNL A   1      37.497  30.104  28.306  1.00  0.00     0.202 C 
BRANCH   4   5
ATOM      5  C   UNL A   1      38.250  28.768  28.388  1.00  0.00     0.261 C 
BRANCH   5   6
ATOM      6  O   UNL A   1      39.693  28.847  28.432  1.00  0.00    -0.459 OA
BRANCH   6   7
ATOM      7  C   UNL A   1      40.439  28.271  27.424  1.00  0.00     0.368 C 
ATOM      8  O   UNL A   1      40.722  28.829  26.374  1.00  0.00    -0.245 OA
BRANCH   7   9
ATOM      9  C   UNL A   1      40.728  26.751  27.740  1.00  0.00     0.197 C 
ATOM     10  C   UNL A   1      39.422  25.991  27.435  1.00  0.00     0.081 C 
ATOM     11  C   UNL A   1      41.778  25.965  26.880  1.00  0.00     0.068 C 
ATOM     12  C   UNL A   1      39.790  24.536  27.175  1.00  0.00     0.008 C 
ATOM     13  C   UNL A   1      41.307  24.495  27.030  1.00  0.00     0.011 C 
BRANCH   9  14
ATOM     14  N   UNL A   1      41.259  26.649  29.142  1.00  0.00    -0.332 N 
ATOM     15  H   UNL A   1      40.667  27.242  29.724  1.00  0.00     0.347 HD
ATOM     16  H   UNL A   1      41.244  25.645  29.325  1.00  0.00     0.347 HD
BRANCH  14  17
ATOM     17  C   UNL A   1      42.631  27.017  29.428  1.00  0.00     0.257 C 
ATOM     18  C   UNL A   1      43.377  25.772  29.896  1.00  0.00     0.071 C 
ENDBRANCH  14  17
ENDBRANCH   9  14
BRANCH  11  19
ATOM     19  C   UNL A   1      41.974  26.252  25.368  1.00  0.00     0.072 C 
BRANCH  19  20
ATOM     20  C   UNL A   1      43.172  27.173  24.998  1.00  0.00     0.262 C 
BRANCH  20  21
ATOM     21  N   UNL A   1      44.495  26.557  25.048  1.00  0.00    -0.335 N 
ATOM     22  C   UNL A   1      44.624  25.467  25.997  1.00  0.00     0.262 C 
ATOM     23  C   UNL A   1      45.660  27.455  25.119  1.00  0.00     0.265 C 
ATOM     24  H   UNL A   1      44.533  26.162  24.108  1.00  0.00     0.348 HD
ATOM     25  C   UNL A   1      45.733  24.549  25.463  1.00  0.00     0.062 C 
ATOM     26  C   UNL A   1      46.979  26.690  25.482  1.00  0.00     0.044 C 
ATOM     27  C   UNL A   1      46.939  25.274  24.927  1.00  0.00     0.015 C 
BRANCH  26  28
ATOM     28  C   UNL A   1      48.245  27.406  25.007  1.00  0.00     0.006 C 
ATOM     29  C   UNL A   1      49.361  26.433  24.621  1.00  0.00     0.004 C 
ENDBRANCH  26  28
ENDBRANCH  20  21
ENDBRANCH  19  20
ENDBRANCH  11  19
ENDBRANCH   7   9
ENDBRANCH   6   7
ENDBRANCH   5   6
ENDBRANCH   4   5
ENDBRANCH   3   4
ENDBRANCH   2   3
ENDBRANCH   1   2
BRANCH   1  30
ATOM     30  O   UNL A   1      35.684  33.564  28.498  1.00  0.00    -0.377 OA
BRANCH  30  31
ATOM     31  C   UNL A   1      35.307  34.427  29.568  1.00  0.00     0.188 C 
BRANCH  31  32
ATOM     32  C   UNL A   1      33.828  34.412  30.000  1.00  0.00     0.188 C 
BRANCH  32  33
ATOM     33  O   UNL A   1      33.699  34.264  31.415  1.00  0.00    -0.376 OA
BRANCH  33  34
ATOM     34  C   UNL A   1      34.923  34.277  32.163  1.00  0.00     0.202 C 
BRANCH  34  35
ATOM     35  C   UNL A   1      35.032  33.123  33.186  1.00  0.00     0.261 C 
BRANCH  35  36
ATOM     36  O   UNL A   1      36.189  32.296  32.975  1.00  0.00    -0.460 OA
BRANCH  36  37
ATOM     37  C   UNL A   1      36.999  32.220  34.052  1.00  0.00     0.338 C 
ATOM     38  O   UNL A   1      36.806  32.727  35.139  1.00  0.00    -0.246 OA
BRANCH  37  39
ATOM     39  C   UNL A   1      38.073  31.236  33.804  1.00  0.00     0.060 A 
ATOM     40  C   UNL A   1      39.248  31.405  34.546  1.00  0.00     0.016 A 
ATOM     41  C   UNL A   1      37.968  30.209  32.861  1.00  0.00     0.016 A 
ATOM     42  C   UNL A   1      40.348  30.597  34.307  1.00  0.00     0.010 A 
ATOM     43  C   UNL A   1      39.090  29.419  32.589  1.00  0.00     0.010 A 
ATOM     44  C   UNL A   1      40.297  29.659  33.271  1.00  0.00    -0.014 A 
BRANCH  44  45
ATOM     45  C   UNL A   1      41.593  29.202  32.722  1.00  0.00     0.031 A 
ATOM     46  C   UNL A   1      42.206  30.027  31.623  1.00  0.00     0.074 A 
ATOM     47  C   UNL A   1      42.267  28.181  33.273  1.00  0.00     0.049 A 
ATOM     48  N   UNL A   1      43.356  29.888  31.016  1.00  0.00    -0.248 NA
ATOM     49  C   UNL A   1      41.417  31.180  31.155  1.00  0.00     0.031 C 
ATOM     50  C   UNL A   1      41.804  27.370  34.397  1.00  0.00     0.029 A 
ATOM     51  N   UNL A   1      43.500  27.666  32.966  1.00  0.00    -0.354 N 
ATOM     52  C   UNL A   1      43.423  30.932  30.100  1.00  0.00     0.074 A 
ATOM     53  C   UNL A   1      42.189  31.674  30.202  1.00  0.00     0.031 C 
ATOM     54  C   UNL A   1      42.742  26.450  34.683  1.00  0.00     0.029 A 
ATOM     55  C   UNL A   1      43.853  26.592  33.743  1.00  0.00     0.049 A 
ATOM     56  H   UNL A   1      44.075  28.031  32.257  1.00  0.00     0.167 HD
ATOM     57  C   UNL A   1      44.432  31.247  29.257  1.00  0.00     0.037 A 
ATOM     58  C   UNL A   1      44.945  25.805  33.679  1.00  0.00     0.037 A 
ATOM     59  C   UNL A   1      45.655  30.500  29.160  1.00  0.00     0.049 A 
ATOM     60  C   UNL A   1      46.010  26.115  32.656  1.00  0.00     0.074 A 
ATOM     61  C   UNL A   1      46.741  30.725  28.335  1.00  0.00     0.029 A 
ATOM     62  N   UNL A   1      45.947  29.370  29.911  1.00  0.00    -0.354 N 
ATOM     63  N   UNL A   1      46.074  27.104  31.796  1.00  0.00    -0.248 NA
ATOM     64  C   UNL A   1      47.159  25.200  32.599  1.00  0.00     0.031 C 
ATOM     65  C   UNL A   1      47.663  29.694  28.541  1.00  0.00     0.029 A 
ATOM     66  C   UNL A   1      47.183  28.868  29.544  1.00  0.00     0.049 A 
ATOM     67  H   UNL A   1      45.361  28.984  30.602  1.00  0.00     0.167 HD
ATOM     68  C   UNL A   1      47.278  26.949  31.120  1.00  0.00     0.074 A 
ATOM     69  C   UNL A   1      47.920  25.779  31.682  1.00  0.00     0.031 C 
ATOM     70  C   UNL A   1      47.807  27.705  30.125  1.00  0.00     0.037 A 
BRANCH  57  71
ATOM     71  C   UNL A   1      44.229  32.423  28.344  1.00  0.00     0.064 A 
ATOM     72  C   UNL A   1      44.342  33.746  28.799  1.00  0.00     0.173 A 
ATOM     73  C   UNL A   1      43.930  32.218  26.989  1.00  0.00     0.173 A 
ATOM     74  F   UNL A   1      44.605  33.997  30.090  1.00  0.00    -0.203 F 
ATOM     75  C   UNL A   1      44.136  34.819  27.936  1.00  0.00     0.198 A 
ATOM     76  C   UNL A   1      43.758  33.294  26.123  1.00  0.00     0.198 A 
ATOM     77  F   UNL A   1      43.806  30.974  26.504  1.00  0.00    -0.203 F 
ATOM     78  F   UNL A   1      44.193  36.074  28.403  1.00  0.00    -0.200 F 
ATOM     79  C   UNL A   1      43.853  34.593  26.597  1.00  0.00     0.200 A 
ATOM     80  F   UNL A   1      43.495  33.072  24.827  1.00  0.00    -0.200 F 
ATOM     81  F   UNL A   1      43.660  35.627  25.767  1.00  0.00    -0.200 F 
ENDBRANCH  57  71
BRANCH  58  82
ATOM     82  C   UNL A   1      45.076  24.636  34.588  1.00  0.00     0.064 A 
ATOM     83  C   UNL A   1      45.615  24.767  35.875  1.00  0.00     0.173 A 
ATOM     84  C   UNL A   1      44.687  23.352  34.174  1.00  0.00     0.173 A 
ATOM     85  F   UNL A   1      46.025  25.968  36.310  1.00  0.00    -0.203 F 
ATOM     86  C   UNL A   1      45.782  23.658  36.702  1.00  0.00     0.198 A 
ATOM     87  C   UNL A   1      44.824  22.250  35.014  1.00  0.00     0.198 A 
ATOM     88  F   UNL A   1      44.169  23.168  32.950  1.00  0.00    -0.203 F 
ATOM     89  F   UNL A   1      46.352  23.804  37.907  1.00  0.00    -0.200 F 
ATOM     90  C   UNL A   1      45.381  22.402  36.274  1.00  0.00     0.200 A 
ATOM     91  F   UNL A   1      44.423  21.040  34.600  1.00  0.00    -0.200 F 
ATOM     92  F   UNL A   1      45.541  21.336  37.071  1.00  0.00    -0.200 F 
ENDBRANCH  58  82
BRANCH  70  93
ATOM     93  C   UNL A   1      49.164  27.317  29.608  1.00  0.00     0.064 A 
ATOM     94  C   UNL A   1      50.336  27.933  30.072  1.00  0.00     0.173 A 
ATOM     95  C   UNL A   1      49.294  26.281  28.670  1.00  0.00     0.173 A 
ATOM     96  F   UNL A   1      50.267  28.935  30.959  1.00  0.00    -0.203 F 
ATOM     97  C   UNL A   1      51.584  27.545  29.591  1.00  0.00     0.198 A 
ATOM     98  C   UNL A   1      50.545  25.872  28.221  1.00  0.00     0.198 A 
ATOM     99  F   UNL A   1      48.205  25.651  28.202  1.00  0.00    -0.203 F 
ATOM    100  F   UNL A   1      52.687  28.184  30.007  1.00  0.00    -0.200 F 
ATOM    101  C   UNL A   1      51.689  26.510  28.674  1.00  0.00     0.200 A 
ATOM    102  F   UNL A   1      50.644  24.857  27.350  1.00  0.00    -0.200 F 
ATOM    103  F   UNL A   1      52.892  26.132  28.222  1.00  0.00    -0.200 F 
ENDBRANCH  70  93
ENDBRANCH  44  45
ENDBRANCH  37  39
ENDBRANCH  36  37
ENDBRANCH  35  36
ENDBRANCH  34  35
ENDBRANCH  33  34
ENDBRANCH  32  33
ENDBRANCH  31  32
ENDBRANCH  30  31
ENDBRANCH   1  30
TORSDOF 26
ENDMDL
