MODEL 1
REMARK VINA RESULT:      -7.3      0.000      0.000
REMARK SMILES O=C(CCCCCN1C(=O)[C@@H]2CC=CC[C@H]2C1=O)OCCOCCOCCOCCOC(=O)c1ccc(-c2c3nc(c(-c4c(F)c(F)c(F)c(F)c4F)c4ccc([nH]4)c(-c4c(F)c(F)c(F)c(F)c4F)c4nc(c(-c5c(F)c(F)c(F)c(F)c5F)c5ccc2[nH]5)C=C4)C=C3)cc1
REMARK SMILES IDX 23 1 22 2 21 3 20 4 19 5 2 6 1 7 3 8 4 9 5 10 6 11 7 12 8 13
REMARK SMILES IDX 9 14 17 15 10 16 11 17 16 18 18 19 12 20 15 21 13 22 14 23
REMARK SMILES IDX 24 24 25 25 26 26 27 27 28 28 29 29 30 30 31 31 32 32 33 33
REMARK SMILES IDX 34 34 35 35 96 36 36 37 95 38 37 39 38 40 39 41 89 42 40 43
REMARK SMILES IDX 94 44 88 45 90 46 41 47 93 48 87 49 86 50 42 52 74 53 54 54
REMARK SMILES IDX 73 55 55 56 58 57 72 58 91 59 56 60 57 61 71 63 92 64 59 65
REMARK SMILES IDX 43 66 44 67 52 68 45 69 46 70 50 71 53 72 47 73 48 74 51 75
REMARK SMILES IDX 49 76 75 77 76 78 84 79 77 80 78 81 82 82 85 83 79 84 80 85
REMARK SMILES IDX 83 86 81 87 60 88 61 89 69 90 62 91 63 92 67 93 70 94 64 95
REMARK SMILES IDX 65 96 68 97 66 98
REMARK H PARENT 90 51 58 62
REMARK Flexibility Score: inf
ROOT
ATOM      1  C   UNL A   1      40.441  27.813  26.966  1.00  0.00     0.188 C 
ENDROOT
BRANCH   1   2
ATOM      2  O   UNL A   1      39.840  27.708  28.255  1.00  0.00    -0.376 OA
BRANCH   2   3
ATOM      3  C   UNL A   1      38.588  28.314  28.489  1.00  0.00     0.202 C 
BRANCH   3   4
ATOM      4  C   UNL A   1      38.362  28.826  29.917  1.00  0.00     0.261 C 
BRANCH   4   5
ATOM      5  O   UNL A   1      38.884  30.109  30.311  1.00  0.00    -0.463 OA
BRANCH   5   6
ATOM      6  C   UNL A   1      40.207  30.267  30.537  1.00  0.00     0.305 C 
ATOM      7  O   UNL A   1      41.008  30.566  29.659  1.00  0.00    -0.252 OA
BRANCH   6   8
ATOM      8  C   UNL A   1      40.596  30.049  31.993  1.00  0.00     0.123 C 
BRANCH   8   9
ATOM      9  C   UNL A   1      39.465  30.069  33.018  1.00  0.00     0.012 C 
BRANCH   9  10
ATOM     10  C   UNL A   1      39.178  31.388  33.755  1.00  0.00     0.002 C 
BRANCH  10  11
ATOM     11  C   UNL A   1      38.234  32.396  33.084  1.00  0.00     0.022 C 
BRANCH  11  12
ATOM     12  C   UNL A   1      36.806  31.911  32.794  1.00  0.00     0.128 C 
BRANCH  12  13
ATOM     13  N   UNL A   1      35.976  32.985  32.285  1.00  0.00    -0.282 N 
ATOM     14  C   UNL A   1      35.820  33.247  30.946  1.00  0.00     0.233 C 
ATOM     15  C   UNL A   1      35.176  33.818  33.039  1.00  0.00     0.233 C 
ATOM     16  O   UNL A   1      36.561  32.970  30.017  1.00  0.00    -0.274 OA
ATOM     17  C   UNL A   1      34.479  33.887  30.850  1.00  0.00     0.095 C 
ATOM     18  C   UNL A   1      34.584  34.804  32.057  1.00  0.00     0.095 C 
ATOM     19  O   UNL A   1      35.003  33.806  34.244  1.00  0.00    -0.274 OA
ATOM     20  C   UNL A   1      34.104  34.586  29.569  1.00  0.00     0.041 C 
ATOM     21  C   UNL A   1      33.252  35.456  32.352  1.00  0.00     0.041 C 
ATOM     22  C   UNL A   1      33.027  35.603  29.837  1.00  0.00    -0.030 C 
ATOM     23  C   UNL A   1      32.634  35.976  31.070  1.00  0.00    -0.030 C 
ENDBRANCH  12  13
ENDBRANCH  11  12
ENDBRANCH  10  11
ENDBRANCH   9  10
ENDBRANCH   8   9
ENDBRANCH   6   8
ENDBRANCH   5   6
ENDBRANCH   4   5
ENDBRANCH   3   4
ENDBRANCH   2   3
ENDBRANCH   1   2
BRANCH   1  24
ATOM     24  C   UNL A   1      40.783  26.507  26.261  1.00  0.00     0.188 C 
BRANCH  24  25
ATOM     25  O   UNL A   1      41.377  25.451  27.010  1.00  0.00    -0.377 OA
BRANCH  25  26
ATOM     26  C   UNL A   1      41.225  24.097  26.619  1.00  0.00     0.188 C 
BRANCH  26  27
ATOM     27  C   UNL A   1      42.198  23.107  27.272  1.00  0.00     0.188 C 
BRANCH  27  28
ATOM     28  O   UNL A   1      43.097  22.409  26.426  1.00  0.00    -0.376 OA
BRANCH  28  29
ATOM     29  C   UNL A   1      43.211  22.827  25.067  1.00  0.00     0.202 C 
BRANCH  29  30
ATOM     30  C   UNL A   1      44.410  23.686  24.612  1.00  0.00     0.261 C 
BRANCH  30  31
ATOM     31  O   UNL A   1      45.032  24.460  25.660  1.00  0.00    -0.460 OA
BRANCH  31  32
ATOM     32  C   UNL A   1      45.890  25.431  25.270  1.00  0.00     0.338 C 
ATOM     33  O   UNL A   1      46.685  25.378  24.344  1.00  0.00    -0.246 OA
BRANCH  32  34
ATOM     34  C   UNL A   1      45.618  26.696  25.991  1.00  0.00     0.060 A 
ATOM     35  C   UNL A   1      46.664  27.284  26.719  1.00  0.00     0.016 A 
ATOM     36  C   UNL A   1      44.336  27.240  26.051  1.00  0.00     0.016 A 
ATOM     37  C   UNL A   1      46.429  28.398  27.529  1.00  0.00     0.010 A 
ATOM     38  C   UNL A   1      44.092  28.337  26.892  1.00  0.00     0.010 A 
ATOM     39  C   UNL A   1      45.129  28.898  27.663  1.00  0.00    -0.014 A 
BRANCH  39  40
ATOM     40  C   UNL A   1      44.812  29.830  28.778  1.00  0.00     0.031 A 
ATOM     41  C   UNL A   1      44.559  29.243  30.141  1.00  0.00     0.074 A 
ATOM     42  C   UNL A   1      44.766  31.163  28.608  1.00  0.00     0.049 A 
ATOM     43  N   UNL A   1      44.196  29.832  31.253  1.00  0.00    -0.248 NA
ATOM     44  C   UNL A   1      44.735  27.786  30.264  1.00  0.00     0.031 C 
ATOM     45  C   UNL A   1      45.045  31.867  27.360  1.00  0.00     0.029 A 
ATOM     46  N   UNL A   1      44.452  32.164  29.497  1.00  0.00    -0.354 N 
ATOM     47  C   UNL A   1      44.090  28.820  32.199  1.00  0.00     0.074 A 
ATOM     48  C   UNL A   1      44.400  27.577  31.527  1.00  0.00     0.031 C 
ATOM     49  C   UNL A   1      44.865  33.185  27.554  1.00  0.00     0.029 A 
ATOM     50  C   UNL A   1      44.426  33.415  28.931  1.00  0.00     0.049 A 
ATOM     51  H   UNL A   1      44.262  31.999  30.449  1.00  0.00     0.167 HD
ATOM     52  C   UNL A   1      43.765  28.916  33.510  1.00  0.00     0.037 A 
ATOM     53  C   UNL A   1      44.061  34.602  29.458  1.00  0.00     0.037 A 
ATOM     54  C   UNL A   1      43.452  30.151  34.179  1.00  0.00     0.049 A 
ATOM     55  C   UNL A   1      43.626  34.675  30.903  1.00  0.00     0.074 A 
ATOM     56  C   UNL A   1      43.129  30.352  35.510  1.00  0.00     0.029 A 
ATOM     57  N   UNL A   1      43.408  31.394  33.565  1.00  0.00    -0.354 N 
ATOM     58  N   UNL A   1      43.550  33.718  31.797  1.00  0.00    -0.248 NA
ATOM     59  C   UNL A   1      43.228  35.996  31.413  1.00  0.00     0.031 C 
ATOM     60  C   UNL A   1      42.825  31.706  35.686  1.00  0.00     0.029 A 
ATOM     61  C   UNL A   1      43.031  32.361  34.483  1.00  0.00     0.049 A 
ATOM     62  H   UNL A   1      43.613  31.563  32.617  1.00  0.00     0.167 HD
ATOM     63  C   UNL A   1      43.131  34.325  32.977  1.00  0.00     0.074 A 
ATOM     64  C   UNL A   1      42.982  35.735  32.689  1.00  0.00     0.031 C 
ATOM     65  C   UNL A   1      42.894  33.766  34.189  1.00  0.00     0.037 A 
BRANCH  52  66
ATOM     66  C   UNL A   1      43.693  27.643  34.303  1.00  0.00     0.064 A 
ATOM     67  C   UNL A   1      44.818  27.106  34.948  1.00  0.00     0.173 A 
ATOM     68  C   UNL A   1      42.471  26.968  34.446  1.00  0.00     0.173 A 
ATOM     69  F   UNL A   1      46.013  27.703  34.833  1.00  0.00    -0.203 F 
ATOM     70  C   UNL A   1      44.726  25.926  35.684  1.00  0.00     0.198 A 
ATOM     71  C   UNL A   1      42.376  25.808  35.210  1.00  0.00     0.198 A 
ATOM     72  F   UNL A   1      41.364  27.439  33.852  1.00  0.00    -0.203 F 
ATOM     73  F   UNL A   1      45.822  25.405  36.250  1.00  0.00    -0.200 F 
ATOM     74  C   UNL A   1      43.504  25.284  35.821  1.00  0.00     0.200 A 
ATOM     75  F   UNL A   1      41.191  25.198  35.353  1.00  0.00    -0.200 F 
ATOM     76  F   UNL A   1      43.416  24.155  36.538  1.00  0.00    -0.200 F 
ENDBRANCH  52  66
BRANCH  53  77
ATOM     77  C   UNL A   1      44.064  35.829  28.613  1.00  0.00     0.064 A 
ATOM     78  C   UNL A   1      45.211  36.626  28.492  1.00  0.00     0.173 A 
ATOM     79  C   UNL A   1      42.908  36.245  27.935  1.00  0.00     0.173 A 
ATOM     80  F   UNL A   1      46.333  36.288  29.143  1.00  0.00    -0.203 F 
ATOM     81  C   UNL A   1      45.195  37.803  27.744  1.00  0.00     0.198 A 
ATOM     82  C   UNL A   1      42.903  37.405  27.161  1.00  0.00     0.198 A 
ATOM     83  F   UNL A   1      41.781  35.525  28.021  1.00  0.00    -0.203 F 
ATOM     84  F   UNL A   1      46.290  38.574  27.689  1.00  0.00    -0.200 F 
ATOM     85  C   UNL A   1      44.045  38.187  27.073  1.00  0.00     0.200 A 
ATOM     86  F   UNL A   1      41.792  37.765  26.505  1.00  0.00    -0.200 F 
ATOM     87  F   UNL A   1      44.031  39.315  26.351  1.00  0.00    -0.200 F 
ENDBRANCH  53  77
BRANCH  65  88
ATOM     88  C   UNL A   1      42.496  34.678  35.317  1.00  0.00     0.064 A 
ATOM     89  C   UNL A   1      43.447  35.316  36.127  1.00  0.00     0.173 A 
ATOM     90  C   UNL A   1      41.141  34.956  35.557  1.00  0.00     0.173 A 
ATOM     91  F   UNL A   1      44.755  35.079  35.949  1.00  0.00    -0.203 F 
ATOM     92  C   UNL A   1      43.055  36.173  37.154  1.00  0.00     0.198 A 
ATOM     93  C   UNL A   1      40.754  35.842  36.560  1.00  0.00     0.198 A 
ATOM     94  F   UNL A   1      40.189  34.383  34.806  1.00  0.00    -0.203 F 
ATOM     95  F   UNL A   1      43.980  36.729  37.949  1.00  0.00    -0.200 F 
ATOM     96  C   UNL A   1      41.711  36.441  37.364  1.00  0.00     0.200 A 
ATOM     97  F   UNL A   1      39.455  36.113  36.748  1.00  0.00    -0.200 F 
ATOM     98  F   UNL A   1      41.336  37.274  38.345  1.00  0.00    -0.200 F 
ENDBRANCH  65  88
ENDBRANCH  39  40
ENDBRANCH  32  34
ENDBRANCH  31  32
ENDBRANCH  30  31
ENDBRANCH  29  30
ENDBRANCH  28  29
ENDBRANCH  27  28
ENDBRANCH  26  27
ENDBRANCH  25  26
ENDBRANCH  24  25
ENDBRANCH   1  24
TORSDOF 25
ENDMDL
MODEL 2
REMARK VINA RESULT:      -7.1      7.090     13.899
REMARK SMILES O=C(CCCCCN1C(=O)[C@@H]2CC=CC[C@H]2C1=O)OCCOCCOCCOCCOC(=O)c1ccc(-c2c3nc(c(-c4c(F)c(F)c(F)c(F)c4F)c4ccc([nH]4)c(-c4c(F)c(F)c(F)c(F)c4F)c4nc(c(-c5c(F)c(F)c(F)c(F)c5F)c5ccc2[nH]5)C=C4)C=C3)cc1
REMARK SMILES IDX 23 1 22 2 21 3 20 4 19 5 2 6 1 7 3 8 4 9 5 10 6 11 7 12 8 13
REMARK SMILES IDX 9 14 17 15 10 16 11 17 16 18 18 19 12 20 15 21 13 22 14 23
REMARK SMILES IDX 24 24 25 25 26 26 27 27 28 28 29 29 30 30 31 31 32 32 33 33
REMARK SMILES IDX 34 34 35 35 96 36 36 37 95 38 37 39 38 40 39 41 89 42 40 43
REMARK SMILES IDX 94 44 88 45 90 46 41 47 93 48 87 49 86 50 42 52 74 53 54 54
REMARK SMILES IDX 73 55 55 56 58 57 72 58 91 59 56 60 57 61 71 63 92 64 59 65
REMARK SMILES IDX 43 66 44 67 52 68 45 69 46 70 50 71 53 72 47 73 48 74 51 75
REMARK SMILES IDX 49 76 75 77 76 78 84 79 77 80 78 81 82 82 85 83 79 84 80 85
REMARK SMILES IDX 83 86 81 87 60 88 61 89 69 90 62 91 63 92 67 93 70 94 64 95
REMARK SMILES IDX 65 96 68 97 66 98
REMARK H PARENT 90 51 58 62
REMARK Flexibility Score: inf
ROOT
ATOM      1  C   UNL A   1      42.338  39.254  27.250  1.00  0.00     0.188 C 
ENDROOT
BRANCH   1   2
ATOM      2  O   UNL A   1      42.796  40.037  26.150  1.00  0.00    -0.376 OA
BRANCH   2   3
ATOM      3  C   UNL A   1      41.923  40.968  25.548  1.00  0.00     0.202 C 
BRANCH   3   4
ATOM      4  C   UNL A   1      42.586  41.973  24.599  1.00  0.00     0.261 C 
BRANCH   4   5
ATOM      5  O   UNL A   1      42.620  41.711  23.184  1.00  0.00    -0.463 OA
BRANCH   5   6
ATOM      6  C   UNL A   1      41.968  42.523  22.324  1.00  0.00     0.305 C 
ATOM      7  O   UNL A   1      40.785  42.821  22.445  1.00  0.00    -0.252 OA
BRANCH   6   8
ATOM      8  C   UNL A   1      42.855  43.043  21.200  1.00  0.00     0.123 C 
BRANCH   8   9
ATOM      9  C   UNL A   1      44.340  43.201  21.514  1.00  0.00     0.012 C 
BRANCH   9  10
ATOM     10  C   UNL A   1      44.932  44.621  21.525  1.00  0.00     0.002 C 
BRANCH  10  11
ATOM     11  C   UNL A   1      46.174  44.889  20.660  1.00  0.00     0.022 C 
BRANCH  11  12
ATOM     12  C   UNL A   1      46.021  44.654  19.151  1.00  0.00     0.128 C 
BRANCH  12  13
ATOM     13  N   UNL A   1      44.906  45.404  18.609  1.00  0.00    -0.282 N 
ATOM     14  C   UNL A   1      44.895  46.774  18.513  1.00  0.00     0.233 C 
ATOM     15  C   UNL A   1      43.767  44.868  18.044  1.00  0.00     0.233 C 
ATOM     16  O   UNL A   1      45.528  47.594  19.157  1.00  0.00    -0.274 OA
ATOM     17  C   UNL A   1      43.981  47.056  17.372  1.00  0.00     0.095 C 
ATOM     18  C   UNL A   1      42.890  46.054  17.708  1.00  0.00     0.095 C 
ATOM     19  O   UNL A   1      43.489  43.694  17.881  1.00  0.00    -0.274 OA
ATOM     20  C   UNL A   1      43.490  48.467  17.174  1.00  0.00     0.041 C 
ATOM     21  C   UNL A   1      41.887  45.956  16.580  1.00  0.00     0.041 C 
ATOM     22  C   UNL A   1      42.209  48.456  16.383  1.00  0.00    -0.030 C 
ATOM     23  C   UNL A   1      41.507  47.342  16.102  1.00  0.00    -0.030 C 
ENDBRANCH  12  13
ENDBRANCH  11  12
ENDBRANCH  10  11
ENDBRANCH   9  10
ENDBRANCH   8   9
ENDBRANCH   6   8
ENDBRANCH   5   6
ENDBRANCH   4   5
ENDBRANCH   3   4
ENDBRANCH   2   3
ENDBRANCH   1   2
BRANCH   1  24
ATOM     24  C   UNL A   1      41.859  40.012  28.480  1.00  0.00     0.188 C 
BRANCH  24  25
ATOM     25  O   UNL A   1      42.745  40.930  29.115  1.00  0.00    -0.377 OA
BRANCH  25  26
ATOM     26  C   UNL A   1      44.071  40.557  29.449  1.00  0.00     0.188 C 
BRANCH  26  27
ATOM     27  C   UNL A   1      44.904  41.639  30.149  1.00  0.00     0.188 C 
BRANCH  27  28
ATOM     28  O   UNL A   1      44.471  42.984  30.034  1.00  0.00    -0.376 OA
BRANCH  28  29
ATOM     29  C   UNL A   1      44.309  43.748  31.227  1.00  0.00     0.202 C 
BRANCH  29  30
ATOM     30  C   UNL A   1      45.401  43.736  32.317  1.00  0.00     0.261 C 
BRANCH  30  31
ATOM     31  O   UNL A   1      44.939  43.359  33.632  1.00  0.00    -0.460 OA
BRANCH  31  32
ATOM     32  C   UNL A   1      45.640  42.389  34.266  1.00  0.00     0.338 C 
ATOM     33  O   UNL A   1      46.633  42.537  34.961  1.00  0.00    -0.246 OA
BRANCH  32  34
ATOM     34  C   UNL A   1      44.933  41.090  34.187  1.00  0.00     0.060 A 
ATOM     35  C   UNL A   1      45.579  39.949  34.687  1.00  0.00     0.016 A 
ATOM     36  C   UNL A   1      43.707  40.966  33.533  1.00  0.00     0.016 A 
ATOM     37  C   UNL A   1      45.021  38.681  34.513  1.00  0.00     0.010 A 
ATOM     38  C   UNL A   1      43.164  39.689  33.327  1.00  0.00     0.010 A 
ATOM     39  C   UNL A   1      43.835  38.537  33.783  1.00  0.00    -0.014 A 
BRANCH  39  40
ATOM     40  C   UNL A   1      43.435  37.192  33.290  1.00  0.00     0.031 A 
ATOM     41  C   UNL A   1      44.130  36.650  32.069  1.00  0.00     0.074 A 
ATOM     42  C   UNL A   1      42.498  36.452  33.908  1.00  0.00     0.049 A 
ATOM     43  N   UNL A   1      43.914  35.542  31.405  1.00  0.00    -0.248 NA
ATOM     44  C   UNL A   1      45.216  37.478  31.520  1.00  0.00     0.031 C 
ATOM     45  C   UNL A   1      41.789  36.828  35.127  1.00  0.00     0.029 A 
ATOM     46  N   UNL A   1      41.973  35.224  33.578  1.00  0.00    -0.354 N 
ATOM     47  C   UNL A   1      44.826  35.548  30.358  1.00  0.00     0.074 A 
ATOM     48  C   UNL A   1      45.580  36.777  30.457  1.00  0.00     0.031 C 
ATOM     49  C   UNL A   1      40.902  35.864  35.430  1.00  0.00     0.029 A 
ATOM     50  C   UNL A   1      40.958  34.817  34.409  1.00  0.00     0.049 A 
ATOM     51  H   UNL A   1      42.294  34.687  32.818  1.00  0.00     0.167 HD
ATOM     52  C   UNL A   1      45.021  34.610  29.399  1.00  0.00     0.037 A 
ATOM     53  C   UNL A   1      40.149  33.740  34.334  1.00  0.00     0.037 A 
ATOM     54  C   UNL A   1      44.268  33.389  29.296  1.00  0.00     0.049 A 
ATOM     55  C   UNL A   1      40.332  32.747  33.210  1.00  0.00     0.074 A 
ATOM     56  C   UNL A   1      44.405  32.368  28.371  1.00  0.00     0.029 A 
ATOM     57  N   UNL A   1      43.228  33.026  30.139  1.00  0.00    -0.354 N 
ATOM     58  N   UNL A   1      41.211  32.746  32.237  1.00  0.00    -0.248 NA
ATOM     59  C   UNL A   1      39.410  31.601  33.178  1.00  0.00     0.031 C 
ATOM     60  C   UNL A   1      43.405  31.421  28.613  1.00  0.00     0.029 A 
ATOM     61  C   UNL A   1      42.693  31.814  29.735  1.00  0.00     0.049 A 
ATOM     62  H   UNL A   1      42.917  33.553  30.910  1.00  0.00     0.167 HD
ATOM     63  C   UNL A   1      40.970  31.590  31.501  1.00  0.00     0.074 A 
ATOM     64  C   UNL A   1      39.871  30.907  32.148  1.00  0.00     0.031 C 
ATOM     65  C   UNL A   1      41.604  31.135  30.391  1.00  0.00     0.037 A 
BRANCH  52  66
ATOM     66  C   UNL A   1      46.066  34.889  28.357  1.00  0.00     0.064 A 
ATOM     67  C   UNL A   1      45.784  35.643  27.208  1.00  0.00     0.173 A 
ATOM     68  C   UNL A   1      47.377  34.420  28.530  1.00  0.00     0.173 A 
ATOM     69  F   UNL A   1      44.544  36.102  26.987  1.00  0.00    -0.203 F 
ATOM     70  C   UNL A   1      46.772  35.895  26.257  1.00  0.00     0.198 A 
ATOM     71  C   UNL A   1      48.369  34.702  27.595  1.00  0.00     0.198 A 
ATOM     72  F   UNL A   1      47.701  33.696  29.611  1.00  0.00    -0.203 F 
ATOM     73  F   UNL A   1      46.469  36.574  25.143  1.00  0.00    -0.200 F 
ATOM     74  C   UNL A   1      48.064  35.432  26.456  1.00  0.00     0.200 A 
ATOM     75  F   UNL A   1      49.621  34.267  27.797  1.00  0.00    -0.200 F 
ATOM     76  F   UNL A   1      49.015  35.684  25.545  1.00  0.00    -0.200 F 
ENDBRANCH  52  66
BRANCH  53  77
ATOM     77  C   UNL A   1      39.068  33.546  35.339  1.00  0.00     0.064 A 
ATOM     78  C   UNL A   1      37.744  33.917  35.065  1.00  0.00     0.173 A 
ATOM     79  C   UNL A   1      39.344  33.015  36.608  1.00  0.00     0.173 A 
ATOM     80  F   UNL A   1      37.432  34.457  33.878  1.00  0.00    -0.203 F 
ATOM     81  C   UNL A   1      36.743  33.784  36.027  1.00  0.00     0.198 A 
ATOM     82  C   UNL A   1      38.337  32.852  37.559  1.00  0.00     0.198 A 
ATOM     83  F   UNL A   1      40.594  32.649  36.927  1.00  0.00    -0.203 F 
ATOM     84  F   UNL A   1      35.498  34.197  35.757  1.00  0.00    -0.200 F 
ATOM     85  C   UNL A   1      37.039  33.245  37.270  1.00  0.00     0.200 A 
ATOM     86  F   UNL A   1      38.626  32.320  38.753  1.00  0.00    -0.200 F 
ATOM     87  F   UNL A   1      36.077  33.114  38.192  1.00  0.00    -0.200 F 
ENDBRANCH  53  77
BRANCH  65  88
ATOM     88  C   UNL A   1      41.165  29.812  29.827  1.00  0.00     0.064 A 
ATOM     89  C   UNL A   1      41.910  28.639  30.015  1.00  0.00     0.173 A 
ATOM     90  C   UNL A   1      39.952  29.709  29.127  1.00  0.00     0.173 A 
ATOM     91  F   UNL A   1      43.082  28.681  30.667  1.00  0.00    -0.203 F 
ATOM     92  C   UNL A   1      41.474  27.421  29.500  1.00  0.00     0.198 A 
ATOM     93  C   UNL A   1      39.500  28.483  28.644  1.00  0.00     0.198 A 
ATOM     94  F   UNL A   1      39.192  30.796  28.925  1.00  0.00    -0.203 F 
ATOM     95  F   UNL A   1      42.230  26.323  29.647  1.00  0.00    -0.200 F 
ATOM     96  C   UNL A   1      40.267  27.342  28.822  1.00  0.00     0.200 A 
ATOM     97  F   UNL A   1      38.324  28.408  28.007  1.00  0.00    -0.200 F 
ATOM     98  F   UNL A   1      39.844  26.167  28.336  1.00  0.00    -0.200 F 
ENDBRANCH  65  88
ENDBRANCH  39  40
ENDBRANCH  32  34
ENDBRANCH  31  32
ENDBRANCH  30  31
ENDBRANCH  29  30
ENDBRANCH  28  29
ENDBRANCH  27  28
ENDBRANCH  26  27
ENDBRANCH  25  26
ENDBRANCH  24  25
ENDBRANCH   1  24
TORSDOF 25
ENDMDL
MODEL 3
REMARK VINA RESULT:      -7.0      6.170     11.968
REMARK SMILES O=C(CCCCCN1C(=O)[C@@H]2CC=CC[C@H]2C1=O)OCCOCCOCCOCCOC(=O)c1ccc(-c2c3nc(c(-c4c(F)c(F)c(F)c(F)c4F)c4ccc([nH]4)c(-c4c(F)c(F)c(F)c(F)c4F)c4nc(c(-c5c(F)c(F)c(F)c(F)c5F)c5ccc2[nH]5)C=C4)C=C3)cc1
REMARK SMILES IDX 23 1 22 2 21 3 20 4 19 5 2 6 1 7 3 8 4 9 5 10 6 11 7 12 8 13
REMARK SMILES IDX 9 14 17 15 10 16 11 17 16 18 18 19 12 20 15 21 13 22 14 23
REMARK SMILES IDX 24 24 25 25 26 26 27 27 28 28 29 29 30 30 31 31 32 32 33 33
REMARK SMILES IDX 34 34 35 35 96 36 36 37 95 38 37 39 38 40 39 41 89 42 40 43
REMARK SMILES IDX 94 44 88 45 90 46 41 47 93 48 87 49 86 50 42 52 74 53 54 54
REMARK SMILES IDX 73 55 55 56 58 57 72 58 91 59 56 60 57 61 71 63 92 64 59 65
REMARK SMILES IDX 43 66 44 67 52 68 45 69 46 70 50 71 53 72 47 73 48 74 51 75
REMARK SMILES IDX 49 76 75 77 76 78 84 79 77 80 78 81 82 82 85 83 79 84 80 85
REMARK SMILES IDX 83 86 81 87 60 88 61 89 69 90 62 91 63 92 67 93 70 94 64 95
REMARK SMILES IDX 65 96 68 97 66 98
REMARK H PARENT 90 51 58 62
REMARK Flexibility Score: inf
ROOT
ATOM      1  C   UNL A   1      32.074  28.206  27.471  1.00  0.00     0.188 C 
ENDROOT
BRANCH   1   2
ATOM      2  O   UNL A   1      31.249  27.081  27.178  1.00  0.00    -0.376 OA
BRANCH   2   3
ATOM      3  C   UNL A   1      31.375  26.431  25.932  1.00  0.00     0.202 C 
BRANCH   3   4
ATOM      4  C   UNL A   1      30.291  26.769  24.901  1.00  0.00     0.261 C 
BRANCH   4   5
ATOM      5  O   UNL A   1      30.621  27.562  23.745  1.00  0.00    -0.463 OA
BRANCH   5   6
ATOM      6  C   UNL A   1      31.221  28.763  23.892  1.00  0.00     0.305 C 
ATOM      7  O   UNL A   1      30.705  29.706  24.479  1.00  0.00    -0.252 OA
BRANCH   6   8
ATOM      8  C   UNL A   1      32.608  28.820  23.266  1.00  0.00     0.123 C 
BRANCH   8   9
ATOM      9  C   UNL A   1      33.399  27.515  23.226  1.00  0.00     0.012 C 
BRANCH   9  10
ATOM     10  C   UNL A   1      33.499  26.769  21.884  1.00  0.00     0.002 C 
BRANCH  10  11
ATOM     11  C   UNL A   1      32.428  25.714  21.567  1.00  0.00     0.022 C 
BRANCH  11  12
ATOM     12  C   UNL A   1      32.900  24.254  21.510  1.00  0.00     0.128 C 
BRANCH  12  13
ATOM     13  N   UNL A   1      33.016  23.684  22.838  1.00  0.00    -0.282 N 
ATOM     14  C   UNL A   1      34.220  23.482  23.468  1.00  0.00     0.233 C 
ATOM     15  C   UNL A   1      31.969  23.355  23.673  1.00  0.00     0.233 C 
ATOM     16  O   UNL A   1      35.330  23.343  22.981  1.00  0.00    -0.274 OA
ATOM     17  C   UNL A   1      33.891  23.550  24.919  1.00  0.00     0.095 C 
ATOM     18  C   UNL A   1      32.610  22.734  24.894  1.00  0.00     0.095 C 
ATOM     19  O   UNL A   1      30.776  23.488  23.472  1.00  0.00    -0.274 OA
ATOM     20  C   UNL A   1      34.916  23.068  25.913  1.00  0.00     0.041 C 
ATOM     21  C   UNL A   1      31.907  22.800  26.232  1.00  0.00     0.041 C 
ATOM     22  C   UNL A   1      34.239  22.691  27.204  1.00  0.00    -0.030 C 
ATOM     23  C   UNL A   1      32.904  22.591  27.353  1.00  0.00    -0.030 C 
ENDBRANCH  12  13
ENDBRANCH  11  12
ENDBRANCH  10  11
ENDBRANCH   9  10
ENDBRANCH   8   9
ENDBRANCH   6   8
ENDBRANCH   5   6
ENDBRANCH   4   5
ENDBRANCH   3   4
ENDBRANCH   2   3
ENDBRANCH   1   2
BRANCH   1  24
ATOM     24  C   UNL A   1      33.477  28.200  26.877  1.00  0.00     0.188 C 
BRANCH  24  25
ATOM     25  O   UNL A   1      34.256  29.391  26.933  1.00  0.00    -0.377 OA
BRANCH  25  26
ATOM     26  C   UNL A   1      33.687  30.621  27.350  1.00  0.00     0.188 C 
BRANCH  26  27
ATOM     27  C   UNL A   1      34.691  31.719  27.727  1.00  0.00     0.188 C 
BRANCH  27  28
ATOM     28  O   UNL A   1      35.488  31.517  28.883  1.00  0.00    -0.376 OA
BRANCH  28  29
ATOM     29  C   UNL A   1      36.797  30.974  28.717  1.00  0.00     0.202 C 
BRANCH  29  30
ATOM     30  C   UNL A   1      38.040  31.801  29.107  1.00  0.00     0.261 C 
BRANCH  30  31
ATOM     31  O   UNL A   1      38.585  31.494  30.409  1.00  0.00    -0.460 OA
BRANCH  31  32
ATOM     32  C   UNL A   1      38.643  30.185  30.750  1.00  0.00     0.338 C 
ATOM     33  O   UNL A   1      37.699  29.434  30.937  1.00  0.00    -0.246 OA
BRANCH  32  34
ATOM     34  C   UNL A   1      40.035  29.684  30.678  1.00  0.00     0.060 A 
ATOM     35  C   UNL A   1      40.238  28.299  30.567  1.00  0.00     0.016 A 
ATOM     36  C   UNL A   1      41.127  30.538  30.830  1.00  0.00     0.016 A 
ATOM     37  C   UNL A   1      41.525  27.761  30.636  1.00  0.00     0.010 A 
ATOM     38  C   UNL A   1      42.416  29.994  30.934  1.00  0.00     0.010 A 
ATOM     39  C   UNL A   1      42.619  28.601  30.875  1.00  0.00    -0.014 A 
BRANCH  39  40
ATOM     40  C   UNL A   1      43.915  28.013  31.305  1.00  0.00     0.031 A 
ATOM     41  C   UNL A   1      44.899  27.611  30.238  1.00  0.00     0.074 A 
ATOM     42  C   UNL A   1      44.235  27.852  32.601  1.00  0.00     0.049 A 
ATOM     43  N   UNL A   1      46.060  27.016  30.350  1.00  0.00    -0.248 NA
ATOM     44  C   UNL A   1      44.514  27.921  28.851  1.00  0.00     0.031 C 
ATOM     45  C   UNL A   1      43.404  28.249  33.734  1.00  0.00     0.029 A 
ATOM     46  N   UNL A   1      45.351  27.295  33.180  1.00  0.00    -0.354 N 
ATOM     47  C   UNL A   1      46.535  26.870  29.053  1.00  0.00     0.074 A 
ATOM     48  C   UNL A   1      45.529  27.414  28.168  1.00  0.00     0.031 C 
ATOM     49  C   UNL A   1      44.027  27.900  34.873  1.00  0.00     0.029 A 
ATOM     50  C   UNL A   1      45.285  27.226  34.550  1.00  0.00     0.049 A 
ATOM     51  H   UNL A   1      46.125  26.976  32.662  1.00  0.00     0.167 HD
ATOM     52  C   UNL A   1      47.707  26.333  28.635  1.00  0.00     0.037 A 
ATOM     53  C   UNL A   1      46.128  26.657  35.436  1.00  0.00     0.037 A 
ATOM     54  C   UNL A   1      48.706  25.786  29.514  1.00  0.00     0.049 A 
ATOM     55  C   UNL A   1      47.392  25.992  34.941  1.00  0.00     0.074 A 
ATOM     56  C   UNL A   1      49.934  25.236  29.186  1.00  0.00     0.029 A 
ATOM     57  N   UNL A   1      48.589  25.707  30.894  1.00  0.00    -0.354 N 
ATOM     58  N   UNL A   1      47.846  25.878  33.717  1.00  0.00    -0.248 NA
ATOM     59  C   UNL A   1      48.263  25.380  35.957  1.00  0.00     0.031 C 
ATOM     60  C   UNL A   1      50.529  24.765  30.360  1.00  0.00     0.029 A 
ATOM     61  C   UNL A   1      49.707  25.089  31.428  1.00  0.00     0.049 A 
ATOM     62  H   UNL A   1      47.824  26.042  31.415  1.00  0.00     0.167 HD
ATOM     63  C   UNL A   1      49.065  25.215  33.817  1.00  0.00     0.074 A 
ATOM     64  C   UNL A   1      49.286  24.963  35.225  1.00  0.00     0.031 C 
ATOM     65  C   UNL A   1      49.924  24.850  32.833  1.00  0.00     0.037 A 
BRANCH  52  66
ATOM     66  C   UNL A   1      47.954  26.272  27.156  1.00  0.00     0.064 A 
ATOM     67  C   UNL A   1      47.397  25.267  26.350  1.00  0.00     0.173 A 
ATOM     68  C   UNL A   1      48.736  27.255  26.530  1.00  0.00     0.173 A 
ATOM     69  F   UNL A   1      46.655  24.295  26.900  1.00  0.00    -0.203 F 
ATOM     70  C   UNL A   1      47.636  25.234  24.978  1.00  0.00     0.198 A 
ATOM     71  C   UNL A   1      48.944  27.239  25.154  1.00  0.00     0.198 A 
ATOM     72  F   UNL A   1      49.291  28.240  27.252  1.00  0.00    -0.203 F 
ATOM     73  F   UNL A   1      47.135  24.237  24.236  1.00  0.00    -0.200 F 
ATOM     74  C   UNL A   1      48.401  26.225  24.380  1.00  0.00     0.200 A 
ATOM     75  F   UNL A   1      49.671  28.206  24.576  1.00  0.00    -0.200 F 
ATOM     76  F   UNL A   1      48.621  26.198  23.058  1.00  0.00    -0.200 F 
ENDBRANCH  52  66
BRANCH  53  77
ATOM     77  C   UNL A   1      45.803  26.663  36.889  1.00  0.00     0.064 A 
ATOM     78  C   UNL A   1      46.024  27.799  37.680  1.00  0.00     0.173 A 
ATOM     79  C   UNL A   1      45.294  25.519  37.523  1.00  0.00     0.173 A 
ATOM     80  F   UNL A   1      46.537  28.908  37.129  1.00  0.00    -0.203 F 
ATOM     81  C   UNL A   1      45.770  27.784  39.051  1.00  0.00     0.198 A 
ATOM     82  C   UNL A   1      45.009  25.516  38.888  1.00  0.00     0.198 A 
ATOM     83  F   UNL A   1      45.069  24.402  36.817  1.00  0.00    -0.203 F 
ATOM     84  F   UNL A   1      46.041  28.867  39.792  1.00  0.00    -0.200 F 
ATOM     85  C   UNL A   1      45.256  26.646  39.652  1.00  0.00     0.200 A 
ATOM     86  F   UNL A   1      44.501  24.417  39.461  1.00  0.00    -0.200 F 
ATOM     87  F   UNL A   1      45.007  26.634  40.968  1.00  0.00    -0.200 F 
ENDBRANCH  53  77
BRANCH  65  88
ATOM     88  C   UNL A   1      51.210  24.182  33.238  1.00  0.00     0.064 A 
ATOM     89  C   UNL A   1      52.385  24.912  33.469  1.00  0.00     0.173 A 
ATOM     90  C   UNL A   1      51.252  22.794  33.444  1.00  0.00     0.173 A 
ATOM     91  F   UNL A   1      52.406  26.240  33.276  1.00  0.00    -0.203 F 
ATOM     92  C   UNL A   1      53.560  24.274  33.861  1.00  0.00     0.198 A 
ATOM     93  C   UNL A   1      52.418  22.164  33.872  1.00  0.00     0.198 A 
ATOM     94  F   UNL A   1      50.155  22.047  33.248  1.00  0.00    -0.203 F 
ATOM     95  F   UNL A   1      54.684  24.986  34.025  1.00  0.00    -0.200 F 
ATOM     96  C   UNL A   1      53.574  22.903  34.071  1.00  0.00     0.200 A 
ATOM     97  F   UNL A   1      52.422  20.842  34.092  1.00  0.00    -0.200 F 
ATOM     98  F   UNL A   1      54.702  22.293  34.459  1.00  0.00    -0.200 F 
ENDBRANCH  65  88
ENDBRANCH  39  40
ENDBRANCH  32  34
ENDBRANCH  31  32
ENDBRANCH  30  31
ENDBRANCH  29  30
ENDBRANCH  28  29
ENDBRANCH  27  28
ENDBRANCH  26  27
ENDBRANCH  25  26
ENDBRANCH  24  25
ENDBRANCH   1  24
TORSDOF 25
ENDMDL
