MODEL 1
REMARK VINA RESULT:      -9.6      0.000      0.000
REMARK SMILES CC(C)CSc1cc2c(cc1Cl)C=C(C(=O)OCCOCCOCCOCCOC(=O)c1ccc(-c3c4nc(c(-c5c(F)c(F)c(F)c(F)c5F)c5ccc([nH]5)c(-c5c(F)c(F)c(F)c(F)c5F)c5nc(c(-c6c(F)c(F)c(F)c(F)c6F)c6ccc3[nH]6)C=C5)C=C4)cc1)[C@@H](C(F)(F)F)O2
REMARK SMILES IDX 22 1 21 2 20 3 19 4 18 5 17 6 15 7 16 8 14 9 6 10 7 11 11 12
REMARK SMILES IDX 8 13 10 14 12 15 9 16 100 17 13 18 95 19 5 20 4 21 2 22 1 23
REMARK SMILES IDX 3 24 96 25 97 26 98 27 99 28 23 29 24 30 25 31 26 32 27 33
REMARK SMILES IDX 28 34 29 35 30 36 31 37 32 38 33 39 94 40 34 41 93 42 35 43
REMARK SMILES IDX 36 44 37 45 87 46 38 47 92 48 86 49 88 50 39 51 91 52 85 53
REMARK SMILES IDX 84 54 40 56 72 57 52 58 71 59 53 60 56 61 70 62 89 63 54 64
REMARK SMILES IDX 55 65 69 67 90 68 57 69 41 70 42 71 50 72 43 73 44 74 48 75
REMARK SMILES IDX 51 76 45 77 46 78 49 79 47 80 73 81 74 82 82 83 75 84 76 85
REMARK SMILES IDX 80 86 83 87 77 88 78 89 81 90 79 91 58 92 59 93 67 94 60 95
REMARK SMILES IDX 61 96 65 97 68 98 62 99 63 100 66 101 64 102
REMARK H PARENT 88 55 56 66
REMARK Flexibility Score: inf
ROOT
ATOM      1  C   UNL A   1      41.189  22.716  26.998  1.00  0.00     0.188 C 
ENDROOT
BRANCH   1   2
ATOM      2  C   UNL A   1      40.118  21.619  26.861  1.00  0.00     0.188 C 
BRANCH   2   3
ATOM      3  O   UNL A   1      39.236  21.825  25.758  1.00  0.00    -0.376 OA
BRANCH   3   4
ATOM      4  C   UNL A   1      37.900  22.203  26.075  1.00  0.00     0.202 C 
BRANCH   4   5
ATOM      5  C   UNL A   1      36.863  21.986  24.965  1.00  0.00     0.261 C 
BRANCH   5   6
ATOM      6  O   UNL A   1      35.793  21.094  25.318  1.00  0.00    -0.460 OA
BRANCH   6   7
ATOM      7  C   UNL A   1      34.787  21.596  26.062  1.00  0.00     0.338 C 
ATOM      8  O   UNL A   1      34.610  21.443  27.256  1.00  0.00    -0.246 OA
BRANCH   7   9
ATOM      9  C   UNL A   1      34.028  22.529  25.208  1.00  0.00     0.087 C 
ATOM     10  C   UNL A   1      31.834  26.580  23.173  1.00  0.00     0.030 A 
ATOM     11  C   UNL A   1      31.765  25.191  22.949  1.00  0.00     0.063 A 
ATOM     12  C   UNL A   1      32.819  27.047  24.058  1.00  0.00     0.055 A 
ATOM     13  C   UNL A   1      32.557  24.296  23.671  1.00  0.00     0.129 A 
ATOM     14  C   UNL A   1      33.554  26.144  24.841  1.00  0.00     0.033 A 
ATOM     15  Cl  UNL A   1      33.248  28.711  24.232  1.00  0.00    -0.083 Cl
ATOM     16  C   UNL A   1      33.388  24.768  24.681  1.00  0.00     0.019 A 
ATOM     17  O   UNL A   1      32.418  22.969  23.377  1.00  0.00    -0.475 OA
ATOM     18  C   UNL A   1      34.036  23.819  25.572  1.00  0.00     0.027 C 
ATOM     19  C   UNL A   1      33.411  22.046  23.919  1.00  0.00     0.316 C 
BRANCH  10  20
ATOM     20  S   UNL A   1      30.627  27.534  22.254  1.00  0.00    -0.124 SA
BRANCH  20  21
ATOM     21  C   UNL A   1      29.714  28.551  23.481  1.00  0.00     0.078 C 
BRANCH  21  22
ATOM     22  C   UNL A   1      29.272  29.986  23.128  1.00  0.00    -0.007 C 
ATOM     23  C   UNL A   1      29.606  30.457  21.715  1.00  0.00     0.008 C 
ATOM     24  C   UNL A   1      27.748  30.076  23.318  1.00  0.00     0.008 C 
ENDBRANCH  21  22
ENDBRANCH  20  21
ENDBRANCH  10  20
BRANCH  19  25
ATOM     25  C   UNL A   1      32.730  20.671  24.033  1.00  0.00     0.430 C 
ATOM     26  F   UNL A   1      31.864  20.643  25.075  1.00  0.00    -0.167 F 
ATOM     27  F   UNL A   1      32.012  20.351  22.933  1.00  0.00    -0.167 F 
ATOM     28  F   UNL A   1      33.632  19.681  24.226  1.00  0.00    -0.167 F 
ENDBRANCH  19  25
ENDBRANCH   7   9
ENDBRANCH   6   7
ENDBRANCH   5   6
ENDBRANCH   4   5
ENDBRANCH   3   4
ENDBRANCH   2   3
ENDBRANCH   1   2
BRANCH   1  29
ATOM     29  O   UNL A   1      40.972  23.815  26.128  1.00  0.00    -0.377 OA
BRANCH  29  30
ATOM     30  C   UNL A   1      41.645  25.037  26.427  1.00  0.00     0.188 C 
BRANCH  30  31
ATOM     31  C   UNL A   1      42.835  25.541  25.580  1.00  0.00     0.188 C 
BRANCH  31  32
ATOM     32  O   UNL A   1      43.336  24.574  24.660  1.00  0.00    -0.376 OA
BRANCH  32  33
ATOM     33  C   UNL A   1      44.647  24.082  24.912  1.00  0.00     0.202 C 
BRANCH  33  34
ATOM     34  C   UNL A   1      44.655  22.714  25.603  1.00  0.00     0.261 C 
BRANCH  34  35
ATOM     35  O   UNL A   1      45.011  22.743  26.994  1.00  0.00    -0.460 OA
BRANCH  35  36
ATOM     36  C   UNL A   1      45.879  23.695  27.399  1.00  0.00     0.338 C 
ATOM     37  O   UNL A   1      47.034  23.846  27.040  1.00  0.00    -0.246 OA
BRANCH  36  38
ATOM     38  C   UNL A   1      45.117  24.665  28.211  1.00  0.00     0.060 A 
ATOM     39  C   UNL A   1      44.088  24.229  29.052  1.00  0.00     0.016 A 
ATOM     40  C   UNL A   1      45.407  26.029  28.089  1.00  0.00     0.016 A 
ATOM     41  C   UNL A   1      43.367  25.163  29.798  1.00  0.00     0.010 A 
ATOM     42  C   UNL A   1      44.674  26.962  28.823  1.00  0.00     0.010 A 
ATOM     43  C   UNL A   1      43.668  26.532  29.701  1.00  0.00    -0.014 A 
BRANCH  43  44
ATOM     44  C   UNL A   1      43.071  27.485  30.665  1.00  0.00     0.031 A 
ATOM     45  C   UNL A   1      41.840  28.275  30.352  1.00  0.00     0.074 A 
ATOM     46  C   UNL A   1      43.689  27.630  31.852  1.00  0.00     0.049 A 
ATOM     47  N   UNL A   1      41.192  29.118  31.116  1.00  0.00    -0.248 NA
ATOM     48  C   UNL A   1      41.261  28.103  29.013  1.00  0.00     0.031 C 
ATOM     49  C   UNL A   1      44.901  26.914  32.254  1.00  0.00     0.029 A 
ATOM     50  N   UNL A   1      43.391  28.421  32.930  1.00  0.00    -0.354 N 
ATOM     51  C   UNL A   1      40.114  29.562  30.366  1.00  0.00     0.074 A 
ATOM     52  C   UNL A   1      40.218  28.924  29.068  1.00  0.00     0.031 C 
ATOM     53  C   UNL A   1      45.240  27.293  33.495  1.00  0.00     0.029 A 
ATOM     54  C   UNL A   1      44.283  28.291  33.964  1.00  0.00     0.049 A 
ATOM     55  H   UNL A   1      42.613  29.024  32.960  1.00  0.00     0.167 HD
ATOM     56  C   UNL A   1      39.125  30.412  30.739  1.00  0.00     0.037 A 
ATOM     57  C   UNL A   1      44.328  28.906  35.159  1.00  0.00     0.037 A 
ATOM     58  C   UNL A   1      39.045  31.059  32.026  1.00  0.00     0.049 A 
ATOM     59  C   UNL A   1      43.249  29.883  35.523  1.00  0.00     0.074 A 
ATOM     60  C   UNL A   1      38.068  31.920  32.500  1.00  0.00     0.029 A 
ATOM     61  N   UNL A   1      39.984  30.931  33.041  1.00  0.00    -0.354 N 
ATOM     62  N   UNL A   1      42.203  30.254  34.826  1.00  0.00    -0.248 NA
ATOM     63  C   UNL A   1      43.350  30.516  36.844  1.00  0.00     0.031 C 
ATOM     64  C   UNL A   1      38.439  32.348  33.778  1.00  0.00     0.029 A 
ATOM     65  C   UNL A   1      39.619  31.715  34.127  1.00  0.00     0.049 A 
ATOM     66  H   UNL A   1      40.788  30.366  32.996  1.00  0.00     0.167 HD
ATOM     67  C   UNL A   1      41.507  31.145  35.631  1.00  0.00     0.074 A 
ATOM     68  C   UNL A   1      42.243  31.247  36.875  1.00  0.00     0.031 C 
ATOM     69  C   UNL A   1      40.361  31.815  35.360  1.00  0.00     0.037 A 
BRANCH  56  70
ATOM     70  C   UNL A   1      38.031  30.694  29.749  1.00  0.00     0.064 A 
ATOM     71  C   UNL A   1      37.026  29.753  29.489  1.00  0.00     0.173 A 
ATOM     72  C   UNL A   1      37.930  31.951  29.134  1.00  0.00     0.173 A 
ATOM     73  F   UNL A   1      37.077  28.536  30.050  1.00  0.00    -0.203 F 
ATOM     74  C   UNL A   1      35.963  30.056  28.640  1.00  0.00     0.198 A 
ATOM     75  C   UNL A   1      36.854  32.258  28.305  1.00  0.00     0.198 A 
ATOM     76  F   UNL A   1      38.860  32.892  29.358  1.00  0.00    -0.203 F 
ATOM     77  F   UNL A   1      35.024  29.133  28.391  1.00  0.00    -0.200 F 
ATOM     78  C   UNL A   1      35.872  31.311  28.058  1.00  0.00     0.200 A 
ATOM     79  F   UNL A   1      36.759  33.478  27.755  1.00  0.00    -0.200 F 
ATOM     80  F   UNL A   1      34.837  31.608  27.259  1.00  0.00    -0.200 F 
ENDBRANCH  56  70
BRANCH  57  81
ATOM     81  C   UNL A   1      45.418  28.572  36.107  1.00  0.00     0.064 A 
ATOM     82  C   UNL A   1      45.260  27.547  37.048  1.00  0.00     0.173 A 
ATOM     83  C   UNL A   1      46.653  29.237  36.060  1.00  0.00     0.173 A 
ATOM     84  F   UNL A   1      44.092  26.895  37.137  1.00  0.00    -0.203 F 
ATOM     85  C   UNL A   1      46.294  27.203  37.915  1.00  0.00     0.198 A 
ATOM     86  C   UNL A   1      47.694  28.875  36.910  1.00  0.00     0.198 A 
ATOM     87  F   UNL A   1      46.854  30.218  35.170  1.00  0.00    -0.203 F 
ATOM     88  F   UNL A   1      46.108  26.238  38.825  1.00  0.00    -0.200 F 
ATOM     89  C   UNL A   1      47.514  27.861  37.840  1.00  0.00     0.200 A 
ATOM     90  F   UNL A   1      48.875  29.501  36.823  1.00  0.00    -0.200 F 
ATOM     91  F   UNL A   1      48.512  27.519  38.664  1.00  0.00    -0.200 F 
ENDBRANCH  57  81
BRANCH  69  92
ATOM     92  C   UNL A   1      39.815  32.705  36.439  1.00  0.00     0.064 A 
ATOM     93  C   UNL A   1      40.306  34.003  36.641  1.00  0.00     0.173 A 
ATOM     94  C   UNL A   1      38.768  32.264  37.264  1.00  0.00     0.173 A 
ATOM     95  F   UNL A   1      41.317  34.466  35.890  1.00  0.00    -0.203 F 
ATOM     96  C   UNL A   1      39.787  34.818  37.643  1.00  0.00     0.198 A 
ATOM     97  C   UNL A   1      38.230  33.092  38.245  1.00  0.00     0.198 A 
ATOM     98  F   UNL A   1      38.259  31.033  37.110  1.00  0.00    -0.203 F 
ATOM     99  F   UNL A   1      40.303  36.037  37.848  1.00  0.00    -0.200 F 
ATOM    100  C   UNL A   1      38.745  34.365  38.439  1.00  0.00     0.200 A 
ATOM    101  F   UNL A   1      37.216  32.657  39.006  1.00  0.00    -0.200 F 
ATOM    102  F   UNL A   1      38.242  35.152  39.399  1.00  0.00    -0.200 F 
ENDBRANCH  69  92
ENDBRANCH  43  44
ENDBRANCH  36  38
ENDBRANCH  35  36
ENDBRANCH  34  35
ENDBRANCH  33  34
ENDBRANCH  32  33
ENDBRANCH  31  32
ENDBRANCH  30  31
ENDBRANCH  29  30
ENDBRANCH   1  29
TORSDOF 24
ENDMDL
MODEL 2
REMARK VINA RESULT:      -9.4      0.466      6.825
REMARK SMILES CC(C)CSc1cc2c(cc1Cl)C=C(C(=O)OCCOCCOCCOCCOC(=O)c1ccc(-c3c4nc(c(-c5c(F)c(F)c(F)c(F)c5F)c5ccc([nH]5)c(-c5c(F)c(F)c(F)c(F)c5F)c5nc(c(-c6c(F)c(F)c(F)c(F)c6F)c6ccc3[nH]6)C=C5)C=C4)cc1)[C@@H](C(F)(F)F)O2
REMARK SMILES IDX 22 1 21 2 20 3 19 4 18 5 17 6 15 7 16 8 14 9 6 10 7 11 11 12
REMARK SMILES IDX 8 13 10 14 12 15 9 16 100 17 13 18 95 19 5 20 4 21 2 22 1 23
REMARK SMILES IDX 3 24 96 25 97 26 98 27 99 28 23 29 24 30 25 31 26 32 27 33
REMARK SMILES IDX 28 34 29 35 30 36 31 37 32 38 33 39 94 40 34 41 93 42 35 43
REMARK SMILES IDX 36 44 37 45 87 46 38 47 92 48 86 49 88 50 39 51 91 52 85 53
REMARK SMILES IDX 84 54 40 56 72 57 52 58 71 59 53 60 56 61 70 62 89 63 54 64
REMARK SMILES IDX 55 65 69 67 90 68 57 69 41 70 42 71 50 72 43 73 44 74 48 75
REMARK SMILES IDX 51 76 45 77 46 78 49 79 47 80 73 81 74 82 82 83 75 84 76 85
REMARK SMILES IDX 80 86 83 87 77 88 78 89 81 90 79 91 58 92 59 93 67 94 60 95
REMARK SMILES IDX 61 96 65 97 68 98 62 99 63 100 66 101 64 102
REMARK H PARENT 88 55 56 66
REMARK Flexibility Score: inf
ROOT
ATOM      1  C   UNL A   1      41.063  23.450  27.083  1.00  0.00     0.188 C 
ENDROOT
BRANCH   1   2
ATOM      2  C   UNL A   1      39.892  22.452  27.098  1.00  0.00     0.188 C 
BRANCH   2   3
ATOM      3  O   UNL A   1      39.195  22.379  25.853  1.00  0.00    -0.376 OA
BRANCH   3   4
ATOM      4  C   UNL A   1      37.821  22.751  25.871  1.00  0.00     0.202 C 
BRANCH   4   5
ATOM      5  C   UNL A   1      36.958  22.179  24.739  1.00  0.00     0.261 C 
BRANCH   5   6
ATOM      6  O   UNL A   1      35.967  21.231  25.169  1.00  0.00    -0.460 OA
BRANCH   6   7
ATOM      7  C   UNL A   1      34.952  21.695  25.923  1.00  0.00     0.338 C 
ATOM      8  O   UNL A   1      34.772  21.504  27.111  1.00  0.00    -0.246 OA
BRANCH   7   9
ATOM      9  C   UNL A   1      34.182  22.643  25.095  1.00  0.00     0.087 C 
ATOM     10  C   UNL A   1      32.045  26.744  23.098  1.00  0.00     0.030 A 
ATOM     11  C   UNL A   1      31.901  25.354  22.913  1.00  0.00     0.063 A 
ATOM     12  C   UNL A   1      33.103  27.185  23.909  1.00  0.00     0.055 A 
ATOM     13  C   UNL A   1      32.697  24.441  23.608  1.00  0.00     0.129 A 
ATOM     14  C   UNL A   1      33.845  26.266  24.667  1.00  0.00     0.033 A 
ATOM     15  Cl  UNL A   1      33.615  28.831  24.015  1.00  0.00    -0.083 Cl
ATOM     16  C   UNL A   1      33.609  24.896  24.552  1.00  0.00     0.019 A 
ATOM     17  O   UNL A   1      32.481  23.115  23.356  1.00  0.00    -0.475 OA
ATOM     18  C   UNL A   1      34.269  23.939  25.425  1.00  0.00     0.027 C 
ATOM     19  C   UNL A   1      33.465  22.160  23.859  1.00  0.00     0.316 C 
BRANCH  10  20
ATOM     20  S   UNL A   1      30.827  27.730  22.232  1.00  0.00    -0.124 SA
BRANCH  20  21
ATOM     21  C   UNL A   1      30.279  29.038  23.401  1.00  0.00     0.078 C 
BRANCH  21  22
ATOM     22  C   UNL A   1      28.901  29.708  23.229  1.00  0.00    -0.007 C 
ATOM     23  C   UNL A   1      28.785  30.710  22.084  1.00  0.00     0.008 C 
ATOM     24  C   UNL A   1      27.856  28.600  23.008  1.00  0.00     0.008 C 
ENDBRANCH  21  22
ENDBRANCH  20  21
ENDBRANCH  10  20
BRANCH  19  25
ATOM     25  C   UNL A   1      32.733  20.820  24.048  1.00  0.00     0.430 C 
ATOM     26  F   UNL A   1      31.959  20.843  25.160  1.00  0.00    -0.167 F 
ATOM     27  F   UNL A   1      31.909  20.525  23.018  1.00  0.00    -0.167 F 
ATOM     28  F   UNL A   1      33.601  19.791  24.178  1.00  0.00    -0.167 F 
ENDBRANCH  19  25
ENDBRANCH   7   9
ENDBRANCH   6   7
ENDBRANCH   5   6
ENDBRANCH   4   5
ENDBRANCH   3   4
ENDBRANCH   2   3
ENDBRANCH   1   2
BRANCH   1  29
ATOM     29  O   UNL A   1      40.859  24.532  26.189  1.00  0.00    -0.377 OA
BRANCH  29  30
ATOM     30  C   UNL A   1      41.649  25.705  26.380  1.00  0.00     0.188 C 
BRANCH  30  31
ATOM     31  C   UNL A   1      42.888  26.005  25.508  1.00  0.00     0.188 C 
BRANCH  31  32
ATOM     32  O   UNL A   1      43.258  24.931  24.646  1.00  0.00    -0.376 OA
BRANCH  32  33
ATOM     33  C   UNL A   1      44.514  24.315  24.907  1.00  0.00     0.202 C 
BRANCH  33  34
ATOM     34  C   UNL A   1      44.385  22.904  25.487  1.00  0.00     0.261 C 
BRANCH  34  35
ATOM     35  O   UNL A   1      44.797  22.773  26.857  1.00  0.00    -0.460 OA
BRANCH  35  36
ATOM     36  C   UNL A   1      45.732  23.635  27.313  1.00  0.00     0.338 C 
ATOM     37  O   UNL A   1      46.890  23.733  26.949  1.00  0.00    -0.246 OA
BRANCH  36  38
ATOM     38  C   UNL A   1      45.045  24.594  28.201  1.00  0.00     0.060 A 
ATOM     39  C   UNL A   1      44.010  24.167  29.038  1.00  0.00     0.016 A 
ATOM     40  C   UNL A   1      45.413  25.944  28.157  1.00  0.00     0.016 A 
ATOM     41  C   UNL A   1      43.361  25.092  29.858  1.00  0.00     0.010 A 
ATOM     42  C   UNL A   1      44.752  26.870  28.964  1.00  0.00     0.010 A 
ATOM     43  C   UNL A   1      43.740  26.445  29.838  1.00  0.00    -0.014 A 
BRANCH  43  44
ATOM     44  C   UNL A   1      43.221  27.369  30.872  1.00  0.00     0.031 A 
ATOM     45  C   UNL A   1      43.869  27.517  32.212  1.00  0.00     0.074 A 
ATOM     46  C   UNL A   1      42.118  28.079  30.568  1.00  0.00     0.049 A 
ATOM     47  N   UNL A   1      43.539  28.314  33.197  1.00  0.00    -0.248 NA
ATOM     48  C   UNL A   1      45.032  26.664  32.487  1.00  0.00     0.031 C 
ATOM     49  C   UNL A   1      41.403  28.002  29.293  1.00  0.00     0.029 A 
ATOM     50  N   UNL A   1      41.408  28.995  31.298  1.00  0.00    -0.354 N 
ATOM     51  C   UNL A   1      44.466  28.081  34.202  1.00  0.00     0.074 A 
ATOM     52  C   UNL A   1      45.348  27.035  33.723  1.00  0.00     0.031 C 
ATOM     53  C   UNL A   1      40.359  28.842  29.327  1.00  0.00     0.029 A 
ATOM     54  C   UNL A   1      40.321  29.499  30.631  1.00  0.00     0.049 A 
ATOM     55  H   UNL A   1      41.654  29.264  32.212  1.00  0.00     0.167 HD
ATOM     56  C   UNL A   1      44.571  28.697  35.406  1.00  0.00     0.037 A 
ATOM     57  C   UNL A   1      39.393  30.390  31.024  1.00  0.00     0.037 A 
ATOM     58  C   UNL A   1      43.672  29.720  35.883  1.00  0.00     0.049 A 
ATOM     59  C   UNL A   1      39.506  31.015  32.383  1.00  0.00     0.074 A 
ATOM     60  C   UNL A   1      43.713  30.416  37.080  1.00  0.00     0.029 A 
ATOM     61  N   UNL A   1      42.559  30.185  35.195  1.00  0.00    -0.354 N 
ATOM     62  N   UNL A   1      40.417  30.827  33.305  1.00  0.00    -0.248 NA
ATOM     63  C   UNL A   1      38.467  31.987  32.750  1.00  0.00     0.031 C 
ATOM     64  C   UNL A   1      42.603  31.265  37.137  1.00  0.00     0.029 A 
ATOM     65  C   UNL A   1      41.896  31.141  35.953  1.00  0.00     0.049 A 
ATOM     66  H   UNL A   1      42.283  29.883  34.300  1.00  0.00     0.167 HD
ATOM     67  C   UNL A   1      40.079  31.672  34.352  1.00  0.00     0.074 A 
ATOM     68  C   UNL A   1      38.885  32.385  33.945  1.00  0.00     0.031 C 
ATOM     69  C   UNL A   1      40.705  31.841  35.542  1.00  0.00     0.037 A 
BRANCH  56  70
ATOM     70  C   UNL A   1      45.706  28.296  36.304  1.00  0.00     0.064 A 
ATOM     71  C   UNL A   1      45.565  27.253  37.230  1.00  0.00     0.173 A 
ATOM     72  C   UNL A   1      46.971  28.887  36.167  1.00  0.00     0.173 A 
ATOM     73  F   UNL A   1      44.377  26.655  37.401  1.00  0.00    -0.203 F 
ATOM     74  C   UNL A   1      46.648  26.822  37.994  1.00  0.00     0.198 A 
ATOM     75  C   UNL A   1      48.056  28.439  36.916  1.00  0.00     0.198 A 
ATOM     76  F   UNL A   1      47.162  29.882  35.287  1.00  0.00    -0.203 F 
ATOM     77  F   UNL A   1      46.485  25.836  38.888  1.00  0.00    -0.200 F 
ATOM     78  C   UNL A   1      47.894  27.408  37.829  1.00  0.00     0.200 A 
ATOM     79  F   UNL A   1      49.264  28.995  36.743  1.00  0.00    -0.200 F 
ATOM     80  F   UNL A   1      48.940  26.978  38.549  1.00  0.00    -0.200 F 
ENDBRANCH  56  70
BRANCH  57  81
ATOM     81  C   UNL A   1      38.307  30.767  30.087  1.00  0.00     0.064 A 
ATOM     82  C   UNL A   1      37.251  29.887  29.825  1.00  0.00     0.173 A 
ATOM     83  C   UNL A   1      38.280  32.028  29.473  1.00  0.00     0.173 A 
ATOM     84  F   UNL A   1      37.244  28.666  30.379  1.00  0.00    -0.203 F 
ATOM     85  C   UNL A   1      36.208  30.250  28.977  1.00  0.00     0.198 A 
ATOM     86  C   UNL A   1      37.224  32.399  28.645  1.00  0.00     0.198 A 
ATOM     87  F   UNL A   1      39.265  32.908  29.702  1.00  0.00    -0.203 F 
ATOM     88  F   UNL A   1      35.223  29.379  28.720  1.00  0.00    -0.200 F 
ATOM     89  C   UNL A   1      36.191  31.509  28.394  1.00  0.00     0.200 A 
ATOM     90  F   UNL A   1      37.203  33.622  28.099  1.00  0.00    -0.200 F 
ATOM     91  F   UNL A   1      35.180  31.862  27.589  1.00  0.00    -0.200 F 
ENDBRANCH  57  81
BRANCH  69  92
ATOM     92  C   UNL A   1      40.123  32.854  36.486  1.00  0.00     0.064 A 
ATOM     93  C   UNL A   1      40.662  34.143  36.605  1.00  0.00     0.173 A 
ATOM     94  C   UNL A   1      38.993  32.541  37.258  1.00  0.00     0.173 A 
ATOM     95  F   UNL A   1      41.752  34.487  35.901  1.00  0.00    -0.203 F 
ATOM     96  C   UNL A   1      40.108  35.073  37.481  1.00  0.00     0.198 A 
ATOM     97  C   UNL A   1      38.424  33.482  38.110  1.00  0.00     0.198 A 
ATOM     98  F   UNL A   1      38.436  31.324  37.177  1.00  0.00    -0.203 F 
ATOM     99  F   UNL A   1      40.669  36.282  37.615  1.00  0.00    -0.200 F 
ATOM    100  C   UNL A   1      38.986  34.744  38.227  1.00  0.00     0.200 A 
ATOM    101  F   UNL A   1      37.332  33.167  38.822  1.00  0.00    -0.200 F 
ATOM    102  F   UNL A   1      38.451  35.642  39.066  1.00  0.00    -0.200 F 
ENDBRANCH  69  92
ENDBRANCH  43  44
ENDBRANCH  36  38
ENDBRANCH  35  36
ENDBRANCH  34  35
ENDBRANCH  33  34
ENDBRANCH  32  33
ENDBRANCH  31  32
ENDBRANCH  30  31
ENDBRANCH  29  30
ENDBRANCH   1  29
TORSDOF 24
ENDMDL
MODEL 3
REMARK VINA RESULT:      -8.6      7.664     10.923
REMARK SMILES CC(C)CSc1cc2c(cc1Cl)C=C(C(=O)OCCOCCOCCOCCOC(=O)c1ccc(-c3c4nc(c(-c5c(F)c(F)c(F)c(F)c5F)c5ccc([nH]5)c(-c5c(F)c(F)c(F)c(F)c5F)c5nc(c(-c6c(F)c(F)c(F)c(F)c6F)c6ccc3[nH]6)C=C5)C=C4)cc1)[C@@H](C(F)(F)F)O2
REMARK SMILES IDX 22 1 21 2 20 3 19 4 18 5 17 6 15 7 16 8 14 9 6 10 7 11 11 12
REMARK SMILES IDX 8 13 10 14 12 15 9 16 100 17 13 18 95 19 5 20 4 21 2 22 1 23
REMARK SMILES IDX 3 24 96 25 97 26 98 27 99 28 23 29 24 30 25 31 26 32 27 33
REMARK SMILES IDX 28 34 29 35 30 36 31 37 32 38 33 39 94 40 34 41 93 42 35 43
REMARK SMILES IDX 36 44 37 45 87 46 38 47 92 48 86 49 88 50 39 51 91 52 85 53
REMARK SMILES IDX 84 54 40 56 72 57 52 58 71 59 53 60 56 61 70 62 89 63 54 64
REMARK SMILES IDX 55 65 69 67 90 68 57 69 41 70 42 71 50 72 43 73 44 74 48 75
REMARK SMILES IDX 51 76 45 77 46 78 49 79 47 80 73 81 74 82 82 83 75 84 76 85
REMARK SMILES IDX 80 86 83 87 77 88 78 89 81 90 79 91 58 92 59 93 67 94 60 95
REMARK SMILES IDX 61 96 65 97 68 98 62 99 63 100 66 101 64 102
REMARK H PARENT 88 55 56 66
REMARK Flexibility Score: inf
ROOT
ATOM      1  C   UNL A   1      44.605  22.474  25.842  1.00  0.00     0.188 C 
ENDROOT
BRANCH   1   2
ATOM      2  C   UNL A   1      44.150  23.271  24.607  1.00  0.00     0.188 C 
BRANCH   2   3
ATOM      3  O   UNL A   1      44.645  24.610  24.586  1.00  0.00    -0.376 OA
BRANCH   3   4
ATOM      4  C   UNL A   1      44.073  25.514  25.526  1.00  0.00     0.202 C 
BRANCH   4   5
ATOM      5  C   UNL A   1      43.006  26.468  24.972  1.00  0.00     0.261 C 
BRANCH   5   6
ATOM      6  O   UNL A   1      42.121  27.009  25.966  1.00  0.00    -0.460 OA
BRANCH   6   7
ATOM      7  C   UNL A   1      42.263  28.312  26.280  1.00  0.00     0.338 C 
ATOM      8  O   UNL A   1      42.310  29.252  25.510  1.00  0.00    -0.246 OA
BRANCH   7   9
ATOM      9  C   UNL A   1      42.165  28.427  27.748  1.00  0.00     0.087 C 
ATOM     10  C   UNL A   1      43.016  28.291  32.711  1.00  0.00     0.030 A 
ATOM     11  C   UNL A   1      41.896  28.556  31.898  1.00  0.00     0.063 A 
ATOM     12  C   UNL A   1      44.262  28.158  32.076  1.00  0.00     0.055 A 
ATOM     13  C   UNL A   1      41.991  28.560  30.505  1.00  0.00     0.129 A 
ATOM     14  C   UNL A   1      44.340  28.082  30.677  1.00  0.00     0.033 A 
ATOM     15  Cl  UNL A   1      45.772  28.129  32.914  1.00  0.00    -0.083 Cl
ATOM     16  C   UNL A   1      43.196  28.235  29.893  1.00  0.00     0.019 A 
ATOM     17  O   UNL A   1      40.848  28.831  29.807  1.00  0.00    -0.475 OA
ATOM     18  C   UNL A   1      43.231  28.024  28.455  1.00  0.00     0.027 C 
ATOM     19  C   UNL A   1      40.974  29.103  28.378  1.00  0.00     0.316 C 
BRANCH  10  20
ATOM     20  S   UNL A   1      42.646  28.180  34.460  1.00  0.00    -0.124 SA
BRANCH  20  21
ATOM     21  C   UNL A   1      42.878  26.421  34.938  1.00  0.00     0.078 C 
BRANCH  21  22
ATOM     22  C   UNL A   1      41.707  25.616  35.536  1.00  0.00    -0.007 C 
ATOM     23  C   UNL A   1      41.893  24.102  35.579  1.00  0.00     0.008 C 
ATOM     24  C   UNL A   1      41.469  26.115  36.972  1.00  0.00     0.008 C 
ENDBRANCH  21  22
ENDBRANCH  20  21
ENDBRANCH  10  20
BRANCH  19  25
ATOM     25  C   UNL A   1      39.631  28.726  27.730  1.00  0.00     0.430 C 
ATOM     26  F   UNL A   1      38.590  29.106  28.511  1.00  0.00    -0.167 F 
ATOM     27  F   UNL A   1      39.443  29.323  26.531  1.00  0.00    -0.167 F 
ATOM     28  F   UNL A   1      39.527  27.391  27.535  1.00  0.00    -0.167 F 
ENDBRANCH  19  25
ENDBRANCH   7   9
ENDBRANCH   6   7
ENDBRANCH   5   6
ENDBRANCH   4   5
ENDBRANCH   3   4
ENDBRANCH   2   3
ENDBRANCH   1   2
BRANCH   1  29
ATOM     29  O   UNL A   1      43.529  21.870  26.541  1.00  0.00    -0.377 OA
BRANCH  29  30
ATOM     30  C   UNL A   1      42.844  22.662  27.510  1.00  0.00     0.188 C 
BRANCH  30  31
ATOM     31  C   UNL A   1      43.524  23.116  28.821  1.00  0.00     0.188 C 
BRANCH  31  32
ATOM     32  O   UNL A   1      43.968  24.471  28.798  1.00  0.00    -0.376 OA
BRANCH  32  33
ATOM     33  C   UNL A   1      45.198  24.745  29.459  1.00  0.00     0.202 C 
BRANCH  33  34
ATOM     34  C   UNL A   1      46.414  24.657  28.531  1.00  0.00     0.261 C 
BRANCH  34  35
ATOM     35  O   UNL A   1      46.485  25.684  27.530  1.00  0.00    -0.460 OA
BRANCH  35  36
ATOM     36  C   UNL A   1      47.615  26.421  27.468  1.00  0.00     0.338 C 
ATOM     37  O   UNL A   1      48.735  26.038  27.182  1.00  0.00    -0.246 OA
BRANCH  36  38
ATOM     38  C   UNL A   1      47.219  27.837  27.607  1.00  0.00     0.060 A 
ATOM     39  C   UNL A   1      47.485  28.534  28.790  1.00  0.00     0.016 A 
ATOM     40  C   UNL A   1      46.533  28.457  26.556  1.00  0.00     0.016 A 
ATOM     41  C   UNL A   1      47.089  29.866  28.909  1.00  0.00     0.010 A 
ATOM     42  C   UNL A   1      46.122  29.785  26.683  1.00  0.00     0.010 A 
ATOM     43  C   UNL A   1      46.421  30.504  27.850  1.00  0.00    -0.014 A 
BRANCH  43  44
ATOM     44  C   UNL A   1      46.219  31.971  27.885  1.00  0.00     0.031 A 
ATOM     45  C   UNL A   1      44.945  32.593  28.362  1.00  0.00     0.074 A 
ATOM     46  C   UNL A   1      47.235  32.743  27.457  1.00  0.00     0.049 A 
ATOM     47  N   UNL A   1      44.648  33.863  28.477  1.00  0.00    -0.248 NA
ATOM     48  C   UNL A   1      43.865  31.680  28.756  1.00  0.00     0.031 C 
ATOM     49  C   UNL A   1      48.517  32.237  26.964  1.00  0.00     0.029 A 
ATOM     50  N   UNL A   1      47.353  34.105  27.364  1.00  0.00    -0.354 N 
ATOM     51  C   UNL A   1      43.357  33.908  28.980  1.00  0.00     0.074 A 
ATOM     52  C   UNL A   1      42.911  32.534  29.109  1.00  0.00     0.031 C 
ATOM     53  C   UNL A   1      49.296  33.275  26.627  1.00  0.00     0.029 A 
ATOM     54  C   UNL A   1      48.561  34.515  26.861  1.00  0.00     0.049 A 
ATOM     55  H   UNL A   1      46.639  34.728  27.633  1.00  0.00     0.167 HD
ATOM     56  C   UNL A   1      42.623  34.999  29.315  1.00  0.00     0.037 A 
ATOM     57  C   UNL A   1      49.028  35.752  26.613  1.00  0.00     0.037 A 
ATOM     58  C   UNL A   1      43.069  36.362  29.159  1.00  0.00     0.049 A 
ATOM     59  C   UNL A   1      48.172  36.939  26.943  1.00  0.00     0.074 A 
ATOM     60  C   UNL A   1      42.402  37.531  29.491  1.00  0.00     0.029 A 
ATOM     61  N   UNL A   1      44.287  36.744  28.615  1.00  0.00    -0.354 N 
ATOM     62  N   UNL A   1      46.973  36.971  27.470  1.00  0.00    -0.248 NA
ATOM     63  C   UNL A   1      48.740  38.263  26.657  1.00  0.00     0.031 C 
ATOM     64  C   UNL A   1      43.194  38.617  29.104  1.00  0.00     0.029 A 
ATOM     65  C   UNL A   1      44.380  38.129  28.581  1.00  0.00     0.049 A 
ATOM     66  H   UNL A   1      44.984  36.124  28.301  1.00  0.00     0.167 HD
ATOM     67  C   UNL A   1      46.651  38.314  27.601  1.00  0.00     0.074 A 
ATOM     68  C   UNL A   1      47.788  39.066  27.112  1.00  0.00     0.031 C 
ATOM     69  C   UNL A   1      45.514  38.870  28.086  1.00  0.00     0.037 A 
BRANCH  56  70
ATOM     70  C   UNL A   1      41.257  34.775  29.895  1.00  0.00     0.064 A 
ATOM     71  C   UNL A   1      40.110  34.814  29.089  1.00  0.00     0.173 A 
ATOM     72  C   UNL A   1      41.100  34.420  31.243  1.00  0.00     0.173 A 
ATOM     73  F   UNL A   1      40.205  35.150  27.794  1.00  0.00    -0.203 F 
ATOM     74  C   UNL A   1      38.855  34.513  29.613  1.00  0.00     0.198 A 
ATOM     75  C   UNL A   1      39.847  34.098  31.759  1.00  0.00     0.198 A 
ATOM     76  F   UNL A   1      42.167  34.357  32.055  1.00  0.00    -0.203 F 
ATOM     77  F   UNL A   1      37.770  34.576  28.828  1.00  0.00    -0.200 F 
ATOM     78  C   UNL A   1      38.726  34.146  30.944  1.00  0.00     0.200 A 
ATOM     79  F   UNL A   1      39.726  33.727  33.041  1.00  0.00    -0.200 F 
ATOM     80  F   UNL A   1      37.520  33.836  31.442  1.00  0.00    -0.200 F 
ENDBRANCH  56  70
BRANCH  57  81
ATOM     81  C   UNL A   1      50.394  35.915  26.061  1.00  0.00     0.064 A 
ATOM     82  C   UNL A   1      51.519  35.799  26.887  1.00  0.00     0.173 A 
ATOM     83  C   UNL A   1      50.604  36.143  24.692  1.00  0.00     0.173 A 
ATOM     84  F   UNL A   1      51.364  35.595  28.203  1.00  0.00    -0.203 F 
ATOM     85  C   UNL A   1      52.805  35.912  26.367  1.00  0.00     0.198 A 
ATOM     86  C   UNL A   1      51.891  36.231  24.170  1.00  0.00     0.198 A 
ATOM     87  F   UNL A   1      49.558  36.252  23.862  1.00  0.00    -0.203 F 
ATOM     88  F   UNL A   1      53.865  35.825  27.182  1.00  0.00    -0.200 F 
ATOM     89  C   UNL A   1      52.991  36.120  25.007  1.00  0.00     0.200 A 
ATOM     90  F   UNL A   1      52.066  36.414  22.854  1.00  0.00    -0.200 F 
ATOM     91  F   UNL A   1      54.230  36.214  24.506  1.00  0.00    -0.200 F 
ENDBRANCH  57  81
BRANCH  69  92
ATOM     92  C   UNL A   1      45.450  40.370  28.133  1.00  0.00     0.064 A 
ATOM     93  C   UNL A   1      45.964  41.095  29.218  1.00  0.00     0.173 A 
ATOM     94  C   UNL A   1      44.893  41.092  27.066  1.00  0.00     0.173 A 
ATOM     95  F   UNL A   1      46.491  40.450  30.270  1.00  0.00    -0.203 F 
ATOM     96  C   UNL A   1      45.902  42.485  29.245  1.00  0.00     0.198 A 
ATOM     97  C   UNL A   1      44.859  42.483  27.082  1.00  0.00     0.198 A 
ATOM     98  F   UNL A   1      44.391  40.447  26.002  1.00  0.00    -0.203 F 
ATOM     99  F   UNL A   1      46.356  43.154  30.312  1.00  0.00    -0.200 F 
ATOM    100  C   UNL A   1      45.356  43.178  28.174  1.00  0.00     0.200 A 
ATOM    101  F   UNL A   1      44.342  43.152  26.042  1.00  0.00    -0.200 F 
ATOM    102  F   UNL A   1      45.302  44.517  28.198  1.00  0.00    -0.200 F 
ENDBRANCH  69  92
ENDBRANCH  43  44
ENDBRANCH  36  38
ENDBRANCH  35  36
ENDBRANCH  34  35
ENDBRANCH  33  34
ENDBRANCH  32  33
ENDBRANCH  31  32
ENDBRANCH  30  31
ENDBRANCH  29  30
ENDBRANCH   1  29
TORSDOF 24
ENDMDL
