MODEL 1
REMARK VINA RESULT:     -10.2      0.000      0.000
REMARK SMILES O=C(OCCOCCOCCOCCOC(=O)[C@H]1CCCC[N@H+]1Cc1ccc(F)cc1Cl)c1ccc(-c2c3nc(c(-c4c(F)c(F)c(F)c(F)c4F)c4ccc([nH]4)c(-c4c(F)c(F)c(F)c(F)c4F)c4nc(c(-c5c(F)c(F)c(F)c(F)c5F)c5ccc2[nH]5)C=C4)C=C3)cc1
REMARK SMILES IDX 9 1 8 2 7 3 6 4 5 5 4 6 3 7 2 8 1 9 33 10 34 11 95 12 35 13
REMARK SMILES IDX 94 14 36 15 37 16 38 17 88 18 39 19 93 20 87 21 89 22 40 23
REMARK SMILES IDX 92 24 86 25 85 26 41 28 73 29 53 30 72 31 54 32 57 33 71 34
REMARK SMILES IDX 90 35 55 36 56 37 70 39 91 40 58 41 42 42 43 43 51 44 44 45
REMARK SMILES IDX 45 46 49 47 52 48 46 49 47 50 50 51 48 52 74 53 75 54 83 55
REMARK SMILES IDX 76 56 77 57 81 58 84 59 78 60 79 61 82 62 80 63 59 64 60 65
REMARK SMILES IDX 68 66 61 67 62 68 66 69 69 70 63 71 64 72 67 73 65 74 10 75
REMARK SMILES IDX 11 76 12 77 13 78 14 79 15 80 16 81 17 82 18 83 19 84 23 85
REMARK SMILES IDX 20 86 22 87 21 89 24 90 25 91 26 92 31 93 27 94 30 95 32 96
REMARK SMILES IDX 28 97 29 98
REMARK H PARENT 89 27 57 38 23 88
REMARK Flexibility Score: inf
ROOT
ATOM      1  O   UNL A   1      33.025  31.284  27.509  1.00  0.00    -0.377 OA
ENDROOT
BRANCH   1   2
ATOM      2  C   UNL A   1      34.435  31.107  27.619  1.00  0.00     0.188 C 
BRANCH   2   3
ATOM      3  C   UNL A   1      35.233  32.374  27.928  1.00  0.00     0.188 C 
BRANCH   3   4
ATOM      4  O   UNL A   1      34.378  33.516  28.042  1.00  0.00    -0.376 OA
BRANCH   4   5
ATOM      5  C   UNL A   1      34.637  34.349  29.171  1.00  0.00     0.202 C 
BRANCH   5   6
ATOM      6  C   UNL A   1      34.402  33.661  30.516  1.00  0.00     0.261 C 
BRANCH   6   7
ATOM      7  O   UNL A   1      35.574  33.630  31.339  1.00  0.00    -0.460 OA
BRANCH   7   8
ATOM      8  C   UNL A   1      36.133  32.574  31.977  1.00  0.00     0.338 C 
ATOM      9  O   UNL A   1      35.636  32.226  33.049  1.00  0.00    -0.246 OA
BRANCH   8  10
ATOM     10  C   UNL A   1      37.295  31.772  31.468  1.00  0.00     0.060 A 
ATOM     11  C   UNL A   1      38.293  31.166  32.238  1.00  0.00     0.016 A 
ATOM     12  C   UNL A   1      37.344  31.575  30.075  1.00  0.00     0.016 A 
ATOM     13  C   UNL A   1      39.329  30.438  31.657  1.00  0.00     0.010 A 
ATOM     14  C   UNL A   1      38.374  30.845  29.480  1.00  0.00     0.010 A 
ATOM     15  C   UNL A   1      39.387  30.301  30.275  1.00  0.00    -0.014 A 
BRANCH  15  16
ATOM     16  C   UNL A   1      40.615  29.764  29.668  1.00  0.00     0.031 A 
ATOM     17  C   UNL A   1      41.774  30.701  29.518  1.00  0.00     0.074 A 
ATOM     18  C   UNL A   1      40.705  28.464  29.344  1.00  0.00     0.049 A 
ATOM     19  N   UNL A   1      42.908  30.530  28.897  1.00  0.00    -0.248 NA
ATOM     20  C   UNL A   1      41.636  32.017  30.170  1.00  0.00     0.031 C 
ATOM     21  C   UNL A   1      39.668  27.459  29.587  1.00  0.00     0.029 A 
ATOM     22  N   UNL A   1      41.716  27.764  28.741  1.00  0.00    -0.354 N 
ATOM     23  C   UNL A   1      43.594  31.728  29.044  1.00  0.00     0.074 A 
ATOM     24  C   UNL A   1      42.767  32.613  29.830  1.00  0.00     0.031 C 
ATOM     25  C   UNL A   1      40.094  26.273  29.123  1.00  0.00     0.029 A 
ATOM     26  C   UNL A   1      41.395  26.452  28.487  1.00  0.00     0.049 A 
ATOM     27  H   UNL A   1      42.587  28.162  28.512  1.00  0.00     0.167 HD
ATOM     28  C   UNL A   1      44.805  32.053  28.539  1.00  0.00     0.037 A 
ATOM     29  C   UNL A   1      42.062  25.534  27.763  1.00  0.00     0.037 A 
ATOM     30  C   UNL A   1      45.602  31.138  27.773  1.00  0.00     0.049 A 
ATOM     31  C   UNL A   1      43.365  25.953  27.128  1.00  0.00     0.074 A 
ATOM     32  C   UNL A   1      46.836  31.342  27.187  1.00  0.00     0.029 A 
ATOM     33  N   UNL A   1      45.224  29.832  27.484  1.00  0.00    -0.354 N 
ATOM     34  N   UNL A   1      44.004  27.097  27.227  1.00  0.00    -0.248 NA
ATOM     35  C   UNL A   1      44.029  24.972  26.260  1.00  0.00     0.031 C 
ATOM     36  C   UNL A   1      47.179  30.175  26.497  1.00  0.00     0.029 A 
ATOM     37  C   UNL A   1      46.184  29.229  26.693  1.00  0.00     0.049 A 
ATOM     38  H   UNL A   1      44.396  29.401  27.796  1.00  0.00     0.167 HD
ATOM     39  C   UNL A   1      45.142  26.973  26.443  1.00  0.00     0.074 A 
ATOM     40  C   UNL A   1      45.121  25.631  25.896  1.00  0.00     0.031 C 
ATOM     41  C   UNL A   1      46.113  27.883  26.182  1.00  0.00     0.037 A 
BRANCH  28  42
ATOM     42  C   UNL A   1      45.279  33.462  28.725  1.00  0.00     0.064 A 
ATOM     43  C   UNL A   1      46.108  33.841  29.791  1.00  0.00     0.173 A 
ATOM     44  C   UNL A   1      44.883  34.456  27.817  1.00  0.00     0.173 A 
ATOM     45  F   UNL A   1      46.490  32.936  30.704  1.00  0.00    -0.203 F 
ATOM     46  C   UNL A   1      46.508  35.166  29.949  1.00  0.00     0.198 A 
ATOM     47  C   UNL A   1      45.303  35.774  27.965  1.00  0.00     0.198 A 
ATOM     48  F   UNL A   1      44.080  34.148  26.788  1.00  0.00    -0.203 F 
ATOM     49  F   UNL A   1      47.263  35.516  31.001  1.00  0.00    -0.200 F 
ATOM     50  C   UNL A   1      46.112  36.130  29.033  1.00  0.00     0.200 A 
ATOM     51  F   UNL A   1      44.918  36.702  27.078  1.00  0.00    -0.200 F 
ATOM     52  F   UNL A   1      46.497  37.404  29.187  1.00  0.00    -0.200 F 
ENDBRANCH  28  42
BRANCH  29  53
ATOM     53  C   UNL A   1      41.475  24.188  27.515  1.00  0.00     0.064 A 
ATOM     54  C   UNL A   1      42.043  23.027  28.058  1.00  0.00     0.173 A 
ATOM     55  C   UNL A   1      40.347  24.029  26.691  1.00  0.00     0.173 A 
ATOM     56  F   UNL A   1      43.137  23.116  28.829  1.00  0.00    -0.203 F 
ATOM     57  C   UNL A   1      41.524  21.765  27.771  1.00  0.00     0.198 A 
ATOM     58  C   UNL A   1      39.809  22.770  26.433  1.00  0.00     0.198 A 
ATOM     59  F   UNL A   1      39.764  25.100  26.133  1.00  0.00    -0.203 F 
ATOM     60  F   UNL A   1      42.123  20.670  28.257  1.00  0.00    -0.200 F 
ATOM     61  C   UNL A   1      40.404  21.638  26.963  1.00  0.00     0.200 A 
ATOM     62  F   UNL A   1      38.718  22.656  25.662  1.00  0.00    -0.200 F 
ATOM     63  F   UNL A   1      39.906  20.424  26.687  1.00  0.00    -0.200 F 
ENDBRANCH  29  53
BRANCH  41  64
ATOM     64  C   UNL A   1      47.223  27.449  25.276  1.00  0.00     0.064 A 
ATOM     65  C   UNL A   1      47.225  27.789  23.917  1.00  0.00     0.173 A 
ATOM     66  C   UNL A   1      48.331  26.763  25.793  1.00  0.00     0.173 A 
ATOM     67  F   UNL A   1      46.177  28.432  23.379  1.00  0.00    -0.203 F 
ATOM     68  C   UNL A   1      48.298  27.447  23.101  1.00  0.00     0.198 A 
ATOM     69  C   UNL A   1      49.415  26.450  24.981  1.00  0.00     0.198 A 
ATOM     70  F   UNL A   1      48.375  26.428  27.091  1.00  0.00    -0.203 F 
ATOM     71  F   UNL A   1      48.269  27.752  21.797  1.00  0.00    -0.200 F 
ATOM     72  C   UNL A   1      49.396  26.789  23.635  1.00  0.00     0.200 A 
ATOM     73  F   UNL A   1      50.483  25.830  25.502  1.00  0.00    -0.200 F 
ATOM     74  F   UNL A   1      50.438  26.479  22.853  1.00  0.00    -0.200 F 
ENDBRANCH  41  64
ENDBRANCH  15  16
ENDBRANCH   8  10
ENDBRANCH   7   8
ENDBRANCH   6   7
ENDBRANCH   5   6
ENDBRANCH   4   5
ENDBRANCH   3   4
ENDBRANCH   2   3
ENDBRANCH   1   2
BRANCH   1  75
ATOM     75  C   UNL A   1      32.331  30.393  26.646  1.00  0.00     0.188 C 
BRANCH  75  76
ATOM     76  C   UNL A   1      31.795  29.065  27.235  1.00  0.00     0.188 C 
BRANCH  76  77
ATOM     77  O   UNL A   1      31.910  27.940  26.374  1.00  0.00    -0.376 OA
BRANCH  77  78
ATOM     78  C   UNL A   1      31.262  26.741  26.784  1.00  0.00     0.202 C 
BRANCH  78  79
ATOM     79  C   UNL A   1      30.553  25.925  25.695  1.00  0.00     0.261 C 
BRANCH  79  80
ATOM     80  O   UNL A   1      31.155  26.111  24.402  1.00  0.00    -0.459 OA
BRANCH  80  81
ATOM     81  C   UNL A   1      31.230  25.037  23.566  1.00  0.00     0.364 C 
ATOM     82  O   UNL A   1      30.277  24.369  23.225  1.00  0.00    -0.245 OA
BRANCH  81  83
ATOM     83  C   UNL A   1      32.701  24.859  23.112  1.00  0.00     0.295 C 
ATOM     84  C   UNL A   1      32.778  25.085  21.602  1.00  0.00     0.078 C 
ATOM     85  N   UNL A   1      33.655  25.705  23.837  1.00  0.00    -0.319 N 
ATOM     86  C   UNL A   1      32.639  26.561  21.259  1.00  0.00     0.013 C 
ATOM     87  C   UNL A   1      33.640  27.124  23.554  1.00  0.00     0.263 C 
ATOM     88  H   UNL A   1      34.455  25.381  23.294  1.00  0.00     0.349 HD
ATOM     89  C   UNL A   1      33.652  27.393  22.042  1.00  0.00     0.062 C 
BRANCH  85  90
ATOM     90  C   UNL A   1      34.344  25.228  25.034  1.00  0.00     0.301 C 
BRANCH  90  91
ATOM     91  C   UNL A   1      34.158  23.796  25.525  1.00  0.00     0.025 A 
ATOM     92  C   UNL A   1      33.243  23.464  26.533  1.00  0.00     0.014 A 
ATOM     93  C   UNL A   1      34.801  22.714  24.881  1.00  0.00     0.052 A 
ATOM     94  C   UNL A   1      32.936  22.139  26.858  1.00  0.00     0.040 A 
ATOM     95  C   UNL A   1      34.525  21.383  25.227  1.00  0.00     0.060 A 
ATOM     96  Cl  UNL A   1      35.947  22.955  23.607  1.00  0.00    -0.084 Cl
ATOM     97  C   UNL A   1      33.580  21.109  26.200  1.00  0.00     0.124 A 
ATOM     98  F   UNL A   1      33.279  19.841  26.505  1.00  0.00    -0.207 F 
ENDBRANCH  90  91
ENDBRANCH  85  90
ENDBRANCH  81  83
ENDBRANCH  80  81
ENDBRANCH  79  80
ENDBRANCH  78  79
ENDBRANCH  77  78
ENDBRANCH  76  77
ENDBRANCH  75  76
ENDBRANCH   1  75
TORSDOF 22
ENDMDL
MODEL 2
REMARK VINA RESULT:     -10.0      5.899     10.914
REMARK SMILES O=C(OCCOCCOCCOCCOC(=O)[C@H]1CCCC[N@H+]1Cc1ccc(F)cc1Cl)c1ccc(-c2c3nc(c(-c4c(F)c(F)c(F)c(F)c4F)c4ccc([nH]4)c(-c4c(F)c(F)c(F)c(F)c4F)c4nc(c(-c5c(F)c(F)c(F)c(F)c5F)c5ccc2[nH]5)C=C4)C=C3)cc1
REMARK SMILES IDX 9 1 8 2 7 3 6 4 5 5 4 6 3 7 2 8 1 9 33 10 34 11 95 12 35 13
REMARK SMILES IDX 94 14 36 15 37 16 38 17 88 18 39 19 93 20 87 21 89 22 40 23
REMARK SMILES IDX 92 24 86 25 85 26 41 28 73 29 53 30 72 31 54 32 57 33 71 34
REMARK SMILES IDX 90 35 55 36 56 37 70 39 91 40 58 41 42 42 43 43 51 44 44 45
REMARK SMILES IDX 45 46 49 47 52 48 46 49 47 50 50 51 48 52 74 53 75 54 83 55
REMARK SMILES IDX 76 56 77 57 81 58 84 59 78 60 79 61 82 62 80 63 59 64 60 65
REMARK SMILES IDX 68 66 61 67 62 68 66 69 69 70 63 71 64 72 67 73 65 74 10 75
REMARK SMILES IDX 11 76 12 77 13 78 14 79 15 80 16 81 17 82 18 83 19 84 23 85
REMARK SMILES IDX 20 86 22 87 21 89 24 90 25 91 26 92 31 93 27 94 30 95 32 96
REMARK SMILES IDX 28 97 29 98
REMARK H PARENT 89 27 57 38 23 88
REMARK Flexibility Score: inf
ROOT
ATOM      1  O   UNL A   1      39.695  21.462  25.599  1.00  0.00    -0.377 OA
ENDROOT
BRANCH   1   2
ATOM      2  C   UNL A   1      40.400  20.959  26.731  1.00  0.00     0.188 C 
BRANCH   2   3
ATOM      3  C   UNL A   1      41.649  20.137  26.413  1.00  0.00     0.188 C 
BRANCH   3   4
ATOM      4  O   UNL A   1      42.427  20.746  25.377  1.00  0.00    -0.376 OA
BRANCH   4   5
ATOM      5  C   UNL A   1      43.087  21.953  25.755  1.00  0.00     0.202 C 
BRANCH   5   6
ATOM      6  C   UNL A   1      43.688  22.724  24.579  1.00  0.00     0.261 C 
BRANCH   6   7
ATOM      7  O   UNL A   1      43.449  24.135  24.657  1.00  0.00    -0.460 OA
BRANCH   7   8
ATOM      8  C   UNL A   1      44.135  25.073  25.353  1.00  0.00     0.338 C 
ATOM      9  O   UNL A   1      45.153  25.536  24.836  1.00  0.00    -0.246 OA
BRANCH   8  10
ATOM     10  C   UNL A   1      43.739  25.616  26.695  1.00  0.00     0.060 A 
ATOM     11  C   UNL A   1      42.982  24.961  27.671  1.00  0.00     0.016 A 
ATOM     12  C   UNL A   1      44.230  26.898  27.009  1.00  0.00     0.016 A 
ATOM     13  C   UNL A   1      42.676  25.563  28.889  1.00  0.00     0.010 A 
ATOM     14  C   UNL A   1      43.934  27.511  28.228  1.00  0.00     0.010 A 
ATOM     15  C   UNL A   1      43.126  26.850  29.157  1.00  0.00    -0.014 A 
BRANCH  15  16
ATOM     16  C   UNL A   1      42.578  27.564  30.322  1.00  0.00     0.031 A 
ATOM     17  C   UNL A   1      41.273  28.276  30.138  1.00  0.00     0.074 A 
ATOM     18  C   UNL A   1      43.193  27.500  31.514  1.00  0.00     0.049 A 
ATOM     19  N   UNL A   1      40.647  29.087  30.945  1.00  0.00    -0.248 NA
ATOM     20  C   UNL A   1      40.571  28.031  28.865  1.00  0.00     0.031 C 
ATOM     21  C   UNL A   1      44.393  26.714  31.804  1.00  0.00     0.029 A 
ATOM     22  N   UNL A   1      42.892  28.107  32.705  1.00  0.00    -0.354 N 
ATOM     23  C   UNL A   1      39.506  29.483  30.260  1.00  0.00     0.074 A 
ATOM     24  C   UNL A   1      39.508  28.810  28.982  1.00  0.00     0.031 C 
ATOM     25  C   UNL A   1      44.734  26.899  33.090  1.00  0.00     0.029 A 
ATOM     26  C   UNL A   1      43.823  27.870  33.687  1.00  0.00     0.049 A 
ATOM     27  H   UNL A   1      42.088  28.658  32.842  1.00  0.00     0.167 HD
ATOM     28  C   UNL A   1      38.557  30.353  30.669  1.00  0.00     0.037 A 
ATOM     29  C   UNL A   1      43.945  28.435  34.903  1.00  0.00     0.037 A 
ATOM     30  C   UNL A   1      38.587  30.991  31.954  1.00  0.00     0.049 A 
ATOM     31  C   UNL A   1      42.926  29.477  35.297  1.00  0.00     0.074 A 
ATOM     32  C   UNL A   1      37.701  31.906  32.489  1.00  0.00     0.029 A 
ATOM     33  N   UNL A   1      39.574  30.774  32.908  1.00  0.00    -0.354 N 
ATOM     34  N   UNL A   1      41.866  29.888  34.639  1.00  0.00    -0.248 NA
ATOM     35  C   UNL A   1      43.131  30.155  36.583  1.00  0.00     0.031 C 
ATOM     36  C   UNL A   1      38.185  32.284  33.746  1.00  0.00     0.029 A 
ATOM     37  C   UNL A   1      39.343  31.568  34.015  1.00  0.00     0.049 A 
ATOM     38  H   UNL A   1      40.326  30.147  32.809  1.00  0.00     0.167 HD
ATOM     39  C   UNL A   1      41.276  30.864  35.429  1.00  0.00     0.074 A 
ATOM     40  C   UNL A   1      42.082  30.965  36.629  1.00  0.00     0.031 C 
ATOM     41  C   UNL A   1      40.178  31.623  35.187  1.00  0.00     0.037 A 
BRANCH  28  42
ATOM     42  C   UNL A   1      37.483  30.720  29.692  1.00  0.00     0.064 A 
ATOM     43  C   UNL A   1      37.432  31.975  29.067  1.00  0.00     0.173 A 
ATOM     44  C   UNL A   1      36.475  29.793  29.384  1.00  0.00     0.173 A 
ATOM     45  F   UNL A   1      38.354  32.907  29.350  1.00  0.00    -0.203 F 
ATOM     46  C   UNL A   1      36.403  32.292  28.183  1.00  0.00     0.198 A 
ATOM     47  C   UNL A   1      35.461  30.105  28.483  1.00  0.00     0.198 A 
ATOM     48  F   UNL A   1      36.470  28.584  29.965  1.00  0.00    -0.203 F 
ATOM     49  F   UNL A   1      36.347  33.513  27.632  1.00  0.00    -0.200 F 
ATOM     50  C   UNL A   1      35.423  31.356  27.887  1.00  0.00     0.200 A 
ATOM     51  F   UNL A   1      34.516  29.198  28.200  1.00  0.00    -0.200 F 
ATOM     52  F   UNL A   1      34.433  31.664  27.038  1.00  0.00    -0.200 F 
ENDBRANCH  28  42
BRANCH  29  53
ATOM     53  C   UNL A   1      45.106  28.115  35.777  1.00  0.00     0.064 A 
ATOM     54  C   UNL A   1      46.310  28.828  35.691  1.00  0.00     0.173 A 
ATOM     55  C   UNL A   1      45.050  27.054  36.698  1.00  0.00     0.173 A 
ATOM     56  F   UNL A   1      46.431  29.832  34.810  1.00  0.00    -0.203 F 
ATOM     57  C   UNL A   1      47.414  28.481  36.471  1.00  0.00     0.198 A 
ATOM     58  C   UNL A   1      46.142  26.731  37.501  1.00  0.00     0.198 A 
ATOM     59  F   UNL A   1      43.930  26.327  36.820  1.00  0.00    -0.203 F 
ATOM     60  F   UNL A   1      48.569  29.143  36.325  1.00  0.00    -0.200 F 
ATOM     61  C   UNL A   1      47.327  27.437  37.379  1.00  0.00     0.200 A 
ATOM     62  F   UNL A   1      46.047  25.728  38.386  1.00  0.00    -0.200 F 
ATOM     63  F   UNL A   1      48.389  27.103  38.126  1.00  0.00    -0.200 F 
ENDBRANCH  29  53
BRANCH  41  64
ATOM     64  C   UNL A   1      39.791  32.612  36.243  1.00  0.00     0.064 A 
ATOM     65  C   UNL A   1      40.396  33.874  36.311  1.00  0.00     0.173 A 
ATOM     66  C   UNL A   1      38.749  32.324  37.136  1.00  0.00     0.173 A 
ATOM     67  F   UNL A   1      41.408  34.184  35.485  1.00  0.00    -0.203 F 
ATOM     68  C   UNL A   1      39.976  34.813  37.246  1.00  0.00     0.198 A 
ATOM     69  C   UNL A   1      38.312  33.276  38.049  1.00  0.00     0.198 A 
ATOM     70  F   UNL A   1      38.136  31.132  37.098  1.00  0.00    -0.203 F 
ATOM     71  F   UNL A   1      40.588  36.003  37.318  1.00  0.00    -0.200 F 
ATOM     72  C   UNL A   1      38.928  34.519  38.106  1.00  0.00     0.200 A 
ATOM     73  F   UNL A   1      37.288  32.998  38.866  1.00  0.00    -0.200 F 
ATOM     74  F   UNL A   1      38.511  35.433  38.992  1.00  0.00    -0.200 F 
ENDBRANCH  41  64
ENDBRANCH  15  16
ENDBRANCH   8  10
ENDBRANCH   7   8
ENDBRANCH   6   7
ENDBRANCH   5   6
ENDBRANCH   4   5
ENDBRANCH   3   4
ENDBRANCH   2   3
ENDBRANCH   1   2
BRANCH   1  75
ATOM     75  C   UNL A   1      38.317  21.123  25.497  1.00  0.00     0.188 C 
BRANCH  75  76
ATOM     76  C   UNL A   1      37.267  22.247  25.673  1.00  0.00     0.188 C 
BRANCH  76  77
ATOM     77  O   UNL A   1      35.989  21.808  26.111  1.00  0.00    -0.376 OA
BRANCH  77  78
ATOM     78  C   UNL A   1      34.876  22.637  25.798  1.00  0.00     0.202 C 
BRANCH  78  79
ATOM     79  C   UNL A   1      35.038  23.607  24.620  1.00  0.00     0.261 C 
BRANCH  79  80
ATOM     80  O   UNL A   1      33.808  23.793  23.900  1.00  0.00    -0.459 OA
BRANCH  80  81
ATOM     81  C   UNL A   1      33.351  25.066  23.724  1.00  0.00     0.364 C 
ATOM     82  O   UNL A   1      34.054  26.009  23.428  1.00  0.00    -0.245 OA
BRANCH  81  83
ATOM     83  C   UNL A   1      31.814  25.077  23.920  1.00  0.00     0.295 C 
ATOM     84  C   UNL A   1      31.479  24.322  25.206  1.00  0.00     0.078 C 
ATOM     85  N   UNL A   1      31.220  26.418  23.907  1.00  0.00    -0.319 N 
ATOM     86  C   UNL A   1      31.843  25.141  26.436  1.00  0.00     0.013 C 
ATOM     87  C   UNL A   1      31.467  27.268  25.050  1.00  0.00     0.263 C 
ATOM     88  H   UNL A   1      30.278  26.073  24.088  1.00  0.00     0.349 HD
ATOM     89  C   UNL A   1      31.202  26.526  26.369  1.00  0.00     0.062 C 
BRANCH  85  90
ATOM     90  C   UNL A   1      30.707  27.014  22.676  1.00  0.00     0.301 C 
BRANCH  90  91
ATOM     91  C   UNL A   1      29.835  28.264  22.718  1.00  0.00     0.025 A 
ATOM     92  C   UNL A   1      30.251  29.485  22.170  1.00  0.00     0.014 A 
ATOM     93  C   UNL A   1      28.501  28.210  23.186  1.00  0.00     0.052 A 
ATOM     94  C   UNL A   1      29.390  30.581  22.041  1.00  0.00     0.040 A 
ATOM     95  C   UNL A   1      27.643  29.316  23.093  1.00  0.00     0.060 A 
ATOM     96  Cl  UNL A   1      27.830  26.772  23.876  1.00  0.00    -0.084 Cl
ATOM     97  C   UNL A   1      28.092  30.485  22.502  1.00  0.00     0.124 A 
ATOM     98  F   UNL A   1      27.266  31.529  22.370  1.00  0.00    -0.207 F 
ENDBRANCH  90  91
ENDBRANCH  85  90
ENDBRANCH  81  83
ENDBRANCH  80  81
ENDBRANCH  79  80
ENDBRANCH  78  79
ENDBRANCH  77  78
ENDBRANCH  76  77
ENDBRANCH  75  76
ENDBRANCH   1  75
TORSDOF 22
ENDMDL
MODEL 3
REMARK VINA RESULT:      -9.9      5.096      9.395
REMARK SMILES O=C(OCCOCCOCCOCCOC(=O)[C@H]1CCCC[N@H+]1Cc1ccc(F)cc1Cl)c1ccc(-c2c3nc(c(-c4c(F)c(F)c(F)c(F)c4F)c4ccc([nH]4)c(-c4c(F)c(F)c(F)c(F)c4F)c4nc(c(-c5c(F)c(F)c(F)c(F)c5F)c5ccc2[nH]5)C=C4)C=C3)cc1
REMARK SMILES IDX 9 1 8 2 7 3 6 4 5 5 4 6 3 7 2 8 1 9 33 10 34 11 95 12 35 13
REMARK SMILES IDX 94 14 36 15 37 16 38 17 88 18 39 19 93 20 87 21 89 22 40 23
REMARK SMILES IDX 92 24 86 25 85 26 41 28 73 29 53 30 72 31 54 32 57 33 71 34
REMARK SMILES IDX 90 35 55 36 56 37 70 39 91 40 58 41 42 42 43 43 51 44 44 45
REMARK SMILES IDX 45 46 49 47 52 48 46 49 47 50 50 51 48 52 74 53 75 54 83 55
REMARK SMILES IDX 76 56 77 57 81 58 84 59 78 60 79 61 82 62 80 63 59 64 60 65
REMARK SMILES IDX 68 66 61 67 62 68 66 69 69 70 63 71 64 72 67 73 65 74 10 75
REMARK SMILES IDX 11 76 12 77 13 78 14 79 15 80 16 81 17 82 18 83 19 84 23 85
REMARK SMILES IDX 20 86 22 87 21 89 24 90 25 91 26 92 31 93 27 94 30 95 32 96
REMARK SMILES IDX 28 97 29 98
REMARK H PARENT 89 27 57 38 23 88
REMARK Flexibility Score: inf
ROOT
ATOM      1  O   UNL A   1      33.712  31.118  27.945  1.00  0.00    -0.377 OA
ENDROOT
BRANCH   1   2
ATOM      2  C   UNL A   1      35.044  31.550  27.677  1.00  0.00     0.188 C 
BRANCH   2   3
ATOM      3  C   UNL A   1      35.358  32.992  28.075  1.00  0.00     0.188 C 
BRANCH   3   4
ATOM      4  O   UNL A   1      34.442  33.913  27.473  1.00  0.00    -0.376 OA
BRANCH   4   5
ATOM      5  C   UNL A   1      34.295  35.152  28.165  1.00  0.00     0.202 C 
BRANCH   5   6
ATOM      6  C   UNL A   1      32.904  35.368  28.759  1.00  0.00     0.261 C 
BRANCH   6   7
ATOM      7  O   UNL A   1      32.942  35.886  30.095  1.00  0.00    -0.460 OA
BRANCH   7   8
ATOM      8  C   UNL A   1      33.167  35.222  31.254  1.00  0.00     0.338 C 
ATOM      9  O   UNL A   1      32.297  35.281  32.124  1.00  0.00    -0.246 OA
BRANCH   8  10
ATOM     10  C   UNL A   1      34.383  34.395  31.554  1.00  0.00     0.060 A 
ATOM     11  C   UNL A   1      34.404  33.117  32.123  1.00  0.00     0.016 A 
ATOM     12  C   UNL A   1      35.617  34.954  31.172  1.00  0.00     0.016 A 
ATOM     13  C   UNL A   1      35.597  32.436  32.355  1.00  0.00     0.010 A 
ATOM     14  C   UNL A   1      36.820  34.280  31.395  1.00  0.00     0.010 A 
ATOM     15  C   UNL A   1      36.808  33.030  32.019  1.00  0.00    -0.014 A 
BRANCH  15  16
ATOM     16  C   UNL A   1      38.055  32.420  32.507  1.00  0.00     0.031 A 
ATOM     17  C   UNL A   1      38.698  31.383  31.638  1.00  0.00     0.074 A 
ATOM     18  C   UNL A   1      38.624  32.846  33.646  1.00  0.00     0.049 A 
ATOM     19  N   UNL A   1      39.709  30.598  31.887  1.00  0.00    -0.248 NA
ATOM     20  C   UNL A   1      38.123  31.215  30.290  1.00  0.00     0.031 C 
ATOM     21  C   UNL A   1      38.131  33.946  34.476  1.00  0.00     0.029 A 
ATOM     22  N   UNL A   1      39.743  32.405  34.302  1.00  0.00    -0.354 N 
ATOM     23  C   UNL A   1      39.858  29.814  30.751  1.00  0.00     0.074 A 
ATOM     24  C   UNL A   1      38.855  30.228  29.799  1.00  0.00     0.031 C 
ATOM     25  C   UNL A   1      38.938  34.084  35.541  1.00  0.00     0.029 A 
ATOM     26  C   UNL A   1      39.954  33.038  35.503  1.00  0.00     0.049 A 
ATOM     27  H   UNL A   1      40.335  31.703  33.948  1.00  0.00     0.167 HD
ATOM     28  C   UNL A   1      40.751  28.821  30.545  1.00  0.00     0.037 A 
ATOM     29  C   UNL A   1      40.835  32.746  36.479  1.00  0.00     0.037 A 
ATOM     30  C   UNL A   1      41.742  28.449  31.514  1.00  0.00     0.049 A 
ATOM     31  C   UNL A   1      41.756  31.570  36.264  1.00  0.00     0.074 A 
ATOM     32  C   UNL A   1      42.694  27.451  31.442  1.00  0.00     0.029 A 
ATOM     33  N   UNL A   1      41.896  29.072  32.747  1.00  0.00    -0.354 N 
ATOM     34  N   UNL A   1      41.878  30.796  35.209  1.00  0.00    -0.248 NA
ATOM     35  C   UNL A   1      42.639  31.204  37.378  1.00  0.00     0.031 C 
ATOM     36  C   UNL A   1      43.389  27.436  32.657  1.00  0.00     0.029 A 
ATOM     37  C   UNL A   1      42.903  28.455  33.464  1.00  0.00     0.049 A 
ATOM     38  H   UNL A   1      41.367  29.839  33.062  1.00  0.00     0.167 HD
ATOM     39  C   UNL A   1      42.851  29.860  35.527  1.00  0.00     0.074 A 
ATOM     40  C   UNL A   1      43.307  30.178  36.866  1.00  0.00     0.031 C 
ATOM     41  C   UNL A   1      43.320  28.820  34.794  1.00  0.00     0.037 A 
BRANCH  28  42
ATOM     42  C   UNL A   1      40.629  28.029  29.279  1.00  0.00     0.064 A 
ATOM     43  C   UNL A   1      39.768  26.928  29.162  1.00  0.00     0.173 A 
ATOM     44  C   UNL A   1      41.404  28.378  28.162  1.00  0.00     0.173 A 
ATOM     45  F   UNL A   1      39.029  26.535  30.209  1.00  0.00    -0.203 F 
ATOM     46  C   UNL A   1      39.699  26.198  27.977  1.00  0.00     0.198 A 
ATOM     47  C   UNL A   1      41.316  27.660  26.973  1.00  0.00     0.198 A 
ATOM     48  F   UNL A   1      42.253  29.414  28.227  1.00  0.00    -0.203 F 
ATOM     49  F   UNL A   1      38.904  25.121  27.900  1.00  0.00    -0.200 F 
ATOM     50  C   UNL A   1      40.468  26.567  26.883  1.00  0.00     0.200 A 
ATOM     51  F   UNL A   1      42.060  28.021  25.918  1.00  0.00    -0.200 F 
ATOM     52  F   UNL A   1      40.401  25.863  25.745  1.00  0.00    -0.200 F 
ENDBRANCH  28  42
BRANCH  29  53
ATOM     53  C   UNL A   1      40.822  33.497  37.764  1.00  0.00     0.064 A 
ATOM     54  C   UNL A   1      41.800  34.455  38.066  1.00  0.00     0.173 A 
ATOM     55  C   UNL A   1      39.847  33.242  38.744  1.00  0.00     0.173 A 
ATOM     56  F   UNL A   1      42.772  34.720  37.180  1.00  0.00    -0.203 F 
ATOM     57  C   UNL A   1      41.816  35.110  39.297  1.00  0.00     0.198 A 
ATOM     58  C   UNL A   1      39.844  33.922  39.960  1.00  0.00     0.198 A 
ATOM     59  F   UNL A   1      38.890  32.328  38.521  1.00  0.00    -0.203 F 
ATOM     60  F   UNL A   1      42.797  35.979  39.579  1.00  0.00    -0.200 F 
ATOM     61  C   UNL A   1      40.835  34.847  40.241  1.00  0.00     0.200 A 
ATOM     62  F   UNL A   1      38.885  33.671  40.863  1.00  0.00    -0.200 F 
ATOM     63  F   UNL A   1      40.853  35.476  41.425  1.00  0.00    -0.200 F 
ENDBRANCH  29  53
BRANCH  41  64
ATOM     64  C   UNL A   1      44.379  27.969  35.424  1.00  0.00     0.064 A 
ATOM     65  C   UNL A   1      45.736  28.302  35.318  1.00  0.00     0.173 A 
ATOM     66  C   UNL A   1      44.024  26.863  36.208  1.00  0.00     0.173 A 
ATOM     67  F   UNL A   1      46.120  29.345  34.565  1.00  0.00    -0.203 F 
ATOM     68  C   UNL A   1      46.705  27.549  35.971  1.00  0.00     0.198 A 
ATOM     69  C   UNL A   1      44.993  26.130  36.883  1.00  0.00     0.198 A 
ATOM     70  F   UNL A   1      42.736  26.515  36.345  1.00  0.00    -0.203 F 
ATOM     71  F   UNL A   1      48.000  27.862  35.833  1.00  0.00    -0.200 F 
ATOM     72  C   UNL A   1      46.333  26.471  36.762  1.00  0.00     0.200 A 
ATOM     73  F   UNL A   1      44.632  25.101  37.661  1.00  0.00    -0.200 F 
ATOM     74  F   UNL A   1      47.266  25.759  37.407  1.00  0.00    -0.200 F 
ENDBRANCH  41  64
ENDBRANCH  15  16
ENDBRANCH   8  10
ENDBRANCH   7   8
ENDBRANCH   6   7
ENDBRANCH   5   6
ENDBRANCH   4   5
ENDBRANCH   3   4
ENDBRANCH   2   3
ENDBRANCH   1   2
BRANCH   1  75
ATOM     75  C   UNL A   1      33.114  30.248  26.992  1.00  0.00     0.188 C 
BRANCH  75  76
ATOM     76  C   UNL A   1      32.634  28.855  27.466  1.00  0.00     0.188 C 
BRANCH  76  77
ATOM     77  O   UNL A   1      32.203  27.986  26.427  1.00  0.00    -0.376 OA
BRANCH  77  78
ATOM     78  C   UNL A   1      32.996  27.944  25.246  1.00  0.00     0.202 C 
BRANCH  78  79
ATOM     79  C   UNL A   1      34.029  26.815  25.140  1.00  0.00     0.261 C 
BRANCH  79  80
ATOM     80  O   UNL A   1      33.421  25.516  25.241  1.00  0.00    -0.459 OA
BRANCH  80  81
ATOM     81  C   UNL A   1      34.183  24.424  24.946  1.00  0.00     0.364 C 
ATOM     82  O   UNL A   1      35.385  24.452  24.789  1.00  0.00    -0.245 OA
BRANCH  81  83
ATOM     83  C   UNL A   1      33.268  23.175  24.895  1.00  0.00     0.295 C 
ATOM     84  C   UNL A   1      33.735  22.180  25.957  1.00  0.00     0.078 C 
ATOM     85  N   UNL A   1      31.838  23.478  25.026  1.00  0.00    -0.319 N 
ATOM     86  C   UNL A   1      33.356  22.649  27.355  1.00  0.00     0.013 C 
ATOM     87  C   UNL A   1      31.360  23.891  26.327  1.00  0.00     0.263 C 
ATOM     88  H   UNL A   1      31.561  22.497  24.992  1.00  0.00     0.349 HD
ATOM     89  C   UNL A   1      31.862  22.952  27.434  1.00  0.00     0.062 C 
BRANCH  85  90
ATOM     90  C   UNL A   1      30.994  23.702  23.856  1.00  0.00     0.301 C 
BRANCH  90  91
ATOM     91  C   UNL A   1      30.734  25.112  23.337  1.00  0.00     0.025 A 
ATOM     92  C   UNL A   1      29.738  25.936  23.877  1.00  0.00     0.014 A 
ATOM     93  C   UNL A   1      31.586  25.706  22.377  1.00  0.00     0.052 A 
ATOM     94  C   UNL A   1      29.615  27.286  23.534  1.00  0.00     0.040 A 
ATOM     95  C   UNL A   1      31.446  27.050  22.001  1.00  0.00     0.060 A 
ATOM     96  Cl  UNL A   1      32.873  24.827  21.625  1.00  0.00    -0.084 Cl
ATOM     97  C   UNL A   1      30.473  27.832  22.599  1.00  0.00     0.124 A 
ATOM     98  F   UNL A   1      30.362  29.126  22.278  1.00  0.00    -0.207 F 
ENDBRANCH  90  91
ENDBRANCH  85  90
ENDBRANCH  81  83
ENDBRANCH  80  81
ENDBRANCH  79  80
ENDBRANCH  78  79
ENDBRANCH  77  78
ENDBRANCH  76  77
ENDBRANCH  75  76
ENDBRANCH   1  75
TORSDOF 22
ENDMDL
