MODEL 1
REMARK VINA RESULT:      -9.9      0.000      0.000
REMARK SMILES Cc1c(C(=O)OCCOCCOCCOCCOC(=O)c2ccc(-c3c4nc(c(-c5c(F)c(F)c(F)c(F)c5F)c5ccc([nH]5)c(-c5c(F)c(F)c(F)c(F)c5F)c5nc(c(-c6c(F)c(F)c(F)c(F)c6F)c6ccc3[nH]6)C=C5)C=C4)cc2)cccc1N1[C@@H](C)C=C(/C=C(\C#N)C(=O)NCCc2c[nH]c3ccccc23)[C@@H]1C
REMARK SMILES IDX 10 1 9 2 8 3 7 4 6 5 4 6 5 7 3 8 1 9 2 10 87 11 84 12 86 13
REMARK SMILES IDX 85 14 88 15 89 16 111 17 91 18 90 19 92 20 112 21 93 22
REMARK SMILES IDX 94 23 95 24 96 25 97 26 98 27 99 28 100 30 101 31 102 32
REMARK SMILES IDX 103 33 110 34 104 35 105 36 109 37 106 39 108 40 107 41
REMARK SMILES IDX 11 42 12 43 13 44 14 45 15 46 16 47 17 48 18 49 19 50 20 51
REMARK SMILES IDX 21 52 22 53 83 54 23 55 82 56 24 57 25 58 26 59 76 60 27 61
REMARK SMILES IDX 81 62 75 63 77 64 28 65 80 66 74 67 73 68 29 70 61 71 41 72
REMARK SMILES IDX 60 73 42 74 45 75 59 76 78 77 43 78 44 79 58 81 79 82 46 83
REMARK SMILES IDX 30 84 31 85 39 86 32 87 33 88 37 89 40 90 34 91 35 92 38 93
REMARK SMILES IDX 36 94 62 95 63 96 71 97 64 98 65 99 69 100 72 101 66 102
REMARK SMILES IDX 67 103 70 104 68 105 47 106 48 107 56 108 49 109 50 110
REMARK SMILES IDX 54 111 57 112 51 113 52 114 55 115 53 116
REMARK H PARENT 99 29 104 38 77 69 45 80
REMARK Flexibility Score: inf
ROOT
ATOM      1  C   UNL A   1      44.577  23.358  28.102  1.00  0.00     0.188 C 
ENDROOT
BRANCH   1   2
ATOM      2  O   UNL A   1      45.103  22.923  26.861  1.00  0.00    -0.376 OA
BRANCH   2   3
ATOM      3  C   UNL A   1      44.233  22.131  26.073  1.00  0.00     0.202 C 
BRANCH   3   4
ATOM      4  C   UNL A   1      42.941  22.748  25.595  1.00  0.00     0.261 C 
BRANCH   4   5
ATOM      5  O   UNL A   1      41.947  21.739  25.471  1.00  0.00    -0.460 OA
BRANCH   5   6
ATOM      6  C   UNL A   1      41.072  21.728  26.476  1.00  0.00     0.338 C 
ATOM      7  O   UNL A   1      41.266  22.195  27.590  1.00  0.00    -0.246 OA
BRANCH   6   8
ATOM      8  C   UNL A   1      39.719  21.349  25.995  1.00  0.00     0.065 A 
ATOM      9  C   UNL A   1      38.288  23.430  26.545  1.00  0.00     0.047 C 
ATOM     10  C   UNL A   1      38.565  22.149  25.802  1.00  0.00    -0.013 A 
ATOM     11  C   UNL A   1      37.447  21.585  25.150  1.00  0.00     0.041 A 
ATOM     12  C   UNL A   1      39.615  19.955  25.878  1.00  0.00     0.016 A 
ATOM     13  C   UNL A   1      37.427  20.187  24.981  1.00  0.00     0.026 A 
ATOM     14  C   UNL A   1      38.457  19.371  25.418  1.00  0.00     0.003 A 
BRANCH  11  15
ATOM     15  N   UNL A   1      36.313  22.317  24.865  1.00  0.00    -0.358 N 
ATOM     16  C   UNL A   1      35.035  21.876  25.409  1.00  0.00     0.103 C 
ATOM     17  C   UNL A   1      36.193  23.502  23.988  1.00  0.00     0.110 C 
ATOM     18  C   UNL A   1      34.117  22.918  24.898  1.00  0.00     0.003 C 
ATOM     19  C   UNL A   1      35.002  21.902  26.936  1.00  0.00     0.035 C 
ATOM     20  C   UNL A   1      34.733  23.883  24.205  1.00  0.00    -0.026 C 
ATOM     21  C   UNL A   1      36.490  23.124  22.534  1.00  0.00     0.036 C 
BRANCH  20  22
ATOM     22  C   UNL A   1      34.126  25.103  23.702  1.00  0.00     0.031 C 
ATOM     23  C   UNL A   1      33.477  25.282  22.524  1.00  0.00     0.117 C 
BRANCH  23  24
ATOM     24  C   UNL A   1      33.271  24.256  21.578  1.00  0.00     0.105 C 
ATOM     25  N   UNL A   1      33.127  23.415  20.769  1.00  0.00    -0.192 NA
ENDBRANCH  23  24
BRANCH  23  26
ATOM     26  C   UNL A   1      33.227  26.690  22.105  1.00  0.00     0.261 C 
ATOM     27  O   UNL A   1      34.158  27.456  21.849  1.00  0.00    -0.268 OA
ATOM     28  N   UNL A   1      31.970  27.067  21.742  1.00  0.00    -0.351 N 
ATOM     29  H   UNL A   1      31.940  27.530  20.875  1.00  0.00     0.163 HD
BRANCH  28  30
ATOM     30  C   UNL A   1      30.644  26.928  22.374  1.00  0.00     0.121 C 
BRANCH  30  31
ATOM     31  C   UNL A   1      30.633  26.807  23.930  1.00  0.00     0.059 C 
BRANCH  31  32
ATOM     32  C   UNL A   1      30.749  28.133  24.702  1.00  0.00    -0.021 A 
ATOM     33  C   UNL A   1      30.875  29.353  24.037  1.00  0.00     0.087 A 
ATOM     34  C   UNL A   1      31.649  28.391  25.788  1.00  0.00     0.003 A 
ATOM     35  N   UNL A   1      32.275  29.354  23.920  1.00  0.00    -0.361 N 
ATOM     36  C   UNL A   1      32.767  28.910  25.133  1.00  0.00     0.046 A 
ATOM     37  C   UNL A   1      31.685  28.313  27.189  1.00  0.00     0.010 A 
ATOM     38  H   UNL A   1      32.801  29.616  23.131  1.00  0.00     0.166 HD
ATOM     39  C   UNL A   1      34.028  28.996  25.711  1.00  0.00     0.026 A 
ATOM     40  C   UNL A   1      32.894  28.627  27.835  1.00  0.00     0.001 A 
ATOM     41  C   UNL A   1      34.061  28.870  27.102  1.00  0.00     0.002 A 
ENDBRANCH  31  32
ENDBRANCH  30  31
ENDBRANCH  28  30
ENDBRANCH  23  26
ENDBRANCH  20  22
ENDBRANCH  11  15
ENDBRANCH   6   8
ENDBRANCH   5   6
ENDBRANCH   4   5
ENDBRANCH   3   4
ENDBRANCH   2   3
ENDBRANCH   1   2
BRANCH   1  42
ATOM     42  C   UNL A   1      43.924  24.742  28.261  1.00  0.00     0.188 C 
BRANCH  42  43
ATOM     43  O   UNL A   1      44.490  25.871  27.623  1.00  0.00    -0.377 OA
BRANCH  43  44
ATOM     44  C   UNL A   1      43.830  26.453  26.526  1.00  0.00     0.188 C 
BRANCH  44  45
ATOM     45  C   UNL A   1      44.549  26.680  25.240  1.00  0.00     0.188 C 
BRANCH  45  46
ATOM     46  O   UNL A   1      45.240  25.495  24.878  1.00  0.00    -0.376 OA
BRANCH  46  47
ATOM     47  C   UNL A   1      46.638  25.513  25.127  1.00  0.00     0.202 C 
BRANCH  47  48
ATOM     48  C   UNL A   1      47.239  26.920  25.028  1.00  0.00     0.261 C 
BRANCH  48  49
ATOM     49  O   UNL A   1      47.610  27.347  26.365  1.00  0.00    -0.460 OA
BRANCH  49  50
ATOM     50  C   UNL A   1      48.588  28.296  26.474  1.00  0.00     0.338 C 
ATOM     51  O   UNL A   1      49.781  28.085  26.317  1.00  0.00    -0.246 OA
BRANCH  50  52
ATOM     52  C   UNL A   1      48.051  29.539  27.147  1.00  0.00     0.060 A 
ATOM     53  C   UNL A   1      48.277  29.775  28.519  1.00  0.00     0.016 A 
ATOM     54  C   UNL A   1      46.988  30.190  26.549  1.00  0.00     0.016 A 
ATOM     55  C   UNL A   1      47.306  30.440  29.316  1.00  0.00     0.010 A 
ATOM     56  C   UNL A   1      46.002  30.734  27.363  1.00  0.00     0.010 A 
ATOM     57  C   UNL A   1      46.083  30.803  28.770  1.00  0.00    -0.014 A 
BRANCH  57  58
ATOM     58  C   UNL A   1      44.838  31.211  29.518  1.00  0.00     0.031 A 
ATOM     59  C   UNL A   1      44.130  30.109  30.298  1.00  0.00     0.074 A 
ATOM     60  C   UNL A   1      44.570  32.527  29.817  1.00  0.00     0.049 A 
ATOM     61  N   UNL A   1      43.190  30.265  31.168  1.00  0.00    -0.248 NA
ATOM     62  C   UNL A   1      44.529  28.705  30.235  1.00  0.00     0.031 C 
ATOM     63  C   UNL A   1      43.802  33.034  30.959  1.00  0.00     0.029 A 
ATOM     64  N   UNL A   1      44.991  33.745  29.243  1.00  0.00    -0.354 N 
ATOM     65  C   UNL A   1      43.152  29.162  32.021  1.00  0.00     0.074 A 
ATOM     66  C   UNL A   1      43.979  28.197  31.345  1.00  0.00     0.031 C 
ATOM     67  C   UNL A   1      43.684  34.369  30.961  1.00  0.00     0.029 A 
ATOM     68  C   UNL A   1      44.085  34.762  29.651  1.00  0.00     0.049 A 
ATOM     69  H   UNL A   1      45.775  33.869  28.661  1.00  0.00     0.167 HD
ATOM     70  C   UNL A   1      42.531  29.278  33.249  1.00  0.00     0.037 A 
ATOM     71  C   UNL A   1      43.239  35.340  28.758  1.00  0.00     0.037 A 
ATOM     72  C   UNL A   1      41.902  30.622  33.380  1.00  0.00     0.049 A 
ATOM     73  C   UNL A   1      41.814  34.852  29.110  1.00  0.00     0.074 A 
ATOM     74  C   UNL A   1      41.972  31.673  34.282  1.00  0.00     0.029 A 
ATOM     75  N   UNL A   1      41.193  31.145  32.292  1.00  0.00    -0.354 N 
ATOM     76  N   UNL A   1      41.559  33.763  29.818  1.00  0.00    -0.248 NA
ATOM     77  C   UNL A   1      40.601  35.638  28.939  1.00  0.00     0.031 C 
ATOM     78  C   UNL A   1      41.357  32.826  33.694  1.00  0.00     0.029 A 
ATOM     79  C   UNL A   1      40.862  32.476  32.444  1.00  0.00     0.049 A 
ATOM     80  H   UNL A   1      40.954  30.615  31.498  1.00  0.00     0.167 HD
ATOM     81  C   UNL A   1      40.324  33.832  30.411  1.00  0.00     0.074 A 
ATOM     82  C   UNL A   1      39.709  34.928  29.663  1.00  0.00     0.031 C 
ATOM     83  C   UNL A   1      39.915  33.104  31.518  1.00  0.00     0.037 A 
BRANCH  70  84
ATOM     84  C   UNL A   1      42.599  28.276  34.443  1.00  0.00     0.064 A 
ATOM     85  C   UNL A   1      43.594  28.386  35.454  1.00  0.00     0.173 A 
ATOM     86  C   UNL A   1      41.725  27.187  34.671  1.00  0.00     0.173 A 
ATOM     87  F   UNL A   1      44.458  29.406  35.484  1.00  0.00    -0.203 F 
ATOM     88  C   UNL A   1      43.736  27.478  36.522  1.00  0.00     0.198 A 
ATOM     89  C   UNL A   1      41.856  26.284  35.748  1.00  0.00     0.198 A 
ATOM     90  F   UNL A   1      40.663  26.958  33.901  1.00  0.00    -0.203 F 
ATOM     91  F   UNL A   1      44.717  27.651  37.421  1.00  0.00    -0.200 F 
ATOM     92  C   UNL A   1      42.868  26.423  36.669  1.00  0.00     0.200 A 
ATOM     93  F   UNL A   1      40.973  25.285  35.887  1.00  0.00    -0.200 F 
ATOM     94  F   UNL A   1      42.980  25.573  37.699  1.00  0.00    -0.200 F 
ENDBRANCH  70  84
BRANCH  71  95
ATOM     95  C   UNL A   1      44.053  35.611  27.511  1.00  0.00     0.064 A 
ATOM     96  C   UNL A   1      45.298  36.276  27.762  1.00  0.00     0.173 A 
ATOM     97  C   UNL A   1      44.068  34.666  26.475  1.00  0.00     0.173 A 
ATOM     98  F   UNL A   1      45.369  37.220  28.717  1.00  0.00    -0.203 F 
ATOM     99  C   UNL A   1      46.508  35.792  27.246  1.00  0.00     0.198 A 
ATOM    100  C   UNL A   1      45.286  34.229  25.918  1.00  0.00     0.198 A 
ATOM    101  F   UNL A   1      42.949  33.997  26.167  1.00  0.00    -0.203 F 
ATOM    102  F   UNL A   1      47.678  36.258  27.715  1.00  0.00    -0.200 F 
ATOM    103  C   UNL A   1      46.502  34.725  26.371  1.00  0.00     0.200 A 
ATOM    104  F   UNL A   1      45.290  33.225  25.030  1.00  0.00    -0.200 F 
ATOM    105  F   UNL A   1      47.652  34.125  26.029  1.00  0.00    -0.200 F 
ENDBRANCH  71  95
BRANCH  83 106
ATOM    106  C   UNL A   1      38.466  32.799  31.840  1.00  0.00     0.064 A 
ATOM    107  C   UNL A   1      37.648  33.626  32.598  1.00  0.00     0.173 A 
ATOM    108  C   UNL A   1      37.820  31.654  31.294  1.00  0.00     0.173 A 
ATOM    109  F   UNL A   1      38.167  34.516  33.450  1.00  0.00    -0.203 F 
ATOM    110  C   UNL A   1      36.260  33.507  32.548  1.00  0.00     0.198 A 
ATOM    111  C   UNL A   1      36.445  31.488  31.310  1.00  0.00     0.198 A 
ATOM    112  F   UNL A   1      38.477  30.645  30.709  1.00  0.00    -0.203 F 
ATOM    113  F   UNL A   1      35.503  34.429  33.156  1.00  0.00    -0.200 F 
ATOM    114  C   UNL A   1      35.658  32.461  31.873  1.00  0.00     0.200 A 
ATOM    115  F   UNL A   1      35.902  30.402  30.744  1.00  0.00    -0.200 F 
ATOM    116  F   UNL A   1      34.326  32.372  31.792  1.00  0.00    -0.200 F 
ENDBRANCH  83 106
ENDBRANCH  57  58
ENDBRANCH  50  52
ENDBRANCH  49  50
ENDBRANCH  48  49
ENDBRANCH  47  48
ENDBRANCH  46  47
ENDBRANCH  45  46
ENDBRANCH  44  45
ENDBRANCH  43  44
ENDBRANCH  42  43
ENDBRANCH   1  42
TORSDOF 27
ENDMDL
MODEL 2
REMARK VINA RESULT:      -9.2      3.171      6.225
REMARK SMILES Cc1c(C(=O)OCCOCCOCCOCCOC(=O)c2ccc(-c3c4nc(c(-c5c(F)c(F)c(F)c(F)c5F)c5ccc([nH]5)c(-c5c(F)c(F)c(F)c(F)c5F)c5nc(c(-c6c(F)c(F)c(F)c(F)c6F)c6ccc3[nH]6)C=C5)C=C4)cc2)cccc1N1[C@@H](C)C=C(/C=C(\C#N)C(=O)NCCc2c[nH]c3ccccc23)[C@@H]1C
REMARK SMILES IDX 10 1 9 2 8 3 7 4 6 5 4 6 5 7 3 8 1 9 2 10 87 11 84 12 86 13
REMARK SMILES IDX 85 14 88 15 89 16 111 17 91 18 90 19 92 20 112 21 93 22
REMARK SMILES IDX 94 23 95 24 96 25 97 26 98 27 99 28 100 30 101 31 102 32
REMARK SMILES IDX 103 33 110 34 104 35 105 36 109 37 106 39 108 40 107 41
REMARK SMILES IDX 11 42 12 43 13 44 14 45 15 46 16 47 17 48 18 49 19 50 20 51
REMARK SMILES IDX 21 52 22 53 83 54 23 55 82 56 24 57 25 58 26 59 76 60 27 61
REMARK SMILES IDX 81 62 75 63 77 64 28 65 80 66 74 67 73 68 29 70 61 71 41 72
REMARK SMILES IDX 60 73 42 74 45 75 59 76 78 77 43 78 44 79 58 81 79 82 46 83
REMARK SMILES IDX 30 84 31 85 39 86 32 87 33 88 37 89 40 90 34 91 35 92 38 93
REMARK SMILES IDX 36 94 62 95 63 96 71 97 64 98 65 99 69 100 72 101 66 102
REMARK SMILES IDX 67 103 70 104 68 105 47 106 48 107 56 108 49 109 50 110
REMARK SMILES IDX 54 111 57 112 51 113 52 114 55 115 53 116
REMARK H PARENT 99 29 104 38 77 69 45 80
REMARK Flexibility Score: inf
ROOT
ATOM      1  C   UNL A   1      45.263  23.689  28.690  1.00  0.00     0.188 C 
ENDROOT
BRANCH   1   2
ATOM      2  O   UNL A   1      45.494  23.476  27.309  1.00  0.00    -0.376 OA
BRANCH   2   3
ATOM      3  C   UNL A   1      44.336  23.259  26.523  1.00  0.00     0.202 C 
BRANCH   3   4
ATOM      4  C   UNL A   1      43.231  24.287  26.581  1.00  0.00     0.261 C 
BRANCH   4   5
ATOM      5  O   UNL A   1      42.015  23.706  26.128  1.00  0.00    -0.460 OA
BRANCH   5   6
ATOM      6  C   UNL A   1      41.307  23.128  27.098  1.00  0.00     0.338 C 
ATOM      7  O   UNL A   1      41.413  23.369  28.293  1.00  0.00    -0.246 OA
BRANCH   6   8
ATOM      8  C   UNL A   1      40.160  22.371  26.536  1.00  0.00     0.065 A 
ATOM      9  C   UNL A   1      38.193  24.036  26.737  1.00  0.00     0.047 C 
ATOM     10  C   UNL A   1      38.870  22.821  26.157  1.00  0.00    -0.013 A 
ATOM     11  C   UNL A   1      38.016  21.935  25.467  1.00  0.00     0.041 A 
ATOM     12  C   UNL A   1      40.427  20.994  26.553  1.00  0.00     0.016 A 
ATOM     13  C   UNL A   1      38.371  20.573  25.441  1.00  0.00     0.026 A 
ATOM     14  C   UNL A   1      39.518  20.092  26.052  1.00  0.00     0.003 A 
BRANCH  11  15
ATOM     15  N   UNL A   1      36.773  22.318  25.006  1.00  0.00    -0.358 N 
ATOM     16  C   UNL A   1      35.592  21.631  25.511  1.00  0.00     0.103 C 
ATOM     17  C   UNL A   1      36.460  23.327  23.970  1.00  0.00     0.110 C 
ATOM     18  C   UNL A   1      34.505  22.342  24.800  1.00  0.00     0.003 C 
ATOM     19  C   UNL A   1      35.396  21.819  27.014  1.00  0.00     0.035 C 
ATOM     20  C   UNL A   1      34.937  23.348  24.030  1.00  0.00    -0.026 C 
ATOM     21  C   UNL A   1      36.988  22.877  22.606  1.00  0.00     0.036 C 
BRANCH  20  22
ATOM     22  C   UNL A   1      34.106  24.308  23.325  1.00  0.00     0.031 C 
ATOM     23  C   UNL A   1      33.057  24.054  22.504  1.00  0.00     0.117 C 
BRANCH  23  24
ATOM     24  C   UNL A   1      32.584  22.757  22.216  1.00  0.00     0.105 C 
ATOM     25  N   UNL A   1      32.186  21.668  22.013  1.00  0.00    -0.192 NA
ENDBRANCH  23  24
BRANCH  23  26
ATOM     26  C   UNL A   1      32.576  25.185  21.661  1.00  0.00     0.261 C 
ATOM     27  O   UNL A   1      33.271  25.646  20.753  1.00  0.00    -0.268 OA
ATOM     28  N   UNL A   1      31.264  25.544  21.708  1.00  0.00    -0.351 N 
ATOM     29  H   UNL A   1      30.848  25.609  20.819  1.00  0.00     0.163 HD
BRANCH  28  30
ATOM     30  C   UNL A   1      30.334  25.856  22.810  1.00  0.00     0.121 C 
BRANCH  30  31
ATOM     31  C   UNL A   1      30.790  26.974  23.799  1.00  0.00     0.059 C 
BRANCH  31  32
ATOM     32  C   UNL A   1      31.729  26.521  24.929  1.00  0.00    -0.021 A 
ATOM     33  C   UNL A   1      31.280  25.700  25.964  1.00  0.00     0.087 A 
ATOM     34  C   UNL A   1      32.587  27.377  25.696  1.00  0.00     0.003 A 
ATOM     35  N   UNL A   1      30.822  26.718  26.818  1.00  0.00    -0.361 N 
ATOM     36  C   UNL A   1      31.777  27.716  26.782  1.00  0.00     0.046 A 
ATOM     37  C   UNL A   1      33.900  27.875  25.673  1.00  0.00     0.010 A 
ATOM     38  H   UNL A   1      29.986  26.721  27.337  1.00  0.00     0.166 HD
ATOM     39  C   UNL A   1      32.031  28.790  27.626  1.00  0.00     0.026 A 
ATOM     40  C   UNL A   1      34.270  28.797  26.667  1.00  0.00     0.001 A 
ATOM     41  C   UNL A   1      33.326  29.311  27.564  1.00  0.00     0.002 A 
ENDBRANCH  31  32
ENDBRANCH  30  31
ENDBRANCH  28  30
ENDBRANCH  23  26
ENDBRANCH  20  22
ENDBRANCH  11  15
ENDBRANCH   6   8
ENDBRANCH   5   6
ENDBRANCH   4   5
ENDBRANCH   3   4
ENDBRANCH   2   3
ENDBRANCH   1   2
BRANCH   1  42
ATOM     42  C   UNL A   1      45.428  25.077  29.331  1.00  0.00     0.188 C 
BRANCH  42  43
ATOM     43  O   UNL A   1      46.657  25.440  29.932  1.00  0.00    -0.377 OA
BRANCH  43  44
ATOM     44  C   UNL A   1      47.019  26.797  30.008  1.00  0.00     0.188 C 
BRANCH  44  45
ATOM     45  C   UNL A   1      47.898  27.408  28.972  1.00  0.00     0.188 C 
BRANCH  45  46
ATOM     46  O   UNL A   1      48.766  28.343  29.592  1.00  0.00    -0.376 OA
BRANCH  46  47
ATOM     47  C   UNL A   1      48.826  29.617  28.965  1.00  0.00     0.202 C 
BRANCH  47  48
ATOM     48  C   UNL A   1      48.235  29.610  27.551  1.00  0.00     0.261 C 
BRANCH  48  49
ATOM     49  O   UNL A   1      47.140  30.563  27.515  1.00  0.00    -0.460 OA
BRANCH  49  50
ATOM     50  C   UNL A   1      46.176  30.379  26.563  1.00  0.00     0.338 C 
ATOM     51  O   UNL A   1      46.398  30.214  25.373  1.00  0.00    -0.246 OA
BRANCH  50  52
ATOM     52  C   UNL A   1      44.814  30.748  27.105  1.00  0.00     0.060 A 
ATOM     53  C   UNL A   1      44.391  32.092  27.144  1.00  0.00     0.016 A 
ATOM     54  C   UNL A   1      44.193  29.853  27.956  1.00  0.00     0.016 A 
ATOM     55  C   UNL A   1      43.552  32.565  28.190  1.00  0.00     0.010 A 
ATOM     56  C   UNL A   1      43.470  30.355  29.032  1.00  0.00     0.010 A 
ATOM     57  C   UNL A   1      43.197  31.724  29.236  1.00  0.00    -0.014 A 
BRANCH  57  58
ATOM     58  C   UNL A   1      42.602  32.124  30.562  1.00  0.00     0.031 A 
ATOM     59  C   UNL A   1      43.525  32.873  31.516  1.00  0.00     0.074 A 
ATOM     60  C   UNL A   1      41.241  32.179  30.760  1.00  0.00     0.049 A 
ATOM     61  N   UNL A   1      43.180  33.490  32.595  1.00  0.00    -0.248 NA
ATOM     62  C   UNL A   1      44.946  33.086  31.248  1.00  0.00     0.031 C 
ATOM     63  C   UNL A   1      40.519  33.051  31.694  1.00  0.00     0.029 A 
ATOM     64  N   UNL A   1      40.152  31.552  30.117  1.00  0.00    -0.354 N 
ATOM     65  C   UNL A   1      44.137  34.454  32.911  1.00  0.00     0.074 A 
ATOM     66  C   UNL A   1      45.244  34.108  32.059  1.00  0.00     0.031 C 
ATOM     67  C   UNL A   1      39.195  32.849  31.682  1.00  0.00     0.029 A 
ATOM     68  C   UNL A   1      39.029  31.616  30.986  1.00  0.00     0.049 A 
ATOM     69  H   UNL A   1      40.168  31.142  29.222  1.00  0.00     0.167 HD
ATOM     70  C   UNL A   1      43.798  35.492  33.756  1.00  0.00     0.037 A 
ATOM     71  C   UNL A   1      38.539  30.492  31.573  1.00  0.00     0.037 A 
ATOM     72  C   UNL A   1      42.411  35.303  34.269  1.00  0.00     0.049 A 
ATOM     73  C   UNL A   1      38.876  30.590  33.080  1.00  0.00     0.074 A 
ATOM     74  C   UNL A   1      41.244  36.051  34.286  1.00  0.00     0.029 A 
ATOM     75  N   UNL A   1      42.014  34.029  34.687  1.00  0.00    -0.354 N 
ATOM     76  N   UNL A   1      39.828  31.364  33.576  1.00  0.00    -0.248 NA
ATOM     77  C   UNL A   1      38.049  30.057  34.152  1.00  0.00     0.031 C 
ATOM     78  C   UNL A   1      40.155  35.196  34.655  1.00  0.00     0.029 A 
ATOM     79  C   UNL A   1      40.656  33.926  34.914  1.00  0.00     0.049 A 
ATOM     80  H   UNL A   1      42.641  33.280  34.808  1.00  0.00     0.167 HD
ATOM     81  C   UNL A   1      39.590  31.662  34.895  1.00  0.00     0.074 A 
ATOM     82  C   UNL A   1      38.582  30.660  35.237  1.00  0.00     0.031 C 
ATOM     83  C   UNL A   1      40.116  32.742  35.588  1.00  0.00     0.037 A 
BRANCH  70  84
ATOM     84  C   UNL A   1      44.611  36.796  34.030  1.00  0.00     0.064 A 
ATOM     85  C   UNL A   1      45.920  36.755  34.586  1.00  0.00     0.173 A 
ATOM     86  C   UNL A   1      44.183  38.118  33.769  1.00  0.00     0.173 A 
ATOM     87  F   UNL A   1      46.554  35.600  34.812  1.00  0.00    -0.203 F 
ATOM     88  C   UNL A   1      46.677  37.900  34.905  1.00  0.00     0.198 A 
ATOM     89  C   UNL A   1      44.944  39.266  34.075  1.00  0.00     0.198 A 
ATOM     90  F   UNL A   1      43.028  38.382  33.161  1.00  0.00    -0.203 F 
ATOM     91  F   UNL A   1      47.898  37.766  35.443  1.00  0.00    -0.200 F 
ATOM     92  C   UNL A   1      46.188  39.159  34.652  1.00  0.00     0.200 A 
ATOM     93  F   UNL A   1      44.457  40.482  33.784  1.00  0.00    -0.200 F 
ATOM     94  F   UNL A   1      46.916  40.251  34.925  1.00  0.00    -0.200 F 
ENDBRANCH  70  84
BRANCH  71  95
ATOM     95  C   UNL A   1      38.512  29.426  30.499  1.00  0.00     0.064 A 
ATOM     96  C   UNL A   1      37.570  29.680  29.449  1.00  0.00     0.173 A 
ATOM     97  C   UNL A   1      39.709  28.811  30.105  1.00  0.00     0.173 A 
ATOM     98  F   UNL A   1      36.383  30.241  29.740  1.00  0.00    -0.203 F 
ATOM     99  C   UNL A   1      37.941  29.628  28.099  1.00  0.00     0.198 A 
ATOM    100  C   UNL A   1      40.047  28.705  28.741  1.00  0.00     0.198 A 
ATOM    101  F   UNL A   1      40.648  28.530  31.019  1.00  0.00    -0.203 F 
ATOM    102  F   UNL A   1      37.132  30.136  27.154  1.00  0.00    -0.200 F 
ATOM    103  C   UNL A   1      39.205  29.197  27.752  1.00  0.00     0.200 A 
ATOM    104  F   UNL A   1      41.255  28.242  28.389  1.00  0.00    -0.200 F 
ATOM    105  F   UNL A   1      39.642  29.331  26.490  1.00  0.00    -0.200 F 
ENDBRANCH  71  95
BRANCH  83 106
ATOM    106  C   UNL A   1      40.274  32.781  37.095  1.00  0.00     0.064 A 
ATOM    107  C   UNL A   1      41.398  32.325  37.770  1.00  0.00     0.173 A 
ATOM    108  C   UNL A   1      39.283  33.385  37.920  1.00  0.00     0.173 A 
ATOM    109  F   UNL A   1      42.227  31.439  37.207  1.00  0.00    -0.203 F 
ATOM    110  C   UNL A   1      41.661  32.720  39.080  1.00  0.00     0.198 A 
ATOM    111  C   UNL A   1      39.508  33.710  39.248  1.00  0.00     0.198 A 
ATOM    112  F   UNL A   1      38.057  33.702  37.489  1.00  0.00    -0.203 F 
ATOM    113  F   UNL A   1      42.837  32.400  39.636  1.00  0.00    -0.200 F 
ATOM    114  C   UNL A   1      40.733  33.445  39.805  1.00  0.00     0.200 A 
ATOM    115  F   UNL A   1      38.542  34.312  39.956  1.00  0.00    -0.200 F 
ATOM    116  F   UNL A   1      41.004  33.858  41.048  1.00  0.00    -0.200 F 
ENDBRANCH  83 106
ENDBRANCH  57  58
ENDBRANCH  50  52
ENDBRANCH  49  50
ENDBRANCH  48  49
ENDBRANCH  47  48
ENDBRANCH  46  47
ENDBRANCH  45  46
ENDBRANCH  44  45
ENDBRANCH  43  44
ENDBRANCH  42  43
ENDBRANCH   1  42
TORSDOF 27
ENDMDL
MODEL 3
REMARK VINA RESULT:      -9.0      3.246      9.096
REMARK SMILES Cc1c(C(=O)OCCOCCOCCOCCOC(=O)c2ccc(-c3c4nc(c(-c5c(F)c(F)c(F)c(F)c5F)c5ccc([nH]5)c(-c5c(F)c(F)c(F)c(F)c5F)c5nc(c(-c6c(F)c(F)c(F)c(F)c6F)c6ccc3[nH]6)C=C5)C=C4)cc2)cccc1N1[C@@H](C)C=C(/C=C(\C#N)C(=O)NCCc2c[nH]c3ccccc23)[C@@H]1C
REMARK SMILES IDX 10 1 9 2 8 3 7 4 6 5 4 6 5 7 3 8 1 9 2 10 87 11 84 12 86 13
REMARK SMILES IDX 85 14 88 15 89 16 111 17 91 18 90 19 92 20 112 21 93 22
REMARK SMILES IDX 94 23 95 24 96 25 97 26 98 27 99 28 100 30 101 31 102 32
REMARK SMILES IDX 103 33 110 34 104 35 105 36 109 37 106 39 108 40 107 41
REMARK SMILES IDX 11 42 12 43 13 44 14 45 15 46 16 47 17 48 18 49 19 50 20 51
REMARK SMILES IDX 21 52 22 53 83 54 23 55 82 56 24 57 25 58 26 59 76 60 27 61
REMARK SMILES IDX 81 62 75 63 77 64 28 65 80 66 74 67 73 68 29 70 61 71 41 72
REMARK SMILES IDX 60 73 42 74 45 75 59 76 78 77 43 78 44 79 58 81 79 82 46 83
REMARK SMILES IDX 30 84 31 85 39 86 32 87 33 88 37 89 40 90 34 91 35 92 38 93
REMARK SMILES IDX 36 94 62 95 63 96 71 97 64 98 65 99 69 100 72 101 66 102
REMARK SMILES IDX 67 103 70 104 68 105 47 106 48 107 56 108 49 109 50 110
REMARK SMILES IDX 54 111 57 112 51 113 52 114 55 115 53 116
REMARK H PARENT 99 29 104 38 77 69 45 80
REMARK Flexibility Score: inf
ROOT
ATOM      1  C   UNL A   1      37.998  28.847  28.539  1.00  0.00     0.188 C 
ENDROOT
BRANCH   1   2
ATOM      2  O   UNL A   1      37.034  29.233  29.502  1.00  0.00    -0.376 OA
BRANCH   2   3
ATOM      3  C   UNL A   1      36.494  30.532  29.340  1.00  0.00     0.202 C 
BRANCH   3   4
ATOM      4  C   UNL A   1      35.842  30.875  28.021  1.00  0.00     0.261 C 
BRANCH   4   5
ATOM      5  O   UNL A   1      34.506  30.390  28.010  1.00  0.00    -0.460 OA
BRANCH   5   6
ATOM      6  C   UNL A   1      33.604  31.325  27.711  1.00  0.00     0.338 C 
ATOM      7  O   UNL A   1      33.673  32.504  28.030  1.00  0.00    -0.246 OA
BRANCH   6   8
ATOM      8  C   UNL A   1      32.649  30.830  26.687  1.00  0.00     0.065 A 
ATOM      9  C   UNL A   1      33.967  28.945  25.507  1.00  0.00     0.047 C 
ATOM     10  C   UNL A   1      32.696  29.659  25.889  1.00  0.00    -0.013 A 
ATOM     11  C   UNL A   1      31.564  29.315  25.119  1.00  0.00     0.041 A 
ATOM     12  C   UNL A   1      31.664  31.795  26.431  1.00  0.00     0.016 A 
ATOM     13  C   UNL A   1      30.561  30.289  24.960  1.00  0.00     0.026 A 
ATOM     14  C   UNL A   1      30.649  31.546  25.536  1.00  0.00     0.003 A 
BRANCH  11  15
ATOM     15  N   UNL A   1      31.507  28.157  24.370  1.00  0.00    -0.358 N 
ATOM     16  C   UNL A   1      31.289  28.259  22.933  1.00  0.00     0.103 C 
ATOM     17  C   UNL A   1      31.569  26.759  24.851  1.00  0.00     0.110 C 
ATOM     18  C   UNL A   1      31.317  26.836  22.525  1.00  0.00     0.003 C 
ATOM     19  C   UNL A   1      32.418  28.996  22.214  1.00  0.00     0.035 C 
ATOM     20  C   UNL A   1      31.576  25.994  23.533  1.00  0.00    -0.026 C 
ATOM     21  C   UNL A   1      30.346  26.434  25.713  1.00  0.00     0.036 C 
BRANCH  20  22
ATOM     22  C   UNL A   1      31.803  24.564  23.421  1.00  0.00     0.031 C 
ATOM     23  C   UNL A   1      32.828  23.843  23.942  1.00  0.00     0.117 C 
BRANCH  23  24
ATOM     24  C   UNL A   1      33.862  24.402  24.721  1.00  0.00     0.105 C 
ATOM     25  N   UNL A   1      34.699  24.884  25.393  1.00  0.00    -0.192 NA
ENDBRANCH  23  24
BRANCH  23  26
ATOM     26  C   UNL A   1      33.003  22.457  23.424  1.00  0.00     0.261 C 
ATOM     27  O   UNL A   1      32.620  22.144  22.295  1.00  0.00    -0.268 OA
ATOM     28  N   UNL A   1      33.824  21.595  24.083  1.00  0.00    -0.351 N 
ATOM     29  H   UNL A   1      34.482  21.160  23.494  1.00  0.00     0.163 HD
BRANCH  28  30
ATOM     30  C   UNL A   1      33.937  21.174  25.492  1.00  0.00     0.121 C 
BRANCH  30  31
ATOM     31  C   UNL A   1      35.376  21.183  26.099  1.00  0.00     0.059 C 
BRANCH  31  32
ATOM     32  C   UNL A   1      36.437  21.942  25.284  1.00  0.00    -0.021 A 
ATOM     33  C   UNL A   1      37.104  21.340  24.217  1.00  0.00     0.087 A 
ATOM     34  C   UNL A   1      37.538  22.681  25.831  1.00  0.00     0.003 A 
ATOM     35  N   UNL A   1      38.151  20.765  24.957  1.00  0.00    -0.361 N 
ATOM     36  C   UNL A   1      38.551  21.720  25.872  1.00  0.00     0.046 A 
ATOM     37  C   UNL A   1      37.850  23.985  26.248  1.00  0.00     0.010 A 
ATOM     38  H   UNL A   1      38.524  19.862  24.847  1.00  0.00     0.166 HD
ATOM     39  C   UNL A   1      39.706  21.852  26.633  1.00  0.00     0.026 A 
ATOM     40  C   UNL A   1      39.118  24.208  26.814  1.00  0.00     0.001 A 
ATOM     41  C   UNL A   1      39.986  23.144  27.084  1.00  0.00     0.002 A 
ENDBRANCH  31  32
ENDBRANCH  30  31
ENDBRANCH  28  30
ENDBRANCH  23  26
ENDBRANCH  20  22
ENDBRANCH  11  15
ENDBRANCH   6   8
ENDBRANCH   5   6
ENDBRANCH   4   5
ENDBRANCH   3   4
ENDBRANCH   2   3
ENDBRANCH   1   2
BRANCH   1  42
ATOM     42  C   UNL A   1      39.409  29.460  28.520  1.00  0.00     0.188 C 
BRANCH  42  43
ATOM     43  O   UNL A   1      40.489  28.738  27.956  1.00  0.00    -0.377 OA
BRANCH  43  44
ATOM     44  C   UNL A   1      40.228  27.685  27.061  1.00  0.00     0.188 C 
BRANCH  44  45
ATOM     45  C   UNL A   1      41.324  27.097  26.240  1.00  0.00     0.188 C 
BRANCH  45  46
ATOM     46  O   UNL A   1      42.042  26.160  27.028  1.00  0.00    -0.376 OA
BRANCH  46  47
ATOM     47  C   UNL A   1      42.960  25.348  26.310  1.00  0.00     0.202 C 
BRANCH  47  48
ATOM     48  C   UNL A   1      44.216  25.013  27.123  1.00  0.00     0.261 C 
BRANCH  48  49
ATOM     49  O   UNL A   1      45.195  26.060  26.890  1.00  0.00    -0.460 OA
BRANCH  49  50
ATOM     50  C   UNL A   1      45.634  26.764  27.977  1.00  0.00     0.338 C 
ATOM     51  O   UNL A   1      46.525  26.398  28.728  1.00  0.00    -0.246 OA
BRANCH  50  52
ATOM     52  C   UNL A   1      44.657  27.864  28.330  1.00  0.00     0.060 A 
ATOM     53  C   UNL A   1      44.311  28.853  27.387  1.00  0.00     0.016 A 
ATOM     54  C   UNL A   1      44.469  28.155  29.668  1.00  0.00     0.016 A 
ATOM     55  C   UNL A   1      44.029  30.185  27.795  1.00  0.00     0.010 A 
ATOM     56  C   UNL A   1      44.305  29.485  30.039  1.00  0.00     0.010 A 
ATOM     57  C   UNL A   1      44.165  30.552  29.127  1.00  0.00    -0.014 A 
BRANCH  57  58
ATOM     58  C   UNL A   1      44.225  31.953  29.683  1.00  0.00     0.031 A 
ATOM     59  C   UNL A   1      45.576  32.653  29.598  1.00  0.00     0.074 A 
ATOM     60  C   UNL A   1      43.089  32.703  29.884  1.00  0.00     0.049 A 
ATOM     61  N   UNL A   1      45.809  33.905  29.809  1.00  0.00    -0.248 NA
ATOM     62  C   UNL A   1      46.793  31.987  29.138  1.00  0.00     0.031 C 
ATOM     63  C   UNL A   1      42.977  34.165  29.841  1.00  0.00     0.029 A 
ATOM     64  N   UNL A   1      41.735  32.358  30.079  1.00  0.00    -0.354 N 
ATOM     65  C   UNL A   1      46.985  34.280  29.160  1.00  0.00     0.074 A 
ATOM     66  C   UNL A   1      47.581  33.017  28.808  1.00  0.00     0.031 C 
ATOM     67  C   UNL A   1      41.741  34.605  30.112  1.00  0.00     0.029 A 
ATOM     68  C   UNL A   1      41.075  33.473  30.665  1.00  0.00     0.049 A 
ATOM     69  H   UNL A   1      41.319  31.496  29.849  1.00  0.00     0.167 HD
ATOM     70  C   UNL A   1      47.217  35.615  28.897  1.00  0.00     0.037 A 
ATOM     71  C   UNL A   1      40.637  33.425  31.952  1.00  0.00     0.037 A 
ATOM     72  C   UNL A   1      46.131  36.449  29.485  1.00  0.00     0.049 A 
ATOM     73  C   UNL A   1      41.545  34.373  32.770  1.00  0.00     0.074 A 
ATOM     74  C   UNL A   1      45.237  37.399  29.016  1.00  0.00     0.029 A 
ATOM     75  N   UNL A   1      45.681  36.157  30.778  1.00  0.00    -0.354 N 
ATOM     76  N   UNL A   1      42.748  34.762  32.381  1.00  0.00    -0.248 NA
ATOM     77  C   UNL A   1      41.110  35.149  33.921  1.00  0.00     0.031 C 
ATOM     78  C   UNL A   1      44.230  37.615  30.012  1.00  0.00     0.029 A 
ATOM     79  C   UNL A   1      44.527  36.833  31.121  1.00  0.00     0.049 A 
ATOM     80  H   UNL A   1      46.142  35.532  31.382  1.00  0.00     0.167 HD
ATOM     81  C   UNL A   1      43.107  35.944  32.980  1.00  0.00     0.074 A 
ATOM     82  C   UNL A   1      42.132  36.021  34.067  1.00  0.00     0.031 C 
ATOM     83  C   UNL A   1      44.065  36.831  32.512  1.00  0.00     0.037 A 
BRANCH  70  84
ATOM     84  C   UNL A   1      48.316  36.221  27.969  1.00  0.00     0.064 A 
ATOM     85  C   UNL A   1      49.637  36.462  28.438  1.00  0.00     0.173 A 
ATOM     86  C   UNL A   1      48.156  36.586  26.612  1.00  0.00     0.173 A 
ATOM     87  F   UNL A   1      50.028  36.094  29.662  1.00  0.00    -0.203 F 
ATOM     88  C   UNL A   1      50.652  37.058  27.663  1.00  0.00     0.198 A 
ATOM     89  C   UNL A   1      49.175  37.170  25.829  1.00  0.00     0.198 A 
ATOM     90  F   UNL A   1      47.027  36.357  25.945  1.00  0.00    -0.203 F 
ATOM     91  F   UNL A   1      51.867  37.263  28.195  1.00  0.00    -0.200 F 
ATOM     92  C   UNL A   1      50.421  37.415  26.356  1.00  0.00     0.200 A 
ATOM     93  F   UNL A   1      48.931  37.476  24.546  1.00  0.00    -0.200 F 
ATOM     94  F   UNL A   1      51.391  37.955  25.605  1.00  0.00    -0.200 F 
ENDBRANCH  70  84
BRANCH  71  95
ATOM     95  C   UNL A   1      39.982  32.072  32.129  1.00  0.00     0.064 A 
ATOM     96  C   UNL A   1      40.666  31.210  33.049  1.00  0.00     0.173 A 
ATOM     97  C   UNL A   1      38.583  31.975  32.133  1.00  0.00     0.173 A 
ATOM     98  F   UNL A   1      42.010  31.214  33.093  1.00  0.00    -0.203 F 
ATOM     99  C   UNL A   1      39.991  30.568  34.096  1.00  0.00     0.198 A 
ATOM    100  C   UNL A   1      37.913  31.275  33.155  1.00  0.00     0.198 A 
ATOM    101  F   UNL A   1      37.860  32.739  31.303  1.00  0.00    -0.203 F 
ATOM    102  F   UNL A   1      40.682  30.000  35.098  1.00  0.00    -0.200 F 
ATOM    103  C   UNL A   1      38.616  30.655  34.180  1.00  0.00     0.200 A 
ATOM    104  F   UNL A   1      36.575  31.310  33.220  1.00  0.00    -0.200 F 
ATOM    105  F   UNL A   1      37.978  30.220  35.278  1.00  0.00    -0.200 F 
ENDBRANCH  71  95
BRANCH  83 106
ATOM    106  C   UNL A   1      44.801  37.820  33.392  1.00  0.00     0.064 A 
ATOM    107  C   UNL A   1      46.010  37.553  34.020  1.00  0.00     0.173 A 
ATOM    108  C   UNL A   1      44.319  39.150  33.561  1.00  0.00     0.173 A 
ATOM    109  F   UNL A   1      46.402  36.296  34.253  1.00  0.00    -0.203 F 
ATOM    110  C   UNL A   1      46.821  38.585  34.489  1.00  0.00     0.198 A 
ATOM    111  C   UNL A   1      45.091  40.166  34.101  1.00  0.00     0.198 A 
ATOM    112  F   UNL A   1      43.089  39.539  33.206  1.00  0.00    -0.203 F 
ATOM    113  F   UNL A   1      48.053  38.299  34.930  1.00  0.00    -0.200 F 
ATOM    114  C   UNL A   1      46.376  39.895  34.494  1.00  0.00     0.200 A 
ATOM    115  F   UNL A   1      44.585  41.403  34.196  1.00  0.00    -0.200 F 
ATOM    116  F   UNL A   1      47.172  40.888  34.907  1.00  0.00    -0.200 F 
ENDBRANCH  83 106
ENDBRANCH  57  58
ENDBRANCH  50  52
ENDBRANCH  49  50
ENDBRANCH  48  49
ENDBRANCH  47  48
ENDBRANCH  46  47
ENDBRANCH  45  46
ENDBRANCH  44  45
ENDBRANCH  43  44
ENDBRANCH  42  43
ENDBRANCH   1  42
TORSDOF 27
ENDMDL
