MODEL 1
REMARK VINA RESULT:      -9.7      0.000      0.000
REMARK SMILES COCc1c(C(=O)OCCOCCOCCOCCOC(=O)c2ccc(-c3c4nc(c(-c5c(F)c(F)c(F)c(F)c5F)c5ccc([nH]5)c(-c5c(F)c(F)c(F)c(F)c5F)c5nc(c(-c6c(F)c(F)c(F)c(F)c6F)c6ccc3[nH]6)C=C5)C=C4)cc2)sc2ccccc12
REMARK SMILES IDX 14 1 13 2 12 3 11 4 10 5 9 6 8 7 6 8 7 9 5 10 4 11 92 12
REMARK SMILES IDX 86 13 87 14 91 15 88 16 90 17 89 18 3 19 2 20 1 21 15 22
REMARK SMILES IDX 16 23 17 24 18 25 19 26 20 27 21 28 22 29 23 30 24 31 85 32
REMARK SMILES IDX 25 33 84 34 26 35 27 36 28 37 78 38 29 39 83 40 77 41 79 42
REMARK SMILES IDX 30 43 82 44 76 45 75 46 31 48 63 49 43 50 62 51 44 52 47 53
REMARK SMILES IDX 61 54 80 55 45 56 46 57 60 59 81 60 48 61 32 62 33 63 41 64
REMARK SMILES IDX 34 65 35 66 39 67 42 68 36 69 37 70 40 71 38 72 64 73 65 74
REMARK SMILES IDX 73 75 66 76 67 77 71 78 74 79 68 80 69 81 72 82 70 83 49 84
REMARK SMILES IDX 50 85 58 86 51 87 52 88 56 89 59 90 53 91 54 92 57 93 55 94
REMARK H PARENT 79 47 47 58
REMARK Flexibility Score: inf
ROOT
ATOM      1  O   UNL A   1      49.021  21.378  40.361  1.00  0.00    -0.377 OA
ENDROOT
BRANCH   1   2
ATOM      2  C   UNL A   1      49.360  20.070  40.808  1.00  0.00     0.188 C 
BRANCH   2   3
ATOM      3  C   UNL A   1      49.283  18.854  39.866  1.00  0.00     0.188 C 
BRANCH   3   4
ATOM      4  O   UNL A   1      48.560  17.738  40.372  1.00  0.00    -0.376 OA
BRANCH   4   5
ATOM      5  C   UNL A   1      47.204  17.958  40.725  1.00  0.00     0.202 C 
BRANCH   5   6
ATOM      6  C   UNL A   1      46.317  16.730  40.497  1.00  0.00     0.261 C 
BRANCH   6   7
ATOM      7  O   UNL A   1      44.976  17.058  40.102  1.00  0.00    -0.459 OA
BRANCH   7   8
ATOM      8  C   UNL A   1      44.085  17.312  41.102  1.00  0.00     0.348 C 
ATOM      9  O   UNL A   1      43.806  18.436  41.506  1.00  0.00    -0.245 OA
BRANCH   8  10
ATOM     10  C   UNL A   1      43.409  16.088  41.483  1.00  0.00     0.119 A 
ATOM     11  C   UNL A   1      43.390  15.476  42.731  1.00  0.00     0.011 A 
ATOM     12  C   UNL A   1      42.574  14.275  42.719  1.00  0.00    -0.001 A 
ATOM     13  S   UNL A   1      42.484  15.239  40.330  1.00  0.00    -0.128 S 
ATOM     14  C   UNL A   1      42.027  14.034  41.456  1.00  0.00     0.036 A 
ATOM     15  C   UNL A   1      42.263  13.350  43.751  1.00  0.00     0.010 A 
ATOM     16  C   UNL A   1      41.207  12.918  41.197  1.00  0.00     0.019 A 
ATOM     17  C   UNL A   1      41.461  12.233  43.496  1.00  0.00     0.001 A 
ATOM     18  C   UNL A   1      40.940  12.019  42.229  1.00  0.00     0.001 A 
BRANCH  11  19
ATOM     19  C   UNL A   1      44.091  16.018  43.951  1.00  0.00     0.197 C 
BRANCH  19  20
ATOM     20  O   UNL A   1      45.508  15.873  43.822  1.00  0.00    -0.380 OA
ATOM     21  C   UNL A   1      46.225  16.834  44.587  1.00  0.00     0.195 C 
ENDBRANCH  19  20
ENDBRANCH  11  19
ENDBRANCH   8  10
ENDBRANCH   7   8
ENDBRANCH   6   7
ENDBRANCH   5   6
ENDBRANCH   4   5
ENDBRANCH   3   4
ENDBRANCH   2   3
ENDBRANCH   1   2
BRANCH   1  22
ATOM     22  C   UNL A   1      48.143  21.530  39.260  1.00  0.00     0.188 C 
BRANCH  22  23
ATOM     23  C   UNL A   1      46.624  21.505  39.524  1.00  0.00     0.188 C 
BRANCH  23  24
ATOM     24  O   UNL A   1      46.133  22.645  40.221  1.00  0.00    -0.376 OA
BRANCH  24  25
ATOM     25  C   UNL A   1      45.516  23.643  39.420  1.00  0.00     0.202 C 
BRANCH  25  26
ATOM     26  C   UNL A   1      46.512  24.445  38.577  1.00  0.00     0.261 C 
BRANCH  26  27
ATOM     27  O   UNL A   1      46.235  24.451  37.169  1.00  0.00    -0.460 OA
BRANCH  27  28
ATOM     28  C   UNL A   1      46.817  25.417  36.428  1.00  0.00     0.338 C 
ATOM     29  O   UNL A   1      47.996  25.535  36.153  1.00  0.00    -0.246 OA
BRANCH  28  30
ATOM     30  C   UNL A   1      45.733  26.221  35.829  1.00  0.00     0.060 A 
ATOM     31  C   UNL A   1      44.436  25.686  35.787  1.00  0.00     0.016 A 
ATOM     32  C   UNL A   1      45.986  27.511  35.357  1.00  0.00     0.016 A 
ATOM     33  C   UNL A   1      43.391  26.442  35.258  1.00  0.00     0.010 A 
ATOM     34  C   UNL A   1      44.948  28.253  34.798  1.00  0.00     0.010 A 
ATOM     35  C   UNL A   1      43.654  27.709  34.721  1.00  0.00    -0.014 A 
BRANCH  35  36
ATOM     36  C   UNL A   1      42.656  28.363  33.847  1.00  0.00     0.031 A 
ATOM     37  C   UNL A   1      41.703  29.331  34.490  1.00  0.00     0.074 A 
ATOM     38  C   UNL A   1      42.573  28.089  32.534  1.00  0.00     0.049 A 
ATOM     39  N   UNL A   1      40.687  29.969  33.974  1.00  0.00    -0.248 NA
ATOM     40  C   UNL A   1      41.929  29.609  35.919  1.00  0.00     0.031 C 
ATOM     41  C   UNL A   1      43.460  27.193  31.796  1.00  0.00     0.029 A 
ATOM     42  N   UNL A   1      41.678  28.532  31.593  1.00  0.00    -0.354 N 
ATOM     43  C   UNL A   1      40.154  30.721  35.012  1.00  0.00     0.074 A 
ATOM     44  C   UNL A   1      40.939  30.441  36.194  1.00  0.00     0.031 C 
ATOM     45  C   UNL A   1      43.052  27.136  30.515  1.00  0.00     0.029 A 
ATOM     46  C   UNL A   1      41.858  27.967  30.355  1.00  0.00     0.049 A 
ATOM     47  H   UNL A   1      40.974  29.192  31.787  1.00  0.00     0.167 HD
ATOM     48  C   UNL A   1      39.103  31.572  34.983  1.00  0.00     0.037 A 
ATOM     49  C   UNL A   1      41.121  28.093  29.234  1.00  0.00     0.037 A 
ATOM     50  C   UNL A   1      38.308  31.827  33.815  1.00  0.00     0.049 A 
ATOM     51  C   UNL A   1      39.904  28.986  29.247  1.00  0.00     0.074 A 
ATOM     52  C   UNL A   1      37.222  32.672  33.675  1.00  0.00     0.029 A 
ATOM     53  N   UNL A   1      38.510  31.223  32.583  1.00  0.00    -0.354 N 
ATOM     54  N   UNL A   1      39.422  29.719  30.221  1.00  0.00    -0.248 NA
ATOM     55  C   UNL A   1      39.129  29.067  28.000  1.00  0.00     0.031 C 
ATOM     56  C   UNL A   1      36.736  32.543  32.370  1.00  0.00     0.029 A 
ATOM     57  C   UNL A   1      37.554  31.659  31.682  1.00  0.00     0.049 A 
ATOM     58  H   UNL A   1      39.227  30.580  32.379  1.00  0.00     0.167 HD
ATOM     59  C   UNL A   1      38.311  30.370  29.699  1.00  0.00     0.074 A 
ATOM     60  C   UNL A   1      38.194  29.951  28.318  1.00  0.00     0.031 C 
ATOM     61  C   UNL A   1      37.466  31.240  30.306  1.00  0.00     0.037 A 
BRANCH  48  62
ATOM     62  C   UNL A   1      38.742  32.256  36.268  1.00  0.00     0.064 A 
ATOM     63  C   UNL A   1      39.166  33.563  36.548  1.00  0.00     0.173 A 
ATOM     64  C   UNL A   1      37.964  31.596  37.229  1.00  0.00     0.173 A 
ATOM     65  F   UNL A   1      39.933  34.228  35.669  1.00  0.00    -0.203 F 
ATOM     66  C   UNL A   1      38.846  34.176  37.756  1.00  0.00     0.198 A 
ATOM     67  C   UNL A   1      37.622  32.221  38.424  1.00  0.00     0.198 A 
ATOM     68  F   UNL A   1      37.538  30.342  37.011  1.00  0.00    -0.203 F 
ATOM     69  F   UNL A   1      39.306  35.405  38.025  1.00  0.00    -0.200 F 
ATOM     70  C   UNL A   1      38.069  33.507  38.691  1.00  0.00     0.200 A 
ATOM     71  F   UNL A   1      36.866  31.576  39.323  1.00  0.00    -0.200 F 
ATOM     72  F   UNL A   1      37.760  34.097  39.853  1.00  0.00    -0.200 F 
ENDBRANCH  48  62
BRANCH  49  73
ATOM     73  C   UNL A   1      41.500  27.349  28.004  1.00  0.00     0.064 A 
ATOM     74  C   UNL A   1      41.040  26.044  27.780  1.00  0.00     0.173 A 
ATOM     75  C   UNL A   1      42.351  27.913  27.042  1.00  0.00     0.173 A 
ATOM     76  F   UNL A   1      40.249  25.449  28.684  1.00  0.00    -0.203 F 
ATOM     77  C   UNL A   1      41.430  25.326  26.650  1.00  0.00     0.198 A 
ATOM     78  C   UNL A   1      42.719  27.205  25.900  1.00  0.00     0.198 A 
ATOM     79  F   UNL A   1      42.826  29.155  27.213  1.00  0.00    -0.203 F 
ATOM     80  F   UNL A   1      41.013  24.063  26.484  1.00  0.00    -0.200 F 
ATOM     81  C   UNL A   1      42.264  25.909  25.709  1.00  0.00     0.200 A 
ATOM     82  F   UNL A   1      43.520  27.774  24.989  1.00  0.00    -0.200 F 
ATOM     83  F   UNL A   1      42.638  25.219  24.622  1.00  0.00    -0.200 F 
ENDBRANCH  49  73
BRANCH  61  84
ATOM     84  C   UNL A   1      36.369  31.836  29.473  1.00  0.00     0.064 A 
ATOM     85  C   UNL A   1      35.290  31.067  29.012  1.00  0.00     0.173 A 
ATOM     86  C   UNL A   1      36.368  33.210  29.184  1.00  0.00     0.173 A 
ATOM     87  F   UNL A   1      35.251  29.747  29.252  1.00  0.00    -0.203 F 
ATOM     88  C   UNL A   1      34.263  31.648  28.275  1.00  0.00     0.198 A 
ATOM     89  C   UNL A   1      35.324  33.792  28.472  1.00  0.00     0.198 A 
ATOM     90  F   UNL A   1      37.372  33.990  29.612  1.00  0.00    -0.203 F 
ATOM     91  F   UNL A   1      33.262  30.887  27.808  1.00  0.00    -0.200 F 
ATOM     92  C   UNL A   1      34.276  33.010  28.013  1.00  0.00     0.200 A 
ATOM     93  F   UNL A   1      35.331  35.111  28.233  1.00  0.00    -0.200 F 
ATOM     94  F   UNL A   1      33.279  33.569  27.312  1.00  0.00    -0.200 F 
ENDBRANCH  61  84
ENDBRANCH  35  36
ENDBRANCH  28  30
ENDBRANCH  27  28
ENDBRANCH  26  27
ENDBRANCH  25  26
ENDBRANCH  24  25
ENDBRANCH  23  24
ENDBRANCH  22  23
ENDBRANCH   1  22
TORSDOF 22
ENDMDL
MODEL 2
REMARK VINA RESULT:      -9.7      0.991      2.132
REMARK SMILES COCc1c(C(=O)OCCOCCOCCOCCOC(=O)c2ccc(-c3c4nc(c(-c5c(F)c(F)c(F)c(F)c5F)c5ccc([nH]5)c(-c5c(F)c(F)c(F)c(F)c5F)c5nc(c(-c6c(F)c(F)c(F)c(F)c6F)c6ccc3[nH]6)C=C5)C=C4)cc2)sc2ccccc12
REMARK SMILES IDX 14 1 13 2 12 3 11 4 10 5 9 6 8 7 6 8 7 9 5 10 4 11 92 12
REMARK SMILES IDX 86 13 87 14 91 15 88 16 90 17 89 18 3 19 2 20 1 21 15 22
REMARK SMILES IDX 16 23 17 24 18 25 19 26 20 27 21 28 22 29 23 30 24 31 85 32
REMARK SMILES IDX 25 33 84 34 26 35 27 36 28 37 78 38 29 39 83 40 77 41 79 42
REMARK SMILES IDX 30 43 82 44 76 45 75 46 31 48 63 49 43 50 62 51 44 52 47 53
REMARK SMILES IDX 61 54 80 55 45 56 46 57 60 59 81 60 48 61 32 62 33 63 41 64
REMARK SMILES IDX 34 65 35 66 39 67 42 68 36 69 37 70 40 71 38 72 64 73 65 74
REMARK SMILES IDX 73 75 66 76 67 77 71 78 74 79 68 80 69 81 72 82 70 83 49 84
REMARK SMILES IDX 50 85 58 86 51 87 52 88 56 89 59 90 53 91 54 92 57 93 55 94
REMARK H PARENT 79 47 47 58
REMARK Flexibility Score: inf
ROOT
ATOM      1  O   UNL A   1      48.948  20.948  40.268  1.00  0.00    -0.377 OA
ENDROOT
BRANCH   1   2
ATOM      2  C   UNL A   1      49.309  19.850  41.100  1.00  0.00     0.188 C 
BRANCH   2   3
ATOM      3  C   UNL A   1      48.665  18.462  40.924  1.00  0.00     0.188 C 
BRANCH   3   4
ATOM      4  O   UNL A   1      47.729  18.095  41.930  1.00  0.00    -0.376 OA
BRANCH   4   5
ATOM      5  C   UNL A   1      46.373  17.974  41.532  1.00  0.00     0.202 C 
BRANCH   5   6
ATOM      6  C   UNL A   1      45.788  16.584  41.803  1.00  0.00     0.261 C 
BRANCH   6   7
ATOM      7  O   UNL A   1      44.376  16.597  42.063  1.00  0.00    -0.459 OA
BRANCH   7   8
ATOM      8  C   UNL A   1      43.985  16.362  43.347  1.00  0.00     0.348 C 
ATOM      9  O   UNL A   1      43.806  17.241  44.184  1.00  0.00    -0.245 OA
BRANCH   8  10
ATOM     10  C   UNL A   1      43.652  14.961  43.512  1.00  0.00     0.119 A 
ATOM     11  C   UNL A   1      42.601  14.260  42.931  1.00  0.00     0.011 A 
ATOM     12  C   UNL A   1      42.619  12.862  43.321  1.00  0.00    -0.001 A 
ATOM     13  S   UNL A   1      44.623  13.973  44.503  1.00  0.00    -0.128 S 
ATOM     14  C   UNL A   1      43.678  12.580  44.189  1.00  0.00     0.036 A 
ATOM     15  C   UNL A   1      41.761  11.786  42.971  1.00  0.00     0.010 A 
ATOM     16  C   UNL A   1      43.894  11.290  44.711  1.00  0.00     0.019 A 
ATOM     17  C   UNL A   1      41.962  10.506  43.498  1.00  0.00     0.001 A 
ATOM     18  C   UNL A   1      43.019  10.262  44.362  1.00  0.00     0.001 A 
BRANCH  11  19
ATOM     19  C   UNL A   1      41.599  14.867  41.982  1.00  0.00     0.197 C 
BRANCH  19  20
ATOM     20  O   UNL A   1      41.750  14.314  40.672  1.00  0.00    -0.380 OA
ATOM     21  C   UNL A   1      42.635  15.074  39.858  1.00  0.00     0.195 C 
ENDBRANCH  19  20
ENDBRANCH  11  19
ENDBRANCH   8  10
ENDBRANCH   7   8
ENDBRANCH   6   7
ENDBRANCH   5   6
ENDBRANCH   4   5
ENDBRANCH   3   4
ENDBRANCH   2   3
ENDBRANCH   1   2
BRANCH   1  22
ATOM     22  C   UNL A   1      47.973  20.762  39.258  1.00  0.00     0.188 C 
BRANCH  22  23
ATOM     23  C   UNL A   1      46.513  21.145  39.569  1.00  0.00     0.188 C 
BRANCH  23  24
ATOM     24  O   UNL A   1      46.365  22.395  40.233  1.00  0.00    -0.376 OA
BRANCH  24  25
ATOM     25  C   UNL A   1      45.689  23.409  39.502  1.00  0.00     0.202 C 
BRANCH  25  26
ATOM     26  C   UNL A   1      46.627  24.264  38.644  1.00  0.00     0.261 C 
BRANCH  26  27
ATOM     27  O   UNL A   1      46.256  24.355  37.261  1.00  0.00    -0.460 OA
BRANCH  27  28
ATOM     28  C   UNL A   1      46.858  25.309  36.520  1.00  0.00     0.338 C 
ATOM     29  O   UNL A   1      48.041  25.408  36.254  1.00  0.00    -0.246 OA
BRANCH  28  30
ATOM     30  C   UNL A   1      45.791  26.126  35.910  1.00  0.00     0.060 A 
ATOM     31  C   UNL A   1      44.480  25.626  35.894  1.00  0.00     0.016 A 
ATOM     32  C   UNL A   1      46.074  27.397  35.404  1.00  0.00     0.016 A 
ATOM     33  C   UNL A   1      43.450  26.397  35.354  1.00  0.00     0.010 A 
ATOM     34  C   UNL A   1      45.051  28.153  34.835  1.00  0.00     0.010 A 
ATOM     35  C   UNL A   1      43.743  27.643  34.782  1.00  0.00    -0.014 A 
BRANCH  35  36
ATOM     36  C   UNL A   1      42.755  28.302  33.901  1.00  0.00     0.031 A 
ATOM     37  C   UNL A   1      41.804  29.277  34.536  1.00  0.00     0.074 A 
ATOM     38  C   UNL A   1      42.680  28.026  32.588  1.00  0.00     0.049 A 
ATOM     39  N   UNL A   1      40.795  29.920  34.012  1.00  0.00    -0.248 NA
ATOM     40  C   UNL A   1      42.021  29.555  35.966  1.00  0.00     0.031 C 
ATOM     41  C   UNL A   1      43.566  27.124  31.857  1.00  0.00     0.029 A 
ATOM     42  N   UNL A   1      41.794  28.473  31.640  1.00  0.00    -0.354 N 
ATOM     43  C   UNL A   1      40.260  30.677  35.046  1.00  0.00     0.074 A 
ATOM     44  C   UNL A   1      41.034  30.394  36.232  1.00  0.00     0.031 C 
ATOM     45  C   UNL A   1      43.166  27.068  30.574  1.00  0.00     0.029 A 
ATOM     46  C   UNL A   1      41.978  27.906  30.404  1.00  0.00     0.049 A 
ATOM     47  H   UNL A   1      41.092  29.138  31.828  1.00  0.00     0.167 HD
ATOM     48  C   UNL A   1      39.215  31.534  35.008  1.00  0.00     0.037 A 
ATOM     49  C   UNL A   1      41.251  28.035  29.277  1.00  0.00     0.037 A 
ATOM     50  C   UNL A   1      38.429  31.792  33.834  1.00  0.00     0.049 A 
ATOM     51  C   UNL A   1      40.039  28.935  29.280  1.00  0.00     0.074 A 
ATOM     52  C   UNL A   1      37.349  32.643  33.685  1.00  0.00     0.029 A 
ATOM     53  N   UNL A   1      38.636  31.185  32.604  1.00  0.00    -0.354 N 
ATOM     54  N   UNL A   1      39.554  29.672  30.250  1.00  0.00    -0.248 NA
ATOM     55  C   UNL A   1      39.273  29.019  28.028  1.00  0.00     0.031 C 
ATOM     56  C   UNL A   1      36.871  32.515  32.377  1.00  0.00     0.029 A 
ATOM     57  C   UNL A   1      37.688  31.626  31.696  1.00  0.00     0.049 A 
ATOM     58  H   UNL A   1      39.350  30.537  32.406  1.00  0.00     0.167 HD
ATOM     59  C   UNL A   1      38.451  30.330  29.720  1.00  0.00     0.074 A 
ATOM     60  C   UNL A   1      38.342  29.909  28.338  1.00  0.00     0.031 C 
ATOM     61  C   UNL A   1      37.607  31.205  30.320  1.00  0.00     0.037 A 
BRANCH  48  62
ATOM     62  C   UNL A   1      38.849  32.222  36.289  1.00  0.00     0.064 A 
ATOM     63  C   UNL A   1      38.024  31.608  37.243  1.00  0.00     0.173 A 
ATOM     64  C   UNL A   1      39.327  33.511  36.564  1.00  0.00     0.173 A 
ATOM     65  F   UNL A   1      37.521  30.385  37.014  1.00  0.00    -0.203 F 
ATOM     66  C   UNL A   1      37.670  32.270  38.415  1.00  0.00     0.198 A 
ATOM     67  C   UNL A   1      38.995  34.159  37.750  1.00  0.00     0.198 A 
ATOM     68  F   UNL A   1      40.116  34.143  35.682  1.00  0.00    -0.203 F 
ATOM     69  F   UNL A   1      36.838  31.686  39.288  1.00  0.00    -0.200 F 
ATOM     70  C   UNL A   1      38.161  33.542  38.670  1.00  0.00     0.200 A 
ATOM     71  F   UNL A   1      39.475  35.385  37.998  1.00  0.00    -0.200 F 
ATOM     72  F   UNL A   1      37.821  34.178  39.799  1.00  0.00    -0.200 F 
ENDBRANCH  48  62
BRANCH  49  73
ATOM     73  C   UNL A   1      41.633  27.286  28.051  1.00  0.00     0.064 A 
ATOM     74  C   UNL A   1      42.466  27.865  27.083  1.00  0.00     0.173 A 
ATOM     75  C   UNL A   1      41.154  25.991  27.808  1.00  0.00     0.173 A 
ATOM     76  F   UNL A   1      42.925  29.113  27.255  1.00  0.00    -0.203 F 
ATOM     77  C   UNL A   1      42.791  27.183  25.911  1.00  0.00     0.198 A 
ATOM     78  C   UNL A   1      41.502  25.300  26.648  1.00  0.00     0.198 A 
ATOM     79  F   UNL A   1      40.348  25.395  28.697  1.00  0.00    -0.203 F 
ATOM     80  F   UNL A   1      43.550  27.779  24.981  1.00  0.00    -0.200 F 
ATOM     81  C   UNL A   1      42.313  25.900  25.697  1.00  0.00     0.200 A 
ATOM     82  F   UNL A   1      41.043  24.057  26.448  1.00  0.00    -0.200 F 
ATOM     83  F   UNL A   1      42.626  25.245  24.570  1.00  0.00    -0.200 F 
ENDBRANCH  49  73
BRANCH  61  84
ATOM     84  C   UNL A   1      36.520  31.807  29.479  1.00  0.00     0.064 A 
ATOM     85  C   UNL A   1      35.424  31.051  29.036  1.00  0.00     0.173 A 
ATOM     86  C   UNL A   1      36.546  33.174  29.162  1.00  0.00     0.173 A 
ATOM     87  F   UNL A   1      35.359  29.737  29.303  1.00  0.00    -0.203 F 
ATOM     88  C   UNL A   1      34.406  31.638  28.291  1.00  0.00     0.198 A 
ATOM     89  C   UNL A   1      35.511  33.764  28.442  1.00  0.00     0.198 A 
ATOM     90  F   UNL A   1      37.568  33.942  29.571  1.00  0.00    -0.203 F 
ATOM     91  F   UNL A   1      33.388  30.889  27.843  1.00  0.00    -0.200 F 
ATOM     92  C   UNL A   1      34.447  32.994  28.001  1.00  0.00     0.200 A 
ATOM     93  F   UNL A   1      35.545  35.077  28.176  1.00  0.00    -0.200 F 
ATOM     94  F   UNL A   1      33.458  33.559  27.293  1.00  0.00    -0.200 F 
ENDBRANCH  61  84
ENDBRANCH  35  36
ENDBRANCH  28  30
ENDBRANCH  27  28
ENDBRANCH  26  27
ENDBRANCH  25  26
ENDBRANCH  24  25
ENDBRANCH  23  24
ENDBRANCH  22  23
ENDBRANCH   1  22
TORSDOF 22
ENDMDL
MODEL 3
REMARK VINA RESULT:      -9.5      9.199     15.070
REMARK SMILES COCc1c(C(=O)OCCOCCOCCOCCOC(=O)c2ccc(-c3c4nc(c(-c5c(F)c(F)c(F)c(F)c5F)c5ccc([nH]5)c(-c5c(F)c(F)c(F)c(F)c5F)c5nc(c(-c6c(F)c(F)c(F)c(F)c6F)c6ccc3[nH]6)C=C5)C=C4)cc2)sc2ccccc12
REMARK SMILES IDX 14 1 13 2 12 3 11 4 10 5 9 6 8 7 6 8 7 9 5 10 4 11 92 12
REMARK SMILES IDX 86 13 87 14 91 15 88 16 90 17 89 18 3 19 2 20 1 21 15 22
REMARK SMILES IDX 16 23 17 24 18 25 19 26 20 27 21 28 22 29 23 30 24 31 85 32
REMARK SMILES IDX 25 33 84 34 26 35 27 36 28 37 78 38 29 39 83 40 77 41 79 42
REMARK SMILES IDX 30 43 82 44 76 45 75 46 31 48 63 49 43 50 62 51 44 52 47 53
REMARK SMILES IDX 61 54 80 55 45 56 46 57 60 59 81 60 48 61 32 62 33 63 41 64
REMARK SMILES IDX 34 65 35 66 39 67 42 68 36 69 37 70 40 71 38 72 64 73 65 74
REMARK SMILES IDX 73 75 66 76 67 77 71 78 74 79 68 80 69 81 72 82 70 83 49 84
REMARK SMILES IDX 50 85 58 86 51 87 52 88 56 89 59 90 53 91 54 92 57 93 55 94
REMARK H PARENT 79 47 47 58
REMARK Flexibility Score: inf
ROOT
ATOM      1  O   UNL A   1      34.998  32.608  27.538  1.00  0.00    -0.377 OA
ENDROOT
BRANCH   1   2
ATOM      2  C   UNL A   1      34.504  31.451  28.205  1.00  0.00     0.188 C 
BRANCH   2   3
ATOM      3  C   UNL A   1      33.341  30.624  27.626  1.00  0.00     0.188 C 
BRANCH   3   4
ATOM      4  O   UNL A   1      33.706  29.366  27.071  1.00  0.00    -0.376 OA
BRANCH   4   5
ATOM      5  C   UNL A   1      33.775  29.285  25.656  1.00  0.00     0.202 C 
BRANCH   5   6
ATOM      6  C   UNL A   1      33.650  27.851  25.131  1.00  0.00     0.261 C 
BRANCH   6   7
ATOM      7  O   UNL A   1      33.935  27.728  23.729  1.00  0.00    -0.459 OA
BRANCH   7   8
ATOM      8  C   UNL A   1      33.087  26.955  22.994  1.00  0.00     0.348 C 
ATOM      9  O   UNL A   1      33.369  25.842  22.563  1.00  0.00    -0.245 OA
BRANCH   8  10
ATOM     10  C   UNL A   1      31.773  27.566  22.953  1.00  0.00     0.119 A 
ATOM     11  C   UNL A   1      30.551  26.982  23.266  1.00  0.00     0.011 A 
ATOM     12  C   UNL A   1      29.461  27.931  23.128  1.00  0.00    -0.001 A 
ATOM     13  S   UNL A   1      31.614  29.200  22.498  1.00  0.00    -0.128 S 
ATOM     14  C   UNL A   1      29.915  29.183  22.706  1.00  0.00     0.036 A 
ATOM     15  C   UNL A   1      28.065  27.785  23.348  1.00  0.00     0.010 A 
ATOM     16  C   UNL A   1      29.038  30.264  22.492  1.00  0.00     0.019 A 
ATOM     17  C   UNL A   1      27.187  28.850  23.123  1.00  0.00     0.001 A 
ATOM     18  C   UNL A   1      27.671  30.078  22.697  1.00  0.00     0.001 A 
BRANCH  11  19
ATOM     19  C   UNL A   1      30.386  25.557  23.732  1.00  0.00     0.197 C 
BRANCH  19  20
ATOM     20  O   UNL A   1      30.980  25.379  25.021  1.00  0.00    -0.380 OA
ATOM     21  C   UNL A   1      30.102  25.740  26.080  1.00  0.00     0.195 C 
ENDBRANCH  19  20
ENDBRANCH  11  19
ENDBRANCH   8  10
ENDBRANCH   7   8
ENDBRANCH   6   7
ENDBRANCH   5   6
ENDBRANCH   4   5
ENDBRANCH   3   4
ENDBRANCH   2   3
ENDBRANCH   1   2
BRANCH   1  22
ATOM     22  C   UNL A   1      34.747  33.887  28.090  1.00  0.00     0.188 C 
BRANCH  22  23
ATOM     23  C   UNL A   1      33.320  34.462  27.989  1.00  0.00     0.188 C 
BRANCH  23  24
ATOM     24  O   UNL A   1      32.867  35.114  29.171  1.00  0.00    -0.376 OA
BRANCH  24  25
ATOM     25  C   UNL A   1      33.193  36.493  29.281  1.00  0.00     0.202 C 
BRANCH  25  26
ATOM     26  C   UNL A   1      32.903  37.075  30.668  1.00  0.00     0.261 C 
BRANCH  26  27
ATOM     27  O   UNL A   1      33.685  36.508  31.730  1.00  0.00    -0.460 OA
BRANCH  27  28
ATOM     28  C   UNL A   1      33.286  35.318  32.225  1.00  0.00     0.338 C 
ATOM     29  O   UNL A   1      32.154  34.970  32.504  1.00  0.00    -0.246 OA
BRANCH  28  30
ATOM     30  C   UNL A   1      34.455  34.417  32.192  1.00  0.00     0.060 A 
ATOM     31  C   UNL A   1      34.401  33.210  32.905  1.00  0.00     0.016 A 
ATOM     32  C   UNL A   1      35.575  34.740  31.422  1.00  0.00     0.016 A 
ATOM     33  C   UNL A   1      35.481  32.328  32.858  1.00  0.00     0.010 A 
ATOM     34  C   UNL A   1      36.667  33.874  31.402  1.00  0.00     0.010 A 
ATOM     35  C   UNL A   1      36.634  32.681  32.143  1.00  0.00    -0.014 A 
BRANCH  35  36
ATOM     36  C   UNL A   1      37.898  31.947  32.371  1.00  0.00     0.031 A 
ATOM     37  C   UNL A   1      38.774  32.414  33.499  1.00  0.00     0.074 A 
ATOM     38  C   UNL A   1      38.275  30.922  31.588  1.00  0.00     0.049 A 
ATOM     39  N   UNL A   1      39.963  32.006  33.856  1.00  0.00    -0.248 NA
ATOM     40  C   UNL A   1      38.232  33.500  34.333  1.00  0.00     0.031 C 
ATOM     41  C   UNL A   1      37.495  30.362  30.488  1.00  0.00     0.029 A 
ATOM     42  N   UNL A   1      39.430  30.180  31.598  1.00  0.00    -0.354 N 
ATOM     43  C   UNL A   1      40.308  32.784  34.953  1.00  0.00     0.074 A 
ATOM     44  C   UNL A   1      39.220  33.705  35.188  1.00  0.00     0.031 C 
ATOM     45  C   UNL A   1      38.204  29.374  29.912  1.00  0.00     0.029 A 
ATOM     46  C   UNL A   1      39.498  29.256  30.585  1.00  0.00     0.049 A 
ATOM     47  H   UNL A   1      40.142  30.299  32.268  1.00  0.00     0.167 HD
ATOM     48  C   UNL A   1      41.434  32.732  35.701  1.00  0.00     0.037 A 
ATOM     49  C   UNL A   1      40.504  28.432  30.235  1.00  0.00     0.037 A 
ATOM     50  C   UNL A   1      42.526  31.834  35.449  1.00  0.00     0.049 A 
ATOM     51  C   UNL A   1      41.784  28.449  31.035  1.00  0.00     0.074 A 
ATOM     52  C   UNL A   1      43.712  31.698  36.146  1.00  0.00     0.029 A 
ATOM     53  N   UNL A   1      42.566  30.924  34.403  1.00  0.00    -0.354 N 
ATOM     54  N   UNL A   1      42.095  29.163  32.091  1.00  0.00    -0.248 NA
ATOM     55  C   UNL A   1      42.854  27.542  30.593  1.00  0.00     0.031 C 
ATOM     56  C   UNL A   1      44.492  30.738  35.493  1.00  0.00     0.029 A 
ATOM     57  C   UNL A   1      43.768  30.238  34.421  1.00  0.00     0.049 A 
ATOM     58  H   UNL A   1      41.847  30.786  33.745  1.00  0.00     0.167 HD
ATOM     59  C   UNL A   1      43.377  28.771  32.456  1.00  0.00     0.074 A 
ATOM     60  C   UNL A   1      43.785  27.750  31.513  1.00  0.00     0.031 C 
ATOM     61  C   UNL A   1      44.147  29.214  33.481  1.00  0.00     0.037 A 
BRANCH  48  62
ATOM     62  C   UNL A   1      41.543  33.703  36.839  1.00  0.00     0.064 A 
ATOM     63  C   UNL A   1      40.964  33.438  38.088  1.00  0.00     0.173 A 
ATOM     64  C   UNL A   1      42.235  34.912  36.676  1.00  0.00     0.173 A 
ATOM     65  F   UNL A   1      40.273  32.305  38.286  1.00  0.00    -0.203 F 
ATOM     66  C   UNL A   1      41.051  34.361  39.127  1.00  0.00     0.198 A 
ATOM     67  C   UNL A   1      42.343  35.820  37.725  1.00  0.00     0.198 A 
ATOM     68  F   UNL A   1      42.802  35.214  35.498  1.00  0.00    -0.203 F 
ATOM     69  F   UNL A   1      40.446  34.111  40.296  1.00  0.00    -0.200 F 
ATOM     70  C   UNL A   1      41.746  35.548  38.947  1.00  0.00     0.200 A 
ATOM     71  F   UNL A   1      43.020  36.963  37.551  1.00  0.00    -0.200 F 
ATOM     72  F   UNL A   1      41.830  36.435  39.947  1.00  0.00    -0.200 F 
ENDBRANCH  48  62
BRANCH  49  73
ATOM     73  C   UNL A   1      40.356  27.527  29.065  1.00  0.00     0.064 A 
ATOM     74  C   UNL A   1      40.998  27.807  27.851  1.00  0.00     0.173 A 
ATOM     75  C   UNL A   1      39.548  26.382  29.126  1.00  0.00     0.173 A 
ATOM     76  F   UNL A   1      41.757  28.906  27.733  1.00  0.00    -0.203 F 
ATOM     77  C   UNL A   1      40.825  26.985  26.738  1.00  0.00     0.198 A 
ATOM     78  C   UNL A   1      39.397  25.547  28.020  1.00  0.00     0.198 A 
ATOM     79  F   UNL A   1      38.905  26.074  30.261  1.00  0.00    -0.203 F 
ATOM     80  F   UNL A   1      41.414  27.302  25.576  1.00  0.00    -0.200 F 
ATOM     81  C   UNL A   1      40.030  25.853  26.825  1.00  0.00     0.200 A 
ATOM     82  F   UNL A   1      38.632  24.450  28.111  1.00  0.00    -0.200 F 
ATOM     83  F   UNL A   1      39.864  25.064  25.755  1.00  0.00    -0.200 F 
ENDBRANCH  49  73
BRANCH  61  84
ATOM     84  C   UNL A   1      45.487  28.566  33.671  1.00  0.00     0.064 A 
ATOM     85  C   UNL A   1      46.639  29.050  33.032  1.00  0.00     0.173 A 
ATOM     86  C   UNL A   1      45.630  27.483  34.552  1.00  0.00     0.173 A 
ATOM     87  F   UNL A   1      46.552  30.076  32.171  1.00  0.00    -0.203 F 
ATOM     88  C   UNL A   1      47.879  28.460  33.253  1.00  0.00     0.198 A 
ATOM     89  C   UNL A   1      46.877  26.914  34.793  1.00  0.00     0.198 A 
ATOM     90  F   UNL A   1      44.561  26.990  35.195  1.00  0.00    -0.203 F 
ATOM     91  F   UNL A   1      48.960  28.911  32.601  1.00  0.00    -0.200 F 
ATOM     92  C   UNL A   1      47.999  27.398  34.139  1.00  0.00     0.200 A 
ATOM     93  F   UNL A   1      46.993  25.900  35.661  1.00  0.00    -0.200 F 
ATOM     94  F   UNL A   1      49.197  26.840  34.358  1.00  0.00    -0.200 F 
ENDBRANCH  61  84
ENDBRANCH  35  36
ENDBRANCH  28  30
ENDBRANCH  27  28
ENDBRANCH  26  27
ENDBRANCH  25  26
ENDBRANCH  24  25
ENDBRANCH  23  24
ENDBRANCH  22  23
ENDBRANCH   1  22
TORSDOF 22
ENDMDL
