MODEL 1
REMARK VINA RESULT:     -11.0      0.000      0.000
REMARK SMILES Cc1onc(-c2cccc(Br)c2)c1C(=O)OCCOCCOCCOCCOC(=O)c1ccc(-c2c3nc(c(-c4c(F)c(F)c(F)c(F)c4F)c4ccc([nH]4)c(-c4c(F)c(F)c(F)c(F)c4F)c4nc(c(-c5c(F)c(F)c(F)c(F)c5F)c5ccc2[nH]5)C=C4)C=C3)cc1
REMARK SMILES IDX 23 1 22 2 21 3 20 4 19 5 18 6 17 7 16 8 14 9 15 10 13 11
REMARK SMILES IDX 1 12 2 13 3 14 4 15 5 16 6 17 7 18 12 19 8 20 10 21 9 22
REMARK SMILES IDX 11 23 24 24 25 25 26 26 27 27 28 28 29 29 30 30 31 31 32 32
REMARK SMILES IDX 93 33 33 34 92 35 34 36 35 37 36 38 86 39 37 40 91 41 85 42
REMARK SMILES IDX 87 43 38 44 90 45 84 46 83 47 39 49 71 50 51 51 70 52 52 53
REMARK SMILES IDX 55 54 69 55 88 56 53 57 54 58 68 60 89 61 56 62 40 63 41 64
REMARK SMILES IDX 49 65 42 66 43 67 47 68 50 69 44 70 45 71 48 72 46 73 72 74
REMARK SMILES IDX 73 75 81 76 74 77 75 78 79 79 82 80 76 81 77 82 80 83 78 84
REMARK SMILES IDX 57 85 58 86 66 87 59 88 60 89 64 90 67 91 61 92 62 93 65 94
REMARK SMILES IDX 63 95
REMARK H PARENT 87 48 55 59
REMARK Flexibility Score: inf
ROOT
ATOM      1  C   UNL A   1      41.140  20.150  27.375  1.00  0.00     0.188 C 
ENDROOT
BRANCH   1   2
ATOM      2  O   UNL A   1      40.447  21.382  27.499  1.00  0.00    -0.377 OA
BRANCH   2   3
ATOM      3  C   UNL A   1      40.048  22.080  26.331  1.00  0.00     0.188 C 
BRANCH   3   4
ATOM      4  C   UNL A   1      38.606  22.590  26.228  1.00  0.00     0.188 C 
BRANCH   4   5
ATOM      5  O   UNL A   1      37.966  22.222  25.008  1.00  0.00    -0.376 OA
BRANCH   5   6
ATOM      6  C   UNL A   1      37.312  20.956  25.035  1.00  0.00     0.202 C 
BRANCH   6   7
ATOM      7  C   UNL A   1      35.834  21.096  25.410  1.00  0.00     0.261 C 
BRANCH   7   8
ATOM      8  O   UNL A   1      35.293  22.408  25.178  1.00  0.00    -0.459 OA
BRANCH   8   9
ATOM      9  C   UNL A   1      34.284  22.512  24.272  1.00  0.00     0.344 C 
ATOM     10  O   UNL A   1      34.452  22.696  23.074  1.00  0.00    -0.246 OA
BRANCH   9  11
ATOM     11  C   UNL A   1      32.992  22.277  24.872  1.00  0.00     0.130 A 
ATOM     12  C   UNL A   1      32.572  24.380  26.416  1.00  0.00     0.092 C 
ATOM     13  C   UNL A   1      32.314  23.079  25.766  1.00  0.00     0.148 A 
ATOM     14  O   UNL A   1      31.148  22.474  26.113  1.00  0.00    -0.360 OA
ATOM     15  N   UNL A   1      31.072  21.234  25.518  1.00  0.00    -0.079 NA
ATOM     16  C   UNL A   1      32.191  21.101  24.793  1.00  0.00     0.128 A 
BRANCH  16  17
ATOM     17  C   UNL A   1      32.532  19.818  24.195  1.00  0.00     0.006 A 
ATOM     18  C   UNL A   1      32.169  19.572  22.861  1.00  0.00     0.010 A 
ATOM     19  C   UNL A   1      33.191  18.829  24.928  1.00  0.00     0.026 A 
ATOM     20  C   UNL A   1      32.441  18.339  22.270  1.00  0.00     0.002 A 
ATOM     21  C   UNL A   1      33.476  17.604  24.323  1.00  0.00     0.018 A 
ATOM     22  C   UNL A   1      33.098  17.352  23.002  1.00  0.00     0.016 A 
ATOM     23  Br  UNL A   1      34.387  16.267  25.300  1.00  0.00    -0.051 Br
ENDBRANCH  16  17
ENDBRANCH   9  11
ENDBRANCH   8   9
ENDBRANCH   7   8
ENDBRANCH   6   7
ENDBRANCH   5   6
ENDBRANCH   4   5
ENDBRANCH   3   4
ENDBRANCH   2   3
ENDBRANCH   1   2
BRANCH   1  24
ATOM     24  C   UNL A   1      41.853  19.805  26.059  1.00  0.00     0.188 C 
BRANCH  24  25
ATOM     25  O   UNL A   1      43.257  20.054  26.071  1.00  0.00    -0.376 OA
BRANCH  25  26
ATOM     26  C   UNL A   1      43.638  21.420  26.203  1.00  0.00     0.202 C 
BRANCH  26  27
ATOM     27  C   UNL A   1      43.751  22.133  24.852  1.00  0.00     0.261 C 
BRANCH  27  28
ATOM     28  O   UNL A   1      43.125  23.425  24.824  1.00  0.00    -0.460 OA
BRANCH  28  29
ATOM     29  C   UNL A   1      43.921  24.481  25.096  1.00  0.00     0.338 C 
ATOM     30  O   UNL A   1      44.994  24.754  24.592  1.00  0.00    -0.246 OA
BRANCH  29  31
ATOM     31  C   UNL A   1      43.190  25.372  26.013  1.00  0.00     0.060 A 
ATOM     32  C   UNL A   1      43.555  26.723  26.063  1.00  0.00     0.016 A 
ATOM     33  C   UNL A   1      42.162  24.877  26.819  1.00  0.00     0.016 A 
ATOM     34  C   UNL A   1      42.915  27.578  26.956  1.00  0.00     0.010 A 
ATOM     35  C   UNL A   1      41.535  25.729  27.728  1.00  0.00     0.010 A 
ATOM     36  C   UNL A   1      41.935  27.071  27.822  1.00  0.00    -0.014 A 
BRANCH  36  37
ATOM     37  C   UNL A   1      41.480  27.884  28.970  1.00  0.00     0.031 A 
ATOM     38  C   UNL A   1      42.227  27.754  30.267  1.00  0.00     0.074 A 
ATOM     39  C   UNL A   1      40.419  28.703  28.871  1.00  0.00     0.049 A 
ATOM     40  N   UNL A   1      42.011  28.343  31.415  1.00  0.00    -0.248 NA
ATOM     41  C   UNL A   1      43.376  26.832  30.267  1.00  0.00     0.031 C 
ATOM     42  C   UNL A   1      39.627  28.919  27.663  1.00  0.00     0.029 A 
ATOM     43  N   UNL A   1      39.823  29.497  29.816  1.00  0.00    -0.354 N 
ATOM     44  C   UNL A   1      43.000  27.873  32.266  1.00  0.00     0.074 A 
ATOM     45  C   UNL A   1      43.802  26.931  31.517  1.00  0.00     0.031 C 
ATOM     46  C   UNL A   1      38.633  29.781  27.946  1.00  0.00     0.029 A 
ATOM     47  C   UNL A   1      38.714  30.160  29.356  1.00  0.00     0.049 A 
ATOM     48  H   UNL A   1      40.159  29.584  30.738  1.00  0.00     0.167 HD
ATOM     49  C   UNL A   1      43.224  28.202  33.559  1.00  0.00     0.037 A 
ATOM     50  C   UNL A   1      37.858  30.968  30.011  1.00  0.00     0.037 A 
ATOM     51  C   UNL A   1      42.414  29.116  34.314  1.00  0.00     0.049 A 
ATOM     52  C   UNL A   1      38.088  31.263  31.470  1.00  0.00     0.074 A 
ATOM     53  C   UNL A   1      42.566  29.527  35.625  1.00  0.00     0.029 A 
ATOM     54  N   UNL A   1      41.286  29.751  33.819  1.00  0.00    -0.354 N 
ATOM     55  N   UNL A   1      39.054  30.855  32.256  1.00  0.00    -0.248 NA
ATOM     56  C   UNL A   1      37.105  32.133  32.133  1.00  0.00     0.031 C 
ATOM     57  C   UNL A   1      41.507  30.386  35.936  1.00  0.00     0.029 A 
ATOM     58  C   UNL A   1      40.715  30.534  34.808  1.00  0.00     0.049 A 
ATOM     59  H   UNL A   1      40.941  29.658  32.902  1.00  0.00     0.167 HD
ATOM     60  C   UNL A   1      38.812  31.434  33.494  1.00  0.00     0.074 A 
ATOM     61  C   UNL A   1      37.610  32.228  33.356  1.00  0.00     0.031 C 
ATOM     62  C   UNL A   1      39.522  31.322  34.643  1.00  0.00     0.037 A 
BRANCH  49  63
ATOM     63  C   UNL A   1      44.387  27.547  34.235  1.00  0.00     0.064 A 
ATOM     64  C   UNL A   1      44.230  26.353  34.956  1.00  0.00     0.173 A 
ATOM     65  C   UNL A   1      45.667  28.112  34.161  1.00  0.00     0.173 A 
ATOM     66  F   UNL A   1      43.019  25.788  35.072  1.00  0.00    -0.203 F 
ATOM     67  C   UNL A   1      45.315  25.759  35.595  1.00  0.00     0.198 A 
ATOM     68  C   UNL A   1      46.752  27.505  34.786  1.00  0.00     0.198 A 
ATOM     69  F   UNL A   1      45.862  29.257  33.488  1.00  0.00    -0.203 F 
ATOM     70  F   UNL A   1      45.138  24.640  36.310  1.00  0.00    -0.200 F 
ATOM     71  C   UNL A   1      46.575  26.332  35.506  1.00  0.00     0.200 A 
ATOM     72  F   UNL A   1      47.969  28.059  34.700  1.00  0.00    -0.200 F 
ATOM     73  F   UNL A   1      47.617  25.760  36.124  1.00  0.00    -0.200 F 
ENDBRANCH  49  63
BRANCH  50  74
ATOM     74  C   UNL A   1      36.699  31.557  29.296  1.00  0.00     0.064 A 
ATOM     75  C   UNL A   1      36.656  32.926  29.002  1.00  0.00     0.173 A 
ATOM     76  C   UNL A   1      35.605  30.769  28.912  1.00  0.00     0.173 A 
ATOM     77  F   UNL A   1      37.669  33.722  29.374  1.00  0.00    -0.203 F 
ATOM     78  C   UNL A   1      35.554  33.489  28.362  1.00  0.00     0.198 A 
ATOM     79  C   UNL A   1      34.513  31.328  28.255  1.00  0.00     0.198 A 
ATOM     80  F   UNL A   1      35.599  29.454  29.177  1.00  0.00    -0.203 F 
ATOM     81  F   UNL A   1      35.520  34.807  28.125  1.00  0.00    -0.200 F 
ATOM     82  C   UNL A   1      34.485  32.689  27.985  1.00  0.00     0.200 A 
ATOM     83  F   UNL A   1      33.484  30.552  27.889  1.00  0.00    -0.200 F 
ATOM     84  F   UNL A   1      33.425  33.231  27.371  1.00  0.00    -0.200 F 
ENDBRANCH  50  74
BRANCH  62  85
ATOM     85  C   UNL A   1      39.036  32.094  35.831  1.00  0.00     0.064 A 
ATOM     86  C   UNL A   1      38.205  31.505  36.793  1.00  0.00     0.173 A 
ATOM     87  C   UNL A   1      39.452  33.417  36.036  1.00  0.00     0.173 A 
ATOM     88  F   UNL A   1      37.771  30.246  36.631  1.00  0.00    -0.203 F 
ATOM     89  C   UNL A   1      37.796  32.221  37.916  1.00  0.00     0.198 A 
ATOM     90  C   UNL A   1      39.058  34.123  37.168  1.00  0.00     0.198 A 
ATOM     91  F   UNL A   1      40.252  34.020  35.143  1.00  0.00    -0.203 F 
ATOM     92  F   UNL A   1      36.977  31.650  38.810  1.00  0.00    -0.200 F 
ATOM     93  C   UNL A   1      38.228  33.525  38.105  1.00  0.00     0.200 A 
ATOM     94  F   UNL A   1      39.483  35.380  37.355  1.00  0.00    -0.200 F 
ATOM     95  F   UNL A   1      37.839  34.209  39.191  1.00  0.00    -0.200 F 
ENDBRANCH  62  85
ENDBRANCH  36  37
ENDBRANCH  29  31
ENDBRANCH  28  29
ENDBRANCH  27  28
ENDBRANCH  26  27
ENDBRANCH  25  26
ENDBRANCH  24  25
ENDBRANCH   1  24
TORSDOF 21
ENDMDL
MODEL 2
REMARK VINA RESULT:     -10.8      1.764      2.873
REMARK SMILES Cc1onc(-c2cccc(Br)c2)c1C(=O)OCCOCCOCCOCCOC(=O)c1ccc(-c2c3nc(c(-c4c(F)c(F)c(F)c(F)c4F)c4ccc([nH]4)c(-c4c(F)c(F)c(F)c(F)c4F)c4nc(c(-c5c(F)c(F)c(F)c(F)c5F)c5ccc2[nH]5)C=C4)C=C3)cc1
REMARK SMILES IDX 23 1 22 2 21 3 20 4 19 5 18 6 17 7 16 8 14 9 15 10 13 11
REMARK SMILES IDX 1 12 2 13 3 14 4 15 5 16 6 17 7 18 12 19 8 20 10 21 9 22
REMARK SMILES IDX 11 23 24 24 25 25 26 26 27 27 28 28 29 29 30 30 31 31 32 32
REMARK SMILES IDX 93 33 33 34 92 35 34 36 35 37 36 38 86 39 37 40 91 41 85 42
REMARK SMILES IDX 87 43 38 44 90 45 84 46 83 47 39 49 71 50 51 51 70 52 52 53
REMARK SMILES IDX 55 54 69 55 88 56 53 57 54 58 68 60 89 61 56 62 40 63 41 64
REMARK SMILES IDX 49 65 42 66 43 67 47 68 50 69 44 70 45 71 48 72 46 73 72 74
REMARK SMILES IDX 73 75 81 76 74 77 75 78 79 79 82 80 76 81 77 82 80 83 78 84
REMARK SMILES IDX 57 85 58 86 66 87 59 88 60 89 64 90 67 91 61 92 62 93 65 94
REMARK SMILES IDX 63 95
REMARK H PARENT 87 48 55 59
REMARK Flexibility Score: inf
ROOT
ATOM      1  C   UNL A   1      39.874  21.354  26.334  1.00  0.00     0.188 C 
ENDROOT
BRANCH   1   2
ATOM      2  O   UNL A   1      38.687  21.277  25.562  1.00  0.00    -0.377 OA
BRANCH   2   3
ATOM      3  C   UNL A   1      37.661  22.235  25.762  1.00  0.00     0.188 C 
BRANCH   3   4
ATOM      4  C   UNL A   1      36.767  22.623  24.578  1.00  0.00     0.188 C 
BRANCH   4   5
ATOM      5  O   UNL A   1      35.525  21.923  24.559  1.00  0.00    -0.376 OA
BRANCH   5   6
ATOM      6  C   UNL A   1      35.128  21.376  25.815  1.00  0.00     0.202 C 
BRANCH   6   7
ATOM      7  C   UNL A   1      34.124  22.284  26.530  1.00  0.00     0.261 C 
BRANCH   7   8
ATOM      8  O   UNL A   1      33.260  23.013  25.643  1.00  0.00    -0.459 OA
BRANCH   8   9
ATOM      9  C   UNL A   1      31.949  22.650  25.615  1.00  0.00     0.344 C 
ATOM     10  O   UNL A   1      31.556  21.517  25.370  1.00  0.00    -0.246 OA
BRANCH   9  11
ATOM     11  C   UNL A   1      31.080  23.731  26.011  1.00  0.00     0.130 A 
ATOM     12  C   UNL A   1      29.170  22.580  27.428  1.00  0.00     0.092 C 
ATOM     13  C   UNL A   1      29.926  23.660  26.765  1.00  0.00     0.148 A 
ATOM     14  O   UNL A   1      29.388  24.903  26.876  1.00  0.00    -0.360 OA
ATOM     15  N   UNL A   1      30.130  25.800  26.138  1.00  0.00    -0.079 NA
ATOM     16  C   UNL A   1      31.132  25.094  25.595  1.00  0.00     0.128 A 
BRANCH  16  17
ATOM     17  C   UNL A   1      31.991  25.694  24.586  1.00  0.00     0.006 A 
ATOM     18  C   UNL A   1      32.959  26.629  24.985  1.00  0.00     0.010 A 
ATOM     19  C   UNL A   1      31.855  25.371  23.234  1.00  0.00     0.026 A 
ATOM     20  C   UNL A   1      33.770  27.256  24.039  1.00  0.00     0.002 A 
ATOM     21  C   UNL A   1      32.683  25.990  22.296  1.00  0.00     0.018 A 
ATOM     22  C   UNL A   1      33.633  26.935  22.690  1.00  0.00     0.016 A 
ATOM     23  Br  UNL A   1      32.522  25.544  20.466  1.00  0.00    -0.051 Br
ENDBRANCH  16  17
ENDBRANCH   9  11
ENDBRANCH   8   9
ENDBRANCH   7   8
ENDBRANCH   6   7
ENDBRANCH   5   6
ENDBRANCH   4   5
ENDBRANCH   3   4
ENDBRANCH   2   3
ENDBRANCH   1   2
BRANCH   1  24
ATOM     24  C   UNL A   1      40.850  20.167  26.356  1.00  0.00     0.188 C 
BRANCH  24  25
ATOM     25  O   UNL A   1      41.997  20.336  25.527  1.00  0.00    -0.376 OA
BRANCH  25  26
ATOM     26  C   UNL A   1      43.096  21.012  26.130  1.00  0.00     0.202 C 
BRANCH  26  27
ATOM     27  C   UNL A   1      43.816  21.951  25.157  1.00  0.00     0.261 C 
BRANCH  27  28
ATOM     28  O   UNL A   1      43.115  23.180  24.910  1.00  0.00    -0.460 OA
BRANCH  28  29
ATOM     29  C   UNL A   1      43.839  24.314  25.021  1.00  0.00     0.338 C 
ATOM     30  O   UNL A   1      44.838  24.624  24.398  1.00  0.00    -0.246 OA
BRANCH  29  31
ATOM     31  C   UNL A   1      43.120  25.221  25.932  1.00  0.00     0.060 A 
ATOM     32  C   UNL A   1      43.547  26.552  26.022  1.00  0.00     0.016 A 
ATOM     33  C   UNL A   1      42.041  24.760  26.691  1.00  0.00     0.016 A 
ATOM     34  C   UNL A   1      42.916  27.419  26.910  1.00  0.00     0.010 A 
ATOM     35  C   UNL A   1      41.424  25.623  27.595  1.00  0.00     0.010 A 
ATOM     36  C   UNL A   1      41.883  26.943  27.731  1.00  0.00    -0.014 A 
BRANCH  36  37
ATOM     37  C   UNL A   1      41.427  27.755  28.880  1.00  0.00     0.031 A 
ATOM     38  C   UNL A   1      42.171  27.622  30.178  1.00  0.00     0.074 A 
ATOM     39  C   UNL A   1      40.368  28.575  28.780  1.00  0.00     0.049 A 
ATOM     40  N   UNL A   1      41.954  28.208  31.326  1.00  0.00    -0.248 NA
ATOM     41  C   UNL A   1      43.320  26.698  30.179  1.00  0.00     0.031 C 
ATOM     42  C   UNL A   1      39.578  28.794  27.571  1.00  0.00     0.029 A 
ATOM     43  N   UNL A   1      39.770  29.368  29.726  1.00  0.00    -0.354 N 
ATOM     44  C   UNL A   1      42.941  27.736  32.179  1.00  0.00     0.074 A 
ATOM     45  C   UNL A   1      43.743  26.794  31.430  1.00  0.00     0.031 C 
ATOM     46  C   UNL A   1      38.584  29.656  27.854  1.00  0.00     0.029 A 
ATOM     47  C   UNL A   1      38.663  30.033  29.264  1.00  0.00     0.049 A 
ATOM     48  H   UNL A   1      40.104  29.452  30.648  1.00  0.00     0.167 HD
ATOM     49  C   UNL A   1      43.163  28.063  33.472  1.00  0.00     0.037 A 
ATOM     50  C   UNL A   1      37.807  30.841  29.919  1.00  0.00     0.037 A 
ATOM     51  C   UNL A   1      42.353  28.976  34.227  1.00  0.00     0.049 A 
ATOM     52  C   UNL A   1      38.034  31.133  31.379  1.00  0.00     0.074 A 
ATOM     53  C   UNL A   1      42.503  29.385  35.539  1.00  0.00     0.029 A 
ATOM     54  N   UNL A   1      41.226  29.613  33.732  1.00  0.00    -0.354 N 
ATOM     55  N   UNL A   1      38.998  30.722  32.167  1.00  0.00    -0.248 NA
ATOM     56  C   UNL A   1      37.051  32.003  32.041  1.00  0.00     0.031 C 
ATOM     57  C   UNL A   1      41.443  30.245  35.850  1.00  0.00     0.029 A 
ATOM     58  C   UNL A   1      40.654  30.395  34.721  1.00  0.00     0.049 A 
ATOM     59  H   UNL A   1      40.882  29.523  32.814  1.00  0.00     0.167 HD
ATOM     60  C   UNL A   1      38.755  31.300  33.405  1.00  0.00     0.074 A 
ATOM     61  C   UNL A   1      37.553  32.096  33.265  1.00  0.00     0.031 C 
ATOM     62  C   UNL A   1      39.462  31.185  34.555  1.00  0.00     0.037 A 
BRANCH  49  63
ATOM     63  C   UNL A   1      44.324  27.405  34.150  1.00  0.00     0.064 A 
ATOM     64  C   UNL A   1      45.592  28.005  34.164  1.00  0.00     0.173 A 
ATOM     65  C   UNL A   1      44.169  26.168  34.791  1.00  0.00     0.173 A 
ATOM     66  F   UNL A   1      45.792  29.178  33.545  1.00  0.00    -0.203 F 
ATOM     67  C   UNL A   1      46.670  27.378  34.784  1.00  0.00     0.198 A 
ATOM     68  C   UNL A   1      45.245  25.554  35.424  1.00  0.00     0.198 A 
ATOM     69  F   UNL A   1      42.975  25.555  34.796  1.00  0.00    -0.203 F 
ATOM     70  F   UNL A   1      47.881  27.949  34.755  1.00  0.00    -0.200 F 
ATOM     71  C   UNL A   1      46.495  26.156  35.417  1.00  0.00     0.200 A 
ATOM     72  F   UNL A   1      45.075  24.374  36.036  1.00  0.00    -0.200 F 
ATOM     73  F   UNL A   1      47.534  25.554  36.011  1.00  0.00    -0.200 F 
ENDBRANCH  49  63
BRANCH  50  74
ATOM     74  C   UNL A   1      36.650  31.432  29.203  1.00  0.00     0.064 A 
ATOM     75  C   UNL A   1      36.618  32.797  28.893  1.00  0.00     0.173 A 
ATOM     76  C   UNL A   1      35.547  30.649  28.833  1.00  0.00     0.173 A 
ATOM     77  F   UNL A   1      37.640  33.589  29.251  1.00  0.00    -0.203 F 
ATOM     78  C   UNL A   1      35.518  33.364  28.252  1.00  0.00     0.198 A 
ATOM     79  C   UNL A   1      34.456  31.212  28.175  1.00  0.00     0.198 A 
ATOM     80  F   UNL A   1      35.530  29.338  29.113  1.00  0.00    -0.203 F 
ATOM     81  F   UNL A   1      35.495  34.679  28.001  1.00  0.00    -0.200 F 
ATOM     82  C   UNL A   1      34.440  32.570  27.889  1.00  0.00     0.200 A 
ATOM     83  F   UNL A   1      33.418  30.441  27.822  1.00  0.00    -0.200 F 
ATOM     84  F   UNL A   1      33.381  33.114  27.274  1.00  0.00    -0.200 F 
ENDBRANCH  50  74
BRANCH  62  85
ATOM     85  C   UNL A   1      38.974  31.956  35.743  1.00  0.00     0.064 A 
ATOM     86  C   UNL A   1      38.186  31.351  36.731  1.00  0.00     0.173 A 
ATOM     87  C   UNL A   1      39.348  33.295  35.921  1.00  0.00     0.173 A 
ATOM     88  F   UNL A   1      37.794  30.075  36.595  1.00  0.00    -0.203 F 
ATOM     89  C   UNL A   1      37.776  32.067  37.853  1.00  0.00     0.198 A 
ATOM     90  C   UNL A   1      38.953  34.002  37.053  1.00  0.00     0.198 A 
ATOM     91  F   UNL A   1      40.106  33.913  35.004  1.00  0.00    -0.203 F 
ATOM     92  F   UNL A   1      36.998  31.480  38.773  1.00  0.00    -0.200 F 
ATOM     93  C   UNL A   1      38.166  33.388  38.016  1.00  0.00     0.200 A 
ATOM     94  F   UNL A   1      39.337  35.276  37.214  1.00  0.00    -0.200 F 
ATOM     95  F   UNL A   1      37.776  34.073  39.101  1.00  0.00    -0.200 F 
ENDBRANCH  62  85
ENDBRANCH  36  37
ENDBRANCH  29  31
ENDBRANCH  28  29
ENDBRANCH  27  28
ENDBRANCH  26  27
ENDBRANCH  25  26
ENDBRANCH  24  25
ENDBRANCH   1  24
TORSDOF 21
ENDMDL
MODEL 3
REMARK VINA RESULT:     -10.5      2.511      4.141
REMARK SMILES Cc1onc(-c2cccc(Br)c2)c1C(=O)OCCOCCOCCOCCOC(=O)c1ccc(-c2c3nc(c(-c4c(F)c(F)c(F)c(F)c4F)c4ccc([nH]4)c(-c4c(F)c(F)c(F)c(F)c4F)c4nc(c(-c5c(F)c(F)c(F)c(F)c5F)c5ccc2[nH]5)C=C4)C=C3)cc1
REMARK SMILES IDX 23 1 22 2 21 3 20 4 19 5 18 6 17 7 16 8 14 9 15 10 13 11
REMARK SMILES IDX 1 12 2 13 3 14 4 15 5 16 6 17 7 18 12 19 8 20 10 21 9 22
REMARK SMILES IDX 11 23 24 24 25 25 26 26 27 27 28 28 29 29 30 30 31 31 32 32
REMARK SMILES IDX 93 33 33 34 92 35 34 36 35 37 36 38 86 39 37 40 91 41 85 42
REMARK SMILES IDX 87 43 38 44 90 45 84 46 83 47 39 49 71 50 51 51 70 52 52 53
REMARK SMILES IDX 55 54 69 55 88 56 53 57 54 58 68 60 89 61 56 62 40 63 41 64
REMARK SMILES IDX 49 65 42 66 43 67 47 68 50 69 44 70 45 71 48 72 46 73 72 74
REMARK SMILES IDX 73 75 81 76 74 77 75 78 79 79 82 80 76 81 77 82 80 83 78 84
REMARK SMILES IDX 57 85 58 86 66 87 59 88 60 89 64 90 67 91 61 92 62 93 65 94
REMARK SMILES IDX 63 95
REMARK H PARENT 87 48 55 59
REMARK Flexibility Score: inf
ROOT
ATOM      1  C   UNL A   1      39.548  21.789  26.160  1.00  0.00     0.188 C 
ENDROOT
BRANCH   1   2
ATOM      2  O   UNL A   1      38.275  21.421  25.653  1.00  0.00    -0.377 OA
BRANCH   2   3
ATOM      3  C   UNL A   1      37.428  22.416  25.104  1.00  0.00     0.188 C 
BRANCH   3   4
ATOM      4  C   UNL A   1      36.392  23.092  26.011  1.00  0.00     0.188 C 
BRANCH   4   5
ATOM      5  O   UNL A   1      35.443  23.876  25.292  1.00  0.00    -0.376 OA
BRANCH   5   6
ATOM      6  C   UNL A   1      34.357  24.367  26.074  1.00  0.00     0.202 C 
BRANCH   6   7
ATOM      7  C   UNL A   1      33.423  25.251  25.245  1.00  0.00     0.261 C 
BRANCH   7   8
ATOM      8  O   UNL A   1      32.042  24.855  25.299  1.00  0.00    -0.459 OA
BRANCH   8   9
ATOM      9  C   UNL A   1      31.385  24.730  24.114  1.00  0.00     0.344 C 
ATOM     10  O   UNL A   1      30.235  24.327  24.006  1.00  0.00    -0.246 OA
BRANCH   9  11
ATOM     11  C   UNL A   1      32.167  25.227  23.007  1.00  0.00     0.130 A 
ATOM     12  C   UNL A   1      33.793  23.240  22.383  1.00  0.00     0.092 C 
ATOM     13  C   UNL A   1      33.166  24.575  22.314  1.00  0.00     0.148 A 
ATOM     14  O   UNL A   1      33.672  25.410  21.370  1.00  0.00    -0.360 OA
ATOM     15  N   UNL A   1      33.073  26.647  21.472  1.00  0.00    -0.079 NA
ATOM     16  C   UNL A   1      32.187  26.548  22.473  1.00  0.00     0.128 A 
BRANCH  16  17
ATOM     17  C   UNL A   1      31.522  27.737  22.987  1.00  0.00     0.006 A 
ATOM     18  C   UNL A   1      32.003  28.327  24.166  1.00  0.00     0.010 A 
ATOM     19  C   UNL A   1      30.411  28.282  22.341  1.00  0.00     0.026 A 
ATOM     20  C   UNL A   1      31.364  29.441  24.710  1.00  0.00     0.002 A 
ATOM     21  C   UNL A   1      29.789  29.408  22.883  1.00  0.00     0.018 A 
ATOM     22  C   UNL A   1      30.255  29.985  24.066  1.00  0.00     0.016 A 
ATOM     23  Br  UNL A   1      28.297  30.166  22.004  1.00  0.00    -0.051 Br
ENDBRANCH  16  17
ENDBRANCH   9  11
ENDBRANCH   8   9
ENDBRANCH   7   8
ENDBRANCH   6   7
ENDBRANCH   5   6
ENDBRANCH   4   5
ENDBRANCH   3   4
ENDBRANCH   2   3
ENDBRANCH   1   2
BRANCH   1  24
ATOM     24  C   UNL A   1      40.589  20.704  26.474  1.00  0.00     0.188 C 
BRANCH  24  25
ATOM     25  O   UNL A   1      41.878  21.209  26.813  1.00  0.00    -0.376 OA
BRANCH  25  26
ATOM     26  C   UNL A   1      42.964  20.675  26.061  1.00  0.00     0.202 C 
BRANCH  26  27
ATOM     27  C   UNL A   1      43.742  21.754  25.301  1.00  0.00     0.261 C 
BRANCH  27  28
ATOM     28  O   UNL A   1      42.998  22.964  25.089  1.00  0.00    -0.460 OA
BRANCH  28  29
ATOM     29  C   UNL A   1      43.710  24.111  25.087  1.00  0.00     0.338 C 
ATOM     30  O   UNL A   1      44.661  24.397  24.383  1.00  0.00    -0.246 OA
BRANCH  29  31
ATOM     31  C   UNL A   1      43.038  25.061  25.989  1.00  0.00     0.060 A 
ATOM     32  C   UNL A   1      43.548  26.362  26.089  1.00  0.00     0.016 A 
ATOM     33  C   UNL A   1      41.921  24.670  26.732  1.00  0.00     0.016 A 
ATOM     34  C   UNL A   1      42.961  27.266  26.970  1.00  0.00     0.010 A 
ATOM     35  C   UNL A   1      41.347  25.569  27.629  1.00  0.00     0.010 A 
ATOM     36  C   UNL A   1      41.888  26.857  27.775  1.00  0.00    -0.014 A 
BRANCH  36  37
ATOM     37  C   UNL A   1      41.468  27.694  28.919  1.00  0.00     0.031 A 
ATOM     38  C   UNL A   1      42.237  27.571  30.204  1.00  0.00     0.074 A 
ATOM     39  C   UNL A   1      40.420  28.529  28.827  1.00  0.00     0.049 A 
ATOM     40  N   UNL A   1      42.053  28.179  31.346  1.00  0.00    -0.248 NA
ATOM     41  C   UNL A   1      43.371  26.629  30.197  1.00  0.00     0.031 C 
ATOM     42  C   UNL A   1      39.609  28.741  27.631  1.00  0.00     0.029 A 
ATOM     43  N   UNL A   1      39.855  29.347  29.772  1.00  0.00    -0.354 N 
ATOM     44  C   UNL A   1      43.050  27.705  32.187  1.00  0.00     0.074 A 
ATOM     45  C   UNL A   1      43.821  26.739  31.437  1.00  0.00     0.031 C 
ATOM     46  C   UNL A   1      38.634  29.623  27.920  1.00  0.00     0.029 A 
ATOM     47  C   UNL A   1      38.749  30.022  29.322  1.00  0.00     0.049 A 
ATOM     48  H   UNL A   1      40.209  29.441  30.685  1.00  0.00     0.167 HD
ATOM     49  C   UNL A   1      43.304  28.050  33.470  1.00  0.00     0.037 A 
ATOM     50  C   UNL A   1      37.919  30.854  29.980  1.00  0.00     0.037 A 
ATOM     51  C   UNL A   1      42.523  28.988  34.226  1.00  0.00     0.049 A 
ATOM     52  C   UNL A   1      38.181  31.166  31.430  1.00  0.00     0.074 A 
ATOM     53  C   UNL A   1      42.706  29.416  35.527  1.00  0.00     0.029 A 
ATOM     54  N   UNL A   1      41.396  29.635  33.742  1.00  0.00    -0.354 N 
ATOM     55  N   UNL A   1      39.155  30.753  32.205  1.00  0.00    -0.248 NA
ATOM     56  C   UNL A   1      37.225  32.062  32.098  1.00  0.00     0.031 C 
ATOM     57  C   UNL A   1      41.667  30.298  35.845  1.00  0.00     0.029 A 
ATOM     58  C   UNL A   1      40.857  30.442  34.730  1.00  0.00     0.049 A 
ATOM     59  H   UNL A   1      41.033  29.535  32.833  1.00  0.00     0.167 HD
ATOM     60  C   UNL A   1      38.945  31.355  33.438  1.00  0.00     0.074 A 
ATOM     61  C   UNL A   1      37.754  32.167  33.310  1.00  0.00     0.031 C 
ATOM     62  C   UNL A   1      39.675  31.248  34.575  1.00  0.00     0.037 A 
BRANCH  49  63
ATOM     63  C   UNL A   1      44.468  27.385  34.134  1.00  0.00     0.064 A 
ATOM     64  C   UNL A   1      45.749  27.956  34.097  1.00  0.00     0.173 A 
ATOM     65  C   UNL A   1      44.303  26.171  34.815  1.00  0.00     0.173 A 
ATOM     66  F   UNL A   1      45.957  29.105  33.439  1.00  0.00    -0.203 F 
ATOM     67  C   UNL A   1      46.829  27.322  34.705  1.00  0.00     0.198 A 
ATOM     68  C   UNL A   1      45.382  25.550  35.436  1.00  0.00     0.198 A 
ATOM     69  F   UNL A   1      43.097  25.585  34.870  1.00  0.00    -0.203 F 
ATOM     70  F   UNL A   1      48.052  27.864  34.627  1.00  0.00    -0.200 F 
ATOM     71  C   UNL A   1      46.644  26.123  35.378  1.00  0.00     0.200 A 
ATOM     72  F   UNL A   1      45.203  24.392  36.087  1.00  0.00    -0.200 F 
ATOM     73  F   UNL A   1      47.686  25.514  35.960  1.00  0.00    -0.200 F 
ENDBRANCH  49  63
BRANCH  50  74
ATOM     74  C   UNL A   1      36.757  31.451  29.278  1.00  0.00     0.064 A 
ATOM     75  C   UNL A   1      35.657  30.665  28.911  1.00  0.00     0.173 A 
ATOM     76  C   UNL A   1      36.731  32.812  28.943  1.00  0.00     0.173 A 
ATOM     77  F   UNL A   1      35.650  29.353  29.188  1.00  0.00    -0.203 F 
ATOM     78  C   UNL A   1      34.579  31.215  28.220  1.00  0.00     0.198 A 
ATOM     79  C   UNL A   1      35.645  33.366  28.270  1.00  0.00     0.198 A 
ATOM     80  F   UNL A   1      37.764  33.603  29.270  1.00  0.00    -0.203 F 
ATOM     81  F   UNL A   1      33.556  30.434  27.846  1.00  0.00    -0.200 F 
ATOM     82  C   UNL A   1      34.572  32.566  27.904  1.00  0.00     0.200 A 
ATOM     83  F   UNL A   1      35.639  34.672  27.970  1.00  0.00    -0.200 F 
ATOM     84  F   UNL A   1      33.536  33.094  27.238  1.00  0.00    -0.200 F 
ENDBRANCH  50  74
BRANCH  62  85
ATOM     85  C   UNL A   1      39.224  32.045  35.760  1.00  0.00     0.064 A 
ATOM     86  C   UNL A   1      39.640  33.370  35.949  1.00  0.00     0.173 A 
ATOM     87  C   UNL A   1      38.322  31.496  36.683  1.00  0.00     0.173 A 
ATOM     88  F   UNL A   1      40.512  33.931  35.098  1.00  0.00    -0.203 F 
ATOM     89  C   UNL A   1      39.177  34.115  37.031  1.00  0.00     0.198 A 
ATOM     90  C   UNL A   1      37.847  32.250  37.752  1.00  0.00     0.198 A 
ATOM     91  F   UNL A   1      37.892  30.234  36.539  1.00  0.00    -0.203 F 
ATOM     92  F   UNL A   1      39.609  35.371  37.210  1.00  0.00    -0.200 F 
ATOM     93  C   UNL A   1      38.277  33.557  37.926  1.00  0.00     0.200 A 
ATOM     94  F   UNL A   1      36.970  31.713  38.611  1.00  0.00    -0.200 F 
ATOM     95  F   UNL A   1      37.827  34.279  38.962  1.00  0.00    -0.200 F 
ENDBRANCH  62  85
ENDBRANCH  36  37
ENDBRANCH  29  31
ENDBRANCH  28  29
ENDBRANCH  27  28
ENDBRANCH  26  27
ENDBRANCH  25  26
ENDBRANCH  24  25
ENDBRANCH   1  24
TORSDOF 21
ENDMDL
