MODEL 1
REMARK VINA RESULT:      -9.3      0.000      0.000
REMARK SMILES O=C(CC1(CC(=O)OCCOCCOCCOCCOC(=O)c2ccc(-c3c4nc(c(-c5c(F)c(F)c(F)c(F)c5F)c5ccc([nH]5)c(-c5c(F)c(F)c(F)c(F)c5F)c5nc(c(-c6c(F)c(F)c(F)c(F)c6F)c6ccc3[nH]6)C=C5)C=C4)cc2)CCCCC1)NNC(=O)C1CC1
REMARK SMILES IDX 12 1 11 2 10 3 9 4 8 5 6 6 7 7 5 8 4 9 86 10 90 11 87 12
REMARK SMILES IDX 89 13 88 14 3 15 2 16 1 17 91 18 92 20 93 21 94 23 95 24
REMARK SMILES IDX 96 25 97 26 13 27 14 28 15 29 16 30 17 31 18 32 19 33 20 34
REMARK SMILES IDX 21 35 22 36 23 37 24 38 85 39 25 40 84 41 26 42 27 43 28 44
REMARK SMILES IDX 78 45 29 46 83 47 77 48 79 49 30 50 82 51 76 52 75 53 31 55
REMARK SMILES IDX 63 56 43 57 62 58 44 59 47 60 61 61 80 62 45 63 46 64 60 66
REMARK SMILES IDX 81 67 48 68 32 69 33 70 41 71 34 72 35 73 39 74 42 75 36 76
REMARK SMILES IDX 37 77 40 78 38 79 64 80 65 81 73 82 66 83 67 84 71 85 74 86
REMARK SMILES IDX 68 87 69 88 72 89 70 90 49 91 50 92 58 93 51 94 52 95 56 96
REMARK SMILES IDX 59 97 53 98 54 99 57 100 55 101
REMARK H PARENT 91 19 92 22 79 54 47 65
REMARK Flexibility Score: inf
ROOT
ATOM      1  C   UNL A   1      35.855  32.613  28.012  1.00  0.00     0.188 C 
ENDROOT
BRANCH   1   2
ATOM      2  O   UNL A   1      34.536  32.551  27.483  1.00  0.00    -0.376 OA
BRANCH   2   3
ATOM      3  C   UNL A   1      33.690  31.453  27.785  1.00  0.00     0.202 C 
BRANCH   3   4
ATOM      4  C   UNL A   1      34.074  30.054  27.272  1.00  0.00     0.261 C 
BRANCH   4   5
ATOM      5  O   UNL A   1      33.246  29.471  26.239  1.00  0.00    -0.463 OA
BRANCH   5   6
ATOM      6  C   UNL A   1      32.273  28.635  26.666  1.00  0.00     0.306 C 
ATOM      7  O   UNL A   1      32.125  28.314  27.844  1.00  0.00    -0.252 OA
BRANCH   6   8
ATOM      8  C   UNL A   1      31.399  27.998  25.588  1.00  0.00     0.130 C 
BRANCH   8   9
ATOM      9  C   UNL A   1      31.402  26.518  25.052  1.00  0.00    -0.010 C 
ATOM     10  C   UNL A   1      32.865  25.992  25.265  1.00  0.00     0.008 C 
ATOM     11  C   UNL A   1      31.072  26.384  23.543  1.00  0.00     0.008 C 
ATOM     12  C   UNL A   1      33.909  26.580  24.313  1.00  0.00     0.001 C 
ATOM     13  C   UNL A   1      32.097  27.037  22.625  1.00  0.00     0.001 C 
ATOM     14  C   UNL A   1      33.485  26.456  22.856  1.00  0.00     0.000 C 
BRANCH   9  15
ATOM     15  C   UNL A   1      30.384  25.628  25.858  1.00  0.00     0.109 C 
BRANCH  15  16
ATOM     16  C   UNL A   1      30.861  24.260  26.324  1.00  0.00     0.238 C 
ATOM     17  O   UNL A   1      31.554  24.122  27.329  1.00  0.00    -0.273 OA
ATOM     18  N   UNL A   1      30.471  23.199  25.524  1.00  0.00    -0.268 N 
ATOM     19  H   UNL A   1      29.875  23.330  24.752  1.00  0.00     0.191 HD
BRANCH  18  20
ATOM     20  N   UNL A   1      30.958  21.939  25.859  1.00  0.00    -0.267 N 
ATOM     21  C   UNL A   1      31.900  21.224  25.160  1.00  0.00     0.241 C 
ATOM     22  H   UNL A   1      30.593  21.521  26.673  1.00  0.00     0.191 HD
ATOM     23  O   UNL A   1      32.391  20.208  25.644  1.00  0.00    -0.273 OA
BRANCH  21  24
ATOM     24  C   UNL A   1      32.293  21.606  23.776  1.00  0.00     0.080 C 
ATOM     25  C   UNL A   1      31.914  22.837  22.999  1.00  0.00     0.014 C 
ATOM     26  C   UNL A   1      33.265  22.764  23.636  1.00  0.00     0.014 C 
ENDBRANCH  21  24
ENDBRANCH  18  20
ENDBRANCH  15  16
ENDBRANCH   9  15
ENDBRANCH   8   9
ENDBRANCH   6   8
ENDBRANCH   5   6
ENDBRANCH   4   5
ENDBRANCH   3   4
ENDBRANCH   2   3
ENDBRANCH   1   2
BRANCH   1  27
ATOM     27  C   UNL A   1      36.173  33.516  29.211  1.00  0.00     0.188 C 
BRANCH  27  28
ATOM     28  O   UNL A   1      35.119  34.333  29.661  1.00  0.00    -0.377 OA
BRANCH  28  29
ATOM     29  C   UNL A   1      34.471  33.992  30.870  1.00  0.00     0.188 C 
BRANCH  29  30
ATOM     30  C   UNL A   1      34.556  32.553  31.391  1.00  0.00     0.188 C 
BRANCH  30  31
ATOM     31  O   UNL A   1      35.261  32.419  32.624  1.00  0.00    -0.376 OA
BRANCH  31  32
ATOM     32  C   UNL A   1      36.229  31.380  32.715  1.00  0.00     0.202 C 
BRANCH  32  33
ATOM     33  C   UNL A   1      36.419  30.567  31.426  1.00  0.00     0.261 C 
BRANCH  33  34
ATOM     34  O   UNL A   1      36.644  29.161  31.613  1.00  0.00    -0.460 OA
BRANCH  34  35
ATOM     35  C   UNL A   1      37.808  28.801  32.197  1.00  0.00     0.338 C 
ATOM     36  O   UNL A   1      38.007  27.849  32.929  1.00  0.00    -0.246 OA
BRANCH  35  37
ATOM     37  C   UNL A   1      38.872  29.663  31.653  1.00  0.00     0.060 A 
ATOM     38  C   UNL A   1      38.981  29.796  30.262  1.00  0.00     0.016 A 
ATOM     39  C   UNL A   1      39.740  30.346  32.507  1.00  0.00     0.016 A 
ATOM     40  C   UNL A   1      39.985  30.596  29.720  1.00  0.00     0.010 A 
ATOM     41  C   UNL A   1      40.761  31.127  31.964  1.00  0.00     0.010 A 
ATOM     42  C   UNL A   1      40.905  31.229  30.568  1.00  0.00    -0.014 A 
BRANCH  42  43
ATOM     43  C   UNL A   1      42.140  31.811  29.997  1.00  0.00     0.031 A 
ATOM     44  C   UNL A   1      43.214  30.869  29.536  1.00  0.00     0.074 A 
ATOM     45  C   UNL A   1      42.299  33.139  29.879  1.00  0.00     0.049 A 
ATOM     46  N   UNL A   1      44.386  31.130  29.017  1.00  0.00    -0.248 NA
ATOM     47  C   UNL A   1      42.926  29.434  29.689  1.00  0.00     0.031 C 
ATOM     48  C   UNL A   1      41.317  34.147  30.266  1.00  0.00     0.029 A 
ATOM     49  N   UNL A   1      43.364  33.865  29.406  1.00  0.00    -0.354 N 
ATOM     50  C   UNL A   1      44.969  29.894  28.773  1.00  0.00     0.074 A 
ATOM     51  C   UNL A   1      44.042  28.885  29.236  1.00  0.00     0.031 C 
ATOM     52  C   UNL A   1      41.832  35.367  30.029  1.00  0.00     0.029 A 
ATOM     53  C   UNL A   1      43.187  35.222  29.498  1.00  0.00     0.049 A 
ATOM     54  H   UNL A   1      44.177  33.450  29.036  1.00  0.00     0.167 HD
ATOM     55  C   UNL A   1      46.167  29.623  28.204  1.00  0.00     0.037 A 
ATOM     56  C   UNL A   1      44.033  36.228  29.202  1.00  0.00     0.037 A 
ATOM     57  C   UNL A   1      47.097  30.630  27.770  1.00  0.00     0.049 A 
ATOM     58  C   UNL A   1      45.395  35.905  28.641  1.00  0.00     0.074 A 
ATOM     59  C   UNL A   1      48.334  30.465  27.174  1.00  0.00     0.029 A 
ATOM     60  N   UNL A   1      46.896  31.996  27.906  1.00  0.00    -0.354 N 
ATOM     61  N   UNL A   1      45.926  34.737  28.373  1.00  0.00    -0.248 NA
ATOM     62  C   UNL A   1      46.273  37.044  28.336  1.00  0.00     0.031 C 
ATOM     63  C   UNL A   1      48.905  31.731  26.998  1.00  0.00     0.029 A 
ATOM     64  C   UNL A   1      48.000  32.687  27.433  1.00  0.00     0.049 A 
ATOM     65  H   UNL A   1      46.088  32.415  28.284  1.00  0.00     0.167 HD
ATOM     66  C   UNL A   1      47.186  34.997  27.848  1.00  0.00     0.074 A 
ATOM     67  C   UNL A   1      47.335  36.437  27.823  1.00  0.00     0.031 C 
ATOM     68  C   UNL A   1      48.132  34.123  27.420  1.00  0.00     0.037 A 
BRANCH  55  69
ATOM     69  C   UNL A   1      46.544  28.178  28.063  1.00  0.00     0.064 A 
ATOM     70  C   UNL A   1      46.228  27.443  26.910  1.00  0.00     0.173 A 
ATOM     71  C   UNL A   1      47.211  27.514  29.103  1.00  0.00     0.173 A 
ATOM     72  F   UNL A   1      45.571  28.026  25.896  1.00  0.00    -0.203 F 
ATOM     73  C   UNL A   1      46.533  26.087  26.819  1.00  0.00     0.198 A 
ATOM     74  C   UNL A   1      47.542  26.166  28.995  1.00  0.00     0.198 A 
ATOM     75  F   UNL A   1      47.533  28.171  30.228  1.00  0.00    -0.203 F 
ATOM     76  F   UNL A   1      46.164  25.390  25.735  1.00  0.00    -0.200 F 
ATOM     77  C   UNL A   1      47.194  25.451  27.860  1.00  0.00     0.200 A 
ATOM     78  F   UNL A   1      48.186  25.555  30.000  1.00  0.00    -0.200 F 
ATOM     79  F   UNL A   1      47.480  24.145  27.774  1.00  0.00    -0.200 F 
ENDBRANCH  55  69
BRANCH  56  80
ATOM     80  C   UNL A   1      43.617  37.633  29.439  1.00  0.00     0.064 A 
ATOM     81  C   UNL A   1      44.013  38.323  30.594  1.00  0.00     0.173 A 
ATOM     82  C   UNL A   1      42.818  38.319  28.512  1.00  0.00     0.173 A 
ATOM     83  F   UNL A   1      44.755  37.703  31.523  1.00  0.00    -0.203 F 
ATOM     84  C   UNL A   1      43.618  39.641  30.815  1.00  0.00     0.198 A 
ATOM     85  C   UNL A   1      42.445  39.644  28.722  1.00  0.00     0.198 A 
ATOM     86  F   UNL A   1      42.410  37.703  27.393  1.00  0.00    -0.203 F 
ATOM     87  F   UNL A   1      43.980  40.266  31.943  1.00  0.00    -0.200 F 
ATOM     88  C   UNL A   1      42.840  40.303  29.875  1.00  0.00     0.200 A 
ATOM     89  F   UNL A   1      41.705  40.283  27.805  1.00  0.00    -0.200 F 
ATOM     90  F   UNL A   1      42.471  41.574  30.084  1.00  0.00    -0.200 F 
ENDBRANCH  56  80
BRANCH  68  91
ATOM     91  C   UNL A   1      49.403  34.697  26.865  1.00  0.00     0.064 A 
ATOM     92  C   UNL A   1      50.572  34.779  27.634  1.00  0.00     0.173 A 
ATOM     93  C   UNL A   1      49.466  35.120  25.527  1.00  0.00     0.173 A 
ATOM     94  F   UNL A   1      50.562  34.401  28.922  1.00  0.00    -0.203 F 
ATOM     95  C   UNL A   1      51.752  35.284  27.092  1.00  0.00     0.198 A 
ATOM     96  C   UNL A   1      50.654  35.595  24.980  1.00  0.00     0.198 A 
ATOM     97  F   UNL A   1      48.378  35.053  24.746  1.00  0.00    -0.203 F 
ATOM     98  F   UNL A   1      52.846  35.393  27.858  1.00  0.00    -0.200 F 
ATOM     99  C   UNL A   1      51.795  35.682  25.764  1.00  0.00     0.200 A 
ATOM    100  F   UNL A   1      50.697  35.966  23.693  1.00  0.00    -0.200 F 
ATOM    101  F   UNL A   1      52.933  36.158  25.241  1.00  0.00    -0.200 F 
ENDBRANCH  68  91
ENDBRANCH  42  43
ENDBRANCH  35  37
ENDBRANCH  34  35
ENDBRANCH  33  34
ENDBRANCH  32  33
ENDBRANCH  31  32
ENDBRANCH  30  31
ENDBRANCH  29  30
ENDBRANCH  28  29
ENDBRANCH  27  28
ENDBRANCH   1  27
TORSDOF 25
ENDMDL
MODEL 2
REMARK VINA RESULT:      -9.2      6.151     12.234
REMARK SMILES O=C(CC1(CC(=O)OCCOCCOCCOCCOC(=O)c2ccc(-c3c4nc(c(-c5c(F)c(F)c(F)c(F)c5F)c5ccc([nH]5)c(-c5c(F)c(F)c(F)c(F)c5F)c5nc(c(-c6c(F)c(F)c(F)c(F)c6F)c6ccc3[nH]6)C=C5)C=C4)cc2)CCCCC1)NNC(=O)C1CC1
REMARK SMILES IDX 12 1 11 2 10 3 9 4 8 5 6 6 7 7 5 8 4 9 86 10 90 11 87 12
REMARK SMILES IDX 89 13 88 14 3 15 2 16 1 17 91 18 92 20 93 21 94 23 95 24
REMARK SMILES IDX 96 25 97 26 13 27 14 28 15 29 16 30 17 31 18 32 19 33 20 34
REMARK SMILES IDX 21 35 22 36 23 37 24 38 85 39 25 40 84 41 26 42 27 43 28 44
REMARK SMILES IDX 78 45 29 46 83 47 77 48 79 49 30 50 82 51 76 52 75 53 31 55
REMARK SMILES IDX 63 56 43 57 62 58 44 59 47 60 61 61 80 62 45 63 46 64 60 66
REMARK SMILES IDX 81 67 48 68 32 69 33 70 41 71 34 72 35 73 39 74 42 75 36 76
REMARK SMILES IDX 37 77 40 78 38 79 64 80 65 81 73 82 66 83 67 84 71 85 74 86
REMARK SMILES IDX 68 87 69 88 72 89 70 90 49 91 50 92 58 93 51 94 52 95 56 96
REMARK SMILES IDX 59 97 53 98 54 99 57 100 55 101
REMARK H PARENT 91 19 92 22 79 54 47 65
REMARK Flexibility Score: inf
ROOT
ATOM      1  C   UNL A   1      39.927  34.909  34.421  1.00  0.00     0.188 C 
ENDROOT
BRANCH   1   2
ATOM      2  O   UNL A   1      39.257  35.164  33.192  1.00  0.00    -0.376 OA
BRANCH   2   3
ATOM      3  C   UNL A   1      39.368  34.255  32.110  1.00  0.00     0.202 C 
BRANCH   3   4
ATOM      4  C   UNL A   1      40.755  33.700  31.743  1.00  0.00     0.261 C 
BRANCH   4   5
ATOM      5  O   UNL A   1      41.784  34.653  31.389  1.00  0.00    -0.463 OA
BRANCH   5   6
ATOM      6  C   UNL A   1      42.204  34.617  30.105  1.00  0.00     0.306 C 
ATOM      7  O   UNL A   1      41.490  34.918  29.150  1.00  0.00    -0.252 OA
BRANCH   6   8
ATOM      8  C   UNL A   1      43.609  34.070  29.861  1.00  0.00     0.130 C 
BRANCH   8   9
ATOM      9  C   UNL A   1      44.055  32.803  29.041  1.00  0.00    -0.010 C 
ATOM     10  C   UNL A   1      43.092  31.648  29.487  1.00  0.00     0.008 C 
ATOM     11  C   UNL A   1      45.507  32.336  29.323  1.00  0.00     0.008 C 
ATOM     12  C   UNL A   1      43.341  31.105  30.897  1.00  0.00     0.001 C 
ATOM     13  C   UNL A   1      45.738  31.865  30.753  1.00  0.00     0.001 C 
ATOM     14  C   UNL A   1      44.799  30.720  31.108  1.00  0.00     0.000 C 
BRANCH   9  15
ATOM     15  C   UNL A   1      43.913  33.059  27.495  1.00  0.00     0.109 C 
BRANCH  15  16
ATOM     16  C   UNL A   1      44.403  34.394  26.955  1.00  0.00     0.238 C 
ATOM     17  O   UNL A   1      45.597  34.619  26.765  1.00  0.00    -0.273 OA
ATOM     18  N   UNL A   1      43.411  35.330  26.715  1.00  0.00    -0.268 N 
ATOM     19  H   UNL A   1      42.458  35.108  26.828  1.00  0.00     0.191 HD
BRANCH  18  20
ATOM     20  N   UNL A   1      43.819  36.597  26.306  1.00  0.00    -0.267 N 
ATOM     21  C   UNL A   1      43.885  37.719  27.096  1.00  0.00     0.241 C 
ATOM     22  H   UNL A   1      44.083  36.698  25.363  1.00  0.00     0.191 HD
ATOM     23  O   UNL A   1      44.433  38.736  26.681  1.00  0.00    -0.273 OA
BRANCH  21  24
ATOM     24  C   UNL A   1      43.232  37.765  28.433  1.00  0.00     0.080 C 
ATOM     25  C   UNL A   1      43.868  37.969  29.781  1.00  0.00     0.014 C 
ATOM     26  C   UNL A   1      43.175  39.118  29.120  1.00  0.00     0.014 C 
ENDBRANCH  21  24
ENDBRANCH  18  20
ENDBRANCH  15  16
ENDBRANCH   9  15
ENDBRANCH   8   9
ENDBRANCH   6   8
ENDBRANCH   5   6
ENDBRANCH   4   5
ENDBRANCH   3   4
ENDBRANCH   2   3
ENDBRANCH   1   2
BRANCH   1  27
ATOM     27  C   UNL A   1      40.596  36.051  35.197  1.00  0.00     0.188 C 
BRANCH  27  28
ATOM     28  O   UNL A   1      39.945  36.455  36.377  1.00  0.00    -0.377 OA
BRANCH  28  29
ATOM     29  C   UNL A   1      40.648  36.367  37.600  1.00  0.00     0.188 C 
BRANCH  29  30
ATOM     30  C   UNL A   1      40.086  37.063  38.845  1.00  0.00     0.188 C 
BRANCH  30  31
ATOM     31  O   UNL A   1      38.879  36.487  39.340  1.00  0.00    -0.376 OA
BRANCH  31  32
ATOM     32  C   UNL A   1      38.834  36.147  40.722  1.00  0.00     0.202 C 
BRANCH  32  33
ATOM     33  C   UNL A   1      38.118  34.824  41.032  1.00  0.00     0.261 C 
BRANCH  33  34
ATOM     34  O   UNL A   1      38.484  33.716  40.196  1.00  0.00    -0.460 OA
BRANCH  34  35
ATOM     35  C   UNL A   1      37.482  32.921  39.760  1.00  0.00     0.338 C 
ATOM     36  O   UNL A   1      36.395  32.745  40.279  1.00  0.00    -0.246 OA
BRANCH  35  37
ATOM     37  C   UNL A   1      37.852  32.422  38.423  1.00  0.00     0.060 A 
ATOM     38  C   UNL A   1      37.438  31.138  38.049  1.00  0.00     0.016 A 
ATOM     39  C   UNL A   1      38.583  33.224  37.543  1.00  0.00     0.016 A 
ATOM     40  C   UNL A   1      37.782  30.637  36.794  1.00  0.00     0.010 A 
ATOM     41  C   UNL A   1      38.950  32.712  36.298  1.00  0.00     0.010 A 
ATOM     42  C   UNL A   1      38.576  31.406  35.932  1.00  0.00    -0.014 A 
BRANCH  42  43
ATOM     43  C   UNL A   1      39.198  30.766  34.752  1.00  0.00     0.031 A 
ATOM     44  C   UNL A   1      38.527  30.940  33.420  1.00  0.00     0.074 A 
ATOM     45  C   UNL A   1      40.334  30.057  34.857  1.00  0.00     0.049 A 
ATOM     46  N   UNL A   1      38.866  30.470  32.248  1.00  0.00    -0.248 NA
ATOM     47  C   UNL A   1      37.302  31.755  33.415  1.00  0.00     0.031 C 
ATOM     48  C   UNL A   1      41.087  29.843  36.089  1.00  0.00     0.029 A 
ATOM     49  N   UNL A   1      41.045  29.375  33.900  1.00  0.00    -0.354 N 
ATOM     50  C   UNL A   1      37.902  30.940  31.366  1.00  0.00     0.074 A 
ATOM     51  C   UNL A   1      36.945  31.697  32.142  1.00  0.00     0.031 C 
ATOM     52  C   UNL A   1      42.151  29.065  35.817  1.00  0.00     0.029 A 
ATOM     53  C   UNL A   1      42.136  28.709  34.398  1.00  0.00     0.049 A 
ATOM     54  H   UNL A   1      40.794  29.366  32.948  1.00  0.00     0.167 HD
ATOM     55  C   UNL A   1      37.826  30.763  30.026  1.00  0.00     0.037 A 
ATOM     56  C   UNL A   1      43.009  27.893  33.777  1.00  0.00     0.037 A 
ATOM     57  C   UNL A   1      38.765  29.987  29.263  1.00  0.00     0.049 A 
ATOM     58  C   UNL A   1      42.864  27.646  32.296  1.00  0.00     0.074 A 
ATOM     59  C   UNL A   1      38.786  29.750  27.900  1.00  0.00     0.029 A 
ATOM     60  N   UNL A   1      39.843  29.301  29.805  1.00  0.00    -0.354 N 
ATOM     61  N   UNL A   1      41.976  28.125  31.459  1.00  0.00    -0.248 NA
ATOM     62  C   UNL A   1      43.848  26.748  31.674  1.00  0.00     0.031 C 
ATOM     63  C   UNL A   1      39.846  28.878  27.626  1.00  0.00     0.029 A 
ATOM     64  C   UNL A   1      40.519  28.616  28.810  1.00  0.00     0.049 A 
ATOM     65  H   UNL A   1      40.091  29.301  30.759  1.00  0.00     0.167 HD
ATOM     66  C   UNL A   1      42.304  27.609  30.211  1.00  0.00     0.074 A 
ATOM     67  C   UNL A   1      43.483  26.788  30.400  1.00  0.00     0.031 C 
ATOM     68  C   UNL A   1      41.689  27.800  29.017  1.00  0.00     0.037 A 
BRANCH  55  69
ATOM     69  C   UNL A   1      36.662  31.393  29.320  1.00  0.00     0.064 A 
ATOM     70  C   UNL A   1      36.593  32.777  29.104  1.00  0.00     0.173 A 
ATOM     71  C   UNL A   1      35.592  30.604  28.873  1.00  0.00     0.173 A 
ATOM     72  F   UNL A   1      37.580  33.579  29.532  1.00  0.00    -0.203 F 
ATOM     73  C   UNL A   1      35.478  33.353  28.499  1.00  0.00     0.198 A 
ATOM     74  C   UNL A   1      34.493  31.180  28.241  1.00  0.00     0.198 A 
ATOM     75  F   UNL A   1      35.608  29.275  29.058  1.00  0.00    -0.203 F 
ATOM     76  F   UNL A   1      35.405  34.685  28.361  1.00  0.00    -0.200 F 
ATOM     77  C   UNL A   1      34.431  32.553  28.064  1.00  0.00     0.200 A 
ATOM     78  F   UNL A   1      33.486  30.404  27.816  1.00  0.00    -0.200 F 
ATOM     79  F   UNL A   1      33.357  33.109  27.489  1.00  0.00    -0.200 F 
ENDBRANCH  55  69
BRANCH  56  80
ATOM     80  C   UNL A   1      44.094  27.245  34.557  1.00  0.00     0.064 A 
ATOM     81  C   UNL A   1      45.366  27.826  34.654  1.00  0.00     0.173 A 
ATOM     82  C   UNL A   1      43.878  26.032  35.229  1.00  0.00     0.173 A 
ATOM     83  F   UNL A   1      45.629  28.972  34.008  1.00  0.00    -0.203 F 
ATOM     84  C   UNL A   1      46.382  27.214  35.384  1.00  0.00     0.198 A 
ATOM     85  C   UNL A   1      44.887  25.434  35.979  1.00  0.00     0.198 A 
ATOM     86  F   UNL A   1      42.679  25.434  35.165  1.00  0.00    -0.203 F 
ATOM     87  F   UNL A   1      47.599  27.771  35.432  1.00  0.00    -0.200 F 
ATOM     88  C   UNL A   1      46.140  26.022  36.053  1.00  0.00     0.200 A 
ATOM     89  F   UNL A   1      44.644  24.290  36.634  1.00  0.00    -0.200 F 
ATOM     90  F   UNL A   1      47.116  25.440  36.764  1.00  0.00    -0.200 F 
ENDBRANCH  56  80
BRANCH  68  91
ATOM     91  C   UNL A   1      42.291  27.133  27.814  1.00  0.00     0.064 A 
ATOM     92  C   UNL A   1      43.263  27.768  27.028  1.00  0.00     0.173 A 
ATOM     93  C   UNL A   1      41.930  25.819  27.477  1.00  0.00     0.173 A 
ATOM     94  F   UNL A   1      43.634  29.029  27.300  1.00  0.00    -0.203 F 
ATOM     95  C   UNL A   1      43.835  27.120  25.935  1.00  0.00     0.198 A 
ATOM     96  C   UNL A   1      42.526  25.164  26.403  1.00  0.00     0.198 A 
ATOM     97  F   UNL A   1      41.012  25.163  28.202  1.00  0.00    -0.203 F 
ATOM     98  F   UNL A   1      44.731  27.762  25.173  1.00  0.00    -0.200 F 
ATOM     99  C   UNL A   1      43.473  25.817  25.629  1.00  0.00     0.200 A 
ATOM    100  F   UNL A   1      42.185  23.900  26.118  1.00  0.00    -0.200 F 
ATOM    101  F   UNL A   1      44.032  25.192  24.584  1.00  0.00    -0.200 F 
ENDBRANCH  68  91
ENDBRANCH  42  43
ENDBRANCH  35  37
ENDBRANCH  34  35
ENDBRANCH  33  34
ENDBRANCH  32  33
ENDBRANCH  31  32
ENDBRANCH  30  31
ENDBRANCH  29  30
ENDBRANCH  28  29
ENDBRANCH  27  28
ENDBRANCH   1  27
TORSDOF 25
ENDMDL
MODEL 3
REMARK VINA RESULT:      -8.9      0.736      2.068
REMARK SMILES O=C(CC1(CC(=O)OCCOCCOCCOCCOC(=O)c2ccc(-c3c4nc(c(-c5c(F)c(F)c(F)c(F)c5F)c5ccc([nH]5)c(-c5c(F)c(F)c(F)c(F)c5F)c5nc(c(-c6c(F)c(F)c(F)c(F)c6F)c6ccc3[nH]6)C=C5)C=C4)cc2)CCCCC1)NNC(=O)C1CC1
REMARK SMILES IDX 12 1 11 2 10 3 9 4 8 5 6 6 7 7 5 8 4 9 86 10 90 11 87 12
REMARK SMILES IDX 89 13 88 14 3 15 2 16 1 17 91 18 92 20 93 21 94 23 95 24
REMARK SMILES IDX 96 25 97 26 13 27 14 28 15 29 16 30 17 31 18 32 19 33 20 34
REMARK SMILES IDX 21 35 22 36 23 37 24 38 85 39 25 40 84 41 26 42 27 43 28 44
REMARK SMILES IDX 78 45 29 46 83 47 77 48 79 49 30 50 82 51 76 52 75 53 31 55
REMARK SMILES IDX 63 56 43 57 62 58 44 59 47 60 61 61 80 62 45 63 46 64 60 66
REMARK SMILES IDX 81 67 48 68 32 69 33 70 41 71 34 72 35 73 39 74 42 75 36 76
REMARK SMILES IDX 37 77 40 78 38 79 64 80 65 81 73 82 66 83 67 84 71 85 74 86
REMARK SMILES IDX 68 87 69 88 72 89 70 90 49 91 50 92 58 93 51 94 52 95 56 96
REMARK SMILES IDX 59 97 53 98 54 99 57 100 55 101
REMARK H PARENT 91 19 92 22 79 54 47 65
REMARK Flexibility Score: inf
ROOT
ATOM      1  C   UNL A   1      35.245  32.832  27.995  1.00  0.00     0.188 C 
ENDROOT
BRANCH   1   2
ATOM      2  O   UNL A   1      34.013  32.138  28.156  1.00  0.00    -0.376 OA
BRANCH   2   3
ATOM      3  C   UNL A   1      33.738  30.975  27.393  1.00  0.00     0.202 C 
BRANCH   3   4
ATOM      4  C   UNL A   1      32.297  30.719  26.919  1.00  0.00     0.261 C 
BRANCH   4   5
ATOM      5  O   UNL A   1      31.932  29.357  26.596  1.00  0.00    -0.463 OA
BRANCH   5   6
ATOM      6  C   UNL A   1      31.400  29.165  25.368  1.00  0.00     0.306 C 
ATOM      7  O   UNL A   1      30.755  30.023  24.768  1.00  0.00    -0.252 OA
BRANCH   6   8
ATOM      8  C   UNL A   1      31.542  27.765  24.773  1.00  0.00     0.130 C 
BRANCH   8   9
ATOM      9  C   UNL A   1      32.838  26.893  24.582  1.00  0.00    -0.010 C 
ATOM     10  C   UNL A   1      34.022  27.913  24.454  1.00  0.00     0.008 C 
ATOM     11  C   UNL A   1      32.836  26.017  23.303  1.00  0.00     0.008 C 
ATOM     12  C   UNL A   1      34.073  28.685  23.134  1.00  0.00     0.001 C 
ATOM     13  C   UNL A   1      32.819  26.815  22.006  1.00  0.00     0.001 C 
ATOM     14  C   UNL A   1      34.013  27.756  21.929  1.00  0.00     0.000 C 
BRANCH   9  15
ATOM     15  C   UNL A   1      33.067  25.951  25.822  1.00  0.00     0.109 C 
BRANCH  15  16
ATOM     16  C   UNL A   1      32.297  24.640  25.861  1.00  0.00     0.238 C 
ATOM     17  O   UNL A   1      31.069  24.609  25.915  1.00  0.00    -0.273 OA
ATOM     18  N   UNL A   1      33.080  23.498  25.846  1.00  0.00    -0.268 N 
ATOM     19  H   UNL A   1      34.059  23.548  25.751  1.00  0.00     0.191 HD
BRANCH  18  20
ATOM     20  N   UNL A   1      32.425  22.276  25.970  1.00  0.00    -0.267 N 
ATOM     21  C   UNL A   1      32.349  21.298  25.009  1.00  0.00     0.241 C 
ATOM     22  H   UNL A   1      31.973  22.097  26.827  1.00  0.00     0.191 HD
ATOM     23  O   UNL A   1      31.906  20.188  25.290  1.00  0.00    -0.273 OA
BRANCH  21  24
ATOM     24  C   UNL A   1      32.720  21.571  23.594  1.00  0.00     0.080 C 
ATOM     25  C   UNL A   1      32.038  21.104  22.337  1.00  0.00     0.014 C 
ATOM     26  C   UNL A   1      31.809  22.503  22.815  1.00  0.00     0.014 C 
ENDBRANCH  21  24
ENDBRANCH  18  20
ENDBRANCH  15  16
ENDBRANCH   9  15
ENDBRANCH   8   9
ENDBRANCH   6   8
ENDBRANCH   5   6
ENDBRANCH   4   5
ENDBRANCH   3   4
ENDBRANCH   2   3
ENDBRANCH   1   2
BRANCH   1  27
ATOM     27  C   UNL A   1      35.992  33.387  29.214  1.00  0.00     0.188 C 
BRANCH  27  28
ATOM     28  O   UNL A   1      35.339  34.418  29.917  1.00  0.00    -0.377 OA
BRANCH  28  29
ATOM     29  C   UNL A   1      34.883  34.155  31.228  1.00  0.00     0.188 C 
BRANCH  29  30
ATOM     30  C   UNL A   1      34.595  32.710  31.651  1.00  0.00     0.188 C 
BRANCH  30  31
ATOM     31  O   UNL A   1      35.244  32.315  32.859  1.00  0.00    -0.376 OA
BRANCH  31  32
ATOM     32  C   UNL A   1      36.282  31.346  32.758  1.00  0.00     0.202 C 
BRANCH  32  33
ATOM     33  C   UNL A   1      36.339  30.607  31.413  1.00  0.00     0.261 C 
BRANCH  33  34
ATOM     34  O   UNL A   1      36.637  29.205  31.494  1.00  0.00    -0.460 OA
BRANCH  34  35
ATOM     35  C   UNL A   1      37.784  28.858  32.118  1.00  0.00     0.338 C 
ATOM     36  O   UNL A   1      37.967  27.914  32.865  1.00  0.00    -0.246 OA
BRANCH  35  37
ATOM     37  C   UNL A   1      38.858  29.723  31.600  1.00  0.00     0.060 A 
ATOM     38  C   UNL A   1      38.982  29.882  30.214  1.00  0.00     0.016 A 
ATOM     39  C   UNL A   1      39.723  30.384  32.476  1.00  0.00     0.016 A 
ATOM     40  C   UNL A   1      39.996  30.686  29.697  1.00  0.00     0.010 A 
ATOM     41  C   UNL A   1      40.754  31.168  31.957  1.00  0.00     0.010 A 
ATOM     42  C   UNL A   1      40.911  31.296  30.565  1.00  0.00    -0.014 A 
BRANCH  42  43
ATOM     43  C   UNL A   1      42.155  31.881  30.016  1.00  0.00     0.031 A 
ATOM     44  C   UNL A   1      43.240  30.941  29.575  1.00  0.00     0.074 A 
ATOM     45  C   UNL A   1      42.315  33.210  29.903  1.00  0.00     0.049 A 
ATOM     46  N   UNL A   1      44.420  31.205  29.077  1.00  0.00    -0.248 NA
ATOM     47  C   UNL A   1      42.952  29.506  29.722  1.00  0.00     0.031 C 
ATOM     48  C   UNL A   1      41.323  34.215  30.272  1.00  0.00     0.029 A 
ATOM     49  N   UNL A   1      43.387  33.938  29.449  1.00  0.00    -0.354 N 
ATOM     50  C   UNL A   1      45.010  29.970  28.843  1.00  0.00     0.074 A 
ATOM     51  C   UNL A   1      44.076  28.959  29.289  1.00  0.00     0.031 C 
ATOM     52  C   UNL A   1      41.840  35.437  30.046  1.00  0.00     0.029 A 
ATOM     53  C   UNL A   1      43.205  35.294  29.539  1.00  0.00     0.049 A 
ATOM     54  H   UNL A   1      44.207  33.525  29.094  1.00  0.00     0.167 HD
ATOM     55  C   UNL A   1      46.219  29.702  28.296  1.00  0.00     0.037 A 
ATOM     56  C   UNL A   1      44.055  36.302  29.259  1.00  0.00     0.037 A 
ATOM     57  C   UNL A   1      47.154  30.711  27.879  1.00  0.00     0.049 A 
ATOM     58  C   UNL A   1      45.427  35.982  28.722  1.00  0.00     0.074 A 
ATOM     59  C   UNL A   1      48.402  30.549  27.305  1.00  0.00     0.029 A 
ATOM     60  N   UNL A   1      46.949  32.076  28.012  1.00  0.00    -0.354 N 
ATOM     61  N   UNL A   1      45.965  34.815  28.464  1.00  0.00    -0.248 NA
ATOM     62  C   UNL A   1      46.309  37.123  28.434  1.00  0.00     0.031 C 
ATOM     63  C   UNL A   1      48.974  31.815  27.141  1.00  0.00     0.029 A 
ATOM     64  C   UNL A   1      48.059  32.770  27.560  1.00  0.00     0.049 A 
ATOM     65  H   UNL A   1      46.133  32.493  28.375  1.00  0.00     0.167 HD
ATOM     66  C   UNL A   1      47.234  35.077  27.961  1.00  0.00     0.074 A 
ATOM     67  C   UNL A   1      47.381  36.518  27.940  1.00  0.00     0.031 C 
ATOM     68  C   UNL A   1      48.189  34.205  27.550  1.00  0.00     0.037 A 
BRANCH  55  69
ATOM     69  C   UNL A   1      46.601  28.257  28.161  1.00  0.00     0.064 A 
ATOM     70  C   UNL A   1      47.374  27.605  29.134  1.00  0.00     0.173 A 
ATOM     71  C   UNL A   1      46.205  27.521  27.035  1.00  0.00     0.173 A 
ATOM     72  F   UNL A   1      47.797  28.271  30.219  1.00  0.00    -0.203 F 
ATOM     73  C   UNL A   1      47.768  26.280  28.965  1.00  0.00     0.198 A 
ATOM     74  C   UNL A   1      46.574  26.187  26.885  1.00  0.00     0.198 A 
ATOM     75  F   UNL A   1      45.466  28.099  26.075  1.00  0.00    -0.203 F 
ATOM     76  F   UNL A   1      48.561  25.697  29.875  1.00  0.00    -0.200 F 
ATOM     77  C   UNL A   1      47.364  25.572  27.843  1.00  0.00     0.200 A 
ATOM     78  F   UNL A   1      46.178  25.502  25.803  1.00  0.00    -0.200 F 
ATOM     79  F   UNL A   1      47.750  24.299  27.679  1.00  0.00    -0.200 F 
ENDBRANCH  55  69
BRANCH  56  80
ATOM     80  C   UNL A   1      43.632  37.706  29.489  1.00  0.00     0.064 A 
ATOM     81  C   UNL A   1      42.830  38.385  28.560  1.00  0.00     0.173 A 
ATOM     82  C   UNL A   1      44.017  38.399  30.647  1.00  0.00     0.173 A 
ATOM     83  F   UNL A   1      42.459  37.775  27.425  1.00  0.00    -0.203 F 
ATOM     84  C   UNL A   1      42.438  39.704  28.777  1.00  0.00     0.198 A 
ATOM     85  C   UNL A   1      43.603  39.709  30.875  1.00  0.00     0.198 A 
ATOM     86  F   UNL A   1      44.786  37.795  31.565  1.00  0.00    -0.203 F 
ATOM     87  F   UNL A   1      41.701  40.342  27.858  1.00  0.00    -0.200 F 
ATOM     88  C   UNL A   1      42.818  40.363  29.938  1.00  0.00     0.200 A 
ATOM     89  F   UNL A   1      43.962  40.336  32.004  1.00  0.00    -0.200 F 
ATOM     90  F   UNL A   1      42.430  41.628  30.151  1.00  0.00    -0.200 F 
ENDBRANCH  56  80
BRANCH  68  91
ATOM     91  C   UNL A   1      49.469  34.782  27.018  1.00  0.00     0.064 A 
ATOM     92  C   UNL A   1      49.634  35.081  25.659  1.00  0.00     0.173 A 
ATOM     93  C   UNL A   1      50.525  35.091  27.891  1.00  0.00     0.173 A 
ATOM     94  F   UNL A   1      48.661  34.793  24.781  1.00  0.00    -0.203 F 
ATOM     95  C   UNL A   1      50.817  35.647  25.188  1.00  0.00     0.198 A 
ATOM     96  C   UNL A   1      51.693  35.684  27.422  1.00  0.00     0.198 A 
ATOM     97  F   UNL A   1      50.414  34.834  29.203  1.00  0.00    -0.203 F 
ATOM     98  F   UNL A   1      50.969  35.885  23.878  1.00  0.00    -0.200 F 
ATOM     99  C   UNL A   1      51.841  35.956  26.071  1.00  0.00     0.200 A 
ATOM    100  F   UNL A   1      52.675  35.996  28.279  1.00  0.00    -0.200 F 
ATOM    101  F   UNL A   1      52.974  36.510  25.618  1.00  0.00    -0.200 F 
ENDBRANCH  68  91
ENDBRANCH  42  43
ENDBRANCH  35  37
ENDBRANCH  34  35
ENDBRANCH  33  34
ENDBRANCH  32  33
ENDBRANCH  31  32
ENDBRANCH  30  31
ENDBRANCH  29  30
ENDBRANCH  28  29
ENDBRANCH  27  28
ENDBRANCH   1  27
TORSDOF 25
ENDMDL
