MODEL 1
REMARK VINA RESULT:      -9.9      0.000      0.000
REMARK SMILES Cc1sc2nc(SCc3ccc(C(=O)OCCOCCOCCOCCOC(=O)c4ccc(-c5c6nc(c(-c7c(F)c(F)c(F)c(F)c7F)c7ccc([nH]7)c(-c7c(F)c(F)c(F)c(F)c7F)c7nc(c(-c8c(F)c(F)c(F)c(F)c8F)c8ccc5[nH]8)C=C7)C=C6)cc4)cc3)n(Cc3ccco3)c(=O)c2c1C
REMARK SMILES IDX 19 1 18 2 17 3 16 4 15 5 13 6 14 7 12 8 9 9 10 10 94 11
REMARK SMILES IDX 11 12 93 13 8 14 7 15 6 16 1 17 2 18 3 19 105 20 4 21 104 22
REMARK SMILES IDX 106 23 5 24 102 25 95 26 103 27 96 28 97 29 98 30 101 31
REMARK SMILES IDX 99 32 100 33 20 34 21 35 22 36 23 37 24 38 25 39 26 40 27 41
REMARK SMILES IDX 28 42 29 43 30 44 31 45 92 46 32 47 91 48 33 49 34 50 35 51
REMARK SMILES IDX 85 52 36 53 90 54 84 55 86 56 37 57 89 58 83 59 82 60 38 62
REMARK SMILES IDX 70 63 50 64 69 65 51 66 54 67 68 68 87 69 52 70 53 71 67 73
REMARK SMILES IDX 88 74 55 75 39 76 40 77 48 78 41 79 42 80 46 81 49 82 43 83
REMARK SMILES IDX 44 84 47 85 45 86 71 87 72 88 80 89 73 90 74 91 78 92 81 93
REMARK SMILES IDX 75 94 76 95 79 96 77 97 56 98 57 99 65 100 58 101 59 102
REMARK SMILES IDX 63 103 66 104 60 105 61 106 64 107 62 108
REMARK H PARENT 86 61 54 72
REMARK Flexibility Score: inf
ROOT
ATOM      1  C   UNL A   1      35.106  33.871  30.351  1.00  0.00     0.188 C 
ENDROOT
BRANCH   1   2
ATOM      2  O   UNL A   1      34.644  32.879  29.435  1.00  0.00    -0.376 OA
BRANCH   2   3
ATOM      3  C   UNL A   1      35.593  31.878  29.091  1.00  0.00     0.202 C 
BRANCH   3   4
ATOM      4  C   UNL A   1      35.360  31.232  27.717  1.00  0.00     0.261 C 
BRANCH   4   5
ATOM      5  O   UNL A   1      34.293  30.266  27.676  1.00  0.00    -0.460 OA
BRANCH   5   6
ATOM      6  C   UNL A   1      33.090  30.720  27.263  1.00  0.00     0.338 C 
ATOM      7  O   UNL A   1      32.747  31.882  27.170  1.00  0.00    -0.246 OA
BRANCH   6   8
ATOM      8  C   UNL A   1      32.297  29.566  26.788  1.00  0.00     0.060 A 
ATOM      9  C   UNL A   1      30.924  27.291  25.861  1.00  0.00    -0.038 A 
ATOM     10  C   UNL A   1      31.567  27.265  27.096  1.00  0.00     0.005 A 
ATOM     11  C   UNL A   1      30.864  28.525  25.171  1.00  0.00     0.005 A 
ATOM     12  C   UNL A   1      32.302  28.375  27.523  1.00  0.00     0.016 A 
ATOM     13  C   UNL A   1      31.531  29.663  25.635  1.00  0.00     0.016 A 
BRANCH   9  14
ATOM     14  C   UNL A   1      30.206  26.110  25.262  1.00  0.00     0.113 C 
BRANCH  14  15
ATOM     15  S   UNL A   1      30.640  24.393  25.524  1.00  0.00    -0.083 SA
BRANCH  15  16
ATOM     16  C   UNL A   1      32.296  24.028  25.101  1.00  0.00     0.173 A 
ATOM     17  C   UNL A   1      37.279  20.430  25.154  1.00  0.00     0.057 C 
ATOM     18  C   UNL A   1      36.170  21.430  25.054  1.00  0.00     0.007 A 
ATOM     19  S   UNL A   1      34.991  21.539  26.298  1.00  0.00    -0.120 S 
ATOM     20  C   UNL A   1      35.941  22.355  24.048  1.00  0.00    -0.022 A 
ATOM     21  C   UNL A   1      34.081  22.703  25.443  1.00  0.00     0.132 A 
ATOM     22  C   UNL A   1      34.654  22.969  24.225  1.00  0.00     0.080 A 
ATOM     23  C   UNL A   1      36.865  22.635  22.905  1.00  0.00     0.046 C 
ATOM     24  N   UNL A   1      32.899  23.192  25.898  1.00  0.00    -0.213 NA
ATOM     25  C   UNL A   1      33.903  23.795  23.307  1.00  0.00     0.263 A 
ATOM     26  N   UNL A   1      32.796  24.445  23.871  1.00  0.00    -0.279 N 
ATOM     27  O   UNL A   1      34.186  23.839  22.111  1.00  0.00    -0.268 OA
BRANCH  26  28
ATOM     28  C   UNL A   1      32.174  25.436  22.997  1.00  0.00     0.203 C 
BRANCH  28  29
ATOM     29  C   UNL A   1      32.923  26.739  22.992  1.00  0.00     0.123 A 
ATOM     30  C   UNL A   1      33.932  27.237  23.793  1.00  0.00     0.047 A 
ATOM     31  O   UNL A   1      32.588  27.678  22.052  1.00  0.00    -0.467 OA
ATOM     32  C   UNL A   1      34.177  28.561  23.356  1.00  0.00     0.042 A 
ATOM     33  C   UNL A   1      33.332  28.783  22.296  1.00  0.00     0.195 A 
ENDBRANCH  28  29
ENDBRANCH  26  28
ENDBRANCH  15  16
ENDBRANCH  14  15
ENDBRANCH   9  14
ENDBRANCH   6   8
ENDBRANCH   5   6
ENDBRANCH   4   5
ENDBRANCH   3   4
ENDBRANCH   2   3
ENDBRANCH   1   2
BRANCH   1  34
ATOM     34  C   UNL A   1      34.177  34.086  31.558  1.00  0.00     0.188 C 
BRANCH  34  35
ATOM     35  O   UNL A   1      34.474  33.344  32.725  1.00  0.00    -0.377 OA
BRANCH  35  36
ATOM     36  C   UNL A   1      35.593  32.469  32.713  1.00  0.00     0.188 C 
BRANCH  36  37
ATOM     37  C   UNL A   1      36.653  32.509  33.835  1.00  0.00     0.188 C 
BRANCH  37  38
ATOM     38  O   UNL A   1      37.628  31.473  33.795  1.00  0.00    -0.376 OA
BRANCH  38  39
ATOM     39  C   UNL A   1      37.364  30.382  32.922  1.00  0.00     0.202 C 
BRANCH  39  40
ATOM     40  C   UNL A   1      38.550  29.428  32.752  1.00  0.00     0.261 C 
BRANCH  40  41
ATOM     41  O   UNL A   1      39.277  29.200  33.967  1.00  0.00    -0.460 OA
BRANCH  41  42
ATOM     42  C   UNL A   1      40.520  29.720  34.016  1.00  0.00     0.338 C 
ATOM     43  O   UNL A   1      40.856  30.835  34.359  1.00  0.00    -0.246 OA
BRANCH  42  44
ATOM     44  C   UNL A   1      41.458  28.671  33.610  1.00  0.00     0.060 A 
ATOM     45  C   UNL A   1      41.952  27.753  34.543  1.00  0.00     0.016 A 
ATOM     46  C   UNL A   1      41.909  28.680  32.299  1.00  0.00     0.016 A 
ATOM     47  C   UNL A   1      42.932  26.844  34.162  1.00  0.00     0.010 A 
ATOM     48  C   UNL A   1      42.928  27.811  31.939  1.00  0.00     0.010 A 
ATOM     49  C   UNL A   1      43.476  26.914  32.874  1.00  0.00    -0.014 A 
BRANCH  49  50
ATOM     50  C   UNL A   1      44.700  26.138  32.561  1.00  0.00     0.031 A 
ATOM     51  C   UNL A   1      44.570  25.102  31.500  1.00  0.00     0.074 A 
ATOM     52  C   UNL A   1      45.914  26.720  32.701  1.00  0.00     0.049 A 
ATOM     53  N   UNL A   1      44.567  25.434  30.243  1.00  0.00    -0.248 NA
ATOM     54  C   UNL A   1      44.161  23.721  31.747  1.00  0.00     0.031 C 
ATOM     55  C   UNL A   1      46.115  28.170  32.853  1.00  0.00     0.029 A 
ATOM     56  N   UNL A   1      47.183  26.223  32.511  1.00  0.00    -0.354 N 
ATOM     57  C   UNL A   1      43.990  24.392  29.553  1.00  0.00     0.074 A 
ATOM     58  C   UNL A   1      43.841  23.314  30.506  1.00  0.00     0.031 C 
ATOM     59  C   UNL A   1      47.400  28.465  32.585  1.00  0.00     0.029 A 
ATOM     60  C   UNL A   1      48.139  27.229  32.375  1.00  0.00     0.049 A 
ATOM     61  H   UNL A   1      47.394  25.262  32.474  1.00  0.00     0.167 HD
ATOM     62  C   UNL A   1      43.575  24.528  28.268  1.00  0.00     0.037 A 
ATOM     63  C   UNL A   1      49.256  27.169  31.605  1.00  0.00     0.037 A 
ATOM     64  C   UNL A   1      43.700  25.842  27.708  1.00  0.00     0.049 A 
ATOM     65  C   UNL A   1      48.687  27.039  30.219  1.00  0.00     0.074 A 
ATOM     66  C   UNL A   1      42.878  26.944  27.589  1.00  0.00     0.029 A 
ATOM     67  N   UNL A   1      44.925  26.255  27.245  1.00  0.00    -0.354 N 
ATOM     68  N   UNL A   1      48.224  28.026  29.496  1.00  0.00    -0.248 NA
ATOM     69  C   UNL A   1      48.321  25.708  29.734  1.00  0.00     0.031 C 
ATOM     70  C   UNL A   1      43.753  28.068  27.475  1.00  0.00     0.029 A 
ATOM     71  C   UNL A   1      45.054  27.583  27.580  1.00  0.00     0.049 A 
ATOM     72  H   UNL A   1      45.585  25.706  26.764  1.00  0.00     0.167 HD
ATOM     73  C   UNL A   1      47.281  27.447  28.645  1.00  0.00     0.074 A 
ATOM     74  C   UNL A   1      47.436  26.016  28.795  1.00  0.00     0.031 C 
ATOM     75  C   UNL A   1      46.297  28.162  28.032  1.00  0.00     0.037 A 
BRANCH  62  76
ATOM     76  C   UNL A   1      43.010  23.448  27.451  1.00  0.00     0.064 A 
ATOM     77  C   UNL A   1      41.642  23.174  27.582  1.00  0.00     0.173 A 
ATOM     78  C   UNL A   1      43.805  22.561  26.722  1.00  0.00     0.173 A 
ATOM     79  F   UNL A   1      40.860  23.999  28.298  1.00  0.00    -0.203 F 
ATOM     80  C   UNL A   1      41.089  22.029  27.025  1.00  0.00     0.198 A 
ATOM     81  C   UNL A   1      43.247  21.415  26.162  1.00  0.00     0.198 A 
ATOM     82  F   UNL A   1      45.121  22.781  26.595  1.00  0.00    -0.203 F 
ATOM     83  F   UNL A   1      39.785  21.769  27.196  1.00  0.00    -0.200 F 
ATOM     84  C   UNL A   1      41.893  21.144  26.323  1.00  0.00     0.200 A 
ATOM     85  F   UNL A   1      44.023  20.553  25.491  1.00  0.00    -0.200 F 
ATOM     86  F   UNL A   1      41.366  20.023  25.815  1.00  0.00    -0.200 F 
ENDBRANCH  62  76
BRANCH  63  87
ATOM     87  C   UNL A   1      50.349  26.325  32.171  1.00  0.00     0.064 A 
ATOM     88  C   UNL A   1      51.652  26.871  32.228  1.00  0.00     0.173 A 
ATOM     89  C   UNL A   1      50.208  25.018  32.652  1.00  0.00     0.173 A 
ATOM     90  F   UNL A   1      51.906  28.073  31.689  1.00  0.00    -0.203 F 
ATOM     91  C   UNL A   1      52.710  26.199  32.839  1.00  0.00     0.198 A 
ATOM     92  C   UNL A   1      51.263  24.353  33.283  1.00  0.00     0.198 A 
ATOM     93  F   UNL A   1      49.052  24.355  32.530  1.00  0.00    -0.203 F 
ATOM     94  F   UNL A   1      53.920  26.773  32.900  1.00  0.00    -0.200 F 
ATOM     95  C   UNL A   1      52.508  24.950  33.392  1.00  0.00     0.200 A 
ATOM     96  F   UNL A   1      51.061  23.135  33.804  1.00  0.00    -0.200 F 
ATOM     97  F   UNL A   1      53.508  24.318  34.020  1.00  0.00    -0.200 F 
ENDBRANCH  63  87
BRANCH  75  98
ATOM     98  C   UNL A   1      46.437  29.641  28.131  1.00  0.00     0.064 A 
ATOM     99  C   UNL A   1      45.862  30.327  29.207  1.00  0.00     0.173 A 
ATOM    100  C   UNL A   1      47.146  30.383  27.174  1.00  0.00     0.173 A 
ATOM    101  F   UNL A   1      45.183  29.656  30.152  1.00  0.00    -0.203 F 
ATOM    102  C   UNL A   1      46.005  31.706  29.332  1.00  0.00     0.198 A 
ATOM    103  C   UNL A   1      47.301  31.759  27.311  1.00  0.00     0.198 A 
ATOM    104  F   UNL A   1      47.709  29.777  26.116  1.00  0.00    -0.203 F 
ATOM    105  F   UNL A   1      45.454  32.343  30.375  1.00  0.00    -0.200 F 
ATOM    106  C   UNL A   1      46.731  32.419  28.390  1.00  0.00     0.200 A 
ATOM    107  F   UNL A   1      48.016  32.447  26.410  1.00  0.00    -0.200 F 
ATOM    108  F   UNL A   1      46.890  33.743  28.527  1.00  0.00    -0.200 F 
ENDBRANCH  75  98
ENDBRANCH  49  50
ENDBRANCH  42  44
ENDBRANCH  41  42
ENDBRANCH  40  41
ENDBRANCH  39  40
ENDBRANCH  38  39
ENDBRANCH  37  38
ENDBRANCH  36  37
ENDBRANCH  35  36
ENDBRANCH  34  35
ENDBRANCH   1  34
TORSDOF 25
ENDMDL
MODEL 2
REMARK VINA RESULT:      -9.8      2.256      3.011
REMARK SMILES Cc1sc2nc(SCc3ccc(C(=O)OCCOCCOCCOCCOC(=O)c4ccc(-c5c6nc(c(-c7c(F)c(F)c(F)c(F)c7F)c7ccc([nH]7)c(-c7c(F)c(F)c(F)c(F)c7F)c7nc(c(-c8c(F)c(F)c(F)c(F)c8F)c8ccc5[nH]8)C=C7)C=C6)cc4)cc3)n(Cc3ccco3)c(=O)c2c1C
REMARK SMILES IDX 19 1 18 2 17 3 16 4 15 5 13 6 14 7 12 8 9 9 10 10 94 11
REMARK SMILES IDX 11 12 93 13 8 14 7 15 6 16 1 17 2 18 3 19 105 20 4 21 104 22
REMARK SMILES IDX 106 23 5 24 102 25 95 26 103 27 96 28 97 29 98 30 101 31
REMARK SMILES IDX 99 32 100 33 20 34 21 35 22 36 23 37 24 38 25 39 26 40 27 41
REMARK SMILES IDX 28 42 29 43 30 44 31 45 92 46 32 47 91 48 33 49 34 50 35 51
REMARK SMILES IDX 85 52 36 53 90 54 84 55 86 56 37 57 89 58 83 59 82 60 38 62
REMARK SMILES IDX 70 63 50 64 69 65 51 66 54 67 68 68 87 69 52 70 53 71 67 73
REMARK SMILES IDX 88 74 55 75 39 76 40 77 48 78 41 79 42 80 46 81 49 82 43 83
REMARK SMILES IDX 44 84 47 85 45 86 71 87 72 88 80 89 73 90 74 91 78 92 81 93
REMARK SMILES IDX 75 94 76 95 79 96 77 97 56 98 57 99 65 100 58 101 59 102
REMARK SMILES IDX 63 103 66 104 60 105 61 106 64 107 62 108
REMARK H PARENT 86 61 54 72
REMARK Flexibility Score: inf
ROOT
ATOM      1  C   UNL A   1      37.154  30.213  31.225  1.00  0.00     0.188 C 
ENDROOT
BRANCH   1   2
ATOM      2  O   UNL A   1      36.911  29.433  30.055  1.00  0.00    -0.376 OA
BRANCH   2   3
ATOM      3  C   UNL A   1      37.687  29.786  28.916  1.00  0.00     0.202 C 
BRANCH   3   4
ATOM      4  C   UNL A   1      36.859  30.232  27.701  1.00  0.00     0.261 C 
BRANCH   4   5
ATOM      5  O   UNL A   1      35.729  29.393  27.398  1.00  0.00    -0.460 OA
BRANCH   5   6
ATOM      6  C   UNL A   1      34.533  30.013  27.299  1.00  0.00     0.338 C 
ATOM      7  O   UNL A   1      34.338  31.212  27.284  1.00  0.00    -0.246 OA
BRANCH   6   8
ATOM      8  C   UNL A   1      33.498  28.986  27.051  1.00  0.00     0.060 A 
ATOM      9  C   UNL A   1      31.560  27.043  26.425  1.00  0.00    -0.038 A 
ATOM     10  C   UNL A   1      32.914  26.753  26.281  1.00  0.00     0.005 A 
ATOM     11  C   UNL A   1      31.207  28.276  27.024  1.00  0.00     0.005 A 
ATOM     12  C   UNL A   1      33.871  27.741  26.531  1.00  0.00     0.016 A 
ATOM     13  C   UNL A   1      32.167  29.238  27.352  1.00  0.00     0.016 A 
BRANCH   9  14
ATOM     14  C   UNL A   1      30.452  26.087  26.070  1.00  0.00     0.113 C 
BRANCH  14  15
ATOM     15  S   UNL A   1      30.679  24.436  25.414  1.00  0.00    -0.083 SA
BRANCH  15  16
ATOM     16  C   UNL A   1      32.326  24.107  24.932  1.00  0.00     0.173 A 
ATOM     17  C   UNL A   1      37.502  20.796  25.083  1.00  0.00     0.057 C 
ATOM     18  C   UNL A   1      36.334  21.719  24.939  1.00  0.00     0.007 A 
ATOM     19  S   UNL A   1      35.225  21.917  26.235  1.00  0.00    -0.120 S 
ATOM     20  C   UNL A   1      35.994  22.504  23.848  1.00  0.00    -0.022 A 
ATOM     21  C   UNL A   1      34.202  22.923  25.311  1.00  0.00     0.132 A 
ATOM     22  C   UNL A   1      34.686  23.070  24.036  1.00  0.00     0.080 A 
ATOM     23  C   UNL A   1      36.833  22.692  22.623  1.00  0.00     0.046 C 
ATOM     24  N   UNL A   1      33.022  23.404  25.780  1.00  0.00    -0.213 NA
ATOM     25  C   UNL A   1      33.838  23.742  23.078  1.00  0.00     0.263 A 
ATOM     26  N   UNL A   1      32.729  24.399  23.632  1.00  0.00    -0.279 N 
ATOM     27  O   UNL A   1      34.048  23.657  21.869  1.00  0.00    -0.268 OA
BRANCH  26  28
ATOM     28  C   UNL A   1      32.003  25.245  22.690  1.00  0.00     0.203 C 
BRANCH  28  29
ATOM     29  C   UNL A   1      32.429  26.684  22.774  1.00  0.00     0.123 A 
ATOM     30  C   UNL A   1      33.651  27.305  22.608  1.00  0.00     0.047 A 
ATOM     31  O   UNL A   1      31.483  27.625  23.088  1.00  0.00    -0.467 OA
ATOM     32  C   UNL A   1      33.449  28.677  22.895  1.00  0.00     0.042 A 
ATOM     33  C   UNL A   1      32.114  28.820  23.185  1.00  0.00     0.195 A 
ENDBRANCH  28  29
ENDBRANCH  26  28
ENDBRANCH  15  16
ENDBRANCH  14  15
ENDBRANCH   9  14
ENDBRANCH   6   8
ENDBRANCH   5   6
ENDBRANCH   4   5
ENDBRANCH   3   4
ENDBRANCH   2   3
ENDBRANCH   1   2
BRANCH   1  34
ATOM     34  C   UNL A   1      37.374  29.375  32.497  1.00  0.00     0.188 C 
BRANCH  34  35
ATOM     35  O   UNL A   1      38.119  29.983  33.534  1.00  0.00    -0.377 OA
BRANCH  35  36
ATOM     36  C   UNL A   1      38.965  31.078  33.216  1.00  0.00     0.188 C 
BRANCH  36  37
ATOM     37  C   UNL A   1      39.066  32.308  34.144  1.00  0.00     0.188 C 
BRANCH  37  38
ATOM     38  O   UNL A   1      40.363  32.884  34.262  1.00  0.00    -0.376 OA
BRANCH  38  39
ATOM     39  C   UNL A   1      40.900  32.981  35.575  1.00  0.00     0.202 C 
BRANCH  39  40
ATOM     40  C   UNL A   1      41.013  31.634  36.296  1.00  0.00     0.261 C 
BRANCH  40  41
ATOM     41  O   UNL A   1      41.919  30.722  35.661  1.00  0.00    -0.460 OA
BRANCH  41  42
ATOM     42  C   UNL A   1      41.446  29.478  35.444  1.00  0.00     0.338 C 
ATOM     43  O   UNL A   1      40.445  28.965  35.901  1.00  0.00    -0.246 OA
BRANCH  42  44
ATOM     44  C   UNL A   1      42.345  28.818  34.496  1.00  0.00     0.060 A 
ATOM     45  C   UNL A   1      43.376  27.987  34.946  1.00  0.00     0.016 A 
ATOM     46  C   UNL A   1      42.200  29.122  33.150  1.00  0.00     0.016 A 
ATOM     47  C   UNL A   1      44.291  27.470  34.037  1.00  0.00     0.010 A 
ATOM     48  C   UNL A   1      43.148  28.651  32.255  1.00  0.00     0.010 A 
ATOM     49  C   UNL A   1      44.223  27.857  32.693  1.00  0.00    -0.014 A 
BRANCH  49  50
ATOM     50  C   UNL A   1      45.350  27.530  31.787  1.00  0.00     0.031 A 
ATOM     51  C   UNL A   1      45.047  26.598  30.667  1.00  0.00     0.074 A 
ATOM     52  C   UNL A   1      46.322  28.448  31.572  1.00  0.00     0.049 A 
ATOM     53  N   UNL A   1      44.430  27.017  29.602  1.00  0.00    -0.248 NA
ATOM     54  C   UNL A   1      45.140  25.143  30.761  1.00  0.00     0.031 C 
ATOM     55  C   UNL A   1      46.199  29.870  31.931  1.00  0.00     0.029 A 
ATOM     56  N   UNL A   1      47.471  28.390  30.817  1.00  0.00    -0.354 N 
ATOM     57  C   UNL A   1      43.896  25.909  28.985  1.00  0.00     0.074 A 
ATOM     58  C   UNL A   1      44.438  24.762  29.679  1.00  0.00     0.031 C 
ATOM     59  C   UNL A   1      47.131  30.573  31.262  1.00  0.00     0.029 A 
ATOM     60  C   UNL A   1      47.995  29.651  30.539  1.00  0.00     0.049 A 
ATOM     61  H   UNL A   1      47.879  27.549  30.507  1.00  0.00     0.167 HD
ATOM     62  C   UNL A   1      42.957  26.016  28.010  1.00  0.00     0.037 A 
ATOM     63  C   UNL A   1      48.657  30.007  29.408  1.00  0.00     0.037 A 
ATOM     64  C   UNL A   1      42.500  27.346  27.727  1.00  0.00     0.049 A 
ATOM     65  C   UNL A   1      47.608  29.823  28.346  1.00  0.00     0.074 A 
ATOM     66  C   UNL A   1      41.459  28.142  28.158  1.00  0.00     0.029 A 
ATOM     67  N   UNL A   1      43.268  28.157  26.930  1.00  0.00    -0.354 N 
ATOM     68  N   UNL A   1      46.652  30.674  28.073  1.00  0.00    -0.248 NA
ATOM     69  C   UNL A   1      47.416  28.490  27.775  1.00  0.00     0.031 C 
ATOM     70  C   UNL A   1      41.892  29.488  27.954  1.00  0.00     0.029 A 
ATOM     71  C   UNL A   1      43.191  29.426  27.455  1.00  0.00     0.049 A 
ATOM     72  H   UNL A   1      43.777  27.884  26.132  1.00  0.00     0.167 HD
ATOM     73  C   UNL A   1      45.615  29.903  27.543  1.00  0.00     0.074 A 
ATOM     74  C   UNL A   1      46.171  28.585  27.326  1.00  0.00     0.031 C 
ATOM     75  C   UNL A   1      44.320  30.324  27.511  1.00  0.00     0.037 A 
BRANCH  62  76
ATOM     76  C   UNL A   1      42.388  24.886  27.266  1.00  0.00     0.064 A 
ATOM     77  C   UNL A   1      41.118  24.427  27.640  1.00  0.00     0.173 A 
ATOM     78  C   UNL A   1      43.135  24.129  26.361  1.00  0.00     0.173 A 
ATOM     79  F   UNL A   1      40.390  25.124  28.528  1.00  0.00    -0.203 F 
ATOM     80  C   UNL A   1      40.620  23.229  27.146  1.00  0.00     0.198 A 
ATOM     81  C   UNL A   1      42.632  22.930  25.864  1.00  0.00     0.198 A 
ATOM     82  F   UNL A   1      44.363  24.528  25.998  1.00  0.00    -0.203 F 
ATOM     83  F   UNL A   1      39.419  22.792  27.547  1.00  0.00    -0.200 F 
ATOM     84  C   UNL A   1      41.381  22.476  26.265  1.00  0.00     0.200 A 
ATOM     85  F   UNL A   1      43.369  22.194  25.020  1.00  0.00    -0.200 F 
ATOM     86  F   UNL A   1      40.916  21.304  25.814  1.00  0.00    -0.200 F 
ENDBRANCH  62  76
BRANCH  63  87
ATOM     87  C   UNL A   1      50.060  29.503  29.331  1.00  0.00     0.064 A 
ATOM     88  C   UNL A   1      51.108  30.450  29.279  1.00  0.00     0.173 A 
ATOM     89  C   UNL A   1      50.444  28.157  29.296  1.00  0.00     0.173 A 
ATOM     90  F   UNL A   1      50.832  31.760  29.195  1.00  0.00    -0.203 F 
ATOM     91  C   UNL A   1      52.449  30.072  29.315  1.00  0.00     0.198 A 
ATOM     92  C   UNL A   1      51.788  27.779  29.354  1.00  0.00     0.198 A 
ATOM     93  F   UNL A   1      49.535  27.179  29.210  1.00  0.00    -0.203 F 
ATOM     94  F   UNL A   1      53.408  31.009  29.300  1.00  0.00    -0.200 F 
ATOM     95  C   UNL A   1      52.789  28.735  29.381  1.00  0.00     0.200 A 
ATOM     96  F   UNL A   1      52.108  26.478  29.403  1.00  0.00    -0.200 F 
ATOM     97  F   UNL A   1      54.074  28.366  29.462  1.00  0.00    -0.200 F 
ENDBRANCH  63  87
BRANCH  75  98
ATOM     98  C   UNL A   1      44.115  31.759  27.850  1.00  0.00     0.064 A 
ATOM     99  C   UNL A   1      44.158  32.729  26.841  1.00  0.00     0.173 A 
ATOM    100  C   UNL A   1      43.865  32.182  29.165  1.00  0.00     0.173 A 
ATOM    101  F   UNL A   1      44.384  32.369  25.567  1.00  0.00    -0.203 F 
ATOM    102  C   UNL A   1      43.942  34.072  27.133  1.00  0.00     0.198 A 
ATOM    103  C   UNL A   1      43.634  33.523  29.450  1.00  0.00     0.198 A 
ATOM    104  F   UNL A   1      43.824  31.295  30.172  1.00  0.00    -0.203 F 
ATOM    105  F   UNL A   1      43.978  34.984  26.151  1.00  0.00    -0.200 F 
ATOM    106  C   UNL A   1      43.671  34.467  28.434  1.00  0.00     0.200 A 
ATOM    107  F   UNL A   1      43.356  33.904  30.705  1.00  0.00    -0.200 F 
ATOM    108  F   UNL A   1      43.436  35.758  28.709  1.00  0.00    -0.200 F 
ENDBRANCH  75  98
ENDBRANCH  49  50
ENDBRANCH  42  44
ENDBRANCH  41  42
ENDBRANCH  40  41
ENDBRANCH  39  40
ENDBRANCH  38  39
ENDBRANCH  37  38
ENDBRANCH  36  37
ENDBRANCH  35  36
ENDBRANCH  34  35
ENDBRANCH   1  34
TORSDOF 25
ENDMDL
MODEL 3
REMARK VINA RESULT:      -9.5      4.013      9.129
REMARK SMILES Cc1sc2nc(SCc3ccc(C(=O)OCCOCCOCCOCCOC(=O)c4ccc(-c5c6nc(c(-c7c(F)c(F)c(F)c(F)c7F)c7ccc([nH]7)c(-c7c(F)c(F)c(F)c(F)c7F)c7nc(c(-c8c(F)c(F)c(F)c(F)c8F)c8ccc5[nH]8)C=C7)C=C6)cc4)cc3)n(Cc3ccco3)c(=O)c2c1C
REMARK SMILES IDX 19 1 18 2 17 3 16 4 15 5 13 6 14 7 12 8 9 9 10 10 94 11
REMARK SMILES IDX 11 12 93 13 8 14 7 15 6 16 1 17 2 18 3 19 105 20 4 21 104 22
REMARK SMILES IDX 106 23 5 24 102 25 95 26 103 27 96 28 97 29 98 30 101 31
REMARK SMILES IDX 99 32 100 33 20 34 21 35 22 36 23 37 24 38 25 39 26 40 27 41
REMARK SMILES IDX 28 42 29 43 30 44 31 45 92 46 32 47 91 48 33 49 34 50 35 51
REMARK SMILES IDX 85 52 36 53 90 54 84 55 86 56 37 57 89 58 83 59 82 60 38 62
REMARK SMILES IDX 70 63 50 64 69 65 51 66 54 67 68 68 87 69 52 70 53 71 67 73
REMARK SMILES IDX 88 74 55 75 39 76 40 77 48 78 41 79 42 80 46 81 49 82 43 83
REMARK SMILES IDX 44 84 47 85 45 86 71 87 72 88 80 89 73 90 74 91 78 92 81 93
REMARK SMILES IDX 75 94 76 95 79 96 77 97 56 98 57 99 65 100 58 101 59 102
REMARK SMILES IDX 63 103 66 104 60 105 61 106 64 107 62 108
REMARK H PARENT 86 61 54 72
REMARK Flexibility Score: inf
ROOT
ATOM      1  C   UNL A   1      30.109  26.282  24.182  1.00  0.00     0.188 C 
ENDROOT
BRANCH   1   2
ATOM      2  O   UNL A   1      30.801  26.138  22.942  1.00  0.00    -0.376 OA
BRANCH   2   3
ATOM      3  C   UNL A   1      31.543  24.934  22.795  1.00  0.00     0.202 C 
BRANCH   3   4
ATOM      4  C   UNL A   1      30.914  23.716  23.487  1.00  0.00     0.261 C 
BRANCH   4   5
ATOM      5  O   UNL A   1      31.857  22.789  24.057  1.00  0.00    -0.460 OA
BRANCH   5   6
ATOM      6  C   UNL A   1      32.255  23.045  25.323  1.00  0.00     0.338 C 
ATOM      7  O   UNL A   1      31.536  23.225  26.286  1.00  0.00    -0.246 OA
BRANCH   6   8
ATOM      8  C   UNL A   1      33.726  22.913  25.381  1.00  0.00     0.060 A 
ATOM      9  C   UNL A   1      36.511  22.512  25.445  1.00  0.00    -0.038 A 
ATOM     10  C   UNL A   1      35.836  22.538  24.228  1.00  0.00     0.005 A 
ATOM     11  C   UNL A   1      35.782  22.836  26.614  1.00  0.00     0.005 A 
ATOM     12  C   UNL A   1      34.445  22.672  24.204  1.00  0.00     0.016 A 
ATOM     13  C   UNL A   1      34.400  23.052  26.585  1.00  0.00     0.016 A 
BRANCH   9  14
ATOM     14  C   UNL A   1      37.989  22.257  25.583  1.00  0.00     0.113 C 
BRANCH  14  15
ATOM     15  S   UNL A   1      39.106  23.181  26.635  1.00  0.00    -0.083 SA
BRANCH  15  16
ATOM     16  C   UNL A   1      40.779  22.713  26.442  1.00  0.00     0.173 A 
ATOM     17  C   UNL A   1      45.190  18.763  24.794  1.00  0.00     0.057 C 
ATOM     18  C   UNL A   1      44.251  19.833  25.256  1.00  0.00     0.007 A 
ATOM     19  S   UNL A   1      42.700  19.417  25.865  1.00  0.00    -0.120 S 
ATOM     20  C   UNL A   1      44.462  21.202  25.283  1.00  0.00    -0.022 A 
ATOM     21  C   UNL A   1      42.237  21.051  26.024  1.00  0.00     0.132 A 
ATOM     22  C   UNL A   1      43.235  21.885  25.589  1.00  0.00     0.080 A 
ATOM     23  C   UNL A   1      45.760  21.883  24.978  1.00  0.00     0.046 C 
ATOM     24  N   UNL A   1      40.997  21.429  26.431  1.00  0.00    -0.213 NA
ATOM     25  C   UNL A   1      42.926  23.293  25.488  1.00  0.00     0.263 A 
ATOM     26  N   UNL A   1      41.723  23.677  26.098  1.00  0.00    -0.279 N 
ATOM     27  O   UNL A   1      43.637  24.057  24.838  1.00  0.00    -0.268 OA
BRANCH  26  28
ATOM     28  C   UNL A   1      41.525  25.121  26.176  1.00  0.00     0.203 C 
BRANCH  28  29
ATOM     29  C   UNL A   1      42.157  25.717  27.401  1.00  0.00     0.123 A 
ATOM     30  C   UNL A   1      41.722  25.846  28.706  1.00  0.00     0.047 A 
ATOM     31  O   UNL A   1      43.402  26.279  27.284  1.00  0.00    -0.467 OA
ATOM     32  C   UNL A   1      42.722  26.572  29.395  1.00  0.00     0.042 A 
ATOM     33  C   UNL A   1      43.722  26.815  28.486  1.00  0.00     0.195 A 
ENDBRANCH  28  29
ENDBRANCH  26  28
ENDBRANCH  15  16
ENDBRANCH  14  15
ENDBRANCH   9  14
ENDBRANCH   6   8
ENDBRANCH   5   6
ENDBRANCH   4   5
ENDBRANCH   3   4
ENDBRANCH   2   3
ENDBRANCH   1   2
BRANCH   1  34
ATOM     34  C   UNL A   1      30.922  27.008  25.269  1.00  0.00     0.188 C 
BRANCH  34  35
ATOM     35  O   UNL A   1      31.818  28.009  24.825  1.00  0.00    -0.377 OA
BRANCH  35  36
ATOM     36  C   UNL A   1      31.572  29.358  25.191  1.00  0.00     0.188 C 
BRANCH  36  37
ATOM     37  C   UNL A   1      31.999  29.905  26.570  1.00  0.00     0.188 C 
BRANCH  37  38
ATOM     38  O   UNL A   1      33.364  30.292  26.682  1.00  0.00    -0.376 OA
BRANCH  38  39
ATOM     39  C   UNL A   1      33.665  31.301  27.638  1.00  0.00     0.202 C 
BRANCH  39  40
ATOM     40  C   UNL A   1      35.159  31.429  27.947  1.00  0.00     0.261 C 
BRANCH  40  41
ATOM     41  O   UNL A   1      35.478  32.572  28.754  1.00  0.00    -0.460 OA
BRANCH  41  42
ATOM     42  C   UNL A   1      35.341  32.409  30.085  1.00  0.00     0.338 C 
ATOM     43  O   UNL A   1      34.377  32.667  30.778  1.00  0.00    -0.246 OA
BRANCH  42  44
ATOM     44  C   UNL A   1      36.576  31.807  30.590  1.00  0.00     0.060 A 
ATOM     45  C   UNL A   1      37.789  32.499  30.523  1.00  0.00     0.016 A 
ATOM     46  C   UNL A   1      36.516  30.498  31.046  1.00  0.00     0.016 A 
ATOM     47  C   UNL A   1      38.967  31.862  30.895  1.00  0.00     0.010 A 
ATOM     48  C   UNL A   1      37.700  29.849  31.362  1.00  0.00     0.010 A 
ATOM     49  C   UNL A   1      38.938  30.509  31.251  1.00  0.00    -0.014 A 
BRANCH  49  50
ATOM     50  C   UNL A   1      40.214  29.764  31.379  1.00  0.00     0.031 A 
ATOM     51  C   UNL A   1      41.343  30.242  30.535  1.00  0.00     0.074 A 
ATOM     52  C   UNL A   1      40.535  29.188  32.561  1.00  0.00     0.049 A 
ATOM     53  N   UNL A   1      42.027  31.294  30.874  1.00  0.00    -0.248 NA
ATOM     54  C   UNL A   1      41.599  29.785  29.172  1.00  0.00     0.031 C 
ATOM     55  C   UNL A   1      39.859  29.493  33.832  1.00  0.00     0.029 A 
ATOM     56  N   UNL A   1      41.621  28.429  32.932  1.00  0.00    -0.354 N 
ATOM     57  C   UNL A   1      42.656  31.748  29.737  1.00  0.00     0.074 A 
ATOM     58  C   UNL A   1      42.444  30.733  28.728  1.00  0.00     0.031 C 
ATOM     59  C   UNL A   1      40.631  29.074  34.850  1.00  0.00     0.029 A 
ATOM     60  C   UNL A   1      41.779  28.358  34.315  1.00  0.00     0.049 A 
ATOM     61  H   UNL A   1      42.222  27.985  32.291  1.00  0.00     0.167 HD
ATOM     62  C   UNL A   1      43.217  32.983  29.675  1.00  0.00     0.037 A 
ATOM     63  C   UNL A   1      42.961  28.274  34.979  1.00  0.00     0.037 A 
ATOM     64  C   UNL A   1      43.040  33.808  30.834  1.00  0.00     0.049 A 
ATOM     65  C   UNL A   1      43.629  29.572  34.618  1.00  0.00     0.074 A 
ATOM     66  C   UNL A   1      42.129  34.764  31.232  1.00  0.00     0.029 A 
ATOM     67  N   UNL A   1      43.853  33.609  31.923  1.00  0.00    -0.354 N 
ATOM     68  N   UNL A   1      43.381  30.730  35.175  1.00  0.00    -0.248 NA
ATOM     69  C   UNL A   1      44.377  29.649  33.363  1.00  0.00     0.031 C 
ATOM     70  C   UNL A   1      42.170  34.765  32.660  1.00  0.00     0.029 A 
ATOM     71  C   UNL A   1      43.072  33.775  33.042  1.00  0.00     0.049 A 
ATOM     72  H   UNL A   1      44.813  33.390  31.906  1.00  0.00     0.167 HD
ATOM     73  C   UNL A   1      43.690  31.680  34.199  1.00  0.00     0.074 A 
ATOM     74  C   UNL A   1      44.357  30.956  33.138  1.00  0.00     0.031 C 
ATOM     75  C   UNL A   1      43.201  32.951  34.221  1.00  0.00     0.037 A 
BRANCH  62  76
ATOM     76  C   UNL A   1      43.956  33.510  28.521  1.00  0.00     0.064 A 
ATOM     77  C   UNL A   1      45.287  33.105  28.354  1.00  0.00     0.173 A 
ATOM     78  C   UNL A   1      43.464  34.544  27.722  1.00  0.00     0.173 A 
ATOM     79  F   UNL A   1      45.791  32.130  29.128  1.00  0.00    -0.203 F 
ATOM     80  C   UNL A   1      46.112  33.736  27.433  1.00  0.00     0.198 A 
ATOM     81  C   UNL A   1      44.293  35.173  26.796  1.00  0.00     0.198 A 
ATOM     82  F   UNL A   1      42.201  34.971  27.871  1.00  0.00    -0.203 F 
ATOM     83  F   UNL A   1      47.392  33.357  27.317  1.00  0.00    -0.200 F 
ATOM     84  C   UNL A   1      45.617  34.776  26.660  1.00  0.00     0.200 A 
ATOM     85  F   UNL A   1      43.821  36.184  26.055  1.00  0.00    -0.200 F 
ATOM     86  F   UNL A   1      46.423  35.407  25.796  1.00  0.00    -0.200 F 
ENDBRANCH  62  76
BRANCH  63  87
ATOM     87  C   UNL A   1      43.605  26.928  34.923  1.00  0.00     0.064 A 
ATOM     88  C   UNL A   1      42.769  25.791  34.835  1.00  0.00     0.173 A 
ATOM     89  C   UNL A   1      44.981  26.678  34.958  1.00  0.00     0.173 A 
ATOM     90  F   UNL A   1      41.435  25.925  34.908  1.00  0.00    -0.203 F 
ATOM     91  C   UNL A   1      43.282  24.506  34.669  1.00  0.00     0.198 A 
ATOM     92  C   UNL A   1      45.496  25.392  34.770  1.00  0.00     0.198 A 
ATOM     93  F   UNL A   1      45.860  27.665  35.169  1.00  0.00    -0.203 F 
ATOM     94  F   UNL A   1      42.448  23.463  34.554  1.00  0.00    -0.200 F 
ATOM     95  C   UNL A   1      44.648  24.310  34.608  1.00  0.00     0.200 A 
ATOM     96  F   UNL A   1      46.823  25.211  34.727  1.00  0.00    -0.200 F 
ATOM     97  F   UNL A   1      45.148  23.085  34.404  1.00  0.00    -0.200 F 
ENDBRANCH  63  87
BRANCH  75  98
ATOM     98  C   UNL A   1      42.513  33.340  35.482  1.00  0.00     0.064 A 
ATOM     99  C   UNL A   1      43.244  33.917  36.528  1.00  0.00     0.173 A 
ATOM    100  C   UNL A   1      41.133  33.158  35.660  1.00  0.00     0.173 A 
ATOM    101  F   UNL A   1      44.566  34.119  36.397  1.00  0.00    -0.203 F 
ATOM    102  C   UNL A   1      42.616  34.313  37.704  1.00  0.00     0.198 A 
ATOM    103  C   UNL A   1      40.505  33.570  36.831  1.00  0.00     0.198 A 
ATOM    104  F   UNL A   1      40.386  32.600  34.694  1.00  0.00    -0.203 F 
ATOM    105  F   UNL A   1      43.332  34.871  38.690  1.00  0.00    -0.200 F 
ATOM    106  C   UNL A   1      41.247  34.148  37.852  1.00  0.00     0.200 A 
ATOM    107  F   UNL A   1      39.180  33.426  36.969  1.00  0.00    -0.200 F 
ATOM    108  F   UNL A   1      40.639  34.555  38.974  1.00  0.00    -0.200 F 
ENDBRANCH  75  98
ENDBRANCH  49  50
ENDBRANCH  42  44
ENDBRANCH  41  42
ENDBRANCH  40  41
ENDBRANCH  39  40
ENDBRANCH  38  39
ENDBRANCH  37  38
ENDBRANCH  36  37
ENDBRANCH  35  36
ENDBRANCH  34  35
ENDBRANCH   1  34
TORSDOF 25
ENDMDL
