MODEL 1
REMARK VINA RESULT:     -10.8      0.000      0.000
REMARK SMILES CC[C@](C)(NC(=O)c1ccc2ccccc2c1O)C(=O)OCCOCCOCCOCCOC(=O)c1ccc(-c2c3nc(c(-c4c(F)c(F)c(F)c(F)c4F)c4ccc([nH]4)c(-c4c(F)c(F)c(F)c(F)c4F)c4nc(c(-c5c(F)c(F)c(F)c(F)c5F)c5ccc2[nH]5)C=C4)C=C3)cc1
REMARK SMILES IDX 26 1 25 2 24 3 23 4 22 5 21 6 19 7 20 8 3 9 4 10 2 11 1 12
REMARK SMILES IDX 5 13 6 14 7 16 8 17 9 18 17 19 10 20 16 21 11 22 15 23 12 24
REMARK SMILES IDX 14 25 13 26 18 27 27 29 28 30 29 31 30 32 31 33 32 34 33 35
REMARK SMILES IDX 34 36 35 37 36 38 37 39 98 40 38 41 97 42 39 43 40 44 41 45
REMARK SMILES IDX 91 46 42 47 96 48 90 49 92 50 43 51 95 52 89 53 88 54 44 56
REMARK SMILES IDX 76 57 56 58 75 59 57 60 60 61 74 62 93 63 58 64 59 65 73 67
REMARK SMILES IDX 94 68 61 69 45 70 46 71 54 72 47 73 48 74 52 75 55 76 49 77
REMARK SMILES IDX 50 78 53 79 51 80 77 81 78 82 86 83 79 84 80 85 84 86 87 87
REMARK SMILES IDX 81 88 82 89 85 90 83 91 62 92 63 93 71 94 64 95 65 96 69 97
REMARK SMILES IDX 72 98 66 99 67 100 70 101 68 102
REMARK H PARENT 5 15 18 28 92 55 60 66
REMARK Flexibility Score: inf
ROOT
ATOM      1  C   UNL A   1      39.496  21.436  26.129  1.00  0.00     0.188 C 
ENDROOT
BRANCH   1   2
ATOM      2  C   UNL A   1      38.231  22.241  25.751  1.00  0.00     0.188 C 
BRANCH   2   3
ATOM      3  O   UNL A   1      37.517  21.746  24.616  1.00  0.00    -0.376 OA
BRANCH   3   4
ATOM      4  C   UNL A   1      36.939  20.434  24.786  1.00  0.00     0.202 C 
BRANCH   4   5
ATOM      5  C   UNL A   1      35.413  20.283  25.010  1.00  0.00     0.261 C 
BRANCH   5   6
ATOM      6  O   UNL A   1      34.745  21.538  25.093  1.00  0.00    -0.462 OA
BRANCH   6   7
ATOM      7  C   UNL A   1      33.822  21.768  26.046  1.00  0.00     0.331 C 
ATOM      8  O   UNL A   1      33.774  21.188  27.123  1.00  0.00    -0.249 OA
BRANCH   7   9
ATOM      9  C   UNL A   1      32.916  22.972  25.636  1.00  0.00     0.135 C 
ATOM     10  C   UNL A   1      33.494  24.174  26.455  1.00  0.00     0.047 C 
BRANCH   9  11
ATOM     11  C   UNL A   1      31.471  22.675  26.102  1.00  0.00     0.037 C 
ATOM     12  C   UNL A   1      30.555  23.896  26.183  1.00  0.00     0.007 C 
ENDBRANCH   9  11
BRANCH   9  13
ATOM     13  N   UNL A   1      32.948  23.338  24.161  1.00  0.00    -0.336 N 
ATOM     14  C   UNL A   1      33.390  24.523  23.588  1.00  0.00     0.255 C 
ATOM     15  H   UNL A   1      32.615  22.653  23.537  1.00  0.00     0.165 HD
ATOM     16  O   UNL A   1      34.473  24.572  23.008  1.00  0.00    -0.269 OA
BRANCH  14  17
ATOM     17  C   UNL A   1      32.497  25.716  23.464  1.00  0.00     0.082 A 
ATOM     18  C   UNL A   1      31.284  25.596  22.806  1.00  0.00     0.018 A 
ATOM     19  C   UNL A   1      32.822  26.975  23.950  1.00  0.00     0.136 A 
ATOM     20  C   UNL A   1      30.401  26.650  22.584  1.00  0.00     0.010 A 
ATOM     21  C   UNL A   1      31.863  28.032  23.914  1.00  0.00     0.024 A 
ATOM     22  C   UNL A   1      30.656  27.863  23.187  1.00  0.00    -0.015 A 
ATOM     23  C   UNL A   1      32.005  29.235  24.625  1.00  0.00     0.012 A 
ATOM     24  C   UNL A   1      29.672  28.858  23.141  1.00  0.00     0.009 A 
ATOM     25  C   UNL A   1      30.984  30.195  24.642  1.00  0.00     0.001 A 
ATOM     26  C   UNL A   1      29.825  30.015  23.890  1.00  0.00     0.001 A 
BRANCH  19  27
ATOM     27  O   UNL A   1      34.048  27.196  24.523  1.00  0.00    -0.506 OA
ATOM     28  H   UNL A   1      34.406  28.062  24.546  1.00  0.00     0.293 HD
ENDBRANCH  19  27
ENDBRANCH  14  17
ENDBRANCH   9  13
ENDBRANCH   7   9
ENDBRANCH   6   7
ENDBRANCH   5   6
ENDBRANCH   4   5
ENDBRANCH   3   4
ENDBRANCH   2   3
ENDBRANCH   1   2
BRANCH   1  29
ATOM     29  O   UNL A   1      40.427  22.188  26.920  1.00  0.00    -0.377 OA
BRANCH  29  30
ATOM     30  C   UNL A   1      41.317  21.521  27.826  1.00  0.00     0.188 C 
BRANCH  30  31
ATOM     31  C   UNL A   1      42.515  22.310  28.373  1.00  0.00     0.188 C 
BRANCH  31  32
ATOM     32  O   UNL A   1      43.593  22.514  27.457  1.00  0.00    -0.376 OA
BRANCH  32  33
ATOM     33  C   UNL A   1      43.721  21.565  26.403  1.00  0.00     0.202 C 
BRANCH  33  34
ATOM     34  C   UNL A   1      43.750  22.134  24.971  1.00  0.00     0.261 C 
BRANCH  34  35
ATOM     35  O   UNL A   1      42.942  23.314  24.764  1.00  0.00    -0.460 OA
BRANCH  35  36
ATOM     36  C   UNL A   1      43.591  24.493  24.946  1.00  0.00     0.338 C 
ATOM     37  O   UNL A   1      44.712  24.772  24.561  1.00  0.00    -0.246 OA
BRANCH  36  38
ATOM     38  C   UNL A   1      42.718  25.499  25.602  1.00  0.00     0.060 A 
ATOM     39  C   UNL A   1      43.205  26.811  25.713  1.00  0.00     0.016 A 
ATOM     40  C   UNL A   1      41.529  25.140  26.239  1.00  0.00     0.016 A 
ATOM     41  C   UNL A   1      42.562  27.738  26.539  1.00  0.00     0.010 A 
ATOM     42  C   UNL A   1      40.890  26.067  27.077  1.00  0.00     0.010 A 
ATOM     43  C   UNL A   1      41.443  27.348  27.284  1.00  0.00    -0.014 A 
BRANCH  43  44
ATOM     44  C   UNL A   1      41.039  28.146  28.477  1.00  0.00     0.031 A 
ATOM     45  C   UNL A   1      41.858  27.993  29.737  1.00  0.00     0.074 A 
ATOM     46  C   UNL A   1      40.008  29.009  28.458  1.00  0.00     0.049 A 
ATOM     47  N   UNL A   1      41.677  28.509  30.927  1.00  0.00    -0.248 NA
ATOM     48  C   UNL A   1      43.047  27.131  29.635  1.00  0.00     0.031 C 
ATOM     49  C   UNL A   1      39.175  29.311  27.299  1.00  0.00     0.029 A 
ATOM     50  N   UNL A   1      39.484  29.787  29.465  1.00  0.00    -0.354 N 
ATOM     51  C   UNL A   1      42.714  28.020  31.713  1.00  0.00     0.074 A 
ATOM     52  C   UNL A   1      43.502  27.141  30.877  1.00  0.00     0.031 C 
ATOM     53  C   UNL A   1      38.231  30.199  27.663  1.00  0.00     0.029 A 
ATOM     54  C   UNL A   1      38.371  30.499  29.088  1.00  0.00     0.049 A 
ATOM     55  H   UNL A   1      39.869  29.829  30.370  1.00  0.00     0.167 HD
ATOM     56  C   UNL A   1      42.995  28.283  33.013  1.00  0.00     0.037 A 
ATOM     57  C   UNL A   1      37.551  31.281  29.819  1.00  0.00     0.037 A 
ATOM     58  C   UNL A   1      42.216  29.160  33.848  1.00  0.00     0.049 A 
ATOM     59  C   UNL A   1      37.828  31.488  31.290  1.00  0.00     0.074 A 
ATOM     60  C   UNL A   1      42.425  29.498  35.173  1.00  0.00     0.029 A 
ATOM     61  N   UNL A   1      41.074  29.830  33.438  1.00  0.00    -0.354 N 
ATOM     62  N   UNL A   1      38.815  31.033  32.024  1.00  0.00    -0.248 NA
ATOM     63  C   UNL A   1      36.875  32.326  32.033  1.00  0.00     0.031 C 
ATOM     64  C   UNL A   1      41.372  30.323  35.583  1.00  0.00     0.029 A 
ATOM     65  C   UNL A   1      40.549  30.558  34.493  1.00  0.00     0.049 A 
ATOM     66  H   UNL A   1      40.693  29.794  32.530  1.00  0.00     0.167 HD
ATOM     67  C   UNL A   1      38.624  31.559  33.297  1.00  0.00     0.074 A 
ATOM     68  C   UNL A   1      37.432  32.377  33.235  1.00  0.00     0.031 C 
ATOM     69  C   UNL A   1      39.369  31.383  34.417  1.00  0.00     0.037 A 
BRANCH  56  70
ATOM     70  C   UNL A   1      44.176  27.580  33.621  1.00  0.00     0.064 A 
ATOM     71  C   UNL A   1      44.056  26.333  34.254  1.00  0.00     0.173 A 
ATOM     72  C   UNL A   1      45.454  28.160  33.557  1.00  0.00     0.173 A 
ATOM     73  F   UNL A   1      42.857  25.740  34.356  1.00  0.00    -0.203 F 
ATOM     74  C   UNL A   1      45.161  25.712  34.831  1.00  0.00     0.198 A 
ATOM     75  C   UNL A   1      46.562  27.518  34.103  1.00  0.00     0.198 A 
ATOM     76  F   UNL A   1      45.629  29.348  32.960  1.00  0.00    -0.203 F 
ATOM     77  F   UNL A   1      45.010  24.550  35.484  1.00  0.00    -0.200 F 
ATOM     78  C   UNL A   1      46.413  26.301  34.749  1.00  0.00     0.200 A 
ATOM     79  F   UNL A   1      47.774  28.082  34.008  1.00  0.00    -0.200 F 
ATOM     80  F   UNL A   1      47.476  25.699  35.301  1.00  0.00    -0.200 F 
ENDBRANCH  56  70
BRANCH  57  81
ATOM     81  C   UNL A   1      36.368  31.926  29.182  1.00  0.00     0.064 A 
ATOM     82  C   UNL A   1      36.310  33.316  29.003  1.00  0.00     0.173 A 
ATOM     83  C   UNL A   1      35.255  31.173  28.779  1.00  0.00     0.173 A 
ATOM     84  F   UNL A   1      37.332  34.087  29.404  1.00  0.00    -0.203 F 
ATOM     85  C   UNL A   1      35.179  33.928  28.466  1.00  0.00     0.198 A 
ATOM     86  C   UNL A   1      34.138  31.783  28.212  1.00  0.00     0.198 A 
ATOM     87  F   UNL A   1      35.250  29.842  28.942  1.00  0.00    -0.203 F 
ATOM     88  F   UNL A   1      35.128  35.263  28.363  1.00  0.00    -0.200 F 
ATOM     89  C   UNL A   1      34.095  33.161  28.064  1.00  0.00     0.200 A 
ATOM     90  F   UNL A   1      33.095  31.036  27.821  1.00  0.00    -0.200 F 
ATOM     91  F   UNL A   1      33.008  33.750  27.550  1.00  0.00    -0.200 F 
ENDBRANCH  57  81
BRANCH  69  92
ATOM     92  C   UNL A   1      38.958  32.132  35.655  1.00  0.00     0.064 A 
ATOM     93  C   UNL A   1      39.282  33.484  35.850  1.00  0.00     0.173 A 
ATOM     94  C   UNL A   1      38.191  31.495  36.645  1.00  0.00     0.173 A 
ATOM     95  F   UNL A   1      40.019  34.139  34.941  1.00  0.00    -0.203 F 
ATOM     96  C   UNL A   1      38.886  34.157  37.005  1.00  0.00     0.198 A 
ATOM     97  C   UNL A   1      37.767  32.181  37.780  1.00  0.00     0.198 A 
ATOM     98  F   UNL A   1      37.841  30.208  36.505  1.00  0.00    -0.203 F 
ATOM     99  F   UNL A   1      39.257  35.430  37.196  1.00  0.00    -0.200 F 
ATOM    100  C   UNL A   1      38.123  33.507  37.964  1.00  0.00     0.200 A 
ATOM    101  F   UNL A   1      37.013  31.557  38.695  1.00  0.00    -0.200 F 
ATOM    102  F   UNL A   1      37.738  34.159  39.070  1.00  0.00    -0.200 F 
ENDBRANCH  69  92
ENDBRANCH  43  44
ENDBRANCH  36  38
ENDBRANCH  35  36
ENDBRANCH  34  35
ENDBRANCH  33  34
ENDBRANCH  32  33
ENDBRANCH  31  32
ENDBRANCH  30  31
ENDBRANCH  29  30
ENDBRANCH   1  29
TORSDOF 24
ENDMDL
MODEL 2
REMARK VINA RESULT:     -10.5      1.284      7.165
REMARK SMILES CC[C@](C)(NC(=O)c1ccc2ccccc2c1O)C(=O)OCCOCCOCCOCCOC(=O)c1ccc(-c2c3nc(c(-c4c(F)c(F)c(F)c(F)c4F)c4ccc([nH]4)c(-c4c(F)c(F)c(F)c(F)c4F)c4nc(c(-c5c(F)c(F)c(F)c(F)c5F)c5ccc2[nH]5)C=C4)C=C3)cc1
REMARK SMILES IDX 26 1 25 2 24 3 23 4 22 5 21 6 19 7 20 8 3 9 4 10 2 11 1 12
REMARK SMILES IDX 5 13 6 14 7 16 8 17 9 18 17 19 10 20 16 21 11 22 15 23 12 24
REMARK SMILES IDX 14 25 13 26 18 27 27 29 28 30 29 31 30 32 31 33 32 34 33 35
REMARK SMILES IDX 34 36 35 37 36 38 37 39 98 40 38 41 97 42 39 43 40 44 41 45
REMARK SMILES IDX 91 46 42 47 96 48 90 49 92 50 43 51 95 52 89 53 88 54 44 56
REMARK SMILES IDX 76 57 56 58 75 59 57 60 60 61 74 62 93 63 58 64 59 65 73 67
REMARK SMILES IDX 94 68 61 69 45 70 46 71 54 72 47 73 48 74 52 75 55 76 49 77
REMARK SMILES IDX 50 78 53 79 51 80 77 81 78 82 86 83 79 84 80 85 84 86 87 87
REMARK SMILES IDX 81 88 82 89 85 90 83 91 62 92 63 93 71 94 64 95 65 96 69 97
REMARK SMILES IDX 72 98 66 99 67 100 70 101 68 102
REMARK H PARENT 5 15 18 28 92 55 60 66
REMARK Flexibility Score: inf
ROOT
ATOM      1  C   UNL A   1      39.349  21.959  26.124  1.00  0.00     0.188 C 
ENDROOT
BRANCH   1   2
ATOM      2  C   UNL A   1      38.101  21.660  25.262  1.00  0.00     0.188 C 
BRANCH   2   3
ATOM      3  O   UNL A   1      37.261  22.788  25.004  1.00  0.00    -0.376 OA
BRANCH   3   4
ATOM      4  C   UNL A   1      36.126  22.518  24.153  1.00  0.00     0.202 C 
BRANCH   4   5
ATOM      5  C   UNL A   1      35.213  23.681  23.689  1.00  0.00     0.261 C 
BRANCH   5   6
ATOM      6  O   UNL A   1      33.874  23.546  24.154  1.00  0.00    -0.462 OA
BRANCH   6   7
ATOM      7  C   UNL A   1      33.465  24.169  25.275  1.00  0.00     0.331 C 
ATOM      8  O   UNL A   1      33.974  24.022  26.379  1.00  0.00    -0.249 OA
BRANCH   7   9
ATOM      9  C   UNL A   1      32.347  25.205  24.937  1.00  0.00     0.135 C 
ATOM     10  C   UNL A   1      32.242  26.083  26.228  1.00  0.00     0.047 C 
BRANCH   9  11
ATOM     11  C   UNL A   1      31.021  24.439  24.722  1.00  0.00     0.037 C 
ATOM     12  C   UNL A   1      30.683  24.129  23.264  1.00  0.00     0.007 C 
ENDBRANCH   9  11
BRANCH   9  13
ATOM     13  N   UNL A   1      32.643  26.120  23.759  1.00  0.00    -0.336 N 
ATOM     14  C   UNL A   1      32.884  27.488  23.784  1.00  0.00     0.255 C 
ATOM     15  H   UNL A   1      32.667  25.693  22.873  1.00  0.00     0.165 HD
ATOM     16  O   UNL A   1      34.024  27.924  23.639  1.00  0.00    -0.269 OA
BRANCH  14  17
ATOM     17  C   UNL A   1      31.768  28.482  23.774  1.00  0.00     0.082 A 
ATOM     18  C   UNL A   1      31.723  29.468  24.747  1.00  0.00     0.018 A 
ATOM     19  C   UNL A   1      30.732  28.468  22.850  1.00  0.00     0.136 A 
ATOM     20  C   UNL A   1      30.704  30.410  24.866  1.00  0.00     0.010 A 
ATOM     21  C   UNL A   1      29.777  29.528  22.821  1.00  0.00     0.024 A 
ATOM     22  C   UNL A   1      29.754  30.485  23.870  1.00  0.00    -0.015 A 
ATOM     23  C   UNL A   1      28.879  29.737  21.761  1.00  0.00     0.012 A 
ATOM     24  C   UNL A   1      28.855  31.559  23.876  1.00  0.00     0.009 A 
ATOM     25  C   UNL A   1      28.036  30.856  21.731  1.00  0.00     0.001 A 
ATOM     26  C   UNL A   1      28.013  31.758  22.793  1.00  0.00     0.001 A 
BRANCH  19  27
ATOM     27  O   UNL A   1      30.653  27.463  21.920  1.00  0.00    -0.506 OA
ATOM     28  H   UNL A   1      31.305  26.790  21.901  1.00  0.00     0.293 HD
ENDBRANCH  19  27
ENDBRANCH  14  17
ENDBRANCH   9  13
ENDBRANCH   7   9
ENDBRANCH   6   7
ENDBRANCH   5   6
ENDBRANCH   4   5
ENDBRANCH   3   4
ENDBRANCH   2   3
ENDBRANCH   1   2
BRANCH   1  29
ATOM     29  O   UNL A   1      40.282  20.870  26.163  1.00  0.00    -0.377 OA
BRANCH  29  30
ATOM     30  C   UNL A   1      41.663  21.105  26.473  1.00  0.00     0.188 C 
BRANCH  30  31
ATOM     31  C   UNL A   1      42.706  20.133  25.905  1.00  0.00     0.188 C 
BRANCH  31  32
ATOM     32  O   UNL A   1      43.681  20.710  25.033  1.00  0.00    -0.376 OA
BRANCH  32  33
ATOM     33  C   UNL A   1      44.979  20.921  25.581  1.00  0.00     0.202 C 
BRANCH  33  34
ATOM     34  C   UNL A   1      45.464  22.381  25.649  1.00  0.00     0.261 C 
BRANCH  34  35
ATOM     35  O   UNL A   1      44.547  23.303  26.279  1.00  0.00    -0.460 OA
BRANCH  35  36
ATOM     36  C   UNL A   1      43.828  24.073  25.422  1.00  0.00     0.338 C 
ATOM     37  O   UNL A   1      43.755  23.941  24.214  1.00  0.00    -0.246 OA
BRANCH  36  38
ATOM     38  C   UNL A   1      43.011  25.078  26.148  1.00  0.00     0.060 A 
ATOM     39  C   UNL A   1      43.583  26.339  26.379  1.00  0.00     0.016 A 
ATOM     40  C   UNL A   1      41.787  24.750  26.733  1.00  0.00     0.016 A 
ATOM     41  C   UNL A   1      42.987  27.235  27.271  1.00  0.00     0.010 A 
ATOM     42  C   UNL A   1      41.194  25.645  27.638  1.00  0.00     0.010 A 
ATOM     43  C   UNL A   1      41.828  26.862  27.962  1.00  0.00    -0.014 A 
BRANCH  43  44
ATOM     44  C   UNL A   1      41.454  27.582  29.213  1.00  0.00     0.031 A 
ATOM     45  C   UNL A   1      40.213  28.442  29.187  1.00  0.00     0.074 A 
ATOM     46  C   UNL A   1      42.155  27.465  30.355  1.00  0.00     0.049 A 
ATOM     47  N   UNL A   1      39.713  29.228  30.108  1.00  0.00    -0.248 NA
ATOM     48  C   UNL A   1      39.431  28.411  27.941  1.00  0.00     0.031 C 
ATOM     49  C   UNL A   1      43.329  26.621  30.549  1.00  0.00     0.029 A 
ATOM     50  N   UNL A   1      41.974  28.079  31.573  1.00  0.00    -0.354 N 
ATOM     51  C   UNL A   1      38.574  29.793  29.546  1.00  0.00     0.074 A 
ATOM     52  C   UNL A   1      38.474  29.288  28.194  1.00  0.00     0.031 C 
ATOM     53  C   UNL A   1      43.776  26.781  31.808  1.00  0.00     0.029 A 
ATOM     54  C   UNL A   1      42.942  27.766  32.497  1.00  0.00     0.049 A 
ATOM     55  H   UNL A   1      41.223  28.686  31.765  1.00  0.00     0.167 HD
ATOM     56  C   UNL A   1      37.685  30.651  30.103  1.00  0.00     0.037 A 
ATOM     57  C   UNL A   1      43.141  28.241  33.744  1.00  0.00     0.037 A 
ATOM     58  C   UNL A   1      37.778  31.153  31.448  1.00  0.00     0.049 A 
ATOM     59  C   UNL A   1      42.189  29.266  34.314  1.00  0.00     0.074 A 
ATOM     60  C   UNL A   1      36.922  32.017  32.108  1.00  0.00     0.029 A 
ATOM     61  N   UNL A   1      38.796  30.841  32.337  1.00  0.00    -0.354 N 
ATOM     62  N   UNL A   1      41.109  29.788  33.782  1.00  0.00    -0.248 NA
ATOM     63  C   UNL A   1      42.484  29.765  35.666  1.00  0.00     0.031 C 
ATOM     64  C   UNL A   1      37.457  32.278  33.374  1.00  0.00     0.029 A 
ATOM     65  C   UNL A   1      38.606  31.519  33.530  1.00  0.00     0.049 A 
ATOM     66  H   UNL A   1      39.543  30.229  32.148  1.00  0.00     0.167 HD
ATOM     67  C   UNL A   1      40.579  30.641  34.745  1.00  0.00     0.074 A 
ATOM     68  C   UNL A   1      41.448  30.559  35.898  1.00  0.00     0.031 C 
ATOM     69  C   UNL A   1      39.469  31.420  34.680  1.00  0.00     0.037 A 
BRANCH  56  70
ATOM     70  C   UNL A   1      36.551  31.130  29.239  1.00  0.00     0.064 A 
ATOM     71  C   UNL A   1      36.469  32.455  28.785  1.00  0.00     0.173 A 
ATOM     72  C   UNL A   1      35.536  30.240  28.848  1.00  0.00     0.173 A 
ATOM     73  F   UNL A   1      37.403  33.349  29.140  1.00  0.00    -0.203 F 
ATOM     74  C   UNL A   1      35.396  32.881  28.005  1.00  0.00     0.198 A 
ATOM     75  C   UNL A   1      34.485  30.662  28.038  1.00  0.00     0.198 A 
ATOM     76  F   UNL A   1      35.566  28.961  29.248  1.00  0.00    -0.203 F 
ATOM     77  F   UNL A   1      35.308  34.167  27.635  1.00  0.00    -0.200 F 
ATOM     78  C   UNL A   1      34.410  31.983  27.626  1.00  0.00     0.200 A 
ATOM     79  F   UNL A   1      33.542  29.788  27.660  1.00  0.00    -0.200 F 
ATOM     80  F   UNL A   1      33.382  32.394  26.871  1.00  0.00    -0.200 F 
ENDBRANCH  56  70
BRANCH  57  81
ATOM     81  C   UNL A   1      44.301  27.767  34.548  1.00  0.00     0.064 A 
ATOM     82  C   UNL A   1      45.546  28.409  34.472  1.00  0.00     0.173 A 
ATOM     83  C   UNL A   1      44.203  26.639  35.378  1.00  0.00     0.173 A 
ATOM     84  F   UNL A   1      45.704  29.470  33.666  1.00  0.00    -0.203 F 
ATOM     85  C   UNL A   1      46.650  27.930  35.175  1.00  0.00     0.198 A 
ATOM     86  C   UNL A   1      45.299  26.181  36.106  1.00  0.00     0.198 A 
ATOM     87  F   UNL A   1      43.041  25.978  35.477  1.00  0.00    -0.203 F 
ATOM     88  F   UNL A   1      47.841  28.528  35.034  1.00  0.00    -0.200 F 
ATOM     89  C   UNL A   1      46.525  26.820  35.997  1.00  0.00     0.200 A 
ATOM     90  F   UNL A   1      45.172  25.111  36.903  1.00  0.00    -0.200 F 
ATOM     91  F   UNL A   1      47.586  26.360  36.671  1.00  0.00    -0.200 F 
ENDBRANCH  57  81
BRANCH  69  92
ATOM     92  C   UNL A   1      39.093  32.203  35.908  1.00  0.00     0.064 A 
ATOM     93  C   UNL A   1      39.536  33.518  36.118  1.00  0.00     0.173 A 
ATOM     94  C   UNL A   1      38.242  31.638  36.873  1.00  0.00     0.173 A 
ATOM     95  F   UNL A   1      40.357  34.103  35.233  1.00  0.00    -0.203 F 
ATOM     96  C   UNL A   1      39.170  34.224  37.263  1.00  0.00     0.198 A 
ATOM     97  C   UNL A   1      37.849  32.360  37.997  1.00  0.00     0.198 A 
ATOM     98  F   UNL A   1      37.779  30.389  36.718  1.00  0.00    -0.203 F 
ATOM     99  F   UNL A   1      39.651  35.457  37.469  1.00  0.00    -0.200 F 
ATOM    100  C   UNL A   1      38.321  33.647  38.196  1.00  0.00     0.200 A 
ATOM    101  F   UNL A   1      37.014  31.808  38.888  1.00  0.00    -0.200 F 
ATOM    102  F   UNL A   1      37.966  34.331  39.293  1.00  0.00    -0.200 F 
ENDBRANCH  69  92
ENDBRANCH  43  44
ENDBRANCH  36  38
ENDBRANCH  35  36
ENDBRANCH  34  35
ENDBRANCH  33  34
ENDBRANCH  32  33
ENDBRANCH  31  32
ENDBRANCH  30  31
ENDBRANCH  29  30
ENDBRANCH   1  29
TORSDOF 24
ENDMDL
MODEL 3
REMARK VINA RESULT:     -10.4      1.706      2.627
REMARK SMILES CC[C@](C)(NC(=O)c1ccc2ccccc2c1O)C(=O)OCCOCCOCCOCCOC(=O)c1ccc(-c2c3nc(c(-c4c(F)c(F)c(F)c(F)c4F)c4ccc([nH]4)c(-c4c(F)c(F)c(F)c(F)c4F)c4nc(c(-c5c(F)c(F)c(F)c(F)c5F)c5ccc2[nH]5)C=C4)C=C3)cc1
REMARK SMILES IDX 26 1 25 2 24 3 23 4 22 5 21 6 19 7 20 8 3 9 4 10 2 11 1 12
REMARK SMILES IDX 5 13 6 14 7 16 8 17 9 18 17 19 10 20 16 21 11 22 15 23 12 24
REMARK SMILES IDX 14 25 13 26 18 27 27 29 28 30 29 31 30 32 31 33 32 34 33 35
REMARK SMILES IDX 34 36 35 37 36 38 37 39 98 40 38 41 97 42 39 43 40 44 41 45
REMARK SMILES IDX 91 46 42 47 96 48 90 49 92 50 43 51 95 52 89 53 88 54 44 56
REMARK SMILES IDX 76 57 56 58 75 59 57 60 60 61 74 62 93 63 58 64 59 65 73 67
REMARK SMILES IDX 94 68 61 69 45 70 46 71 54 72 47 73 48 74 52 75 55 76 49 77
REMARK SMILES IDX 50 78 53 79 51 80 77 81 78 82 86 83 79 84 80 85 84 86 87 87
REMARK SMILES IDX 81 88 82 89 85 90 83 91 62 92 63 93 71 94 64 95 65 96 69 97
REMARK SMILES IDX 72 98 66 99 67 100 70 101 68 102
REMARK H PARENT 5 15 18 28 92 55 60 66
REMARK Flexibility Score: inf
ROOT
ATOM      1  C   UNL A   1      40.339  21.805  27.311  1.00  0.00     0.188 C 
ENDROOT
BRANCH   1   2
ATOM      2  C   UNL A   1      39.535  21.773  25.990  1.00  0.00     0.188 C 
BRANCH   2   3
ATOM      3  O   UNL A   1      38.136  22.036  26.128  1.00  0.00    -0.376 OA
BRANCH   3   4
ATOM      4  C   UNL A   1      37.682  23.252  25.495  1.00  0.00     0.202 C 
BRANCH   4   5
ATOM      5  C   UNL A   1      36.881  23.182  24.170  1.00  0.00     0.261 C 
BRANCH   5   6
ATOM      6  O   UNL A   1      35.513  22.846  24.374  1.00  0.00    -0.462 OA
BRANCH   6   7
ATOM      7  C   UNL A   1      34.704  23.646  25.094  1.00  0.00     0.331 C 
ATOM      8  O   UNL A   1      34.707  24.870  25.041  1.00  0.00    -0.249 OA
BRANCH   7   9
ATOM      9  C   UNL A   1      33.674  22.788  25.894  1.00  0.00     0.135 C 
ATOM     10  C   UNL A   1      34.560  21.752  26.663  1.00  0.00     0.047 C 
BRANCH   9  11
ATOM     11  C   UNL A   1      32.768  22.045  24.884  1.00  0.00     0.037 C 
ATOM     12  C   UNL A   1      33.238  20.641  24.506  1.00  0.00     0.007 C 
ENDBRANCH   9  11
BRANCH   9  13
ATOM     13  N   UNL A   1      32.841  23.553  26.911  1.00  0.00    -0.336 N 
ATOM     14  C   UNL A   1      31.567  24.079  26.743  1.00  0.00     0.255 C 
ATOM     15  H   UNL A   1      33.254  23.692  27.794  1.00  0.00     0.165 HD
ATOM     16  O   UNL A   1      30.591  23.529  27.251  1.00  0.00    -0.269 OA
BRANCH  14  17
ATOM     17  C   UNL A   1      31.347  25.426  26.132  1.00  0.00     0.082 A 
ATOM     18  C   UNL A   1      31.908  26.545  26.726  1.00  0.00     0.018 A 
ATOM     19  C   UNL A   1      30.575  25.640  24.998  1.00  0.00     0.136 A 
ATOM     20  C   UNL A   1      31.725  27.850  26.276  1.00  0.00     0.010 A 
ATOM     21  C   UNL A   1      30.521  26.934  24.397  1.00  0.00     0.024 A 
ATOM     22  C   UNL A   1      31.079  28.049  25.074  1.00  0.00    -0.015 A 
ATOM     23  C   UNL A   1      30.004  27.173  23.113  1.00  0.00     0.012 A 
ATOM     24  C   UNL A   1      31.076  29.334  24.516  1.00  0.00     0.009 A 
ATOM     25  C   UNL A   1      30.074  28.443  22.525  1.00  0.00     0.001 A 
ATOM     26  C   UNL A   1      30.596  29.526  23.230  1.00  0.00     0.001 A 
BRANCH  19  27
ATOM     27  O   UNL A   1      29.905  24.596  24.414  1.00  0.00    -0.506 OA
ATOM     28  H   UNL A   1      29.471  24.719  23.593  1.00  0.00     0.293 HD
ENDBRANCH  19  27
ENDBRANCH  14  17
ENDBRANCH   9  13
ENDBRANCH   7   9
ENDBRANCH   6   7
ENDBRANCH   5   6
ENDBRANCH   4   5
ENDBRANCH   3   4
ENDBRANCH   2   3
ENDBRANCH   1   2
BRANCH   1  29
ATOM     29  O   UNL A   1      40.971  20.555  27.617  1.00  0.00    -0.377 OA
BRANCH  29  30
ATOM     30  C   UNL A   1      41.138  19.556  26.600  1.00  0.00     0.188 C 
BRANCH  30  31
ATOM     31  C   UNL A   1      42.568  19.183  26.183  1.00  0.00     0.188 C 
BRANCH  31  32
ATOM     32  O   UNL A   1      43.056  19.824  25.002  1.00  0.00    -0.376 OA
BRANCH  32  33
ATOM     33  C   UNL A   1      44.418  20.238  25.020  1.00  0.00     0.202 C 
BRANCH  33  34
ATOM     34  C   UNL A   1      44.684  21.698  25.436  1.00  0.00     0.261 C 
BRANCH  34  35
ATOM     35  O   UNL A   1      43.521  22.430  25.882  1.00  0.00    -0.460 OA
BRANCH  35  36
ATOM     36  C   UNL A   1      43.550  23.764  25.628  1.00  0.00     0.338 C 
ATOM     37  O   UNL A   1      43.430  24.299  24.541  1.00  0.00    -0.246 OA
BRANCH  36  38
ATOM     38  C   UNL A   1      43.641  24.554  26.881  1.00  0.00     0.060 A 
ATOM     39  C   UNL A   1      42.975  24.059  28.014  1.00  0.00     0.016 A 
ATOM     40  C   UNL A   1      44.218  25.824  26.912  1.00  0.00     0.016 A 
ATOM     41  C   UNL A   1      42.797  24.866  29.141  1.00  0.00     0.010 A 
ATOM     42  C   UNL A   1      44.030  26.639  28.039  1.00  0.00     0.010 A 
ATOM     43  C   UNL A   1      43.260  26.188  29.130  1.00  0.00    -0.014 A 
BRANCH  43  44
ATOM     44  C   UNL A   1      42.693  27.172  30.096  1.00  0.00     0.031 A 
ATOM     45  C   UNL A   1      43.372  27.315  31.437  1.00  0.00     0.074 A 
ATOM     46  C   UNL A   1      41.635  27.950  29.804  1.00  0.00     0.049 A 
ATOM     47  N   UNL A   1      43.039  28.037  32.478  1.00  0.00    -0.248 NA
ATOM     48  C   UNL A   1      44.600  26.526  31.628  1.00  0.00     0.031 C 
ATOM     49  C   UNL A   1      40.924  27.972  28.530  1.00  0.00     0.029 A 
ATOM     50  N   UNL A   1      40.970  28.871  30.580  1.00  0.00    -0.354 N 
ATOM     51  C   UNL A   1      44.002  27.773  33.446  1.00  0.00     0.074 A 
ATOM     52  C   UNL A   1      44.913  26.802  32.883  1.00  0.00     0.031 C 
ATOM     53  C   UNL A   1      39.909  28.851  28.615  1.00  0.00     0.029 A 
ATOM     54  C   UNL A   1      39.877  29.427  29.960  1.00  0.00     0.049 A 
ATOM     55  H   UNL A   1      41.250  29.109  31.493  1.00  0.00     0.167 HD
ATOM     56  C   UNL A   1      44.125  28.296  34.690  1.00  0.00     0.037 A 
ATOM     57  C   UNL A   1      38.948  30.281  30.436  1.00  0.00     0.037 A 
ATOM     58  C   UNL A   1      43.222  29.266  35.253  1.00  0.00     0.049 A 
ATOM     59  C   UNL A   1      39.051  30.782  31.858  1.00  0.00     0.074 A 
ATOM     60  C   UNL A   1      43.267  29.864  36.500  1.00  0.00     0.029 A 
ATOM     61  N   UNL A   1      42.105  29.773  34.606  1.00  0.00    -0.354 N 
ATOM     62  N   UNL A   1      39.969  30.539  32.763  1.00  0.00    -0.248 NA
ATOM     63  C   UNL A   1      37.987  31.685  32.321  1.00  0.00     0.031 C 
ATOM     64  C   UNL A   1      42.141  30.684  36.632  1.00  0.00     0.029 A 
ATOM     65  C   UNL A   1      41.436  30.654  35.439  1.00  0.00     0.049 A 
ATOM     66  H   UNL A   1      41.829  29.540  33.690  1.00  0.00     0.167 HD
ATOM     67  C   UNL A   1      39.615  31.285  33.882  1.00  0.00     0.074 A 
ATOM     68  C   UNL A   1      38.404  32.000  33.540  1.00  0.00     0.031 C 
ATOM     69  C   UNL A   1      40.238  31.373  35.084  1.00  0.00     0.037 A 
BRANCH  56  70
ATOM     70  C   UNL A   1      45.259  27.798  35.541  1.00  0.00     0.064 A 
ATOM     71  C   UNL A   1      45.149  26.641  36.327  1.00  0.00     0.173 A 
ATOM     72  C   UNL A   1      46.484  28.485  35.558  1.00  0.00     0.173 A 
ATOM     73  F   UNL A   1      43.997  25.954  36.360  1.00  0.00    -0.203 F 
ATOM     74  C   UNL A   1      46.206  26.212  37.126  1.00  0.00     0.198 A 
ATOM     75  C   UNL A   1      47.551  28.032  36.329  1.00  0.00     0.198 A 
ATOM     76  F   UNL A   1      46.649  29.594  34.822  1.00  0.00    -0.203 F 
ATOM     77  F   UNL A   1      46.055  25.139  37.916  1.00  0.00    -0.200 F 
ATOM     78  C   UNL A   1      47.408  26.903  37.121  1.00  0.00     0.200 A 
ATOM     79  F   UNL A   1      48.717  28.693  36.310  1.00  0.00    -0.200 F 
ATOM     80  F   UNL A   1      48.426  26.486  37.886  1.00  0.00    -0.200 F 
ENDBRANCH  56  70
BRANCH  57  81
ATOM     81  C   UNL A   1      37.818  30.716  29.569  1.00  0.00     0.064 A 
ATOM     82  C   UNL A   1      37.738  32.032  29.089  1.00  0.00     0.173 A 
ATOM     83  C   UNL A   1      36.772  29.841  29.238  1.00  0.00     0.173 A 
ATOM     84  F   UNL A   1      38.693  32.920  29.406  1.00  0.00    -0.203 F 
ATOM     85  C   UNL A   1      36.650  32.459  28.330  1.00  0.00     0.198 A 
ATOM     86  C   UNL A   1      35.701  30.261  28.452  1.00  0.00     0.198 A 
ATOM     87  F   UNL A   1      36.789  28.576  29.683  1.00  0.00    -0.203 F 
ATOM     88  F   UNL A   1      36.572  33.738  27.937  1.00  0.00    -0.200 F 
ATOM     89  C   UNL A   1      35.635  31.572  28.006  1.00  0.00     0.200 A 
ATOM     90  F   UNL A   1      34.725  29.397  28.137  1.00  0.00    -0.200 F 
ATOM     91  F   UNL A   1      34.588  31.984  27.279  1.00  0.00    -0.200 F 
ENDBRANCH  57  81
BRANCH  69  92
ATOM     92  C   UNL A   1      39.661  32.318  36.103  1.00  0.00     0.064 A 
ATOM     93  C   UNL A   1      38.590  31.954  36.934  1.00  0.00     0.173 A 
ATOM     94  C   UNL A   1      40.216  33.597  36.275  1.00  0.00     0.173 A 
ATOM     95  F   UNL A   1      38.016  30.749  36.806  1.00  0.00    -0.203 F 
ATOM     96  C   UNL A   1      38.075  32.847  37.872  1.00  0.00     0.198 A 
ATOM     97  C   UNL A   1      39.723  34.473  37.238  1.00  0.00     0.198 A 
ATOM     98  F   UNL A   1      41.249  33.994  35.516  1.00  0.00    -0.203 F 
ATOM     99  F   UNL A   1      37.016  32.498  38.614  1.00  0.00    -0.200 F 
ATOM    100  C   UNL A   1      38.647  34.101  38.029  1.00  0.00     0.200 A 
ATOM    101  F   UNL A   1      40.289  35.676  37.401  1.00  0.00    -0.200 F 
ATOM    102  F   UNL A   1      38.155  34.955  38.937  1.00  0.00    -0.200 F 
ENDBRANCH  69  92
ENDBRANCH  43  44
ENDBRANCH  36  38
ENDBRANCH  35  36
ENDBRANCH  34  35
ENDBRANCH  33  34
ENDBRANCH  32  33
ENDBRANCH  31  32
ENDBRANCH  30  31
ENDBRANCH  29  30
ENDBRANCH   1  29
TORSDOF 24
ENDMDL
