MODEL 1
REMARK VINA RESULT:     -10.8      0.000      0.000
REMARK SMILES C[C@@H]1CN(S(=O)(=O)c2ccc(Cl)c(C(=O)OCCOCCOCCOCCOC(=O)c3ccc(-c4c5nc(c(-c6c(F)c(F)c(F)c(F)c6F)c6ccc([nH]6)c(-c6c(F)c(F)c(F)c(F)c6F)c6nc(c(-c7c(F)c(F)c(F)c(F)c7F)c7ccc4[nH]7)C=C6)C=C5)cc3)c2Cl)C[C@H]1C
REMARK SMILES IDX 22 1 21 2 20 3 19 4 18 5 17 6 16 7 14 8 15 9 13 10 8 11 9 12
REMARK SMILES IDX 94 13 10 14 95 15 11 16 12 17 5 18 6 19 7 20 4 21 1 22 2 23
REMARK SMILES IDX 3 24 97 25 96 26 98 27 23 28 24 29 25 30 26 31 27 32 28 33
REMARK SMILES IDX 29 34 30 35 31 36 32 37 93 38 33 39 92 40 34 41 35 42 36 43
REMARK SMILES IDX 86 44 37 45 91 46 85 47 87 48 38 49 90 50 84 51 83 52 39 54
REMARK SMILES IDX 71 55 51 56 70 57 52 58 55 59 69 60 88 61 53 62 54 63 68 65
REMARK SMILES IDX 89 66 56 67 40 68 41 69 49 70 42 71 43 72 47 73 50 74 44 75
REMARK SMILES IDX 45 76 48 77 46 78 72 79 73 80 81 81 74 82 75 83 79 84 82 85
REMARK SMILES IDX 76 86 77 87 80 88 78 89 57 90 58 91 66 92 59 93 60 94 64 95
REMARK SMILES IDX 67 96 61 97 62 98 65 99 63 100
REMARK H PARENT 87 53 55 64
REMARK Flexibility Score: inf
ROOT
ATOM      1  O   UNL A   1      33.820  31.226  28.006  1.00  0.00    -0.377 OA
ENDROOT
BRANCH   1   2
ATOM      2  C   UNL A   1      33.009  30.803  26.921  1.00  0.00     0.188 C 
BRANCH   2   3
ATOM      3  C   UNL A   1      32.406  29.384  26.944  1.00  0.00     0.188 C 
BRANCH   3   4
ATOM      4  O   UNL A   1      32.650  28.623  25.765  1.00  0.00    -0.376 OA
BRANCH   4   5
ATOM      5  C   UNL A   1      33.289  27.368  25.955  1.00  0.00     0.202 C 
BRANCH   5   6
ATOM      6  C   UNL A   1      34.077  26.878  24.741  1.00  0.00     0.261 C 
BRANCH   6   7
ATOM      7  O   UNL A   1      33.267  26.832  23.558  1.00  0.00    -0.460 OA
BRANCH   7   8
ATOM      8  C   UNL A   1      33.284  25.724  22.789  1.00  0.00     0.341 C 
ATOM      9  O   UNL A   1      33.699  25.625  21.650  1.00  0.00    -0.246 OA
BRANCH   8  10
ATOM     10  C   UNL A   1      32.773  24.624  23.642  1.00  0.00     0.098 A 
ATOM     11  C   UNL A   1      33.150  22.686  25.058  1.00  0.00     0.102 A 
ATOM     12  C   UNL A   1      31.826  22.795  25.522  1.00  0.00     0.025 A 
ATOM     13  C   UNL A   1      33.640  23.608  24.117  1.00  0.00     0.077 A 
ATOM     14  C   UNL A   1      30.967  23.761  25.009  1.00  0.00     0.023 A 
ATOM     15  Cl  UNL A   1      35.268  23.551  23.530  1.00  0.00    -0.082 Cl
ATOM     16  C   UNL A   1      31.433  24.670  24.063  1.00  0.00     0.057 A 
ATOM     17  Cl  UNL A   1      30.282  25.808  23.448  1.00  0.00    -0.083 Cl
BRANCH  11  18
ATOM     18  S   UNL A   1      34.129  21.387  25.805  1.00  0.00     0.244 S 
ATOM     19  O   UNL A   1      33.312  20.768  26.831  1.00  0.00    -0.207 OA
ATOM     20  O   UNL A   1      35.440  21.887  26.146  1.00  0.00    -0.207 OA
BRANCH  18  21
ATOM     21  N   UNL A   1      34.285  20.252  24.545  1.00  0.00    -0.197 NA
ATOM     22  C   UNL A   1      32.172  17.740  22.760  1.00  0.00     0.009 C 
ATOM     23  C   UNL A   1      32.938  18.352  23.924  1.00  0.00     0.005 C 
ATOM     24  C   UNL A   1      33.045  19.872  23.808  1.00  0.00     0.106 C 
ATOM     25  C   UNL A   1      34.399  17.920  24.012  1.00  0.00     0.005 C 
ATOM     26  C   UNL A   1      34.989  18.992  24.932  1.00  0.00     0.106 C 
ATOM     27  C   UNL A   1      34.581  16.511  24.557  1.00  0.00     0.009 C 
ENDBRANCH  18  21
ENDBRANCH  11  18
ENDBRANCH   8  10
ENDBRANCH   7   8
ENDBRANCH   6   7
ENDBRANCH   5   6
ENDBRANCH   4   5
ENDBRANCH   3   4
ENDBRANCH   2   3
ENDBRANCH   1   2
BRANCH   1  28
ATOM     28  C   UNL A   1      34.436  32.509  27.966  1.00  0.00     0.188 C 
BRANCH  28  29
ATOM     29  C   UNL A   1      33.686  33.776  28.429  1.00  0.00     0.188 C 
BRANCH  29  30
ATOM     30  O   UNL A   1      34.421  34.616  29.307  1.00  0.00    -0.376 OA
BRANCH  30  31
ATOM     31  C   UNL A   1      33.810  34.925  30.550  1.00  0.00     0.202 C 
BRANCH  31  32
ATOM     32  C   UNL A   1      34.564  34.385  31.771  1.00  0.00     0.261 C 
BRANCH  32  33
ATOM     33  O   UNL A   1      34.899  32.990  31.710  1.00  0.00    -0.460 OA
BRANCH  33  34
ATOM     34  C   UNL A   1      35.738  32.514  32.656  1.00  0.00     0.338 C 
ATOM     35  O   UNL A   1      35.604  32.564  33.864  1.00  0.00    -0.246 OA
BRANCH  34  36
ATOM     36  C   UNL A   1      36.795  31.751  31.966  1.00  0.00     0.060 A 
ATOM     37  C   UNL A   1      37.718  31.025  32.729  1.00  0.00     0.016 A 
ATOM     38  C   UNL A   1      36.866  31.753  30.572  1.00  0.00     0.016 A 
ATOM     39  C   UNL A   1      38.740  30.318  32.093  1.00  0.00     0.010 A 
ATOM     40  C   UNL A   1      37.899  31.063  29.938  1.00  0.00     0.010 A 
ATOM     41  C   UNL A   1      38.858  30.369  30.698  1.00  0.00    -0.014 A 
BRANCH  41  42
ATOM     42  C   UNL A   1      40.091  29.875  30.041  1.00  0.00     0.031 A 
ATOM     43  C   UNL A   1      41.249  30.822  29.905  1.00  0.00     0.074 A 
ATOM     44  C   UNL A   1      40.184  28.617  29.579  1.00  0.00     0.049 A 
ATOM     45  N   UNL A   1      42.409  30.645  29.326  1.00  0.00    -0.248 NA
ATOM     46  C   UNL A   1      41.070  32.157  30.501  1.00  0.00     0.031 C 
ATOM     47  C   UNL A   1      39.144  27.596  29.683  1.00  0.00     0.029 A 
ATOM     48  N   UNL A   1      41.211  27.990  28.916  1.00  0.00    -0.354 N 
ATOM     49  C   UNL A   1      43.094  31.842  29.487  1.00  0.00     0.074 A 
ATOM     50  C   UNL A   1      42.211  32.750  30.187  1.00  0.00     0.031 C 
ATOM     51  C   UNL A   1      39.582  26.470  29.092  1.00  0.00     0.029 A 
ATOM     52  C   UNL A   1      40.917  26.702  28.542  1.00  0.00     0.049 A 
ATOM     53  H   UNL A   1      42.074  28.422  28.726  1.00  0.00     0.167 HD
ATOM     54  C   UNL A   1      44.352  32.153  29.095  1.00  0.00     0.037 A 
ATOM     55  C   UNL A   1      41.640  25.823  27.820  1.00  0.00     0.037 A 
ATOM     56  C   UNL A   1      45.224  31.252  28.391  1.00  0.00     0.049 A 
ATOM     57  C   UNL A   1      43.008  26.222  27.322  1.00  0.00     0.074 A 
ATOM     58  C   UNL A   1      46.522  31.467  27.963  1.00  0.00     0.029 A 
ATOM     59  N   UNL A   1      44.881  29.967  27.999  1.00  0.00    -0.354 N 
ATOM     60  N   UNL A   1      43.664  27.343  27.505  1.00  0.00    -0.248 NA
ATOM     61  C   UNL A   1      43.735  25.230  26.516  1.00  0.00     0.031 C 
ATOM     62  C   UNL A   1      46.945  30.330  27.265  1.00  0.00     0.029 A 
ATOM     63  C   UNL A   1      45.931  29.387  27.309  1.00  0.00     0.049 A 
ATOM     64  H   UNL A   1      44.017  29.533  28.185  1.00  0.00     0.167 HD
ATOM     65  C   UNL A   1      44.887  27.181  26.865  1.00  0.00     0.074 A 
ATOM     66  C   UNL A   1      44.888  25.848  26.299  1.00  0.00     0.031 C 
ATOM     67  C   UNL A   1      45.918  28.056  26.756  1.00  0.00     0.037 A 
BRANCH  54  68
ATOM     68  C   UNL A   1      44.843  33.538  29.397  1.00  0.00     0.064 A 
ATOM     69  C   UNL A   1      44.613  34.609  28.521  1.00  0.00     0.173 A 
ATOM     70  C   UNL A   1      45.540  33.800  30.587  1.00  0.00     0.173 A 
ATOM     71  F   UNL A   1      43.967  34.408  27.362  1.00  0.00    -0.203 F 
ATOM     72  C   UNL A   1      45.086  35.886  28.811  1.00  0.00     0.198 A 
ATOM     73  C   UNL A   1      45.985  35.084  30.887  1.00  0.00     0.198 A 
ATOM     74  F   UNL A   1      45.786  32.811  31.458  1.00  0.00    -0.203 F 
ATOM     75  F   UNL A   1      44.900  36.883  27.936  1.00  0.00    -0.200 F 
ATOM     76  C   UNL A   1      45.766  36.124  29.997  1.00  0.00     0.200 A 
ATOM     77  F   UNL A   1      46.633  35.314  32.038  1.00  0.00    -0.200 F 
ATOM     78  F   UNL A   1      46.218  37.354  30.277  1.00  0.00    -0.200 F 
ENDBRANCH  54  68
BRANCH  55  79
ATOM     79  C   UNL A   1      41.085  24.479  27.509  1.00  0.00     0.064 A 
ATOM     80  C   UNL A   1      40.024  24.326  26.607  1.00  0.00     0.173 A 
ATOM     81  C   UNL A   1      41.586  23.325  28.129  1.00  0.00     0.173 A 
ATOM     82  F   UNL A   1      39.490  25.402  26.012  1.00  0.00    -0.203 F 
ATOM     83  C   UNL A   1      39.473  23.072  26.351  1.00  0.00     0.198 A 
ATOM     84  C   UNL A   1      41.053  22.068  27.850  1.00  0.00     0.198 A 
ATOM     85  F   UNL A   1      42.596  23.418  29.007  1.00  0.00    -0.203 F 
ATOM     86  F   UNL A   1      38.425  22.959  25.522  1.00  0.00    -0.200 F 
ATOM     87  C   UNL A   1      39.991  21.943  26.967  1.00  0.00     0.200 A 
ATOM     88  F   UNL A   1      41.562  20.980  28.443  1.00  0.00    -0.200 F 
ATOM     89  F   UNL A   1      39.461  20.738  26.720  1.00  0.00    -0.200 F 
ENDBRANCH  55  79
BRANCH  67  90
ATOM     90  C   UNL A   1      47.147  27.592  26.027  1.00  0.00     0.064 A 
ATOM     91  C   UNL A   1      48.219  26.987  26.698  1.00  0.00     0.173 A 
ATOM     92  C   UNL A   1      47.231  27.713  24.630  1.00  0.00     0.173 A 
ATOM     93  F   UNL A   1      48.195  26.859  28.033  1.00  0.00    -0.203 F 
ATOM     94  C   UNL A   1      49.340  26.543  26.001  1.00  0.00     0.198 A 
ATOM     95  C   UNL A   1      48.339  27.239  23.935  1.00  0.00     0.198 A 
ATOM     96  F   UNL A   1      46.229  28.278  23.939  1.00  0.00    -0.203 F 
ATOM     97  F   UNL A   1      50.373  26.010  26.668  1.00  0.00    -0.200 F 
ATOM     98  C   UNL A   1      49.395  26.662  24.620  1.00  0.00     0.200 A 
ATOM     99  F   UNL A   1      48.383  27.341  22.599  1.00  0.00    -0.200 F 
ATOM    100  F   UNL A   1      50.471  26.224  23.951  1.00  0.00    -0.200 F 
ENDBRANCH  67  90
ENDBRANCH  41  42
ENDBRANCH  34  36
ENDBRANCH  33  34
ENDBRANCH  32  33
ENDBRANCH  31  32
ENDBRANCH  30  31
ENDBRANCH  29  30
ENDBRANCH  28  29
ENDBRANCH   1  28
TORSDOF 22
ENDMDL
MODEL 2
REMARK VINA RESULT:     -10.7      4.939      7.153
REMARK SMILES C[C@@H]1CN(S(=O)(=O)c2ccc(Cl)c(C(=O)OCCOCCOCCOCCOC(=O)c3ccc(-c4c5nc(c(-c6c(F)c(F)c(F)c(F)c6F)c6ccc([nH]6)c(-c6c(F)c(F)c(F)c(F)c6F)c6nc(c(-c7c(F)c(F)c(F)c(F)c7F)c7ccc4[nH]7)C=C6)C=C5)cc3)c2Cl)C[C@H]1C
REMARK SMILES IDX 22 1 21 2 20 3 19 4 18 5 17 6 16 7 14 8 15 9 13 10 8 11 9 12
REMARK SMILES IDX 94 13 10 14 95 15 11 16 12 17 5 18 6 19 7 20 4 21 1 22 2 23
REMARK SMILES IDX 3 24 97 25 96 26 98 27 23 28 24 29 25 30 26 31 27 32 28 33
REMARK SMILES IDX 29 34 30 35 31 36 32 37 93 38 33 39 92 40 34 41 35 42 36 43
REMARK SMILES IDX 86 44 37 45 91 46 85 47 87 48 38 49 90 50 84 51 83 52 39 54
REMARK SMILES IDX 71 55 51 56 70 57 52 58 55 59 69 60 88 61 53 62 54 63 68 65
REMARK SMILES IDX 89 66 56 67 40 68 41 69 49 70 42 71 43 72 47 73 50 74 44 75
REMARK SMILES IDX 45 76 48 77 46 78 72 79 73 80 81 81 74 82 75 83 79 84 82 85
REMARK SMILES IDX 76 86 77 87 80 88 78 89 57 90 58 91 66 92 59 93 60 94 64 95
REMARK SMILES IDX 67 96 61 97 62 98 65 99 63 100
REMARK H PARENT 87 53 55 64
REMARK Flexibility Score: inf
ROOT
ATOM      1  O   UNL A   1      34.956  31.128  28.640  1.00  0.00    -0.377 OA
ENDROOT
BRANCH   1   2
ATOM      2  C   UNL A   1      34.123  30.679  27.582  1.00  0.00     0.188 C 
BRANCH   2   3
ATOM      3  C   UNL A   1      34.167  29.192  27.173  1.00  0.00     0.188 C 
BRANCH   3   4
ATOM      4  O   UNL A   1      33.741  28.939  25.837  1.00  0.00    -0.376 OA
BRANCH   4   5
ATOM      5  C   UNL A   1      32.724  29.796  25.335  1.00  0.00     0.202 C 
BRANCH   5   6
ATOM      6  C   UNL A   1      31.420  29.082  24.987  1.00  0.00     0.261 C 
BRANCH   6   7
ATOM      7  O   UNL A   1      31.497  27.671  25.236  1.00  0.00    -0.460 OA
BRANCH   7   8
ATOM      8  C   UNL A   1      31.037  26.810  24.305  1.00  0.00     0.341 C 
ATOM      9  O   UNL A   1      30.061  26.948  23.592  1.00  0.00    -0.246 OA
BRANCH   8  10
ATOM     10  C   UNL A   1      32.012  25.693  24.261  1.00  0.00     0.098 A 
ATOM     11  C   UNL A   1      32.671  23.427  24.837  1.00  0.00     0.102 A 
ATOM     12  C   UNL A   1      33.685  23.497  23.864  1.00  0.00     0.025 A 
ATOM     13  C   UNL A   1      31.817  24.524  25.039  1.00  0.00     0.077 A 
ATOM     14  C   UNL A   1      33.903  24.668  23.145  1.00  0.00     0.023 A 
ATOM     15  Cl  UNL A   1      30.529  24.492  26.195  1.00  0.00    -0.082 Cl
ATOM     16  C   UNL A   1      33.077  25.770  23.347  1.00  0.00     0.057 A 
ATOM     17  Cl  UNL A   1      33.451  27.196  22.440  1.00  0.00    -0.083 Cl
BRANCH  11  18
ATOM     18  S   UNL A   1      32.520  21.859  25.687  1.00  0.00     0.244 S 
ATOM     19  O   UNL A   1      31.112  21.511  25.699  1.00  0.00    -0.207 OA
ATOM     20  O   UNL A   1      33.254  21.895  26.929  1.00  0.00    -0.207 OA
BRANCH  18  21
ATOM     21  N   UNL A   1      33.288  20.772  24.626  1.00  0.00    -0.197 NA
ATOM     22  C   UNL A   1      32.354  18.071  22.219  1.00  0.00     0.009 C 
ATOM     23  C   UNL A   1      32.519  18.744  23.573  1.00  0.00     0.005 C 
ATOM     24  C   UNL A   1      32.496  20.268  23.468  1.00  0.00     0.106 C 
ATOM     25  C   UNL A   1      33.862  18.477  24.248  1.00  0.00     0.005 C 
ATOM     26  C   UNL A   1      33.914  19.592  25.297  1.00  0.00     0.106 C 
ATOM     27  C   UNL A   1      33.965  17.088  24.861  1.00  0.00     0.009 C 
ENDBRANCH  18  21
ENDBRANCH  11  18
ENDBRANCH   8  10
ENDBRANCH   7   8
ENDBRANCH   6   7
ENDBRANCH   5   6
ENDBRANCH   4   5
ENDBRANCH   3   4
ENDBRANCH   2   3
ENDBRANCH   1   2
BRANCH   1  28
ATOM     28  C   UNL A   1      35.540  32.425  28.573  1.00  0.00     0.188 C 
BRANCH  28  29
ATOM     29  C   UNL A   1      34.766  33.625  27.988  1.00  0.00     0.188 C 
BRANCH  29  30
ATOM     30  O   UNL A   1      34.837  34.814  28.762  1.00  0.00    -0.376 OA
BRANCH  30  31
ATOM     31  C   UNL A   1      33.965  35.868  28.387  1.00  0.00     0.202 C 
BRANCH  31  32
ATOM     32  C   UNL A   1      32.879  36.183  29.423  1.00  0.00     0.261 C 
BRANCH  32  33
ATOM     33  O   UNL A   1      32.720  35.195  30.454  1.00  0.00    -0.460 OA
BRANCH  33  34
ATOM     34  C   UNL A   1      32.815  35.617  31.734  1.00  0.00     0.338 C 
ATOM     35  O   UNL A   1      32.021  36.299  32.354  1.00  0.00    -0.246 OA
BRANCH  34  36
ATOM     36  C   UNL A   1      33.991  34.958  32.331  1.00  0.00     0.060 A 
ATOM     37  C   UNL A   1      35.245  35.572  32.220  1.00  0.00     0.016 A 
ATOM     38  C   UNL A   1      33.848  33.742  33.001  1.00  0.00     0.016 A 
ATOM     39  C   UNL A   1      36.372  34.948  32.758  1.00  0.00     0.010 A 
ATOM     40  C   UNL A   1      34.978  33.110  33.521  1.00  0.00     0.010 A 
ATOM     41  C   UNL A   1      36.248  33.695  33.373  1.00  0.00    -0.014 A 
BRANCH  41  42
ATOM     42  C   UNL A   1      37.459  32.899  33.680  1.00  0.00     0.031 A 
ATOM     43  C   UNL A   1      38.180  33.175  34.969  1.00  0.00     0.074 A 
ATOM     44  C   UNL A   1      37.909  31.952  32.839  1.00  0.00     0.049 A 
ATOM     45  N   UNL A   1      39.285  32.653  35.436  1.00  0.00    -0.248 NA
ATOM     46  C   UNL A   1      37.571  34.186  35.850  1.00  0.00     0.031 C 
ATOM     47  C   UNL A   1      37.279  31.569  31.579  1.00  0.00     0.029 A 
ATOM     48  N   UNL A   1      39.018  31.147  32.924  1.00  0.00    -0.354 N 
ATOM     49  C   UNL A   1      39.502  33.270  36.661  1.00  0.00     0.074 A 
ATOM     50  C   UNL A   1      38.436  34.229  36.852  1.00  0.00     0.031 C 
ATOM     51  C   UNL A   1      38.019  30.608  30.999  1.00  0.00     0.029 A 
ATOM     52  C   UNL A   1      39.188  30.331  31.832  1.00  0.00     0.049 A 
ATOM     53  H   UNL A   1      39.631  31.152  33.693  1.00  0.00     0.167 HD
ATOM     54  C   UNL A   1      40.496  33.049  37.553  1.00  0.00     0.037 A 
ATOM     55  C   UNL A   1      40.189  29.479  31.535  1.00  0.00     0.037 A 
ATOM     56  C   UNL A   1      41.561  32.102  37.357  1.00  0.00     0.049 A 
ATOM     57  C   UNL A   1      41.331  29.310  32.508  1.00  0.00     0.074 A 
ATOM     58  C   UNL A   1      42.607  31.792  38.207  1.00  0.00     0.029 A 
ATOM     59  N   UNL A   1      41.720  31.319  36.223  1.00  0.00    -0.354 N 
ATOM     60  N   UNL A   1      41.514  29.872  33.679  1.00  0.00    -0.248 NA
ATOM     61  C   UNL A   1      42.405  28.387  32.114  1.00  0.00     0.031 C 
ATOM     62  C   UNL A   1      43.430  30.861  37.564  1.00  0.00     0.029 A 
ATOM     63  C   UNL A   1      42.864  30.548  36.339  1.00  0.00     0.049 A 
ATOM     64  H   UNL A   1      41.109  31.312  35.451  1.00  0.00     0.167 HD
ATOM     65  C   UNL A   1      42.704  29.350  34.172  1.00  0.00     0.074 A 
ATOM     66  C   UNL A   1      43.194  28.416  33.180  1.00  0.00     0.031 C 
ATOM     67  C   UNL A   1      43.335  29.618  35.343  1.00  0.00     0.037 A 
BRANCH  54  68
ATOM     68  C   UNL A   1      40.490  33.871  38.807  1.00  0.00     0.064 A 
ATOM     69  C   UNL A   1      41.229  35.059  38.913  1.00  0.00     0.173 A 
ATOM     70  C   UNL A   1      39.721  33.475  39.912  1.00  0.00     0.173 A 
ATOM     71  F   UNL A   1      41.994  35.473  37.892  1.00  0.00    -0.203 F 
ATOM     72  C   UNL A   1      41.222  35.805  40.090  1.00  0.00     0.198 A 
ATOM     73  C   UNL A   1      39.693  34.238  41.075  1.00  0.00     0.198 A 
ATOM     74  F   UNL A   1      38.996  32.348  39.862  1.00  0.00    -0.203 F 
ATOM     75  F   UNL A   1      41.976  36.907  40.187  1.00  0.00    -0.200 F 
ATOM     76  C   UNL A   1      40.448  35.397  41.167  1.00  0.00     0.200 A 
ATOM     77  F   UNL A   1      38.937  33.848  42.111  1.00  0.00    -0.200 F 
ATOM     78  F   UNL A   1      40.439  36.117  42.297  1.00  0.00    -0.200 F 
ENDBRANCH  54  68
BRANCH  55  79
ATOM     79  C   UNL A   1      40.169  28.722  30.255  1.00  0.00     0.064 A 
ATOM     80  C   UNL A   1      40.762  29.244  29.098  1.00  0.00     0.173 A 
ATOM     81  C   UNL A   1      39.532  27.476  30.157  1.00  0.00     0.173 A 
ATOM     82  F   UNL A   1      41.356  30.446  29.133  1.00  0.00    -0.203 F 
ATOM     83  C   UNL A   1      40.702  28.558  27.887  1.00  0.00     0.198 A 
ATOM     84  C   UNL A   1      39.499  26.777  28.952  1.00  0.00     0.198 A 
ATOM     85  F   UNL A   1      38.942  26.937  31.234  1.00  0.00    -0.203 F 
ATOM     86  F   UNL A   1      41.234  29.102  26.783  1.00  0.00    -0.200 F 
ATOM     87  C   UNL A   1      40.077  27.322  27.816  1.00  0.00     0.200 A 
ATOM     88  F   UNL A   1      38.899  25.581  28.890  1.00  0.00    -0.200 F 
ATOM     89  F   UNL A   1      40.021  26.663  26.651  1.00  0.00    -0.200 F 
ENDBRANCH  55  79
BRANCH  67  90
ATOM     90  C   UNL A   1      44.606  28.871  35.633  1.00  0.00     0.064 A 
ATOM     91  C   UNL A   1      44.606  27.664  36.346  1.00  0.00     0.173 A 
ATOM     92  C   UNL A   1      45.835  29.347  35.149  1.00  0.00     0.173 A 
ATOM     93  F   UNL A   1      43.460  27.172  36.842  1.00  0.00    -0.203 F 
ATOM     94  C   UNL A   1      45.792  26.974  36.585  1.00  0.00     0.198 A 
ATOM     95  C   UNL A   1      47.013  28.639  35.362  1.00  0.00     0.198 A 
ATOM     96  F   UNL A   1      45.889  30.494  34.454  1.00  0.00    -0.203 F 
ATOM     97  F   UNL A   1      45.774  25.846  37.309  1.00  0.00    -0.200 F 
ATOM     98  C   UNL A   1      46.992  27.457  36.086  1.00  0.00     0.200 A 
ATOM     99  F   UNL A   1      48.170  29.100  34.866  1.00  0.00    -0.200 F 
ATOM    100  F   UNL A   1      48.131  26.786  36.309  1.00  0.00    -0.200 F 
ENDBRANCH  67  90
ENDBRANCH  41  42
ENDBRANCH  34  36
ENDBRANCH  33  34
ENDBRANCH  32  33
ENDBRANCH  31  32
ENDBRANCH  30  31
ENDBRANCH  29  30
ENDBRANCH  28  29
ENDBRANCH   1  28
TORSDOF 22
ENDMDL
MODEL 3
REMARK VINA RESULT:     -10.6      1.291      2.174
REMARK SMILES C[C@@H]1CN(S(=O)(=O)c2ccc(Cl)c(C(=O)OCCOCCOCCOCCOC(=O)c3ccc(-c4c5nc(c(-c6c(F)c(F)c(F)c(F)c6F)c6ccc([nH]6)c(-c6c(F)c(F)c(F)c(F)c6F)c6nc(c(-c7c(F)c(F)c(F)c(F)c7F)c7ccc4[nH]7)C=C6)C=C5)cc3)c2Cl)C[C@H]1C
REMARK SMILES IDX 22 1 21 2 20 3 19 4 18 5 17 6 16 7 14 8 15 9 13 10 8 11 9 12
REMARK SMILES IDX 94 13 10 14 95 15 11 16 12 17 5 18 6 19 7 20 4 21 1 22 2 23
REMARK SMILES IDX 3 24 97 25 96 26 98 27 23 28 24 29 25 30 26 31 27 32 28 33
REMARK SMILES IDX 29 34 30 35 31 36 32 37 93 38 33 39 92 40 34 41 35 42 36 43
REMARK SMILES IDX 86 44 37 45 91 46 85 47 87 48 38 49 90 50 84 51 83 52 39 54
REMARK SMILES IDX 71 55 51 56 70 57 52 58 55 59 69 60 88 61 53 62 54 63 68 65
REMARK SMILES IDX 89 66 56 67 40 68 41 69 49 70 42 71 43 72 47 73 50 74 44 75
REMARK SMILES IDX 45 76 48 77 46 78 72 79 73 80 81 81 74 82 75 83 79 84 82 85
REMARK SMILES IDX 76 86 77 87 80 88 78 89 57 90 58 91 66 92 59 93 60 94 64 95
REMARK SMILES IDX 67 96 61 97 62 98 65 99 63 100
REMARK H PARENT 87 53 55 64
REMARK Flexibility Score: inf
ROOT
ATOM      1  O   UNL A   1      33.705  31.248  27.977  1.00  0.00    -0.377 OA
ENDROOT
BRANCH   1   2
ATOM      2  C   UNL A   1      32.891  30.920  26.862  1.00  0.00     0.188 C 
BRANCH   2   3
ATOM      3  C   UNL A   1      32.305  29.497  26.754  1.00  0.00     0.188 C 
BRANCH   3   4
ATOM      4  O   UNL A   1      31.947  29.109  25.431  1.00  0.00    -0.376 OA
BRANCH   4   5
ATOM      5  C   UNL A   1      32.955  29.268  24.441  1.00  0.00     0.202 C 
BRANCH   5   6
ATOM      6  C   UNL A   1      32.495  28.940  23.022  1.00  0.00     0.261 C 
BRANCH   6   7
ATOM      7  O   UNL A   1      31.186  28.354  23.004  1.00  0.00    -0.460 OA
BRANCH   7   8
ATOM      8  C   UNL A   1      31.026  27.109  22.509  1.00  0.00     0.341 C 
ATOM      9  O   UNL A   1      31.040  26.775  21.339  1.00  0.00    -0.246 OA
BRANCH   8  10
ATOM     10  C   UNL A   1      30.916  26.210  23.683  1.00  0.00     0.098 A 
ATOM     11  C   UNL A   1      31.930  24.758  25.346  1.00  0.00     0.102 A 
ATOM     12  C   UNL A   1      30.741  24.823  26.096  1.00  0.00     0.025 A 
ATOM     13  C   UNL A   1      32.032  25.460  24.133  1.00  0.00     0.077 A 
ATOM     14  C   UNL A   1      29.634  25.517  25.619  1.00  0.00     0.023 A 
ATOM     15  Cl  UNL A   1      33.477  25.450  23.179  1.00  0.00    -0.082 Cl
ATOM     16  C   UNL A   1      29.713  26.202  24.410  1.00  0.00     0.057 A 
ATOM     17  Cl  UNL A   1      28.274  27.001  23.874  1.00  0.00    -0.083 Cl
BRANCH  11  18
ATOM     18  S   UNL A   1      33.262  23.819  26.085  1.00  0.00     0.244 S 
ATOM     19  O   UNL A   1      32.749  23.234  27.310  1.00  0.00    -0.207 OA
ATOM     20  O   UNL A   1      34.466  24.614  26.127  1.00  0.00    -0.207 OA
BRANCH  18  21
ATOM     21  N   UNL A   1      33.486  22.540  24.984  1.00  0.00    -0.197 NA
ATOM     22  C   UNL A   1      32.663  18.906  24.703  1.00  0.00     0.009 C 
ATOM     23  C   UNL A   1      33.347  20.149  25.253  1.00  0.00     0.005 C 
ATOM     24  C   UNL A   1      32.514  21.411  25.037  1.00  0.00     0.106 C 
ATOM     25  C   UNL A   1      34.666  20.497  24.566  1.00  0.00     0.005 C 
ATOM     26  C   UNL A   1      34.862  21.956  24.986  1.00  0.00     0.106 C 
ATOM     27  C   UNL A   1      35.822  19.602  24.988  1.00  0.00     0.009 C 
ENDBRANCH  18  21
ENDBRANCH  11  18
ENDBRANCH   8  10
ENDBRANCH   7   8
ENDBRANCH   6   7
ENDBRANCH   5   6
ENDBRANCH   4   5
ENDBRANCH   3   4
ENDBRANCH   2   3
ENDBRANCH   1   2
BRANCH   1  28
ATOM     28  C   UNL A   1      34.441  32.467  27.978  1.00  0.00     0.188 C 
BRANCH  28  29
ATOM     29  C   UNL A   1      33.767  33.812  28.322  1.00  0.00     0.188 C 
BRANCH  29  30
ATOM     30  O   UNL A   1      34.467  34.602  29.273  1.00  0.00    -0.376 OA
BRANCH  30  31
ATOM     31  C   UNL A   1      33.789  34.883  30.487  1.00  0.00     0.202 C 
BRANCH  31  32
ATOM     32  C   UNL A   1      34.402  34.208  31.719  1.00  0.00     0.261 C 
BRANCH  32  33
ATOM     33  O   UNL A   1      35.083  32.970  31.457  1.00  0.00    -0.460 OA
BRANCH  33  34
ATOM     34  C   UNL A   1      35.894  32.495  32.427  1.00  0.00     0.338 C 
ATOM     35  O   UNL A   1      35.604  32.237  33.580  1.00  0.00    -0.246 OA
BRANCH  34  36
ATOM     36  C   UNL A   1      37.188  32.168  31.801  1.00  0.00     0.060 A 
ATOM     37  C   UNL A   1      37.349  32.370  30.424  1.00  0.00     0.016 A 
ATOM     38  C   UNL A   1      38.237  31.669  32.576  1.00  0.00     0.016 A 
ATOM     39  C   UNL A   1      38.559  32.042  29.812  1.00  0.00     0.010 A 
ATOM     40  C   UNL A   1      39.439  31.323  31.960  1.00  0.00     0.010 A 
ATOM     41  C   UNL A   1      39.594  31.478  30.571  1.00  0.00    -0.014 A 
BRANCH  41  42
ATOM     42  C   UNL A   1      40.757  30.860  29.892  1.00  0.00     0.031 A 
ATOM     43  C   UNL A   1      41.967  31.716  29.642  1.00  0.00     0.074 A 
ATOM     44  C   UNL A   1      40.745  29.573  29.508  1.00  0.00     0.049 A 
ATOM     45  N   UNL A   1      43.082  31.424  29.023  1.00  0.00    -0.248 NA
ATOM     46  C   UNL A   1      41.906  33.094  30.158  1.00  0.00     0.031 C 
ATOM     47  C   UNL A   1      39.647  28.635  29.726  1.00  0.00     0.029 A 
ATOM     48  N   UNL A   1      41.693  28.838  28.841  1.00  0.00    -0.354 N 
ATOM     49  C   UNL A   1      43.853  32.578  29.076  1.00  0.00     0.074 A 
ATOM     50  C   UNL A   1      43.067  33.586  29.755  1.00  0.00     0.031 C 
ATOM     51  C   UNL A   1      39.979  27.447  29.189  1.00  0.00     0.029 A 
ATOM     52  C   UNL A   1      41.298  27.552  28.566  1.00  0.00     0.049 A 
ATOM     53  H   UNL A   1      42.572  29.197  28.585  1.00  0.00     0.167 HD
ATOM     54  C   UNL A   1      45.107  32.777  28.607  1.00  0.00     0.037 A 
ATOM     55  C   UNL A   1      41.924  26.583  27.869  1.00  0.00     0.037 A 
ATOM     56  C   UNL A   1      45.882  31.777  27.924  1.00  0.00     0.049 A 
ATOM     57  C   UNL A   1      43.289  26.855  27.285  1.00  0.00     0.074 A 
ATOM     58  C   UNL A   1      47.168  31.875  27.425  1.00  0.00     0.029 A 
ATOM     59  N   UNL A   1      45.435  30.497  27.632  1.00  0.00    -0.354 N 
ATOM     60  N   UNL A   1      44.025  27.937  27.366  1.00  0.00    -0.248 NA
ATOM     61  C   UNL A   1      43.908  25.768  26.513  1.00  0.00     0.031 C 
ATOM     62  C   UNL A   1      47.480  30.671  26.784  1.00  0.00     0.029 A 
ATOM     63  C   UNL A   1      46.410  29.804  26.934  1.00  0.00     0.049 A 
ATOM     64  H   UNL A   1      44.555  30.135  27.885  1.00  0.00     0.167 HD
ATOM     65  C   UNL A   1      45.201  27.652  26.682  1.00  0.00     0.074 A 
ATOM     66  C   UNL A   1      45.087  26.290  26.205  1.00  0.00     0.031 C 
ATOM     67  C   UNL A   1      46.281  28.446  26.470  1.00  0.00     0.037 A 
BRANCH  54  68
ATOM     68  C   UNL A   1      45.702  34.141  28.796  1.00  0.00     0.064 A 
ATOM     69  C   UNL A   1      45.478  35.177  27.878  1.00  0.00     0.173 A 
ATOM     70  C   UNL A   1      46.495  34.420  29.920  1.00  0.00     0.173 A 
ATOM     71  F   UNL A   1      44.742  34.958  26.777  1.00  0.00    -0.203 F 
ATOM     72  C   UNL A   1      46.048  36.434  28.063  1.00  0.00     0.198 A 
ATOM     73  C   UNL A   1      47.039  35.685  30.117  1.00  0.00     0.198 A 
ATOM     74  F   UNL A   1      46.739  33.464  30.829  1.00  0.00    -0.203 F 
ATOM     75  F   UNL A   1      45.864  37.394  27.145  1.00  0.00    -0.200 F 
ATOM     76  C   UNL A   1      46.822  36.689  29.185  1.00  0.00     0.200 A 
ATOM     77  F   UNL A   1      47.778  35.933  31.208  1.00  0.00    -0.200 F 
ATOM     78  F   UNL A   1      47.368  37.900  29.363  1.00  0.00    -0.200 F 
ENDBRANCH  54  68
BRANCH  55  79
ATOM     79  C   UNL A   1      41.268  25.263  27.672  1.00  0.00     0.064 A 
ATOM     80  C   UNL A   1      41.724  24.122  28.344  1.00  0.00     0.173 A 
ATOM     81  C   UNL A   1      40.190  25.112  26.788  1.00  0.00     0.173 A 
ATOM     82  F   UNL A   1      42.771  24.208  29.177  1.00  0.00    -0.203 F 
ATOM     83  C   UNL A   1      41.139  22.876  28.125  1.00  0.00     0.198 A 
ATOM     84  C   UNL A   1      39.587  23.871  26.591  1.00  0.00     0.198 A 
ATOM     85  F   UNL A   1      39.720  26.172  26.113  1.00  0.00    -0.203 F 
ATOM     86  F   UNL A   1      41.627  21.790  28.742  1.00  0.00    -0.200 F 
ATOM     87  C   UNL A   1      40.068  22.752  27.254  1.00  0.00     0.200 A 
ATOM     88  F   UNL A   1      38.548  23.759  25.753  1.00  0.00    -0.200 F 
ATOM     89  F   UNL A   1      39.506  21.554  27.044  1.00  0.00    -0.200 F 
ENDBRANCH  55  79
BRANCH  67  90
ATOM     90  C   UNL A   1      47.439  27.855  25.717  1.00  0.00     0.064 A 
ATOM     91  C   UNL A   1      47.455  27.794  24.316  1.00  0.00     0.173 A 
ATOM     92  C   UNL A   1      48.569  27.386  26.407  1.00  0.00     0.173 A 
ATOM     93  F   UNL A   1      46.396  28.217  23.610  1.00  0.00    -0.203 F 
ATOM     94  C   UNL A   1      48.548  27.264  23.635  1.00  0.00     0.198 A 
ATOM     95  C   UNL A   1      49.672  26.887  25.722  1.00  0.00     0.198 A 
ATOM     96  F   UNL A   1      48.608  27.428  27.747  1.00  0.00    -0.203 F 
ATOM     97  F   UNL A   1      48.522  27.174  22.298  1.00  0.00    -0.200 F 
ATOM     98  C   UNL A   1      49.658  26.819  24.338  1.00  0.00     0.200 A 
ATOM     99  F   UNL A   1      50.750  26.471  26.402  1.00  0.00    -0.200 F 
ATOM    100  F   UNL A   1      50.713  26.318  23.679  1.00  0.00    -0.200 F 
ENDBRANCH  67  90
ENDBRANCH  41  42
ENDBRANCH  34  36
ENDBRANCH  33  34
ENDBRANCH  32  33
ENDBRANCH  31  32
ENDBRANCH  30  31
ENDBRANCH  29  30
ENDBRANCH  28  29
ENDBRANCH   1  28
TORSDOF 22
ENDMDL
