MODEL 1
REMARK VINA RESULT:     -10.9      0.000      0.000
REMARK SMILES CN(c1ccc(C(N)=O)nn1)[C@H]1COC[C@@H]1C(=O)OCCOCCOCCOCCOC(=O)c1ccc(-c2c3nc(c(-c4c(F)c(F)c(F)c(F)c4F)c4ccc([nH]4)c(-c4c(F)c(F)c(F)c(F)c4F)c4nc(c(-c5c(F)c(F)c(F)c(F)c5F)c5ccc2[nH]5)C=C4)C=C3)cc1
REMARK SMILES IDX 24 1 23 2 22 3 21 4 20 5 19 6 17 7 18 8 16 9 12 10 13 11
REMARK SMILES IDX 14 12 15 13 2 14 1 15 3 16 4 17 11 18 5 19 10 20 6 21 7 22
REMARK SMILES IDX 8 23 9 24 25 27 26 28 27 29 28 30 29 31 30 32 31 33 32 34
REMARK SMILES IDX 33 35 34 36 35 37 96 38 36 39 95 40 37 41 38 42 39 43 89 44
REMARK SMILES IDX 40 45 94 46 88 47 90 48 41 49 93 50 87 51 86 52 42 54 74 55
REMARK SMILES IDX 54 56 73 57 55 58 58 59 72 60 91 61 56 62 57 63 71 65 92 66
REMARK SMILES IDX 59 67 43 68 44 69 52 70 45 71 46 72 50 73 53 74 47 75 48 76
REMARK SMILES IDX 51 77 49 78 75 79 76 80 84 81 77 82 78 83 82 84 85 85 79 86
REMARK SMILES IDX 80 87 83 88 81 89 60 90 61 91 69 92 62 93 63 94 67 95 70 96
REMARK SMILES IDX 64 97 65 98 68 99 66 100
REMARK H PARENT 8 25 8 26 90 53 58 64
REMARK Flexibility Score: inf
ROOT
ATOM      1  C   UNL A   1      39.268  21.837  26.228  1.00  0.00     0.188 C 
ENDROOT
BRANCH   1   2
ATOM      2  C   UNL A   1      38.521  20.795  25.379  1.00  0.00     0.188 C 
BRANCH   2   3
ATOM      3  O   UNL A   1      37.287  21.138  24.772  1.00  0.00    -0.376 OA
BRANCH   3   4
ATOM      4  C   UNL A   1      36.014  20.752  25.267  1.00  0.00     0.202 C 
BRANCH   4   5
ATOM      5  C   UNL A   1      34.681  21.502  25.083  1.00  0.00     0.261 C 
BRANCH   5   6
ATOM      6  O   UNL A   1      33.602  21.137  25.933  1.00  0.00    -0.463 OA
BRANCH   6   7
ATOM      7  C   UNL A   1      33.047  22.147  26.646  1.00  0.00     0.313 C 
ATOM      8  O   UNL A   1      33.469  22.565  27.712  1.00  0.00    -0.252 OA
BRANCH   7   9
ATOM      9  C   UNL A   1      31.873  22.714  25.882  1.00  0.00     0.150 C 
ATOM     10  C   UNL A   1      32.261  24.042  25.259  1.00  0.00     0.125 C 
ATOM     11  C   UNL A   1      31.908  25.004  26.397  1.00  0.00     0.186 C 
ATOM     12  O   UNL A   1      30.797  24.434  27.116  1.00  0.00    -0.378 OA
ATOM     13  C   UNL A   1      30.764  23.025  26.857  1.00  0.00     0.177 C 
BRANCH  10  14
ATOM     14  N   UNL A   1      31.512  24.345  24.013  1.00  0.00    -0.352 N 
ATOM     15  C   UNL A   1      30.805  23.302  23.283  1.00  0.00     0.145 C 
BRANCH  14  16
ATOM     16  C   UNL A   1      31.174  25.675  23.779  1.00  0.00     0.151 A 
ATOM     17  C   UNL A   1      29.857  26.121  23.888  1.00  0.00     0.051 A 
ATOM     18  N   UNL A   1      32.125  26.562  23.403  1.00  0.00    -0.132 NA
ATOM     19  C   UNL A   1      29.520  27.439  23.578  1.00  0.00     0.040 A 
ATOM     20  N   UNL A   1      31.805  27.877  23.072  1.00  0.00    -0.143 NA
ATOM     21  C   UNL A   1      30.521  28.289  23.155  1.00  0.00     0.150 A 
BRANCH  21  22
ATOM     22  C   UNL A   1      30.199  29.690  22.761  1.00  0.00     0.269 C 
ATOM     23  N   UNL A   1      30.686  30.126  21.559  1.00  0.00    -0.364 N 
ATOM     24  O   UNL A   1      29.517  30.422  23.469  1.00  0.00    -0.268 OA
ATOM     25  H   UNL A   1      31.232  29.525  21.000  1.00  0.00     0.160 HD
ATOM     26  H   UNL A   1      30.491  31.041  21.251  1.00  0.00     0.160 HD
ENDBRANCH  21  22
ENDBRANCH  14  16
ENDBRANCH  10  14
ENDBRANCH   7   9
ENDBRANCH   6   7
ENDBRANCH   5   6
ENDBRANCH   4   5
ENDBRANCH   3   4
ENDBRANCH   2   3
ENDBRANCH   1   2
BRANCH   1  27
ATOM     27  O   UNL A   1      40.544  21.395  26.655  1.00  0.00    -0.377 OA
BRANCH  27  28
ATOM     28  C   UNL A   1      40.984  20.144  26.138  1.00  0.00     0.188 C 
BRANCH  28  29
ATOM     29  C   UNL A   1      42.498  19.828  26.091  1.00  0.00     0.188 C 
BRANCH  29  30
ATOM     30  O   UNL A   1      43.208  20.495  25.058  1.00  0.00    -0.376 OA
BRANCH  30  31
ATOM     31  C   UNL A   1      44.624  20.415  25.028  1.00  0.00     0.202 C 
BRANCH  31  32
ATOM     32  C   UNL A   1      45.410  21.655  25.483  1.00  0.00     0.261 C 
BRANCH  32  33
ATOM     33  O   UNL A   1      44.645  22.686  26.128  1.00  0.00    -0.460 OA
BRANCH  33  34
ATOM     34  C   UNL A   1      44.294  23.754  25.385  1.00  0.00     0.338 C 
ATOM     35  O   UNL A   1      44.403  23.879  24.176  1.00  0.00    -0.246 OA
BRANCH  34  36
ATOM     36  C   UNL A   1      43.558  24.693  26.256  1.00  0.00     0.060 A 
ATOM     37  C   UNL A   1      43.883  26.055  26.209  1.00  0.00     0.016 A 
ATOM     38  C   UNL A   1      42.553  24.238  27.114  1.00  0.00     0.016 A 
ATOM     39  C   UNL A   1      43.235  26.960  27.050  1.00  0.00     0.010 A 
ATOM     40  C   UNL A   1      41.921  25.142  27.974  1.00  0.00     0.010 A 
ATOM     41  C   UNL A   1      42.286  26.500  27.972  1.00  0.00    -0.014 A 
BRANCH  41  42
ATOM     42  C   UNL A   1      41.835  27.396  29.067  1.00  0.00     0.031 A 
ATOM     43  C   UNL A   1      42.596  27.370  30.366  1.00  0.00     0.074 A 
ATOM     44  C   UNL A   1      40.805  28.246  28.903  1.00  0.00     0.049 A 
ATOM     45  N   UNL A   1      42.367  28.016  31.480  1.00  0.00    -0.248 NA
ATOM     46  C   UNL A   1      43.780  26.494  30.412  1.00  0.00     0.031 C 
ATOM     47  C   UNL A   1      40.024  28.406  27.679  1.00  0.00     0.029 A 
ATOM     48  N   UNL A   1      40.236  29.133  29.785  1.00  0.00    -0.354 N 
ATOM     49  C   UNL A   1      43.377  27.630  32.353  1.00  0.00     0.074 A 
ATOM     50  C   UNL A   1      44.196  26.664  31.657  1.00  0.00     0.031 C 
ATOM     51  C   UNL A   1      39.067  29.327  27.891  1.00  0.00     0.029 A 
ATOM     52  C   UNL A   1      39.145  29.794  29.275  1.00  0.00     0.049 A 
ATOM     53  H   UNL A   1      40.578  29.283  30.695  1.00  0.00     0.167 HD
ATOM     54  C   UNL A   1      43.611  28.058  33.615  1.00  0.00     0.037 A 
ATOM     55  C   UNL A   1      38.294  30.653  29.870  1.00  0.00     0.037 A 
ATOM     56  C   UNL A   1      42.793  29.016  34.311  1.00  0.00     0.049 A 
ATOM     57  C   UNL A   1      38.519  31.029  31.317  1.00  0.00     0.074 A 
ATOM     58  C   UNL A   1      42.937  29.500  35.599  1.00  0.00     0.029 A 
ATOM     59  N   UNL A   1      41.674  29.635  33.774  1.00  0.00    -0.354 N 
ATOM     60  N   UNL A   1      39.482  30.671  32.131  1.00  0.00    -0.248 NA
ATOM     61  C   UNL A   1      37.535  31.937  31.926  1.00  0.00     0.031 C 
ATOM     62  C   UNL A   1      41.877  30.373  35.859  1.00  0.00     0.029 A 
ATOM     63  C   UNL A   1      41.109  30.483  34.711  1.00  0.00     0.049 A 
ATOM     64  H   UNL A   1      41.333  29.492  32.862  1.00  0.00     0.167 HD
ATOM     65  C   UNL A   1      39.245  31.341  33.326  1.00  0.00     0.074 A 
ATOM     66  C   UNL A   1      38.057  32.142  33.126  1.00  0.00     0.031 C 
ATOM     67  C   UNL A   1      39.943  31.297  34.487  1.00  0.00     0.037 A 
BRANCH  54  68
ATOM     68  C   UNL A   1      44.798  27.490  34.337  1.00  0.00     0.064 A 
ATOM     69  C   UNL A   1      46.055  28.111  34.282  1.00  0.00     0.173 A 
ATOM     70  C   UNL A   1      44.663  26.352  35.146  1.00  0.00     0.173 A 
ATOM     71  F   UNL A   1      46.241  29.193  33.510  1.00  0.00    -0.203 F 
ATOM     72  C   UNL A   1      47.135  27.606  35.000  1.00  0.00     0.198 A 
ATOM     73  C   UNL A   1      45.737  25.867  35.886  1.00  0.00     0.198 A 
ATOM     74  F   UNL A   1      43.482  25.721  35.234  1.00  0.00    -0.203 F 
ATOM     75  F   UNL A   1      48.335  28.195  34.906  1.00  0.00    -0.200 F 
ATOM     76  C   UNL A   1      46.973  26.493  35.811  1.00  0.00     0.200 A 
ATOM     77  F   UNL A   1      45.575  24.800  36.681  1.00  0.00    -0.200 F 
ATOM     78  F   UNL A   1      48.008  26.019  36.518  1.00  0.00    -0.200 F 
ENDBRANCH  54  68
BRANCH  55  79
ATOM     79  C   UNL A   1      37.124  31.204  29.131  1.00  0.00     0.064 A 
ATOM     80  C   UNL A   1      37.047  32.565  28.801  1.00  0.00     0.173 A 
ATOM     81  C   UNL A   1      36.019  30.398  28.814  1.00  0.00     0.173 A 
ATOM     82  F   UNL A   1      38.065  33.385  29.104  1.00  0.00    -0.203 F 
ATOM     83  C   UNL A   1      35.897  33.107  28.230  1.00  0.00     0.198 A 
ATOM     84  C   UNL A   1      34.884  30.934  28.207  1.00  0.00     0.198 A 
ATOM     85  F   UNL A   1      36.033  29.090  29.108  1.00  0.00    -0.203 F 
ATOM     86  F   UNL A   1      35.822  34.427  28.006  1.00  0.00    -0.200 F 
ATOM     87  C   UNL A   1      34.816  32.291  27.932  1.00  0.00     0.200 A 
ATOM     88  F   UNL A   1      33.848  30.139  27.911  1.00  0.00    -0.200 F 
ATOM     89  F   UNL A   1      33.705  32.815  27.398  1.00  0.00    -0.200 F 
ENDBRANCH  55  79
BRANCH  67  90
ATOM     90  C   UNL A   1      39.485  32.186  35.609  1.00  0.00     0.064 A 
ATOM     91  C   UNL A   1      39.994  33.481  35.788  1.00  0.00     0.173 A 
ATOM     92  C   UNL A   1      38.492  31.745  36.499  1.00  0.00     0.173 A 
ATOM     93  F   UNL A   1      40.951  33.948  34.972  1.00  0.00    -0.203 F 
ATOM     94  C   UNL A   1      39.555  34.286  36.836  1.00  0.00     0.198 A 
ATOM     95  C   UNL A   1      38.028  32.566  37.524  1.00  0.00     0.198 A 
ATOM     96  F   UNL A   1      37.961  30.520  36.369  1.00  0.00    -0.203 F 
ATOM     97  F   UNL A   1      40.101  35.496  37.022  1.00  0.00    -0.200 F 
ATOM     98  C   UNL A   1      38.568  33.831  37.698  1.00  0.00     0.200 A 
ATOM     99  F   UNL A   1      37.061  32.132  38.342  1.00  0.00    -0.200 F 
ATOM    100  F   UNL A   1      38.142  34.610  38.701  1.00  0.00    -0.200 F 
ENDBRANCH  67  90
ENDBRANCH  41  42
ENDBRANCH  34  36
ENDBRANCH  33  34
ENDBRANCH  32  33
ENDBRANCH  31  32
ENDBRANCH  30  31
ENDBRANCH  29  30
ENDBRANCH  28  29
ENDBRANCH  27  28
ENDBRANCH   1  27
TORSDOF 23
ENDMDL
MODEL 2
REMARK VINA RESULT:     -10.4      5.055     10.870
REMARK SMILES CN(c1ccc(C(N)=O)nn1)[C@H]1COC[C@@H]1C(=O)OCCOCCOCCOCCOC(=O)c1ccc(-c2c3nc(c(-c4c(F)c(F)c(F)c(F)c4F)c4ccc([nH]4)c(-c4c(F)c(F)c(F)c(F)c4F)c4nc(c(-c5c(F)c(F)c(F)c(F)c5F)c5ccc2[nH]5)C=C4)C=C3)cc1
REMARK SMILES IDX 24 1 23 2 22 3 21 4 20 5 19 6 17 7 18 8 16 9 12 10 13 11
REMARK SMILES IDX 14 12 15 13 2 14 1 15 3 16 4 17 11 18 5 19 10 20 6 21 7 22
REMARK SMILES IDX 8 23 9 24 25 27 26 28 27 29 28 30 29 31 30 32 31 33 32 34
REMARK SMILES IDX 33 35 34 36 35 37 96 38 36 39 95 40 37 41 38 42 39 43 89 44
REMARK SMILES IDX 40 45 94 46 88 47 90 48 41 49 93 50 87 51 86 52 42 54 74 55
REMARK SMILES IDX 54 56 73 57 55 58 58 59 72 60 91 61 56 62 57 63 71 65 92 66
REMARK SMILES IDX 59 67 43 68 44 69 52 70 45 71 46 72 50 73 53 74 47 75 48 76
REMARK SMILES IDX 51 77 49 78 75 79 76 80 84 81 77 82 78 83 82 84 85 85 79 86
REMARK SMILES IDX 80 87 83 88 81 89 60 90 61 91 69 92 62 93 63 94 67 95 70 96
REMARK SMILES IDX 64 97 65 98 68 99 66 100
REMARK H PARENT 8 25 8 26 90 53 58 64
REMARK Flexibility Score: inf
ROOT
ATOM      1  C   UNL A   1      34.863  33.338  28.049  1.00  0.00     0.188 C 
ENDROOT
BRANCH   1   2
ATOM      2  C   UNL A   1      34.643  31.862  27.679  1.00  0.00     0.188 C 
BRANCH   2   3
ATOM      3  O   UNL A   1      33.385  31.257  27.923  1.00  0.00    -0.376 OA
BRANCH   3   4
ATOM      4  C   UNL A   1      32.891  30.122  27.228  1.00  0.00     0.202 C 
BRANCH   4   5
ATOM      5  C   UNL A   1      32.583  30.017  25.722  1.00  0.00     0.261 C 
BRANCH   5   6
ATOM      6  O   UNL A   1      33.459  29.229  24.927  1.00  0.00    -0.463 OA
BRANCH   6   7
ATOM      7  C   UNL A   1      32.967  28.831  23.730  1.00  0.00     0.313 C 
ATOM      8  O   UNL A   1      33.475  29.079  22.648  1.00  0.00    -0.252 OA
BRANCH   7   9
ATOM      9  C   UNL A   1      31.738  27.979  23.949  1.00  0.00     0.150 C 
ATOM     10  C   UNL A   1      32.044  26.537  23.587  1.00  0.00     0.125 C 
ATOM     11  C   UNL A   1      31.702  26.540  22.095  1.00  0.00     0.186 C 
ATOM     12  O   UNL A   1      30.648  27.502  21.894  1.00  0.00    -0.378 OA
ATOM     13  C   UNL A   1      30.662  28.424  22.990  1.00  0.00     0.177 C 
BRANCH  10  14
ATOM     14  N   UNL A   1      31.229  25.557  24.350  1.00  0.00    -0.352 N 
ATOM     15  C   UNL A   1      29.775  25.618  24.347  1.00  0.00     0.145 C 
BRANCH  14  16
ATOM     16  C   UNL A   1      31.851  24.372  24.733  1.00  0.00     0.151 A 
ATOM     17  C   UNL A   1      33.159  24.359  25.216  1.00  0.00     0.051 A 
ATOM     18  N   UNL A   1      31.200  23.191  24.608  1.00  0.00    -0.132 NA
ATOM     19  C   UNL A   1      33.797  23.157  25.525  1.00  0.00     0.040 A 
ATOM     20  N   UNL A   1      31.826  21.980  24.893  1.00  0.00    -0.143 NA
ATOM     21  C   UNL A   1      33.103  21.980  25.334  1.00  0.00     0.150 A 
BRANCH  21  22
ATOM     22  C   UNL A   1      33.762  20.670  25.597  1.00  0.00     0.269 C 
ATOM     23  N   UNL A   1      33.162  19.842  26.508  1.00  0.00    -0.364 N 
ATOM     24  O   UNL A   1      34.789  20.333  25.020  1.00  0.00    -0.268 OA
ATOM     25  H   UNL A   1      32.336  20.127  26.963  1.00  0.00     0.160 HD
ATOM     26  H   UNL A   1      33.556  18.962  26.708  1.00  0.00     0.160 HD
ENDBRANCH  21  22
ENDBRANCH  14  16
ENDBRANCH  10  14
ENDBRANCH   7   9
ENDBRANCH   6   7
ENDBRANCH   5   6
ENDBRANCH   4   5
ENDBRANCH   3   4
ENDBRANCH   2   3
ENDBRANCH   1   2
BRANCH   1  27
ATOM     27  O   UNL A   1      33.800  33.885  28.808  1.00  0.00    -0.377 OA
BRANCH  27  28
ATOM     28  C   UNL A   1      33.579  35.284  28.667  1.00  0.00     0.188 C 
BRANCH  28  29
ATOM     29  C   UNL A   1      32.909  36.071  29.819  1.00  0.00     0.188 C 
BRANCH  29  30
ATOM     30  O   UNL A   1      33.684  36.153  31.005  1.00  0.00    -0.376 OA
BRANCH  30  31
ATOM     31  C   UNL A   1      33.548  35.145  31.993  1.00  0.00     0.202 C 
BRANCH  31  32
ATOM     32  C   UNL A   1      34.829  34.669  32.697  1.00  0.00     0.261 C 
BRANCH  32  33
ATOM     33  O   UNL A   1      35.465  33.511  32.133  1.00  0.00    -0.460 OA
BRANCH  33  34
ATOM     34  C   UNL A   1      36.099  32.678  32.981  1.00  0.00     0.338 C 
ATOM     35  O   UNL A   1      35.827  32.471  34.153  1.00  0.00    -0.246 OA
BRANCH  34  36
ATOM     36  C   UNL A   1      37.076  31.889  32.201  1.00  0.00     0.060 A 
ATOM     37  C   UNL A   1      38.013  31.106  32.886  1.00  0.00     0.016 A 
ATOM     38  C   UNL A   1      37.068  31.920  30.804  1.00  0.00     0.016 A 
ATOM     39  C   UNL A   1      38.974  30.384  32.178  1.00  0.00     0.010 A 
ATOM     40  C   UNL A   1      38.046  31.215  30.095  1.00  0.00     0.010 A 
ATOM     41  C   UNL A   1      39.026  30.474  30.781  1.00  0.00    -0.014 A 
BRANCH  41  42
ATOM     42  C   UNL A   1      40.222  29.971  30.059  1.00  0.00     0.031 A 
ATOM     43  C   UNL A   1      41.367  30.921  29.830  1.00  0.00     0.074 A 
ATOM     44  C   UNL A   1      40.314  28.691  29.654  1.00  0.00     0.049 A 
ATOM     45  N   UNL A   1      42.490  30.736  29.185  1.00  0.00    -0.248 NA
ATOM     46  C   UNL A   1      41.225  32.267  30.412  1.00  0.00     0.031 C 
ATOM     47  C   UNL A   1      39.300  27.660  29.863  1.00  0.00     0.029 A 
ATOM     48  N   UNL A   1      41.316  28.045  28.971  1.00  0.00    -0.354 N 
ATOM     49  C   UNL A   1      43.186  31.934  29.288  1.00  0.00     0.074 A 
ATOM     50  C   UNL A   1      42.346  32.854  30.020  1.00  0.00     0.031 C 
ATOM     51  C   UNL A   1      39.726  26.512  29.307  1.00  0.00     0.029 A 
ATOM     52  C   UNL A   1      41.025  26.736  28.672  1.00  0.00     0.049 A 
ATOM     53  H   UNL A   1      42.164  28.478  28.720  1.00  0.00     0.167 HD
ATOM     54  C   UNL A   1      44.424  32.233  28.830  1.00  0.00     0.037 A 
ATOM     55  C   UNL A   1      41.716  25.837  27.945  1.00  0.00     0.037 A 
ATOM     56  C   UNL A   1      45.259  31.320  28.097  1.00  0.00     0.049 A 
ATOM     57  C   UNL A   1      43.049  26.236  27.353  1.00  0.00     0.074 A 
ATOM     58  C   UNL A   1      46.522  31.536  27.573  1.00  0.00     0.029 A 
ATOM     59  N   UNL A   1      44.913  30.015  27.781  1.00  0.00    -0.354 N 
ATOM     60  N   UNL A   1      43.706  27.365  27.466  1.00  0.00    -0.248 NA
ATOM     61  C   UNL A   1      43.739  25.227  26.534  1.00  0.00     0.031 C 
ATOM     62  C   UNL A   1      46.918  30.378  26.898  1.00  0.00     0.029 A 
ATOM     63  C   UNL A   1      45.931  29.420  27.055  1.00  0.00     0.049 A 
ATOM     64  H   UNL A   1      44.069  29.577  28.035  1.00  0.00     0.167 HD
ATOM     65  C   UNL A   1      44.898  27.187  26.773  1.00  0.00     0.074 A 
ATOM     66  C   UNL A   1      44.883  25.835  26.259  1.00  0.00     0.031 C 
ATOM     67  C   UNL A   1      45.915  28.062  26.576  1.00  0.00     0.037 A 
BRANCH  54  68
ATOM     68  C   UNL A   1      44.955  33.611  29.100  1.00  0.00     0.064 A 
ATOM     69  C   UNL A   1      44.684  34.682  28.236  1.00  0.00     0.173 A 
ATOM     70  C   UNL A   1      45.686  33.877  30.268  1.00  0.00     0.173 A 
ATOM     71  F   UNL A   1      44.003  34.477  27.098  1.00  0.00    -0.203 F 
ATOM     72  C   UNL A   1      45.135  35.967  28.525  1.00  0.00     0.198 A 
ATOM     73  C   UNL A   1      46.110  35.169  30.568  1.00  0.00     0.198 A 
ATOM     74  F   UNL A   1      45.971  32.888  31.128  1.00  0.00    -0.203 F 
ATOM     75  F   UNL A   1      44.894  36.969  27.668  1.00  0.00    -0.200 F 
ATOM     76  C   UNL A   1      45.837  36.212  29.696  1.00  0.00     0.200 A 
ATOM     77  F   UNL A   1      46.775  35.406  31.708  1.00  0.00    -0.200 F 
ATOM     78  F   UNL A   1      46.254  37.452  29.983  1.00  0.00    -0.200 F 
ENDBRANCH  54  68
BRANCH  55  79
ATOM     79  C   UNL A   1      41.168  24.474  27.693  1.00  0.00     0.064 A 
ATOM     80  C   UNL A   1      41.741  23.339  28.285  1.00  0.00     0.173 A 
ATOM     81  C   UNL A   1      40.115  24.271  26.788  1.00  0.00     0.173 A 
ATOM     82  F   UNL A   1      42.767  23.475  29.137  1.00  0.00    -0.203 F 
ATOM     83  C   UNL A   1      41.316  22.056  27.946  1.00  0.00     0.198 A 
ATOM     84  C   UNL A   1      39.664  22.988  26.480  1.00  0.00     0.198 A 
ATOM     85  F   UNL A   1      39.530  25.318  26.189  1.00  0.00    -0.203 F 
ATOM     86  F   UNL A   1      41.940  20.988  28.464  1.00  0.00    -0.200 F 
ATOM     87  C   UNL A   1      40.277  21.881  27.045  1.00  0.00     0.200 A 
ATOM     88  F   UNL A   1      38.652  22.826  25.618  1.00  0.00    -0.200 F 
ATOM     89  F   UNL A   1      39.879  20.647  26.708  1.00  0.00    -0.200 F 
ENDBRANCH  55  79
BRANCH  67  90
ATOM     90  C   UNL A   1      47.123  27.569  25.830  1.00  0.00     0.064 A 
ATOM     91  C   UNL A   1      48.194  26.941  26.482  1.00  0.00     0.173 A 
ATOM     92  C   UNL A   1      47.192  27.697  24.433  1.00  0.00     0.173 A 
ATOM     93  F   UNL A   1      48.184  26.802  27.817  1.00  0.00    -0.203 F 
ATOM     94  C   UNL A   1      49.305  26.494  25.770  1.00  0.00     0.198 A 
ATOM     95  C   UNL A   1      48.286  27.215  23.720  1.00  0.00     0.198 A 
ATOM     96  F   UNL A   1      46.191  28.279  23.756  1.00  0.00    -0.203 F 
ATOM     97  F   UNL A   1      50.342  25.952  26.423  1.00  0.00    -0.200 F 
ATOM     98  C   UNL A   1      49.346  26.625  24.390  1.00  0.00     0.200 A 
ATOM     99  F   UNL A   1      48.314  27.324  22.385  1.00  0.00    -0.200 F 
ATOM    100  F   UNL A   1      50.412  26.187  23.706  1.00  0.00    -0.200 F 
ENDBRANCH  67  90
ENDBRANCH  41  42
ENDBRANCH  34  36
ENDBRANCH  33  34
ENDBRANCH  32  33
ENDBRANCH  31  32
ENDBRANCH  30  31
ENDBRANCH  29  30
ENDBRANCH  28  29
ENDBRANCH  27  28
ENDBRANCH   1  27
TORSDOF 23
ENDMDL
MODEL 3
REMARK VINA RESULT:     -10.4      2.413      4.292
REMARK SMILES CN(c1ccc(C(N)=O)nn1)[C@H]1COC[C@@H]1C(=O)OCCOCCOCCOCCOC(=O)c1ccc(-c2c3nc(c(-c4c(F)c(F)c(F)c(F)c4F)c4ccc([nH]4)c(-c4c(F)c(F)c(F)c(F)c4F)c4nc(c(-c5c(F)c(F)c(F)c(F)c5F)c5ccc2[nH]5)C=C4)C=C3)cc1
REMARK SMILES IDX 24 1 23 2 22 3 21 4 20 5 19 6 17 7 18 8 16 9 12 10 13 11
REMARK SMILES IDX 14 12 15 13 2 14 1 15 3 16 4 17 11 18 5 19 10 20 6 21 7 22
REMARK SMILES IDX 8 23 9 24 25 27 26 28 27 29 28 30 29 31 30 32 31 33 32 34
REMARK SMILES IDX 33 35 34 36 35 37 96 38 36 39 95 40 37 41 38 42 39 43 89 44
REMARK SMILES IDX 40 45 94 46 88 47 90 48 41 49 93 50 87 51 86 52 42 54 74 55
REMARK SMILES IDX 54 56 73 57 55 58 58 59 72 60 91 61 56 62 57 63 71 65 92 66
REMARK SMILES IDX 59 67 43 68 44 69 52 70 45 71 46 72 50 73 53 74 47 75 48 76
REMARK SMILES IDX 51 77 49 78 75 79 76 80 84 81 77 82 78 83 82 84 85 85 79 86
REMARK SMILES IDX 80 87 83 88 81 89 60 90 61 91 69 92 62 93 63 94 67 95 70 96
REMARK SMILES IDX 64 97 65 98 68 99 66 100
REMARK H PARENT 8 25 8 26 90 53 58 64
REMARK Flexibility Score: inf
ROOT
ATOM      1  C   UNL A   1      42.001  21.491  26.321  1.00  0.00     0.188 C 
ENDROOT
BRANCH   1   2
ATOM      2  C   UNL A   1      40.863  21.390  27.350  1.00  0.00     0.188 C 
BRANCH   2   3
ATOM      3  O   UNL A   1      39.573  20.975  26.933  1.00  0.00    -0.376 OA
BRANCH   3   4
ATOM      4  C   UNL A   1      38.880  21.508  25.816  1.00  0.00     0.202 C 
BRANCH   4   5
ATOM      5  C   UNL A   1      37.526  21.035  25.251  1.00  0.00     0.261 C 
BRANCH   5   6
ATOM      6  O   UNL A   1      36.741  21.988  24.548  1.00  0.00    -0.463 OA
BRANCH   6   7
ATOM      7  C   UNL A   1      36.221  22.989  25.298  1.00  0.00     0.313 C 
ATOM      8  O   UNL A   1      36.859  23.928  25.751  1.00  0.00    -0.252 OA
BRANCH   7   9
ATOM      9  C   UNL A   1      34.728  22.798  25.427  1.00  0.00     0.150 C 
ATOM     10  C   UNL A   1      34.170  22.239  24.132  1.00  0.00     0.125 C 
ATOM     11  C   UNL A   1      33.877  23.532  23.366  1.00  0.00     0.186 C 
ATOM     12  O   UNL A   1      33.542  24.544  24.338  1.00  0.00    -0.378 OA
ATOM     13  C   UNL A   1      34.079  24.149  25.606  1.00  0.00     0.177 C 
BRANCH  10  14
ATOM     14  N   UNL A   1      32.951  21.413  24.328  1.00  0.00    -0.352 N 
ATOM     15  C   UNL A   1      31.650  21.860  23.853  1.00  0.00     0.145 C 
BRANCH  14  16
ATOM     16  C   UNL A   1      33.136  20.062  24.608  1.00  0.00     0.151 A 
ATOM     17  C   UNL A   1      34.343  19.420  24.336  1.00  0.00     0.051 A 
ATOM     18  N   UNL A   1      32.119  19.330  25.124  1.00  0.00    -0.132 NA
ATOM     19  C   UNL A   1      34.490  18.049  24.551  1.00  0.00     0.040 A 
ATOM     20  N   UNL A   1      32.241  17.957  25.328  1.00  0.00    -0.143 NA
ATOM     21  C   UNL A   1      33.407  17.343  25.034  1.00  0.00     0.150 A 
BRANCH  21  22
ATOM     22  C   UNL A   1      33.501  15.868  25.227  1.00  0.00     0.269 C 
ATOM     23  N   UNL A   1      32.328  15.190  25.423  1.00  0.00    -0.364 N 
ATOM     24  O   UNL A   1      34.574  15.277  25.201  1.00  0.00    -0.268 OA
ATOM     25  H   UNL A   1      31.473  15.679  25.441  1.00  0.00     0.160 HD
ATOM     26  H   UNL A   1      32.338  14.213  25.546  1.00  0.00     0.160 HD
ENDBRANCH  21  22
ENDBRANCH  14  16
ENDBRANCH  10  14
ENDBRANCH   7   9
ENDBRANCH   6   7
ENDBRANCH   5   6
ENDBRANCH   4   5
ENDBRANCH   3   4
ENDBRANCH   2   3
ENDBRANCH   1   2
BRANCH   1  27
ATOM     27  O   UNL A   1      42.267  20.266  25.664  1.00  0.00    -0.377 OA
BRANCH  27  28
ATOM     28  C   UNL A   1      43.595  19.765  25.776  1.00  0.00     0.188 C 
BRANCH  28  29
ATOM     29  C   UNL A   1      44.408  19.467  24.495  1.00  0.00     0.188 C 
BRANCH  29  30
ATOM     30  O   UNL A   1      44.771  20.616  23.745  1.00  0.00    -0.376 OA
BRANCH  30  31
ATOM     31  C   UNL A   1      45.080  21.820  24.427  1.00  0.00     0.202 C 
BRANCH  31  32
ATOM     32  C   UNL A   1      44.272  23.072  24.051  1.00  0.00     0.261 C 
BRANCH  32  33
ATOM     33  O   UNL A   1      44.007  23.996  25.118  1.00  0.00    -0.460 OA
BRANCH  33  34
ATOM     34  C   UNL A   1      44.933  24.946  25.360  1.00  0.00     0.338 C 
ATOM     35  O   UNL A   1      45.838  25.297  24.621  1.00  0.00    -0.246 OA
BRANCH  34  36
ATOM     36  C   UNL A   1      44.553  25.646  26.605  1.00  0.00     0.060 A 
ATOM     37  C   UNL A   1      43.644  25.032  27.475  1.00  0.00     0.016 A 
ATOM     38  C   UNL A   1      45.090  26.898  26.914  1.00  0.00     0.016 A 
ATOM     39  C   UNL A   1      43.234  25.687  28.636  1.00  0.00     0.010 A 
ATOM     40  C   UNL A   1      44.660  27.565  28.066  1.00  0.00     0.010 A 
ATOM     41  C   UNL A   1      43.702  26.977  28.913  1.00  0.00    -0.014 A 
BRANCH  41  42
ATOM     42  C   UNL A   1      43.035  27.789  29.962  1.00  0.00     0.031 A 
ATOM     43  C   UNL A   1      43.698  27.894  31.309  1.00  0.00     0.074 A 
ATOM     44  C   UNL A   1      41.893  28.456  29.717  1.00  0.00     0.049 A 
ATOM     45  N   UNL A   1      43.290  28.497  32.396  1.00  0.00    -0.248 NA
ATOM     46  C   UNL A   1      45.005  27.228  31.448  1.00  0.00     0.031 C 
ATOM     47  C   UNL A   1      41.182  28.481  28.440  1.00  0.00     0.029 A 
ATOM     48  N   UNL A   1      41.126  29.239  30.545  1.00  0.00    -0.354 N 
ATOM     49  C   UNL A   1      44.287  28.287  33.341  1.00  0.00     0.074 A 
ATOM     50  C   UNL A   1      45.301  27.468  32.717  1.00  0.00     0.031 C 
ATOM     51  C   UNL A   1      40.074  29.230  28.574  1.00  0.00     0.029 A 
ATOM     52  C   UNL A   1      39.978  29.708  29.953  1.00  0.00     0.049 A 
ATOM     53  H   UNL A   1      41.375  29.447  31.474  1.00  0.00     0.167 HD
ATOM     54  C   UNL A   1      44.360  28.753  34.609  1.00  0.00     0.037 A 
ATOM     55  C   UNL A   1      38.958  30.416  30.477  1.00  0.00     0.037 A 
ATOM     56  C   UNL A   1      43.349  29.563  35.234  1.00  0.00     0.049 A 
ATOM     57  C   UNL A   1      39.017  30.829  31.929  1.00  0.00     0.074 A 
ATOM     58  C   UNL A   1      43.321  30.069  36.522  1.00  0.00     0.029 A 
ATOM     59  N   UNL A   1      42.183  29.986  34.614  1.00  0.00    -0.354 N 
ATOM     60  N   UNL A   1      39.968  30.639  32.812  1.00  0.00    -0.248 NA
ATOM     61  C   UNL A   1      37.857  31.564  32.457  1.00  0.00     0.031 C 
ATOM     62  C   UNL A   1      42.116  30.755  36.697  1.00  0.00     0.029 A 
ATOM     63  C   UNL A   1      41.422  30.732  35.498  1.00  0.00     0.049 A 
ATOM     64  H   UNL A   1      41.933  29.786  33.683  1.00  0.00     0.167 HD
ATOM     65  C   UNL A   1      39.541  31.264  33.978  1.00  0.00     0.074 A 
ATOM     66  C   UNL A   1      38.254  31.857  33.686  1.00  0.00     0.031 C 
ATOM     67  C   UNL A   1      40.156  31.341  35.184  1.00  0.00     0.037 A 
BRANCH  54  68
ATOM     68  C   UNL A   1      45.571  28.392  35.418  1.00  0.00     0.064 A 
ATOM     69  C   UNL A   1      46.723  29.194  35.411  1.00  0.00     0.173 A 
ATOM     70  C   UNL A   1      45.558  27.270  36.260  1.00  0.00     0.173 A 
ATOM     71  F   UNL A   1      46.792  30.269  34.610  1.00  0.00    -0.203 F 
ATOM     72  C   UNL A   1      47.820  28.879  36.207  1.00  0.00     0.198 A 
ATOM     73  C   UNL A   1      46.646  26.975  37.078  1.00  0.00     0.198 A 
ATOM     74  F   UNL A   1      44.482  26.471  36.306  1.00  0.00    -0.203 F 
ATOM     75  F   UNL A   1      48.922  29.640  36.158  1.00  0.00    -0.200 F 
ATOM     76  C   UNL A   1      47.776  27.778  37.049  1.00  0.00     0.200 A 
ATOM     77  F   UNL A   1      46.596  25.919  37.902  1.00  0.00    -0.200 F 
ATOM     78  F   UNL A   1      48.825  27.487  37.830  1.00  0.00    -0.200 F 
ENDBRANCH  54  68
BRANCH  55  79
ATOM     79  C   UNL A   1      37.767  30.763  29.652  1.00  0.00     0.064 A 
ATOM     80  C   UNL A   1      36.791  29.804  29.342  1.00  0.00     0.173 A 
ATOM     81  C   UNL A   1      37.623  32.039  29.084  1.00  0.00     0.173 A 
ATOM     82  F   UNL A   1      36.894  28.562  29.838  1.00  0.00    -0.203 F 
ATOM     83  C   UNL A   1      35.749  30.091  28.463  1.00  0.00     0.198 A 
ATOM     84  C   UNL A   1      36.558  32.336  28.235  1.00  0.00     0.198 A 
ATOM     85  F   UNL A   1      38.526  32.996  29.341  1.00  0.00    -0.203 F 
ATOM     86  F   UNL A   1      34.882  29.128  28.120  1.00  0.00    -0.200 F 
ATOM     87  C   UNL A   1      35.632  31.357  27.910  1.00  0.00     0.200 A 
ATOM     88  F   UNL A   1      36.443  33.565  27.714  1.00  0.00    -0.200 F 
ATOM     89  F   UNL A   1      34.639  31.627  27.052  1.00  0.00    -0.200 F 
ENDBRANCH  55  79
BRANCH  67  90
ATOM     90  C   UNL A   1      39.480  32.145  36.260  1.00  0.00     0.064 A 
ATOM     91  C   UNL A   1      38.459  31.609  37.058  1.00  0.00     0.173 A 
ATOM     92  C   UNL A   1      39.888  33.464  36.517  1.00  0.00     0.173 A 
ATOM     93  F   UNL A   1      38.024  30.358  36.848  1.00  0.00    -0.203 F 
ATOM     94  C   UNL A   1      37.847  32.375  38.048  1.00  0.00     0.198 A 
ATOM     95  C   UNL A   1      39.300  34.214  37.532  1.00  0.00     0.198 A 
ATOM     96  F   UNL A   1      40.868  34.024  35.792  1.00  0.00    -0.203 F 
ATOM     97  F   UNL A   1      36.832  31.860  38.756  1.00  0.00    -0.200 F 
ATOM     98  C   UNL A   1      38.272  33.672  38.289  1.00  0.00     0.200 A 
ATOM     99  F   UNL A   1      39.727  35.460  37.776  1.00  0.00    -0.200 F 
ATOM    100  F   UNL A   1      37.686  34.404  39.246  1.00  0.00    -0.200 F 
ENDBRANCH  67  90
ENDBRANCH  41  42
ENDBRANCH  34  36
ENDBRANCH  33  34
ENDBRANCH  32  33
ENDBRANCH  31  32
ENDBRANCH  30  31
ENDBRANCH  29  30
ENDBRANCH  28  29
ENDBRANCH  27  28
ENDBRANCH   1  27
TORSDOF 23
ENDMDL
