MODEL 1
REMARK VINA RESULT:      -8.7      0.000      0.000
REMARK SMILES CSCc1ccc(C(=O)N[C@H]2C=C[C@@H](C(=O)OCCOCCOCCOCCOC(=O)c3ccc(-c4c5nc(c(-c6c(F)c(F)c(F)c(F)c6F)c6ccc([nH]6)c(-c6c(F)c(F)c(F)c(F)c6F)c6nc(c(-c7c(F)c(F)c(F)c(F)c7F)c7ccc4[nH]7)C=C6)C=C5)cc3)C2)o1
REMARK SMILES IDX 22 1 21 2 20 3 19 4 18 5 17 6 15 7 16 8 14 9 11 10 12 11
REMARK SMILES IDX 95 12 13 13 10 14 8 15 9 16 7 18 4 19 5 20 96 21 6 22 3 23
REMARK SMILES IDX 2 24 1 25 23 26 24 27 25 28 26 29 27 30 28 31 29 32 30 33
REMARK SMILES IDX 31 34 32 35 33 36 94 37 34 38 93 39 35 40 36 41 37 42 87 43
REMARK SMILES IDX 38 44 92 45 86 46 88 47 39 48 91 49 85 50 84 51 40 53 72 54
REMARK SMILES IDX 52 55 71 56 53 57 56 58 70 59 89 60 54 61 55 62 69 64 90 65
REMARK SMILES IDX 57 66 41 67 42 68 50 69 43 70 44 71 48 72 51 73 45 74 46 75
REMARK SMILES IDX 49 76 47 77 73 78 74 79 82 80 75 81 76 82 80 83 83 84 77 85
REMARK SMILES IDX 78 86 81 87 79 88 58 89 59 90 67 91 60 92 61 93 65 94 68 95
REMARK SMILES IDX 62 96 63 97 66 98 64 99
REMARK H PARENT 10 17 88 52 56 63
REMARK Flexibility Score: inf
ROOT
ATOM      1  C   UNL A   1      43.993  18.473  25.762  1.00  0.00     0.188 C 
ENDROOT
BRANCH   1   2
ATOM      2  C   UNL A   1      42.738  19.358  25.792  1.00  0.00     0.188 C 
BRANCH   2   3
ATOM      3  O   UNL A   1      41.842  19.351  26.892  1.00  0.00    -0.376 OA
BRANCH   3   4
ATOM      4  C   UNL A   1      40.724  20.214  27.010  1.00  0.00     0.202 C 
BRANCH   4   5
ATOM      5  C   UNL A   1      40.672  21.661  26.502  1.00  0.00     0.261 C 
BRANCH   5   6
ATOM      6  O   UNL A   1      39.887  22.577  27.258  1.00  0.00    -0.463 OA
BRANCH   6   7
ATOM      7  C   UNL A   1      39.103  23.400  26.528  1.00  0.00     0.312 C 
ATOM      8  O   UNL A   1      39.440  24.512  26.133  1.00  0.00    -0.252 OA
BRANCH   7   9
ATOM      9  C   UNL A   1      37.710  22.844  26.304  1.00  0.00     0.124 C 
ATOM     10  C   UNL A   1      35.909  23.000  24.650  1.00  0.00     0.106 C 
ATOM     11  C   UNL A   1      37.017  22.106  24.204  1.00  0.00    -0.006 C 
ATOM     12  C   UNL A   1      36.590  23.771  25.780  1.00  0.00     0.048 C 
ATOM     13  C   UNL A   1      37.919  21.909  25.163  1.00  0.00    -0.014 C 
BRANCH  10  14
ATOM     14  N   UNL A   1      35.383  23.847  23.607  1.00  0.00    -0.343 N 
ATOM     15  C   UNL A   1      34.069  23.987  23.200  1.00  0.00     0.287 C 
ATOM     16  O   UNL A   1      33.808  24.865  22.378  1.00  0.00    -0.266 OA
ATOM     17  H   UNL A   1      36.042  24.395  23.123  1.00  0.00     0.164 HD
BRANCH  15  18
ATOM     18  C   UNL A   1      33.100  23.035  23.701  1.00  0.00     0.191 A 
ATOM     19  C   UNL A   1      32.390  20.971  23.999  1.00  0.00     0.114 A 
ATOM     20  C   UNL A   1      31.810  21.729  24.994  1.00  0.00     0.047 A 
ATOM     21  O   UNL A   1      33.142  21.767  23.186  1.00  0.00    -0.455 OA
ATOM     22  C   UNL A   1      32.204  23.069  24.757  1.00  0.00     0.056 A 
BRANCH  19  23
ATOM     23  C   UNL A   1      32.349  19.526  23.673  1.00  0.00     0.144 C 
BRANCH  23  24
ATOM     24  S   UNL A   1      33.662  18.577  24.504  1.00  0.00    -0.157 SA
ATOM     25  C   UNL A   1      32.644  17.578  25.619  1.00  0.00     0.085 C 
ENDBRANCH  23  24
ENDBRANCH  19  23
ENDBRANCH  15  18
ENDBRANCH  10  14
ENDBRANCH   7   9
ENDBRANCH   6   7
ENDBRANCH   5   6
ENDBRANCH   4   5
ENDBRANCH   3   4
ENDBRANCH   2   3
ENDBRANCH   1   2
BRANCH   1  26
ATOM     26  O   UNL A   1      44.617  18.362  24.500  1.00  0.00    -0.377 OA
BRANCH  26  27
ATOM     27  C   UNL A   1      45.115  19.556  23.911  1.00  0.00     0.188 C 
BRANCH  27  28
ATOM     28  C   UNL A   1      46.241  20.330  24.628  1.00  0.00     0.188 C 
BRANCH  28  29
ATOM     29  O   UNL A   1      46.079  21.741  24.624  1.00  0.00    -0.376 OA
BRANCH  29  30
ATOM     30  C   UNL A   1      45.854  22.418  25.851  1.00  0.00     0.202 C 
BRANCH  30  31
ATOM     31  C   UNL A   1      44.425  22.431  26.418  1.00  0.00     0.261 C 
BRANCH  31  32
ATOM     32  O   UNL A   1      43.570  23.498  25.979  1.00  0.00    -0.460 OA
BRANCH  32  33
ATOM     33  C   UNL A   1      43.302  24.491  26.849  1.00  0.00     0.338 C 
ATOM     34  O   UNL A   1      42.446  24.499  27.721  1.00  0.00    -0.246 OA
BRANCH  33  35
ATOM     35  C   UNL A   1      44.359  25.513  26.710  1.00  0.00     0.060 A 
ATOM     36  C   UNL A   1      45.102  25.879  27.840  1.00  0.00     0.016 A 
ATOM     37  C   UNL A   1      44.614  26.109  25.474  1.00  0.00     0.016 A 
ATOM     38  C   UNL A   1      46.073  26.876  27.747  1.00  0.00     0.010 A 
ATOM     39  C   UNL A   1      45.570  27.126  25.386  1.00  0.00     0.010 A 
ATOM     40  C   UNL A   1      46.274  27.540  26.531  1.00  0.00    -0.014 A 
BRANCH  40  41
ATOM     41  C   UNL A   1      47.055  28.800  26.505  1.00  0.00     0.031 A 
ATOM     42  C   UNL A   1      48.528  28.717  26.212  1.00  0.00     0.074 A 
ATOM     43  C   UNL A   1      46.472  29.994  26.702  1.00  0.00     0.049 A 
ATOM     44  N   UNL A   1      49.430  29.664  26.193  1.00  0.00    -0.248 NA
ATOM     45  C   UNL A   1      49.054  27.378  25.900  1.00  0.00     0.031 C 
ATOM     46  C   UNL A   1      45.047  30.211  26.937  1.00  0.00     0.029 A 
ATOM     47  N   UNL A   1      47.017  31.253  26.743  1.00  0.00    -0.354 N 
ATOM     48  C   UNL A   1      50.627  29.036  25.870  1.00  0.00     0.074 A 
ATOM     49  C   UNL A   1      50.345  27.624  25.739  1.00  0.00     0.031 C 
ATOM     50  C   UNL A   1      44.830  31.528  27.107  1.00  0.00     0.029 A 
ATOM     51  C   UNL A   1      46.106  32.239  27.031  1.00  0.00     0.049 A 
ATOM     52  H   UNL A   1      47.972  31.434  26.580  1.00  0.00     0.167 HD
ATOM     53  C   UNL A   1      51.848  29.591  25.687  1.00  0.00     0.037 A 
ATOM     54  C   UNL A   1      46.290  33.558  27.235  1.00  0.00     0.037 A 
ATOM     55  C   UNL A   1      52.127  30.995  25.827  1.00  0.00     0.049 A 
ATOM     56  C   UNL A   1      47.679  34.137  27.125  1.00  0.00     0.074 A 
ATOM     57  C   UNL A   1      53.333  31.656  25.669  1.00  0.00     0.029 A 
ATOM     58  N   UNL A   1      51.186  31.956  26.167  1.00  0.00    -0.354 N 
ATOM     59  N   UNL A   1      48.806  33.541  26.817  1.00  0.00    -0.248 NA
ATOM     60  C   UNL A   1      47.820  35.576  27.391  1.00  0.00     0.031 C 
ATOM     61  C   UNL A   1      53.134  33.006  25.971  1.00  0.00     0.029 A 
ATOM     62  C   UNL A   1      51.790  33.200  26.248  1.00  0.00     0.049 A 
ATOM     63  H   UNL A   1      50.231  31.780  26.327  1.00  0.00     0.167 HD
ATOM     64  C   UNL A   1      49.778  34.535  26.815  1.00  0.00     0.074 A 
ATOM     65  C   UNL A   1      49.106  35.775  27.142  1.00  0.00     0.031 C 
ATOM     66  C   UNL A   1      51.107  34.430  26.563  1.00  0.00     0.037 A 
BRANCH  53  67
ATOM     67  C   UNL A   1      52.983  28.668  25.342  1.00  0.00     0.064 A 
ATOM     68  C   UNL A   1      53.319  28.377  24.011  1.00  0.00     0.173 A 
ATOM     69  C   UNL A   1      53.765  28.095  26.356  1.00  0.00     0.173 A 
ATOM     70  F   UNL A   1      52.592  28.885  23.004  1.00  0.00    -0.203 F 
ATOM     71  C   UNL A   1      54.379  27.527  23.710  1.00  0.00     0.198 A 
ATOM     72  C   UNL A   1      54.846  27.273  26.050  1.00  0.00     0.198 A 
ATOM     73  F   UNL A   1      53.489  28.341  27.645  1.00  0.00    -0.203 F 
ATOM     74  F   UNL A   1      54.650  27.223  22.432  1.00  0.00    -0.200 F 
ATOM     75  C   UNL A   1      55.147  26.983  24.728  1.00  0.00     0.200 A 
ATOM     76  F   UNL A   1      55.595  26.760  27.035  1.00  0.00    -0.200 F 
ATOM     77  F   UNL A   1      56.174  26.173  24.436  1.00  0.00    -0.200 F 
ENDBRANCH  53  67
BRANCH  54  78
ATOM     78  C   UNL A   1      45.131  34.428  27.573  1.00  0.00     0.064 A 
ATOM     79  C   UNL A   1      44.799  34.701  28.907  1.00  0.00     0.173 A 
ATOM     80  C   UNL A   1      44.321  34.984  26.574  1.00  0.00     0.173 A 
ATOM     81  F   UNL A   1      45.525  34.170  29.901  1.00  0.00    -0.203 F 
ATOM     82  C   UNL A   1      43.691  35.484  29.228  1.00  0.00     0.198 A 
ATOM     83  C   UNL A   1      43.232  35.793  26.894  1.00  0.00     0.198 A 
ATOM     84  F   UNL A   1      44.591  34.749  25.281  1.00  0.00    -0.203 F 
ATOM     85  F   UNL A   1      43.367  35.688  30.512  1.00  0.00    -0.200 F 
ATOM     86  C   UNL A   1      42.913  36.035  28.221  1.00  0.00     0.200 A 
ATOM     87  F   UNL A   1      42.491  36.334  25.917  1.00  0.00    -0.200 F 
ATOM     88  F   UNL A   1      41.851  36.791  28.530  1.00  0.00    -0.200 F 
ENDBRANCH  54  78
BRANCH  66  89
ATOM     89  C   UNL A   1      51.921  35.695  26.578  1.00  0.00     0.064 A 
ATOM     90  C   UNL A   1      52.110  36.470  25.424  1.00  0.00     0.173 A 
ATOM     91  C   UNL A   1      52.478  36.162  27.779  1.00  0.00     0.173 A 
ATOM     92  F   UNL A   1      51.608  36.065  24.248  1.00  0.00    -0.203 F 
ATOM     93  C   UNL A   1      52.853  37.648  25.466  1.00  0.00     0.198 A 
ATOM     94  C   UNL A   1      53.189  37.358  27.825  1.00  0.00     0.198 A 
ATOM     95  F   UNL A   1      52.319  35.467  28.915  1.00  0.00    -0.203 F 
ATOM     96  F   UNL A   1      53.065  38.343  24.340  1.00  0.00    -0.200 F 
ATOM     97  C   UNL A   1      53.383  38.095  26.667  1.00  0.00     0.200 A 
ATOM     98  F   UNL A   1      53.684  37.798  28.989  1.00  0.00    -0.200 F 
ATOM     99  F   UNL A   1      54.089  39.233  26.707  1.00  0.00    -0.200 F 
ENDBRANCH  66  89
ENDBRANCH  40  41
ENDBRANCH  33  35
ENDBRANCH  32  33
ENDBRANCH  31  32
ENDBRANCH  30  31
ENDBRANCH  29  30
ENDBRANCH  28  29
ENDBRANCH  27  28
ENDBRANCH  26  27
ENDBRANCH   1  26
TORSDOF 24
ENDMDL
MODEL 2
REMARK VINA RESULT:      -8.6      2.049      2.772
REMARK SMILES CSCc1ccc(C(=O)N[C@H]2C=C[C@@H](C(=O)OCCOCCOCCOCCOC(=O)c3ccc(-c4c5nc(c(-c6c(F)c(F)c(F)c(F)c6F)c6ccc([nH]6)c(-c6c(F)c(F)c(F)c(F)c6F)c6nc(c(-c7c(F)c(F)c(F)c(F)c7F)c7ccc4[nH]7)C=C6)C=C5)cc3)C2)o1
REMARK SMILES IDX 22 1 21 2 20 3 19 4 18 5 17 6 15 7 16 8 14 9 11 10 12 11
REMARK SMILES IDX 95 12 13 13 10 14 8 15 9 16 7 18 4 19 5 20 96 21 6 22 3 23
REMARK SMILES IDX 2 24 1 25 23 26 24 27 25 28 26 29 27 30 28 31 29 32 30 33
REMARK SMILES IDX 31 34 32 35 33 36 94 37 34 38 93 39 35 40 36 41 37 42 87 43
REMARK SMILES IDX 38 44 92 45 86 46 88 47 39 48 91 49 85 50 84 51 40 53 72 54
REMARK SMILES IDX 52 55 71 56 53 57 56 58 70 59 89 60 54 61 55 62 69 64 90 65
REMARK SMILES IDX 57 66 41 67 42 68 50 69 43 70 44 71 48 72 51 73 45 74 46 75
REMARK SMILES IDX 49 76 47 77 73 78 74 79 82 80 75 81 76 82 80 83 83 84 77 85
REMARK SMILES IDX 78 86 81 87 79 88 58 89 59 90 67 91 60 92 61 93 65 94 68 95
REMARK SMILES IDX 62 96 63 97 66 98 64 99
REMARK H PARENT 10 17 88 52 56 63
REMARK Flexibility Score: inf
ROOT
ATOM      1  C   UNL A   1      43.643  18.423  26.130  1.00  0.00     0.188 C 
ENDROOT
BRANCH   1   2
ATOM      2  C   UNL A   1      42.471  19.293  25.650  1.00  0.00     0.188 C 
BRANCH   2   3
ATOM      3  O   UNL A   1      41.138  19.052  26.068  1.00  0.00    -0.376 OA
BRANCH   3   4
ATOM      4  C   UNL A   1      40.103  20.020  26.021  1.00  0.00     0.202 C 
BRANCH   4   5
ATOM      5  C   UNL A   1      38.699  19.779  25.452  1.00  0.00     0.261 C 
BRANCH   5   6
ATOM      6  O   UNL A   1      38.148  20.815  24.646  1.00  0.00    -0.463 OA
BRANCH   6   7
ATOM      7  C   UNL A   1      36.809  20.966  24.743  1.00  0.00     0.312 C 
ATOM      8  O   UNL A   1      36.023  20.061  25.004  1.00  0.00    -0.252 OA
BRANCH   7   9
ATOM      9  C   UNL A   1      36.348  22.374  24.411  1.00  0.00     0.124 C 
ATOM     10  C   UNL A   1      34.374  23.787  24.732  1.00  0.00     0.106 C 
ATOM     11  C   UNL A   1      35.202  23.676  25.967  1.00  0.00    -0.006 C 
ATOM     12  C   UNL A   1      34.904  22.610  23.915  1.00  0.00     0.048 C 
ATOM     13  C   UNL A   1      36.346  23.032  25.748  1.00  0.00    -0.014 C 
BRANCH  10  14
ATOM     14  N   UNL A   1      32.951  23.731  24.973  1.00  0.00    -0.343 N 
ATOM     15  C   UNL A   1      32.025  24.751  24.866  1.00  0.00     0.287 C 
ATOM     16  O   UNL A   1      30.834  24.466  24.985  1.00  0.00    -0.266 OA
ATOM     17  H   UNL A   1      32.596  22.856  25.247  1.00  0.00     0.164 HD
BRANCH  15  18
ATOM     18  C   UNL A   1      32.521  26.102  24.708  1.00  0.00     0.191 A 
ATOM     19  C   UNL A   1      33.568  27.882  25.477  1.00  0.00     0.114 A 
ATOM     20  C   UNL A   1      33.666  27.936  24.102  1.00  0.00     0.047 A 
ATOM     21  O   UNL A   1      32.838  26.792  25.848  1.00  0.00    -0.455 OA
ATOM     22  C   UNL A   1      32.927  26.835  23.605  1.00  0.00     0.056 A 
BRANCH  19  23
ATOM     23  C   UNL A   1      34.087  28.745  26.563  1.00  0.00     0.144 C 
BRANCH  23  24
ATOM     24  S   UNL A   1      32.922  30.062  27.037  1.00  0.00    -0.157 SA
ATOM     25  C   UNL A   1      34.104  31.303  27.626  1.00  0.00     0.085 C 
ENDBRANCH  23  24
ENDBRANCH  19  23
ENDBRANCH  15  18
ENDBRANCH  10  14
ENDBRANCH   7   9
ENDBRANCH   6   7
ENDBRANCH   5   6
ENDBRANCH   4   5
ENDBRANCH   3   4
ENDBRANCH   2   3
ENDBRANCH   1   2
BRANCH   1  26
ATOM     26  O   UNL A   1      44.580  18.078  25.132  1.00  0.00    -0.377 OA
BRANCH  26  27
ATOM     27  C   UNL A   1      45.111  19.135  24.342  1.00  0.00     0.188 C 
BRANCH  27  28
ATOM     28  C   UNL A   1      46.120  20.112  24.982  1.00  0.00     0.188 C 
BRANCH  28  29
ATOM     29  O   UNL A   1      45.814  21.484  24.783  1.00  0.00    -0.376 OA
BRANCH  29  30
ATOM     30  C   UNL A   1      45.491  22.294  25.903  1.00  0.00     0.202 C 
BRANCH  30  31
ATOM     31  C   UNL A   1      44.068  22.196  26.480  1.00  0.00     0.261 C 
BRANCH  31  32
ATOM     32  O   UNL A   1      43.113  23.153  25.997  1.00  0.00    -0.460 OA
BRANCH  32  33
ATOM     33  C   UNL A   1      42.803  24.193  26.795  1.00  0.00     0.338 C 
ATOM     34  O   UNL A   1      41.894  24.255  27.609  1.00  0.00    -0.246 OA
BRANCH  33  35
ATOM     35  C   UNL A   1      43.880  25.197  26.672  1.00  0.00     0.060 A 
ATOM     36  C   UNL A   1      44.570  25.596  27.823  1.00  0.00     0.016 A 
ATOM     37  C   UNL A   1      44.204  25.743  25.428  1.00  0.00     0.016 A 
ATOM     38  C   UNL A   1      45.558  26.578  27.742  1.00  0.00     0.010 A 
ATOM     39  C   UNL A   1      45.176  26.744  25.351  1.00  0.00     0.010 A 
ATOM     40  C   UNL A   1      45.829  27.192  26.514  1.00  0.00    -0.014 A 
BRANCH  40  41
ATOM     41  C   UNL A   1      46.627  28.442  26.480  1.00  0.00     0.031 A 
ATOM     42  C   UNL A   1      48.102  28.335  26.204  1.00  0.00     0.074 A 
ATOM     43  C   UNL A   1      46.058  29.646  26.655  1.00  0.00     0.049 A 
ATOM     44  N   UNL A   1      49.017  29.269  26.182  1.00  0.00    -0.248 NA
ATOM     45  C   UNL A   1      48.613  26.985  25.915  1.00  0.00     0.031 C 
ATOM     46  C   UNL A   1      44.634  29.885  26.871  1.00  0.00     0.029 A 
ATOM     47  N   UNL A   1      46.621  30.898  26.685  1.00  0.00    -0.354 N 
ATOM     48  C   UNL A   1      50.208  28.621  25.880  1.00  0.00     0.074 A 
ATOM     49  C   UNL A   1      49.908  27.211  25.765  1.00  0.00     0.031 C 
ATOM     50  C   UNL A   1      44.434  31.207  27.022  1.00  0.00     0.029 A 
ATOM     51  C   UNL A   1      45.720  31.899  26.951  1.00  0.00     0.049 A 
ATOM     52  H   UNL A   1      47.579  31.063  26.530  1.00  0.00     0.167 HD
ATOM     53  C   UNL A   1      51.439  29.156  25.704  1.00  0.00     0.037 A 
ATOM     54  C   UNL A   1      45.920  33.218  27.140  1.00  0.00     0.037 A 
ATOM     55  C   UNL A   1      51.736  30.558  25.829  1.00  0.00     0.049 A 
ATOM     56  C   UNL A   1      47.318  33.777  27.038  1.00  0.00     0.074 A 
ATOM     57  C   UNL A   1      52.952  31.200  25.675  1.00  0.00     0.029 A 
ATOM     58  N   UNL A   1      50.805  31.536  26.146  1.00  0.00    -0.354 N 
ATOM     59  N   UNL A   1      48.440  33.162  26.749  1.00  0.00    -0.248 NA
ATOM     60  C   UNL A   1      47.475  35.218  27.286  1.00  0.00     0.031 C 
ATOM     61  C   UNL A   1      52.769  32.557  25.958  1.00  0.00     0.029 A 
ATOM     62  C   UNL A   1      51.425  32.773  26.217  1.00  0.00     0.049 A 
ATOM     63  H   UNL A   1      49.845  31.376  26.298  1.00  0.00     0.167 HD
ATOM     64  C   UNL A   1      49.426  34.142  26.745  1.00  0.00     0.074 A 
ATOM     65  C   UNL A   1      48.767  35.395  27.049  1.00  0.00     0.031 C 
ATOM     66  C   UNL A   1      50.755  34.016  26.509  1.00  0.00     0.037 A 
BRANCH  53  67
ATOM     67  C   UNL A   1      52.565  28.214  25.383  1.00  0.00     0.064 A 
ATOM     68  C   UNL A   1      52.911  27.901  24.059  1.00  0.00     0.173 A 
ATOM     69  C   UNL A   1      53.329  27.644  26.412  1.00  0.00     0.173 A 
ATOM     70  F   UNL A   1      52.202  28.405  23.038  1.00  0.00    -0.203 F 
ATOM     71  C   UNL A   1      53.962  27.032  23.780  1.00  0.00     0.198 A 
ATOM     72  C   UNL A   1      54.401  26.803  26.129  1.00  0.00     0.198 A 
ATOM     73  F   UNL A   1      53.042  27.911  27.695  1.00  0.00    -0.203 F 
ATOM     74  F   UNL A   1      54.243  26.708  22.510  1.00  0.00    -0.200 F 
ATOM     75  C   UNL A   1      54.712  26.492  24.813  1.00  0.00     0.200 A 
ATOM     76  F   UNL A   1      55.133  26.293  27.128  1.00  0.00    -0.200 F 
ATOM     77  F   UNL A   1      55.731  25.664  24.543  1.00  0.00    -0.200 F 
ENDBRANCH  53  67
BRANCH  54  78
ATOM     78  C   UNL A   1      44.770  34.108  27.455  1.00  0.00     0.064 A 
ATOM     79  C   UNL A   1      44.357  34.314  28.778  1.00  0.00     0.173 A 
ATOM     80  C   UNL A   1      44.047  34.752  26.440  1.00  0.00     0.173 A 
ATOM     81  F   UNL A   1      44.997  33.699  29.783  1.00  0.00    -0.203 F 
ATOM     82  C   UNL A   1      43.255  35.116  29.073  1.00  0.00     0.198 A 
ATOM     83  C   UNL A   1      42.966  35.580  26.738  1.00  0.00     0.198 A 
ATOM     84  F   UNL A   1      44.396  34.584  25.156  1.00  0.00    -0.203 F 
ATOM     85  F   UNL A   1      42.852  35.255  30.344  1.00  0.00    -0.200 F 
ATOM     86  C   UNL A   1      42.566  35.754  28.053  1.00  0.00     0.200 A 
ATOM     87  F   UNL A   1      42.310  36.204  25.750  1.00  0.00    -0.200 F 
ATOM     88  F   UNL A   1      41.510  36.529  28.338  1.00  0.00    -0.200 F 
ENDBRANCH  54  78
BRANCH  66  89
ATOM     89  C   UNL A   1      51.586  35.270  26.516  1.00  0.00     0.064 A 
ATOM     90  C   UNL A   1      51.791  36.032  25.357  1.00  0.00     0.173 A 
ATOM     91  C   UNL A   1      52.145  35.739  27.716  1.00  0.00     0.173 A 
ATOM     92  F   UNL A   1      51.288  35.624  24.183  1.00  0.00    -0.203 F 
ATOM     93  C   UNL A   1      52.549  37.200  25.392  1.00  0.00     0.198 A 
ATOM     94  C   UNL A   1      52.872  36.926  27.754  1.00  0.00     0.198 A 
ATOM     95  F   UNL A   1      51.972  35.056  28.858  1.00  0.00    -0.203 F 
ATOM     96  F   UNL A   1      52.776  37.883  24.261  1.00  0.00    -0.200 F 
ATOM     97  C   UNL A   1      53.081  37.650  26.591  1.00  0.00     0.200 A 
ATOM     98  F   UNL A   1      53.368  37.369  28.917  1.00  0.00    -0.200 F 
ATOM     99  F   UNL A   1      53.802  38.779  26.624  1.00  0.00    -0.200 F 
ENDBRANCH  66  89
ENDBRANCH  40  41
ENDBRANCH  33  35
ENDBRANCH  32  33
ENDBRANCH  31  32
ENDBRANCH  30  31
ENDBRANCH  29  30
ENDBRANCH  28  29
ENDBRANCH  27  28
ENDBRANCH  26  27
ENDBRANCH   1  26
TORSDOF 24
ENDMDL
MODEL 3
REMARK VINA RESULT:      -8.6      3.726      8.785
REMARK SMILES CSCc1ccc(C(=O)N[C@H]2C=C[C@@H](C(=O)OCCOCCOCCOCCOC(=O)c3ccc(-c4c5nc(c(-c6c(F)c(F)c(F)c(F)c6F)c6ccc([nH]6)c(-c6c(F)c(F)c(F)c(F)c6F)c6nc(c(-c7c(F)c(F)c(F)c(F)c7F)c7ccc4[nH]7)C=C6)C=C5)cc3)C2)o1
REMARK SMILES IDX 22 1 21 2 20 3 19 4 18 5 17 6 15 7 16 8 14 9 11 10 12 11
REMARK SMILES IDX 95 12 13 13 10 14 8 15 9 16 7 18 4 19 5 20 96 21 6 22 3 23
REMARK SMILES IDX 2 24 1 25 23 26 24 27 25 28 26 29 27 30 28 31 29 32 30 33
REMARK SMILES IDX 31 34 32 35 33 36 94 37 34 38 93 39 35 40 36 41 37 42 87 43
REMARK SMILES IDX 38 44 92 45 86 46 88 47 39 48 91 49 85 50 84 51 40 53 72 54
REMARK SMILES IDX 52 55 71 56 53 57 56 58 70 59 89 60 54 61 55 62 69 64 90 65
REMARK SMILES IDX 57 66 41 67 42 68 50 69 43 70 44 71 48 72 51 73 45 74 46 75
REMARK SMILES IDX 49 76 47 77 73 78 74 79 82 80 75 81 76 82 80 83 83 84 77 85
REMARK SMILES IDX 78 86 81 87 79 88 58 89 59 90 67 91 60 92 61 93 65 94 68 95
REMARK SMILES IDX 62 96 63 97 66 98 64 99
REMARK H PARENT 10 17 88 52 56 63
REMARK Flexibility Score: inf
ROOT
ATOM      1  C   UNL A   1      40.572  29.223  28.534  1.00  0.00     0.188 C 
ENDROOT
BRANCH   1   2
ATOM      2  C   UNL A   1      39.266  29.995  28.778  1.00  0.00     0.188 C 
BRANCH   2   3
ATOM      3  O   UNL A   1      38.026  29.331  28.963  1.00  0.00    -0.376 OA
BRANCH   3   4
ATOM      4  C   UNL A   1      36.939  29.413  28.057  1.00  0.00     0.202 C 
BRANCH   4   5
ATOM      5  C   UNL A   1      35.504  29.802  28.440  1.00  0.00     0.261 C 
BRANCH   5   6
ATOM      6  O   UNL A   1      34.465  29.327  27.591  1.00  0.00    -0.463 OA
BRANCH   6   7
ATOM      7  C   UNL A   1      33.539  30.249  27.247  1.00  0.00     0.312 C 
ATOM      8  O   UNL A   1      33.722  31.462  27.272  1.00  0.00    -0.252 OA
BRANCH   7   9
ATOM      9  C   UNL A   1      32.196  29.635  26.898  1.00  0.00     0.124 C 
ATOM     10  C   UNL A   1      31.283  27.961  25.360  1.00  0.00     0.106 C 
ATOM     11  C   UNL A   1      31.964  27.344  26.534  1.00  0.00    -0.006 C 
ATOM     12  C   UNL A   1      31.830  29.387  25.417  1.00  0.00     0.048 C 
ATOM     13  C   UNL A   1      32.328  28.252  27.437  1.00  0.00    -0.014 C 
BRANCH  10  14
ATOM     14  N   UNL A   1      31.546  27.290  24.109  1.00  0.00    -0.343 N 
ATOM     15  C   UNL A   1      30.909  27.463  22.895  1.00  0.00     0.287 C 
ATOM     16  O   UNL A   1      31.373  26.888  21.911  1.00  0.00    -0.266 OA
ATOM     17  H   UNL A   1      32.271  26.624  24.122  1.00  0.00     0.164 HD
BRANCH  15  18
ATOM     18  C   UNL A   1      29.687  28.239  22.876  1.00  0.00     0.191 A 
ATOM     19  C   UNL A   1      28.340  29.707  21.935  1.00  0.00     0.114 A 
ATOM     20  C   UNL A   1      27.552  28.921  22.749  1.00  0.00     0.047 A 
ATOM     21  O   UNL A   1      29.644  29.323  22.040  1.00  0.00    -0.455 OA
ATOM     22  C   UNL A   1      28.428  28.029  23.413  1.00  0.00     0.056 A 
BRANCH  19  23
ATOM     23  C   UNL A   1      28.043  30.828  21.014  1.00  0.00     0.144 C 
BRANCH  23  24
ATOM     24  S   UNL A   1      28.382  32.458  21.752  1.00  0.00    -0.157 SA
ATOM     25  C   UNL A   1      28.447  31.984  23.498  1.00  0.00     0.085 C 
ENDBRANCH  23  24
ENDBRANCH  19  23
ENDBRANCH  15  18
ENDBRANCH  10  14
ENDBRANCH   7   9
ENDBRANCH   6   7
ENDBRANCH   5   6
ENDBRANCH   4   5
ENDBRANCH   3   4
ENDBRANCH   2   3
ENDBRANCH   1   2
BRANCH   1  26
ATOM     26  O   UNL A   1      40.739  28.065  29.323  1.00  0.00    -0.377 OA
BRANCH  26  27
ATOM     27  C   UNL A   1      40.713  26.810  28.655  1.00  0.00     0.188 C 
BRANCH  27  28
ATOM     28  C   UNL A   1      39.368  26.067  28.512  1.00  0.00     0.188 C 
BRANCH  28  29
ATOM     29  O   UNL A   1      39.318  25.147  27.431  1.00  0.00    -0.376 OA
BRANCH  29  30
ATOM     30  C   UNL A   1      40.458  24.988  26.601  1.00  0.00     0.202 C 
BRANCH  30  31
ATOM     31  C   UNL A   1      41.180  23.630  26.619  1.00  0.00     0.261 C 
BRANCH  31  32
ATOM     32  O   UNL A   1      42.310  23.492  25.743  1.00  0.00    -0.460 OA
BRANCH  32  33
ATOM     33  C   UNL A   1      43.521  23.300  26.302  1.00  0.00     0.338 C 
ATOM     34  O   UNL A   1      44.061  22.232  26.546  1.00  0.00    -0.246 OA
BRANCH  33  35
ATOM     35  C   UNL A   1      44.193  24.612  26.394  1.00  0.00     0.060 A 
ATOM     36  C   UNL A   1      44.345  25.379  25.232  1.00  0.00     0.016 A 
ATOM     37  C   UNL A   1      44.671  25.082  27.619  1.00  0.00     0.016 A 
ATOM     38  C   UNL A   1      45.018  26.600  25.282  1.00  0.00     0.010 A 
ATOM     39  C   UNL A   1      45.367  26.294  27.664  1.00  0.00     0.010 A 
ATOM     40  C   UNL A   1      45.577  27.037  26.489  1.00  0.00    -0.014 A 
BRANCH  40  41
ATOM     41  C   UNL A   1      46.558  28.150  26.481  1.00  0.00     0.031 A 
ATOM     42  C   UNL A   1      46.050  29.546  26.719  1.00  0.00     0.074 A 
ATOM     43  C   UNL A   1      47.871  27.930  26.303  1.00  0.00     0.049 A 
ATOM     44  N   UNL A   1      46.696  30.683  26.701  1.00  0.00    -0.248 NA
ATOM     45  C   UNL A   1      44.613  29.674  27.015  1.00  0.00     0.031 C 
ATOM     46  C   UNL A   1      48.492  26.621  26.122  1.00  0.00     0.029 A 
ATOM     47  N   UNL A   1      48.918  28.814  26.238  1.00  0.00    -0.354 N 
ATOM     48  C   UNL A   1      45.746  31.658  26.980  1.00  0.00     0.074 A 
ATOM     49  C   UNL A   1      44.475  30.985  27.125  1.00  0.00     0.031 C 
ATOM     50  C   UNL A   1      49.816  26.788  25.956  1.00  0.00     0.029 A 
ATOM     51  C   UNL A   1      50.128  28.217  25.981  1.00  0.00     0.049 A 
ATOM     52  H   UNL A   1      48.814  29.786  26.364  1.00  0.00     0.167 HD
ATOM     53  C   UNL A   1      45.922  32.994  27.114  1.00  0.00     0.037 A 
ATOM     54  C   UNL A   1      51.339  28.766  25.766  1.00  0.00     0.037 A 
ATOM     55  C   UNL A   1      47.187  33.661  26.960  1.00  0.00     0.049 A 
ATOM     56  C   UNL A   1      51.491  30.267  25.821  1.00  0.00     0.074 A 
ATOM     57  C   UNL A   1      47.470  35.011  27.069  1.00  0.00     0.029 A 
ATOM     58  N   UNL A   1      48.382  33.027  26.652  1.00  0.00    -0.354 N 
ATOM     59  N   UNL A   1      50.593  31.184  26.089  1.00  0.00    -0.248 NA
ATOM     60  C   UNL A   1      52.830  30.807  25.546  1.00  0.00     0.031 C 
ATOM     61  C   UNL A   1      48.822  35.201  26.771  1.00  0.00     0.029 A 
ATOM     62  C   UNL A   1      49.399  33.961  26.545  1.00  0.00     0.049 A 
ATOM     63  H   UNL A   1      48.491  32.056  26.529  1.00  0.00     0.167 HD
ATOM     64  C   UNL A   1      51.262  32.401  26.050  1.00  0.00     0.074 A 
ATOM     65  C   UNL A   1      52.647  32.105  25.745  1.00  0.00     0.031 C 
ATOM     66  C   UNL A   1      50.777  33.652  26.252  1.00  0.00     0.037 A 
BRANCH  53  67
ATOM     67  C   UNL A   1      44.709  33.826  27.419  1.00  0.00     0.064 A 
ATOM     68  C   UNL A   1      44.020  34.522  26.414  1.00  0.00     0.173 A 
ATOM     69  C   UNL A   1      44.210  33.900  28.728  1.00  0.00     0.173 A 
ATOM     70  F   UNL A   1      44.465  34.499  25.149  1.00  0.00    -0.203 F 
ATOM     71  C   UNL A   1      42.892  35.281  26.714  1.00  0.00     0.198 A 
ATOM     72  C   UNL A   1      43.062  34.632  29.018  1.00  0.00     0.198 A 
ATOM     73  F   UNL A   1      44.828  33.253  29.727  1.00  0.00    -0.203 F 
ATOM     74  F   UNL A   1      42.279  35.978  25.746  1.00  0.00    -0.200 F 
ATOM     75  C   UNL A   1      42.408  35.328  28.012  1.00  0.00     0.200 A 
ATOM     76  F   UNL A   1      42.588  34.664  30.271  1.00  0.00    -0.200 F 
ATOM     77  F   UNL A   1      41.316  36.051  28.297  1.00  0.00    -0.200 F 
ENDBRANCH  53  67
BRANCH  54  78
ATOM     78  C   UNL A   1      52.509  27.897  25.469  1.00  0.00     0.064 A 
ATOM     79  C   UNL A   1      52.831  27.544  24.151  1.00  0.00     0.173 A 
ATOM     80  C   UNL A   1      53.316  27.384  26.495  1.00  0.00     0.173 A 
ATOM     81  F   UNL A   1      52.074  27.985  23.136  1.00  0.00    -0.203 F 
ATOM     82  C   UNL A   1      53.903  26.698  23.873  1.00  0.00     0.198 A 
ATOM     83  C   UNL A   1      54.407  26.564  26.214  1.00  0.00     0.198 A 
ATOM     84  F   UNL A   1      53.049  27.686  27.775  1.00  0.00    -0.203 F 
ATOM     85  F   UNL A   1      54.157  26.336  22.608  1.00  0.00    -0.200 F 
ATOM     86  C   UNL A   1      54.695  26.215  24.904  1.00  0.00     0.200 A 
ATOM     87  F   UNL A   1      55.177  26.111  27.213  1.00  0.00    -0.200 F 
ATOM     88  F   UNL A   1      55.728  25.406  24.635  1.00  0.00    -0.200 F 
ENDBRANCH  54  78
BRANCH  66  89
ATOM     89  C   UNL A   1      51.752  34.795  26.202  1.00  0.00     0.064 A 
ATOM     90  C   UNL A   1      51.958  35.545  25.036  1.00  0.00     0.173 A 
ATOM     91  C   UNL A   1      52.455  35.174  27.357  1.00  0.00     0.173 A 
ATOM     92  F   UNL A   1      51.319  35.220  23.902  1.00  0.00    -0.203 F 
ATOM     93  C   UNL A   1      52.853  36.613  25.019  1.00  0.00     0.198 A 
ATOM     94  C   UNL A   1      53.322  36.263  27.346  1.00  0.00     0.198 A 
ATOM     95  F   UNL A   1      52.289  34.499  28.505  1.00  0.00    -0.203 F 
ATOM     96  F   UNL A   1      53.073  37.281  23.878  1.00  0.00    -0.200 F 
ATOM     97  C   UNL A   1      53.527  36.976  26.175  1.00  0.00     0.200 A 
ATOM     98  F   UNL A   1      53.956  36.625  28.470  1.00  0.00    -0.200 F 
ATOM     99  F   UNL A   1      54.380  38.009  26.159  1.00  0.00    -0.200 F 
ENDBRANCH  66  89
ENDBRANCH  40  41
ENDBRANCH  33  35
ENDBRANCH  32  33
ENDBRANCH  31  32
ENDBRANCH  30  31
ENDBRANCH  29  30
ENDBRANCH  28  29
ENDBRANCH  27  28
ENDBRANCH  26  27
ENDBRANCH   1  26
TORSDOF 24
ENDMDL
