MODEL 1
REMARK VINA RESULT:      -9.8      0.000      0.000
REMARK SMILES C[C@H]([NH3+])C(=O)N1CCC[C@H]1C(=O)OCCOCCOCCOCCOC(=O)c1ccc(-c2c3nc(c(-c4c(F)c(F)c(F)c(F)c4F)c4ccc([nH]4)c(-c4c(F)c(F)c(F)c(F)c4F)c4nc(c(-c5c(F)c(F)c(F)c(F)c5F)c5ccc2[nH]5)C=C4)C=C3)cc1
REMARK SMILES IDX 18 1 17 2 16 3 15 4 14 5 13 6 11 7 12 8 10 9 6 10 7 11 8 12
REMARK SMILES IDX 9 13 4 14 5 15 2 16 1 17 3 18 19 22 20 23 21 24 22 25 23 26
REMARK SMILES IDX 24 27 25 28 26 29 27 30 28 31 29 32 90 33 30 34 89 35 31 36
REMARK SMILES IDX 32 37 33 38 83 39 34 40 88 41 82 42 84 43 35 44 87 45 81 46
REMARK SMILES IDX 80 47 36 49 68 50 48 51 67 52 49 53 52 54 66 55 85 56 50 57
REMARK SMILES IDX 51 58 65 60 86 61 53 62 37 63 38 64 46 65 39 66 40 67 44 68
REMARK SMILES IDX 47 69 41 70 42 71 45 72 43 73 69 74 70 75 78 76 71 77 72 78
REMARK SMILES IDX 76 79 79 80 73 81 74 82 77 83 75 84 54 85 55 86 63 87 56 88
REMARK SMILES IDX 57 89 61 90 64 91 58 92 59 93 62 94 60 95
REMARK H PARENT 3 19 3 20 3 21 84 48 52 59
REMARK Flexibility Score: inf
ROOT
ATOM      1  C   UNL A   1      34.131  32.112  27.972  1.00  0.00     0.188 C 
ENDROOT
BRANCH   1   2
ATOM      2  C   UNL A   1      33.813  30.686  27.456  1.00  0.00     0.188 C 
BRANCH   2   3
ATOM      3  O   UNL A   1      32.436  30.440  27.230  1.00  0.00    -0.376 OA
BRANCH   3   4
ATOM      4  C   UNL A   1      32.009  30.130  25.919  1.00  0.00     0.202 C 
BRANCH   4   5
ATOM      5  C   UNL A   1      31.552  28.702  25.607  1.00  0.00     0.261 C 
BRANCH   5   6
ATOM      6  O   UNL A   1      31.861  27.713  26.601  1.00  0.00    -0.462 OA
BRANCH   6   7
ATOM      7  C   UNL A   1      32.568  26.627  26.190  1.00  0.00     0.328 C 
ATOM      8  O   UNL A   1      33.793  26.604  26.117  1.00  0.00    -0.250 OA
BRANCH   7   9
ATOM      9  C   UNL A   1      31.659  25.558  25.554  1.00  0.00     0.195 C 
ATOM     10  N   UNL A   1      31.902  24.991  24.211  1.00  0.00    -0.324 N 
ATOM     11  C   UNL A   1      32.240  23.584  24.292  1.00  0.00     0.121 C 
ATOM     12  C   UNL A   1      31.558  23.134  25.567  1.00  0.00     0.024 C 
ATOM     13  C   UNL A   1      31.727  24.332  26.485  1.00  0.00     0.039 C 
BRANCH  10  14
ATOM     14  C   UNL A   1      31.609  25.746  23.094  1.00  0.00     0.281 C 
ATOM     15  O   UNL A   1      30.475  26.231  22.979  1.00  0.00    -0.268 OA
BRANCH  14  16
ATOM     16  C   UNL A   1      32.569  25.833  21.878  1.00  0.00     0.268 C 
ATOM     17  C   UNL A   1      33.486  27.038  22.073  1.00  0.00     0.086 C 
BRANCH  16  18
ATOM     18  N   UNL A   1      31.934  25.849  20.548  1.00  0.00    -0.348 N 
ATOM     19  H   UNL A   1      32.631  26.084  19.840  1.00  0.00     0.345 HD
ATOM     20  H   UNL A   1      31.188  26.543  20.535  1.00  0.00     0.345 HD
ATOM     21  H   UNL A   1      31.544  24.927  20.346  1.00  0.00     0.345 HD
ENDBRANCH  16  18
ENDBRANCH  14  16
ENDBRANCH  10  14
ENDBRANCH   7   9
ENDBRANCH   6   7
ENDBRANCH   5   6
ENDBRANCH   4   5
ENDBRANCH   3   4
ENDBRANCH   2   3
ENDBRANCH   1   2
BRANCH   1  22
ATOM     22  O   UNL A   1      33.287  33.227  27.700  1.00  0.00    -0.377 OA
BRANCH  22  23
ATOM     23  C   UNL A   1      33.256  34.333  28.586  1.00  0.00     0.188 C 
BRANCH  23  24
ATOM     24  C   UNL A   1      34.089  34.309  29.884  1.00  0.00     0.188 C 
BRANCH  24  25
ATOM     25  O   UNL A   1      33.377  34.702  31.041  1.00  0.00    -0.376 OA
BRANCH  25  26
ATOM     26  C   UNL A   1      34.029  34.635  32.293  1.00  0.00     0.202 C 
BRANCH  26  27
ATOM     27  C   UNL A   1      34.148  33.271  32.990  1.00  0.00     0.261 C 
BRANCH  27  28
ATOM     28  O   UNL A   1      35.164  32.383  32.501  1.00  0.00    -0.460 OA
BRANCH  28  29
ATOM     29  C   UNL A   1      36.279  32.246  33.242  1.00  0.00     0.338 C 
ATOM     30  O   UNL A   1      36.428  32.524  34.422  1.00  0.00    -0.246 OA
BRANCH  29  31
ATOM     31  C   UNL A   1      37.268  31.522  32.419  1.00  0.00     0.060 A 
ATOM     32  C   UNL A   1      38.163  30.640  33.040  1.00  0.00     0.016 A 
ATOM     33  C   UNL A   1      37.293  31.700  31.034  1.00  0.00     0.016 A 
ATOM     34  C   UNL A   1      39.104  29.949  32.277  1.00  0.00     0.010 A 
ATOM     35  C   UNL A   1      38.255  31.030  30.275  1.00  0.00     0.010 A 
ATOM     36  C   UNL A   1      39.183  30.176  30.898  1.00  0.00    -0.014 A 
BRANCH  36  37
ATOM     37  C   UNL A   1      40.363  29.694  30.143  1.00  0.00     0.031 A 
ATOM     38  C   UNL A   1      41.496  30.655  29.916  1.00  0.00     0.074 A 
ATOM     39  C   UNL A   1      40.439  28.433  29.686  1.00  0.00     0.049 A 
ATOM     40  N   UNL A   1      42.604  30.494  29.240  1.00  0.00    -0.248 NA
ATOM     41  C   UNL A   1      41.357  31.982  30.537  1.00  0.00     0.031 C 
ATOM     42  C   UNL A   1      39.428  27.398  29.885  1.00  0.00     0.029 A 
ATOM     43  N   UNL A   1      41.418  27.813  28.947  1.00  0.00    -0.354 N 
ATOM     44  C   UNL A   1      43.287  31.699  29.348  1.00  0.00     0.074 A 
ATOM     45  C   UNL A   1      42.456  32.592  30.124  1.00  0.00     0.031 C 
ATOM     46  C   UNL A   1      39.831  26.272  29.269  1.00  0.00     0.029 A 
ATOM     47  C   UNL A   1      41.110  26.521  28.603  1.00  0.00     0.049 A 
ATOM     48  H   UNL A   1      42.259  28.254  28.689  1.00  0.00     0.167 HD
ATOM     49  C   UNL A   1      44.501  32.028  28.848  1.00  0.00     0.037 A 
ATOM     50  C   UNL A   1      41.775  25.651  27.817  1.00  0.00     0.037 A 
ATOM     51  C   UNL A   1      45.320  31.136  28.070  1.00  0.00     0.049 A 
ATOM     52  C   UNL A   1      43.087  26.071  27.199  1.00  0.00     0.074 A 
ATOM     53  C   UNL A   1      46.572  31.366  27.531  1.00  0.00     0.029 A 
ATOM     54  N   UNL A   1      44.960  29.845  27.712  1.00  0.00    -0.354 N 
ATOM     55  N   UNL A   1      43.741  27.202  27.323  1.00  0.00    -0.248 NA
ATOM     56  C   UNL A   1      43.756  25.089  26.334  1.00  0.00     0.031 C 
ATOM     57  C   UNL A   1      46.941  30.239  26.790  1.00  0.00     0.029 A 
ATOM     58  C   UNL A   1      45.952  29.278  26.929  1.00  0.00     0.049 A 
ATOM     59  H   UNL A   1      44.123  29.398  27.974  1.00  0.00     0.167 HD
ATOM     60  C   UNL A   1      44.908  27.054  26.585  1.00  0.00     0.074 A 
ATOM     61  C   UNL A   1      44.880  25.720  26.026  1.00  0.00     0.031 C 
ATOM     62  C   UNL A   1      45.915  27.943  26.387  1.00  0.00     0.037 A 
BRANCH  49  63
ATOM     63  C   UNL A   1      44.998  33.422  29.096  1.00  0.00     0.064 A 
ATOM     64  C   UNL A   1      45.791  33.741  30.209  1.00  0.00     0.173 A 
ATOM     65  C   UNL A   1      44.698  34.451  28.191  1.00  0.00     0.173 A 
ATOM     66  F   UNL A   1      46.094  32.799  31.114  1.00  0.00    -0.203 F 
ATOM     67  C   UNL A   1      46.240  35.042  30.421  1.00  0.00     0.198 A 
ATOM     68  C   UNL A   1      45.177  35.743  28.387  1.00  0.00     0.198 A 
ATOM     69  F   UNL A   1      43.944  34.202  27.109  1.00  0.00    -0.203 F 
ATOM     70  F   UNL A   1      46.951  35.334  31.519  1.00  0.00    -0.200 F 
ATOM     71  C   UNL A   1      45.940  36.041  29.505  1.00  0.00     0.200 A 
ATOM     72  F   UNL A   1      44.897  36.702  27.493  1.00  0.00    -0.200 F 
ATOM     73  F   UNL A   1      46.380  37.290  29.706  1.00  0.00    -0.200 F 
ENDBRANCH  49  63
BRANCH  50  74
ATOM     74  C   UNL A   1      41.208  24.302  27.547  1.00  0.00     0.064 A 
ATOM     75  C   UNL A   1      41.774  23.151  28.114  1.00  0.00     0.173 A 
ATOM     76  C   UNL A   1      40.108  24.132  26.692  1.00  0.00     0.173 A 
ATOM     77  F   UNL A   1      42.844  23.257  28.916  1.00  0.00    -0.203 F 
ATOM     78  C   UNL A   1      41.277  21.883  27.820  1.00  0.00     0.198 A 
ATOM     79  C   UNL A   1      39.592  22.866  26.424  1.00  0.00     0.198 A 
ATOM     80  F   UNL A   1      39.532  25.199  26.118  1.00  0.00    -0.203 F 
ATOM     81  F   UNL A   1      41.872  20.797  28.331  1.00  0.00    -0.200 F 
ATOM     82  C   UNL A   1      40.183  21.742  26.980  1.00  0.00     0.200 A 
ATOM     83  F   UNL A   1      38.525  22.736  25.623  1.00  0.00    -0.200 F 
ATOM     84  F   UNL A   1      39.704  20.522  26.698  1.00  0.00    -0.200 F 
ENDBRANCH  50  74
BRANCH  62  85
ATOM     85  C   UNL A   1      47.094  27.489  25.573  1.00  0.00     0.064 A 
ATOM     86  C   UNL A   1      47.179  27.727  24.193  1.00  0.00     0.173 A 
ATOM     87  C   UNL A   1      48.177  26.846  26.193  1.00  0.00     0.173 A 
ATOM     88  F   UNL A   1      46.167  28.327  23.547  1.00  0.00    -0.203 F 
ATOM     89  C   UNL A   1      48.288  27.311  23.461  1.00  0.00     0.198 A 
ATOM     90  C   UNL A   1      49.301  26.465  25.466  1.00  0.00     0.198 A 
ATOM     91  F   UNL A   1      48.154  26.603  27.513  1.00  0.00    -0.203 F 
ATOM     92  F   UNL A   1      48.323  27.500  22.135  1.00  0.00    -0.200 F 
ATOM     93  C   UNL A   1      49.352  26.689  24.098  1.00  0.00     0.200 A 
ATOM     94  F   UNL A   1      50.334  25.882  26.088  1.00  0.00    -0.200 F 
ATOM     95  F   UNL A   1      50.422  26.300  23.394  1.00  0.00    -0.200 F 
ENDBRANCH  62  85
ENDBRANCH  36  37
ENDBRANCH  29  31
ENDBRANCH  28  29
ENDBRANCH  27  28
ENDBRANCH  26  27
ENDBRANCH  25  26
ENDBRANCH  24  25
ENDBRANCH  23  24
ENDBRANCH  22  23
ENDBRANCH   1  22
TORSDOF 23
ENDMDL
MODEL 2
REMARK VINA RESULT:      -9.8      3.495      8.823
REMARK SMILES C[C@H]([NH3+])C(=O)N1CCC[C@H]1C(=O)OCCOCCOCCOCCOC(=O)c1ccc(-c2c3nc(c(-c4c(F)c(F)c(F)c(F)c4F)c4ccc([nH]4)c(-c4c(F)c(F)c(F)c(F)c4F)c4nc(c(-c5c(F)c(F)c(F)c(F)c5F)c5ccc2[nH]5)C=C4)C=C3)cc1
REMARK SMILES IDX 18 1 17 2 16 3 15 4 14 5 13 6 11 7 12 8 10 9 6 10 7 11 8 12
REMARK SMILES IDX 9 13 4 14 5 15 2 16 1 17 3 18 19 22 20 23 21 24 22 25 23 26
REMARK SMILES IDX 24 27 25 28 26 29 27 30 28 31 29 32 90 33 30 34 89 35 31 36
REMARK SMILES IDX 32 37 33 38 83 39 34 40 88 41 82 42 84 43 35 44 87 45 81 46
REMARK SMILES IDX 80 47 36 49 68 50 48 51 67 52 49 53 52 54 66 55 85 56 50 57
REMARK SMILES IDX 51 58 65 60 86 61 53 62 37 63 38 64 46 65 39 66 40 67 44 68
REMARK SMILES IDX 47 69 41 70 42 71 45 72 43 73 69 74 70 75 78 76 71 77 72 78
REMARK SMILES IDX 76 79 79 80 73 81 74 82 77 83 75 84 54 85 55 86 63 87 56 88
REMARK SMILES IDX 57 89 61 90 64 91 58 92 59 93 62 94 60 95
REMARK H PARENT 3 19 3 20 3 21 84 48 52 59
REMARK Flexibility Score: inf
ROOT
ATOM      1  C   UNL A   1      34.281  21.460  27.186  1.00  0.00     0.188 C 
ENDROOT
BRANCH   1   2
ATOM      2  C   UNL A   1      32.967  22.280  27.198  1.00  0.00     0.188 C 
BRANCH   2   3
ATOM      3  O   UNL A   1      32.330  22.384  25.936  1.00  0.00    -0.376 OA
BRANCH   3   4
ATOM      4  C   UNL A   1      31.491  23.493  25.691  1.00  0.00     0.202 C 
BRANCH   4   5
ATOM      5  C   UNL A   1      31.781  24.816  26.408  1.00  0.00     0.261 C 
BRANCH   5   6
ATOM      6  O   UNL A   1      32.058  25.941  25.560  1.00  0.00    -0.462 OA
BRANCH   6   7
ATOM      7  C   UNL A   1      33.356  26.335  25.465  1.00  0.00     0.328 C 
ATOM      8  O   UNL A   1      34.307  25.570  25.588  1.00  0.00    -0.250 OA
BRANCH   7   9
ATOM      9  C   UNL A   1      33.491  27.870  25.486  1.00  0.00     0.195 C 
ATOM     10  N   UNL A   1      32.454  28.776  24.951  1.00  0.00    -0.324 N 
ATOM     11  C   UNL A   1      31.850  29.562  26.010  1.00  0.00     0.121 C 
ATOM     12  C   UNL A   1      32.944  29.639  27.054  1.00  0.00     0.024 C 
ATOM     13  C   UNL A   1      33.593  28.268  26.971  1.00  0.00     0.039 C 
BRANCH  10  14
ATOM     14  C   UNL A   1      32.316  28.918  23.585  1.00  0.00     0.281 C 
ATOM     15  O   UNL A   1      33.336  29.016  22.888  1.00  0.00    -0.268 OA
BRANCH  14  16
ATOM     16  C   UNL A   1      30.942  29.175  22.913  1.00  0.00     0.268 C 
ATOM     17  C   UNL A   1      30.210  27.842  22.785  1.00  0.00     0.086 C 
BRANCH  16  18
ATOM     18  N   UNL A   1      30.971  29.900  21.630  1.00  0.00    -0.348 N 
ATOM     19  H   UNL A   1      31.790  29.612  21.094  1.00  0.00     0.345 HD
ATOM     20  H   UNL A   1      31.016  30.904  21.807  1.00  0.00     0.345 HD
ATOM     21  H   UNL A   1      30.125  29.687  21.099  1.00  0.00     0.345 HD
ENDBRANCH  16  18
ENDBRANCH  14  16
ENDBRANCH  10  14
ENDBRANCH   7   9
ENDBRANCH   6   7
ENDBRANCH   5   6
ENDBRANCH   4   5
ENDBRANCH   3   4
ENDBRANCH   2   3
ENDBRANCH   1   2
BRANCH   1  22
ATOM     22  O   UNL A   1      35.399  21.824  26.383  1.00  0.00    -0.377 OA
BRANCH  22  23
ATOM     23  C   UNL A   1      35.707  21.088  25.211  1.00  0.00     0.188 C 
BRANCH  23  24
ATOM     24  C   UNL A   1      37.080  21.260  24.527  1.00  0.00     0.188 C 
BRANCH  24  25
ATOM     25  O   UNL A   1      37.988  22.076  25.241  1.00  0.00    -0.376 OA
BRANCH  25  26
ATOM     26  C   UNL A   1      38.982  21.453  26.030  1.00  0.00     0.202 C 
BRANCH  26  27
ATOM     27  C   UNL A   1      39.501  20.070  25.605  1.00  0.00     0.261 C 
BRANCH  27  28
ATOM     28  O   UNL A   1      40.406  19.416  26.506  1.00  0.00    -0.460 OA
BRANCH  28  29
ATOM     29  C   UNL A   1      41.712  19.405  26.177  1.00  0.00     0.338 C 
ATOM     30  O   UNL A   1      42.318  18.538  25.567  1.00  0.00    -0.246 OA
BRANCH  29  31
ATOM     31  C   UNL A   1      42.267  20.726  26.532  1.00  0.00     0.060 A 
ATOM     32  C   UNL A   1      42.252  21.139  27.872  1.00  0.00     0.016 A 
ATOM     33  C   UNL A   1      42.820  21.543  25.544  1.00  0.00     0.016 A 
ATOM     34  C   UNL A   1      42.773  22.384  28.223  1.00  0.00     0.010 A 
ATOM     35  C   UNL A   1      43.313  22.802  25.892  1.00  0.00     0.010 A 
ATOM     36  C   UNL A   1      43.263  23.239  27.228  1.00  0.00    -0.014 A 
BRANCH  36  37
ATOM     37  C   UNL A   1      43.522  24.662  27.548  1.00  0.00     0.031 A 
ATOM     38  C   UNL A   1      44.951  25.125  27.600  1.00  0.00     0.074 A 
ATOM     39  C   UNL A   1      42.518  25.528  27.767  1.00  0.00     0.049 A 
ATOM     40  N   UNL A   1      45.438  26.297  27.914  1.00  0.00    -0.248 NA
ATOM     41  C   UNL A   1      45.971  24.123  27.252  1.00  0.00     0.031 C 
ATOM     42  C   UNL A   1      41.095  25.209  27.697  1.00  0.00     0.029 A 
ATOM     43  N   UNL A   1      42.552  26.859  28.106  1.00  0.00    -0.354 N 
ATOM     44  C   UNL A   1      46.817  26.170  27.809  1.00  0.00     0.074 A 
ATOM     45  C   UNL A   1      47.092  24.801  27.436  1.00  0.00     0.031 C 
ATOM     46  C   UNL A   1      40.387  26.312  27.999  1.00  0.00     0.029 A 
ATOM     47  C   UNL A   1      41.309  27.402  28.320  1.00  0.00     0.049 A 
ATOM     48  H   UNL A   1      43.386  27.374  28.188  1.00  0.00     0.167 HD
ATOM     49  C   UNL A   1      47.768  27.115  28.001  1.00  0.00     0.037 A 
ATOM     50  C   UNL A   1      40.963  28.631  28.751  1.00  0.00     0.037 A 
ATOM     51  C   UNL A   1      47.487  28.475  28.378  1.00  0.00     0.049 A 
ATOM     52  C   UNL A   1      42.046  29.642  29.041  1.00  0.00     0.074 A 
ATOM     53  C   UNL A   1      48.376  29.514  28.582  1.00  0.00     0.029 A 
ATOM     54  N   UNL A   1      46.217  28.980  28.619  1.00  0.00    -0.354 N 
ATOM     55  N   UNL A   1      43.347  29.526  28.918  1.00  0.00    -0.248 NA
ATOM     56  C   UNL A   1      41.610  30.958  29.530  1.00  0.00     0.031 C 
ATOM     57  C   UNL A   1      47.651  30.630  29.011  1.00  0.00     0.029 A 
ATOM     58  C   UNL A   1      46.303  30.309  29.003  1.00  0.00     0.049 A 
ATOM     59  H   UNL A   1      45.379  28.471  28.531  1.00  0.00     0.167 HD
ATOM     60  C   UNL A   1      43.879  30.759  29.276  1.00  0.00     0.074 A 
ATOM     61  C   UNL A   1      42.759  31.613  29.611  1.00  0.00     0.031 C 
ATOM     62  C   UNL A   1      45.177  31.150  29.324  1.00  0.00     0.037 A 
BRANCH  49  63
ATOM     63  C   UNL A   1      49.200  26.698  27.842  1.00  0.00     0.064 A 
ATOM     64  C   UNL A   1      49.806  26.587  26.581  1.00  0.00     0.173 A 
ATOM     65  C   UNL A   1      49.988  26.431  28.972  1.00  0.00     0.173 A 
ATOM     66  F   UNL A   1      49.095  26.815  25.467  1.00  0.00    -0.203 F 
ATOM     67  C   UNL A   1      51.137  26.196  26.458  1.00  0.00     0.198 A 
ATOM     68  C   UNL A   1      51.327  26.074  28.847  1.00  0.00     0.198 A 
ATOM     69  F   UNL A   1      49.460  26.523  30.202  1.00  0.00    -0.203 F 
ATOM     70  F   UNL A   1      51.679  26.045  25.241  1.00  0.00    -0.200 F 
ATOM     71  C   UNL A   1      51.899  25.949  27.590  1.00  0.00     0.200 A 
ATOM     72  F   UNL A   1      52.065  25.850  29.943  1.00  0.00    -0.200 F 
ATOM     73  F   UNL A   1      53.182  25.581  27.470  1.00  0.00    -0.200 F 
ENDBRANCH  49  63
BRANCH  50  74
ATOM     74  C   UNL A   1      39.530  28.976  28.955  1.00  0.00     0.064 A 
ATOM     75  C   UNL A   1      38.920  28.826  30.209  1.00  0.00     0.173 A 
ATOM     76  C   UNL A   1      38.732  29.432  27.895  1.00  0.00     0.173 A 
ATOM     77  F   UNL A   1      39.631  28.367  31.249  1.00  0.00    -0.203 F 
ATOM     78  C   UNL A   1      37.565  29.098  30.388  1.00  0.00     0.198 A 
ATOM     79  C   UNL A   1      37.386  29.734  28.083  1.00  0.00     0.198 A 
ATOM     80  F   UNL A   1      39.264  29.588  26.673  1.00  0.00    -0.203 F 
ATOM     81  F   UNL A   1      36.995  28.892  31.583  1.00  0.00    -0.200 F 
ATOM     82  C   UNL A   1      36.800  29.557  29.327  1.00  0.00     0.200 A 
ATOM     83  F   UNL A   1      36.654  30.192  27.057  1.00  0.00    -0.200 F 
ATOM     84  F   UNL A   1      35.497  29.819  29.500  1.00  0.00    -0.200 F 
ENDBRANCH  50  74
BRANCH  62  85
ATOM     85  C   UNL A   1      45.461  32.576  29.705  1.00  0.00     0.064 A 
ATOM     86  C   UNL A   1      45.724  32.953  31.030  1.00  0.00     0.173 A 
ATOM     87  C   UNL A   1      45.514  33.575  28.719  1.00  0.00     0.173 A 
ATOM     88  F   UNL A   1      45.675  32.041  32.014  1.00  0.00    -0.203 F 
ATOM     89  C   UNL A   1      45.999  34.278  31.358  1.00  0.00     0.198 A 
ATOM     90  C   UNL A   1      45.827  34.891  29.044  1.00  0.00     0.198 A 
ATOM     91  F   UNL A   1      45.281  33.269  27.433  1.00  0.00    -0.203 F 
ATOM     92  F   UNL A   1      46.194  34.624  32.637  1.00  0.00    -0.200 F 
ATOM     93  C   UNL A   1      46.060  35.244  30.364  1.00  0.00     0.200 A 
ATOM     94  F   UNL A   1      45.903  35.818  28.079  1.00  0.00    -0.200 F 
ATOM     95  F   UNL A   1      46.336  36.517  30.680  1.00  0.00    -0.200 F 
ENDBRANCH  62  85
ENDBRANCH  36  37
ENDBRANCH  29  31
ENDBRANCH  28  29
ENDBRANCH  27  28
ENDBRANCH  26  27
ENDBRANCH  25  26
ENDBRANCH  24  25
ENDBRANCH  23  24
ENDBRANCH  22  23
ENDBRANCH   1  22
TORSDOF 23
ENDMDL
MODEL 3
REMARK VINA RESULT:      -9.7      3.451      9.091
REMARK SMILES C[C@H]([NH3+])C(=O)N1CCC[C@H]1C(=O)OCCOCCOCCOCCOC(=O)c1ccc(-c2c3nc(c(-c4c(F)c(F)c(F)c(F)c4F)c4ccc([nH]4)c(-c4c(F)c(F)c(F)c(F)c4F)c4nc(c(-c5c(F)c(F)c(F)c(F)c5F)c5ccc2[nH]5)C=C4)C=C3)cc1
REMARK SMILES IDX 18 1 17 2 16 3 15 4 14 5 13 6 11 7 12 8 10 9 6 10 7 11 8 12
REMARK SMILES IDX 9 13 4 14 5 15 2 16 1 17 3 18 19 22 20 23 21 24 22 25 23 26
REMARK SMILES IDX 24 27 25 28 26 29 27 30 28 31 29 32 90 33 30 34 89 35 31 36
REMARK SMILES IDX 32 37 33 38 83 39 34 40 88 41 82 42 84 43 35 44 87 45 81 46
REMARK SMILES IDX 80 47 36 49 68 50 48 51 67 52 49 53 52 54 66 55 85 56 50 57
REMARK SMILES IDX 51 58 65 60 86 61 53 62 37 63 38 64 46 65 39 66 40 67 44 68
REMARK SMILES IDX 47 69 41 70 42 71 45 72 43 73 69 74 70 75 78 76 71 77 72 78
REMARK SMILES IDX 76 79 79 80 73 81 74 82 77 83 75 84 54 85 55 86 63 87 56 88
REMARK SMILES IDX 57 89 61 90 64 91 58 92 59 93 62 94 60 95
REMARK H PARENT 3 19 3 20 3 21 84 48 52 59
REMARK Flexibility Score: inf
ROOT
ATOM      1  C   UNL A   1      34.182  22.451  27.424  1.00  0.00     0.188 C 
ENDROOT
BRANCH   1   2
ATOM      2  C   UNL A   1      33.021  23.321  26.882  1.00  0.00     0.188 C 
BRANCH   2   3
ATOM      3  O   UNL A   1      32.078  22.613  26.095  1.00  0.00    -0.376 OA
BRANCH   3   4
ATOM      4  C   UNL A   1      31.048  23.340  25.457  1.00  0.00     0.202 C 
BRANCH   4   5
ATOM      5  C   UNL A   1      30.047  24.117  26.318  1.00  0.00     0.261 C 
BRANCH   5   6
ATOM      6  O   UNL A   1      30.350  25.505  26.531  1.00  0.00    -0.462 OA
BRANCH   6   7
ATOM      7  C   UNL A   1      30.282  26.323  25.446  1.00  0.00     0.328 C 
ATOM      8  O   UNL A   1      29.441  26.204  24.560  1.00  0.00    -0.250 OA
BRANCH   7   9
ATOM      9  C   UNL A   1      31.541  27.202  25.312  1.00  0.00     0.195 C 
ATOM     10  N   UNL A   1      31.492  28.679  25.293  1.00  0.00    -0.324 N 
ATOM     11  C   UNL A   1      32.137  29.237  26.466  1.00  0.00     0.121 C 
ATOM     12  C   UNL A   1      33.149  28.176  26.845  1.00  0.00     0.024 C 
ATOM     13  C   UNL A   1      32.417  26.881  26.538  1.00  0.00     0.039 C 
BRANCH  10  14
ATOM     14  C   UNL A   1      31.052  29.328  24.158  1.00  0.00     0.281 C 
ATOM     15  O   UNL A   1      30.100  30.116  24.249  1.00  0.00    -0.268 OA
BRANCH  14  16
ATOM     16  C   UNL A   1      31.556  28.951  22.740  1.00  0.00     0.268 C 
ATOM     17  C   UNL A   1      33.082  28.951  22.755  1.00  0.00     0.086 C 
BRANCH  16  18
ATOM     18  N   UNL A   1      31.028  29.758  21.625  1.00  0.00    -0.348 N 
ATOM     19  H   UNL A   1      31.692  30.497  21.395  1.00  0.00     0.345 HD
ATOM     20  H   UNL A   1      30.137  30.173  21.898  1.00  0.00     0.345 HD
ATOM     21  H   UNL A   1      30.888  29.161  20.809  1.00  0.00     0.345 HD
ENDBRANCH  16  18
ENDBRANCH  14  16
ENDBRANCH  10  14
ENDBRANCH   7   9
ENDBRANCH   6   7
ENDBRANCH   5   6
ENDBRANCH   4   5
ENDBRANCH   3   4
ENDBRANCH   2   3
ENDBRANCH   1   2
BRANCH   1  22
ATOM     22  O   UNL A   1      34.754  21.388  26.669  1.00  0.00    -0.377 OA
BRANCH  22  23
ATOM     23  C   UNL A   1      35.522  21.666  25.510  1.00  0.00     0.188 C 
BRANCH  23  24
ATOM     24  C   UNL A   1      36.821  22.491  25.622  1.00  0.00     0.188 C 
BRANCH  24  25
ATOM     25  O   UNL A   1      38.000  21.713  25.693  1.00  0.00    -0.376 OA
BRANCH  25  26
ATOM     26  C   UNL A   1      38.029  20.465  25.030  1.00  0.00     0.202 C 
BRANCH  26  27
ATOM     27  C   UNL A   1      39.148  19.471  25.377  1.00  0.00     0.261 C 
BRANCH  27  28
ATOM     28  O   UNL A   1      40.072  19.870  26.399  1.00  0.00    -0.460 OA
BRANCH  28  29
ATOM     29  C   UNL A   1      41.376  19.602  26.197  1.00  0.00     0.338 C 
ATOM     30  O   UNL A   1      41.865  18.576  25.751  1.00  0.00    -0.246 OA
BRANCH  29  31
ATOM     31  C   UNL A   1      42.125  20.850  26.447  1.00  0.00     0.060 A 
ATOM     32  C   UNL A   1      42.364  21.254  27.768  1.00  0.00     0.016 A 
ATOM     33  C   UNL A   1      42.610  21.603  25.376  1.00  0.00     0.016 A 
ATOM     34  C   UNL A   1      43.069  22.430  28.020  1.00  0.00     0.010 A 
ATOM     35  C   UNL A   1      43.290  22.796  25.629  1.00  0.00     0.010 A 
ATOM     36  C   UNL A   1      43.495  23.229  26.952  1.00  0.00    -0.014 A 
BRANCH  36  37
ATOM     37  C   UNL A   1      43.960  24.612  27.211  1.00  0.00     0.031 A 
ATOM     38  C   UNL A   1      42.951  25.616  27.695  1.00  0.00     0.074 A 
ATOM     39  C   UNL A   1      45.244  24.966  27.042  1.00  0.00     0.049 A 
ATOM     40  N   UNL A   1      43.094  26.893  27.934  1.00  0.00    -0.248 NA
ATOM     41  C   UNL A   1      41.592  25.106  27.938  1.00  0.00     0.031 C 
ATOM     42  C   UNL A   1      46.321  24.071  26.625  1.00  0.00     0.029 A 
ATOM     43  N   UNL A   1      45.857  26.186  27.194  1.00  0.00    -0.354 N 
ATOM     44  C   UNL A   1      41.845  27.339  28.347  1.00  0.00     0.074 A 
ATOM     45  C   UNL A   1      40.949  26.206  28.294  1.00  0.00     0.031 C 
ATOM     46  C   UNL A   1      47.463  24.777  26.539  1.00  0.00     0.029 A 
ATOM     47  C   UNL A   1      47.188  26.178  26.859  1.00  0.00     0.049 A 
ATOM     48  H   UNL A   1      45.386  26.990  27.512  1.00  0.00     0.167 HD
ATOM     49  C   UNL A   1      41.481  28.582  28.742  1.00  0.00     0.037 A 
ATOM     50  C   UNL A   1      48.072  27.193  26.793  1.00  0.00     0.037 A 
ATOM     51  C   UNL A   1      42.377  29.707  28.786  1.00  0.00     0.049 A 
ATOM     52  C   UNL A   1      47.621  28.588  27.155  1.00  0.00     0.074 A 
ATOM     53  C   UNL A   1      42.113  31.004  29.185  1.00  0.00     0.029 A 
ATOM     54  N   UNL A   1      43.711  29.668  28.406  1.00  0.00    -0.354 N 
ATOM     55  N   UNL A   1      46.446  29.000  27.569  1.00  0.00    -0.248 NA
ATOM     56  C   UNL A   1      48.621  29.658  27.044  1.00  0.00     0.031 C 
ATOM     57  C   UNL A   1      43.268  31.766  28.984  1.00  0.00     0.029 A 
ATOM     58  C   UNL A   1      44.274  30.928  28.529  1.00  0.00     0.049 A 
ATOM     59  H   UNL A   1      44.187  28.865  28.094  1.00  0.00     0.167 HD
ATOM     60  C   UNL A   1      46.576  30.364  27.800  1.00  0.00     0.074 A 
ATOM     61  C   UNL A   1      47.948  30.708  27.492  1.00  0.00     0.031 C 
ATOM     62  C   UNL A   1      45.645  31.254  28.228  1.00  0.00     0.037 A 
BRANCH  49  63
ATOM     63  C   UNL A   1      40.045  28.796  29.119  1.00  0.00     0.064 A 
ATOM     64  C   UNL A   1      39.070  29.138  28.168  1.00  0.00     0.173 A 
ATOM     65  C   UNL A   1      39.631  28.628  30.449  1.00  0.00     0.173 A 
ATOM     66  F   UNL A   1      39.415  29.326  26.886  1.00  0.00    -0.203 F 
ATOM     67  C   UNL A   1      37.743  29.333  28.541  1.00  0.00     0.198 A 
ATOM     68  C   UNL A   1      38.297  28.790  30.812  1.00  0.00     0.198 A 
ATOM     69  F   UNL A   1      40.520  28.300  31.399  1.00  0.00    -0.203 F 
ATOM     70  F   UNL A   1      36.840  29.712  27.626  1.00  0.00    -0.200 F 
ATOM     71  C   UNL A   1      37.355  29.151  29.861  1.00  0.00     0.200 A 
ATOM     72  F   UNL A   1      37.923  28.598  32.085  1.00  0.00    -0.200 F 
ATOM     73  F   UNL A   1      36.075  29.330  30.216  1.00  0.00    -0.200 F 
ENDBRANCH  49  63
BRANCH  50  74
ATOM     74  C   UNL A   1      49.469  26.941  26.349  1.00  0.00     0.064 A 
ATOM     75  C   UNL A   1      49.820  26.995  24.993  1.00  0.00     0.173 A 
ATOM     76  C   UNL A   1      50.477  26.609  27.268  1.00  0.00     0.173 A 
ATOM     77  F   UNL A   1      48.889  27.280  24.071  1.00  0.00    -0.203 F 
ATOM     78  C   UNL A   1      51.117  26.706  24.571  1.00  0.00     0.198 A 
ATOM     79  C   UNL A   1      51.780  26.352  26.849  1.00  0.00     0.198 A 
ATOM     80  F   UNL A   1      50.194  26.538  28.578  1.00  0.00    -0.203 F 
ATOM     81  F   UNL A   1      51.411  26.710  23.264  1.00  0.00    -0.200 F 
ATOM     82  C   UNL A   1      52.097  26.391  25.500  1.00  0.00     0.200 A 
ATOM     83  F   UNL A   1      52.727  26.062  27.752  1.00  0.00    -0.200 F 
ATOM     84  F   UNL A   1      53.344  26.114  25.094  1.00  0.00    -0.200 F 
ENDBRANCH  50  74
BRANCH  62  85
ATOM     85  C   UNL A   1      46.086  32.675  28.440  1.00  0.00     0.064 A 
ATOM     86  C   UNL A   1      45.991  33.640  27.427  1.00  0.00     0.173 A 
ATOM     87  C   UNL A   1      46.569  33.088  29.693  1.00  0.00     0.173 A 
ATOM     88  F   UNL A   1      45.548  33.298  26.207  1.00  0.00    -0.203 F 
ATOM     89  C   UNL A   1      46.392  34.956  27.650  1.00  0.00     0.198 A 
ATOM     90  C   UNL A   1      46.932  34.411  29.924  1.00  0.00     0.198 A 
ATOM     91  F   UNL A   1      46.671  32.208  30.701  1.00  0.00    -0.203 F 
ATOM     92  F   UNL A   1      46.343  35.847  26.651  1.00  0.00    -0.200 F 
ATOM     93  C   UNL A   1      46.852  35.342  28.900  1.00  0.00     0.200 A 
ATOM     94  F   UNL A   1      47.359  34.785  31.137  1.00  0.00    -0.200 F 
ATOM     95  F   UNL A   1      47.227  36.610  29.115  1.00  0.00    -0.200 F 
ENDBRANCH  62  85
ENDBRANCH  36  37
ENDBRANCH  29  31
ENDBRANCH  28  29
ENDBRANCH  27  28
ENDBRANCH  26  27
ENDBRANCH  25  26
ENDBRANCH  24  25
ENDBRANCH  23  24
ENDBRANCH  22  23
ENDBRANCH   1  22
TORSDOF 23
ENDMDL
