MODEL 1
REMARK VINA RESULT:     -10.6      0.000      0.000
REMARK SMILES O=C(OCCOCCOCCOCCOC(=O)c1cnc(Nc2ccccc2)nc1)c1ccc(-c2c3nc(c(-c4c(F)c(F)c(F)c(F)c4F)c4ccc([nH]4)c(-c4c(F)c(F)c(F)c(F)c4F)c4nc(c(-c5c(F)c(F)c(F)c(F)c5F)c5ccc2[nH]5)C=C4)C=C3)cc1
REMARK SMILES IDX 9 1 8 2 7 3 6 4 5 5 4 6 3 7 2 8 1 9 31 10 32 11 93 12 33 13
REMARK SMILES IDX 92 14 34 15 35 16 36 17 86 18 37 19 91 20 85 21 87 22 38 23
REMARK SMILES IDX 90 24 84 25 83 26 39 28 71 29 51 30 70 31 52 32 55 33 69 34
REMARK SMILES IDX 88 35 53 36 54 37 68 39 89 40 56 41 40 42 41 43 49 44 42 45
REMARK SMILES IDX 43 46 47 47 50 48 44 49 45 50 48 51 46 52 72 53 73 54 81 55
REMARK SMILES IDX 74 56 75 57 79 58 82 59 76 60 77 61 80 62 78 63 57 64 58 65
REMARK SMILES IDX 66 66 59 67 60 68 64 69 67 70 61 71 62 72 65 73 63 74 10 75
REMARK SMILES IDX 11 76 12 77 13 78 14 79 15 80 16 81 17 82 18 83 19 84 30 85
REMARK SMILES IDX 20 86 29 87 21 88 22 89 23 91 24 92 28 93 25 94 27 95 26 96
REMARK H PARENT 87 27 55 38 22 90
REMARK Flexibility Score: inf
ROOT
ATOM      1  O   UNL A   1      40.766  20.540  27.732  1.00  0.00    -0.377 OA
ENDROOT
BRANCH   1   2
ATOM      2  C   UNL A   1      41.913  19.707  27.568  1.00  0.00     0.188 C 
BRANCH   2   3
ATOM      3  C   UNL A   1      42.200  19.270  26.131  1.00  0.00     0.188 C 
BRANCH   3   4
ATOM      4  O   UNL A   1      43.595  19.403  25.835  1.00  0.00    -0.376 OA
BRANCH   4   5
ATOM      5  C   UNL A   1      43.925  20.503  24.986  1.00  0.00     0.202 C 
BRANCH   5   6
ATOM      6  C   UNL A   1      44.192  21.807  25.739  1.00  0.00     0.261 C 
BRANCH   6   7
ATOM      7  O   UNL A   1      43.435  22.899  25.200  1.00  0.00    -0.460 OA
BRANCH   7   8
ATOM      8  C   UNL A   1      43.727  24.223  25.250  1.00  0.00     0.338 C 
ATOM      9  O   UNL A   1      44.550  24.664  24.448  1.00  0.00    -0.246 OA
BRANCH   8  10
ATOM     10  C   UNL A   1      43.090  25.199  26.195  1.00  0.00     0.060 A 
ATOM     11  C   UNL A   1      43.359  26.567  26.268  1.00  0.00     0.016 A 
ATOM     12  C   UNL A   1      42.098  24.685  27.050  1.00  0.00     0.016 A 
ATOM     13  C   UNL A   1      42.743  27.383  27.210  1.00  0.00     0.010 A 
ATOM     14  C   UNL A   1      41.449  25.501  27.982  1.00  0.00     0.010 A 
ATOM     15  C   UNL A   1      41.806  26.848  28.088  1.00  0.00    -0.014 A 
BRANCH  15  16
ATOM     16  C   UNL A   1      41.369  27.680  29.222  1.00  0.00     0.031 A 
ATOM     17  C   UNL A   1      42.213  27.665  30.461  1.00  0.00     0.074 A 
ATOM     18  C   UNL A   1      40.335  28.526  29.083  1.00  0.00     0.049 A 
ATOM     19  N   UNL A   1      42.032  28.275  31.599  1.00  0.00    -0.248 NA
ATOM     20  C   UNL A   1      43.447  26.861  30.397  1.00  0.00     0.031 C 
ATOM     21  C   UNL A   1      39.549  28.703  27.862  1.00  0.00     0.029 A 
ATOM     22  N   UNL A   1      39.788  29.418  29.968  1.00  0.00    -0.354 N 
ATOM     23  C   UNL A   1      43.111  27.910  32.393  1.00  0.00     0.074 A 
ATOM     24  C   UNL A   1      43.943  27.024  31.613  1.00  0.00     0.031 C 
ATOM     25  C   UNL A   1      38.626  29.656  28.071  1.00  0.00     0.029 A 
ATOM     26  C   UNL A   1      38.718  30.110  29.455  1.00  0.00     0.049 A 
ATOM     27  H   UNL A   1      40.129  29.550  30.881  1.00  0.00     0.167 HD
ATOM     28  C   UNL A   1      43.372  28.281  33.667  1.00  0.00     0.037 A 
ATOM     29  C   UNL A   1      37.893  30.983  30.062  1.00  0.00     0.037 A 
ATOM     30  C   UNL A   1      42.521  29.160  34.419  1.00  0.00     0.049 A 
ATOM     31  C   UNL A   1      38.145  31.301  31.514  1.00  0.00     0.074 A 
ATOM     32  C   UNL A   1      42.625  29.553  35.739  1.00  0.00     0.029 A 
ATOM     33  N   UNL A   1      41.396  29.787  33.897  1.00  0.00    -0.354 N 
ATOM     34  N   UNL A   1      39.121  30.893  32.292  1.00  0.00    -0.248 NA
ATOM     35  C   UNL A   1      37.178  32.182  32.177  1.00  0.00     0.031 C 
ATOM     36  C   UNL A   1      41.538  30.387  36.027  1.00  0.00     0.029 A 
ATOM     37  C   UNL A   1      40.785  30.553  34.872  1.00  0.00     0.049 A 
ATOM     38  H   UNL A   1      41.081  29.699  32.968  1.00  0.00     0.167 HD
ATOM     39  C   UNL A   1      38.895  31.475  33.530  1.00  0.00     0.074 A 
ATOM     40  C   UNL A   1      37.699  32.285  33.391  1.00  0.00     0.031 C 
ATOM     41  C   UNL A   1      39.600  31.351  34.682  1.00  0.00     0.037 A 
BRANCH  28  42
ATOM     42  C   UNL A   1      44.573  27.667  34.322  1.00  0.00     0.064 A 
ATOM     43  C   UNL A   1      45.855  28.224  34.195  1.00  0.00     0.173 A 
ATOM     44  C   UNL A   1      44.446  26.471  35.044  1.00  0.00     0.173 A 
ATOM     45  F   UNL A   1      46.037  29.347  33.485  1.00  0.00    -0.203 F 
ATOM     46  C   UNL A   1      46.969  27.586  34.739  1.00  0.00     0.198 A 
ATOM     47  C   UNL A   1      45.557  25.852  35.610  1.00  0.00     0.198 A 
ATOM     48  F   UNL A   1      43.244  25.893  35.187  1.00  0.00    -0.203 F 
ATOM     49  F   UNL A   1      48.193  28.100  34.549  1.00  0.00    -0.200 F 
ATOM     50  C   UNL A   1      46.818  26.404  35.447  1.00  0.00     0.200 A 
ATOM     51  F   UNL A   1      45.409  24.709  36.293  1.00  0.00    -0.200 F 
ATOM     52  F   UNL A   1      47.893  25.786  35.959  1.00  0.00    -0.200 F 
ENDBRANCH  28  42
BRANCH  29  53
ATOM     53  C   UNL A   1      36.740  31.568  29.325  1.00  0.00     0.064 A 
ATOM     54  C   UNL A   1      36.702  32.928  28.988  1.00  0.00     0.173 A 
ATOM     55  C   UNL A   1      35.641  30.778  28.952  1.00  0.00     0.173 A 
ATOM     56  F   UNL A   1      37.714  33.734  29.341  1.00  0.00    -0.203 F 
ATOM     57  C   UNL A   1      35.606  33.477  28.322  1.00  0.00     0.198 A 
ATOM     58  C   UNL A   1      34.561  31.320  28.259  1.00  0.00     0.198 A 
ATOM     59  F   UNL A   1      35.618  29.472  29.253  1.00  0.00    -0.203 F 
ATOM     60  F   UNL A   1      35.576  34.789  28.053  1.00  0.00    -0.200 F 
ATOM     61  C   UNL A   1      34.540  32.671  27.951  1.00  0.00     0.200 A 
ATOM     62  F   UNL A   1      33.539  30.533  27.892  1.00  0.00    -0.200 F 
ATOM     63  F   UNL A   1      33.489  33.198  27.307  1.00  0.00    -0.200 F 
ENDBRANCH  29  53
BRANCH  41  64
ATOM     64  C   UNL A   1      39.109  32.131  35.864  1.00  0.00     0.064 A 
ATOM     65  C   UNL A   1      38.275  31.548  36.828  1.00  0.00     0.173 A 
ATOM     66  C   UNL A   1      39.528  33.454  36.059  1.00  0.00     0.173 A 
ATOM     67  F   UNL A   1      37.839  30.289  36.674  1.00  0.00    -0.203 F 
ATOM     68  C   UNL A   1      37.860  32.274  37.940  1.00  0.00     0.198 A 
ATOM     69  C   UNL A   1      39.134  34.167  37.187  1.00  0.00     0.198 A 
ATOM     70  F   UNL A   1      40.333  34.048  35.166  1.00  0.00    -0.203 F 
ATOM     71  F   UNL A   1      37.030  31.714  38.832  1.00  0.00    -0.200 F 
ATOM     72  C   UNL A   1      38.297  33.579  38.123  1.00  0.00     0.200 A 
ATOM     73  F   UNL A   1      39.568  35.422  37.370  1.00  0.00    -0.200 F 
ATOM     74  F   UNL A   1      37.905  34.272  39.201  1.00  0.00    -0.200 F 
ENDBRANCH  41  64
ENDBRANCH  15  16
ENDBRANCH   8  10
ENDBRANCH   7   8
ENDBRANCH   6   7
ENDBRANCH   5   6
ENDBRANCH   4   5
ENDBRANCH   3   4
ENDBRANCH   2   3
ENDBRANCH   1   2
BRANCH   1  75
ATOM     75  C   UNL A   1      40.477  21.447  26.675  1.00  0.00     0.188 C 
BRANCH  75  76
ATOM     76  C   UNL A   1      39.273  21.143  25.757  1.00  0.00     0.188 C 
BRANCH  76  77
ATOM     77  O   UNL A   1      38.224  22.103  25.793  1.00  0.00    -0.376 OA
BRANCH  77  78
ATOM     78  C   UNL A   1      37.406  22.171  24.628  1.00  0.00     0.202 C 
BRANCH  78  79
ATOM     79  C   UNL A   1      36.742  23.533  24.399  1.00  0.00     0.261 C 
BRANCH  79  80
ATOM     80  O   UNL A   1      36.021  24.051  25.530  1.00  0.00    -0.460 OA
BRANCH  80  81
ATOM     81  C   UNL A   1      34.743  24.452  25.359  1.00  0.00     0.341 C 
ATOM     82  O   UNL A   1      34.335  25.586  25.186  1.00  0.00    -0.246 OA
BRANCH  81  83
ATOM     83  C   UNL A   1      33.945  23.241  25.175  1.00  0.00     0.096 A 
ATOM     84  C   UNL A   1      33.997  22.191  26.052  1.00  0.00     0.132 A 
ATOM     85  C   UNL A   1      33.261  23.008  24.003  1.00  0.00     0.132 A 
ATOM     86  N   UNL A   1      33.394  21.015  25.808  1.00  0.00    -0.220 NA
ATOM     87  N   UNL A   1      32.701  21.815  23.688  1.00  0.00    -0.220 NA
ATOM     88  C   UNL A   1      32.768  20.854  24.627  1.00  0.00     0.227 A 
BRANCH  88  89
ATOM     89  N   UNL A   1      32.151  19.636  24.370  1.00  0.00    -0.324 N 
ATOM     90  H   UNL A   1      31.212  19.658  24.075  1.00  0.00     0.170 HD
BRANCH  89  91
ATOM     91  C   UNL A   1      32.756  18.379  24.497  1.00  0.00     0.041 A 
ATOM     92  C   UNL A   1      32.547  17.592  25.631  1.00  0.00     0.026 A 
ATOM     93  C   UNL A   1      33.551  17.865  23.461  1.00  0.00     0.026 A 
ATOM     94  C   UNL A   1      33.086  16.302  25.702  1.00  0.00     0.002 A 
ATOM     95  C   UNL A   1      34.105  16.591  23.536  1.00  0.00     0.002 A 
ATOM     96  C   UNL A   1      33.862  15.803  24.655  1.00  0.00     0.000 A 
ENDBRANCH  89  91
ENDBRANCH  88  89
ENDBRANCH  81  83
ENDBRANCH  80  81
ENDBRANCH  79  80
ENDBRANCH  78  79
ENDBRANCH  77  78
ENDBRANCH  76  77
ENDBRANCH  75  76
ENDBRANCH   1  75
TORSDOF 22
ENDMDL
MODEL 2
REMARK VINA RESULT:     -10.5      3.640      8.800
REMARK SMILES O=C(OCCOCCOCCOCCOC(=O)c1cnc(Nc2ccccc2)nc1)c1ccc(-c2c3nc(c(-c4c(F)c(F)c(F)c(F)c4F)c4ccc([nH]4)c(-c4c(F)c(F)c(F)c(F)c4F)c4nc(c(-c5c(F)c(F)c(F)c(F)c5F)c5ccc2[nH]5)C=C4)C=C3)cc1
REMARK SMILES IDX 9 1 8 2 7 3 6 4 5 5 4 6 3 7 2 8 1 9 31 10 32 11 93 12 33 13
REMARK SMILES IDX 92 14 34 15 35 16 36 17 86 18 37 19 91 20 85 21 87 22 38 23
REMARK SMILES IDX 90 24 84 25 83 26 39 28 71 29 51 30 70 31 52 32 55 33 69 34
REMARK SMILES IDX 88 35 53 36 54 37 68 39 89 40 56 41 40 42 41 43 49 44 42 45
REMARK SMILES IDX 43 46 47 47 50 48 44 49 45 50 48 51 46 52 72 53 73 54 81 55
REMARK SMILES IDX 74 56 75 57 79 58 82 59 76 60 77 61 80 62 78 63 57 64 58 65
REMARK SMILES IDX 66 66 59 67 60 68 64 69 67 70 61 71 62 72 65 73 63 74 10 75
REMARK SMILES IDX 11 76 12 77 13 78 14 79 15 80 16 81 17 82 18 83 19 84 30 85
REMARK SMILES IDX 20 86 29 87 21 88 22 89 23 91 24 92 28 93 25 94 27 95 26 96
REMARK H PARENT 87 27 55 38 22 90
REMARK Flexibility Score: inf
ROOT
ATOM      1  O   UNL A   1      33.427  27.911  25.525  1.00  0.00    -0.377 OA
ENDROOT
BRANCH   1   2
ATOM      2  C   UNL A   1      33.230  28.467  26.825  1.00  0.00     0.188 C 
BRANCH   2   3
ATOM      3  C   UNL A   1      31.958  29.299  26.992  1.00  0.00     0.188 C 
BRANCH   3   4
ATOM      4  O   UNL A   1      32.283  30.685  27.156  1.00  0.00    -0.376 OA
BRANCH   4   5
ATOM      5  C   UNL A   1      31.391  31.589  26.503  1.00  0.00     0.202 C 
BRANCH   5   6
ATOM      6  C   UNL A   1      31.785  33.060  26.650  1.00  0.00     0.261 C 
BRANCH   6   7
ATOM      7  O   UNL A   1      32.563  33.288  27.834  1.00  0.00    -0.460 OA
BRANCH   7   8
ATOM      8  C   UNL A   1      33.847  33.716  27.919  1.00  0.00     0.338 C 
ATOM      9  O   UNL A   1      34.088  34.885  27.620  1.00  0.00    -0.246 OA
BRANCH   8  10
ATOM     10  C   UNL A   1      34.995  32.871  28.389  1.00  0.00     0.060 A 
ATOM     11  C   UNL A   1      34.924  31.533  28.781  1.00  0.00     0.016 A 
ATOM     12  C   UNL A   1      36.263  33.482  28.386  1.00  0.00     0.016 A 
ATOM     13  C   UNL A   1      36.042  30.847  29.242  1.00  0.00     0.010 A 
ATOM     14  C   UNL A   1      37.400  32.793  28.819  1.00  0.00     0.010 A 
ATOM     15  C   UNL A   1      37.279  31.483  29.288  1.00  0.00    -0.014 A 
BRANCH  15  16
ATOM     16  C   UNL A   1      38.373  30.812  30.011  1.00  0.00     0.031 A 
ATOM     17  C   UNL A   1      38.530  31.115  31.470  1.00  0.00     0.074 A 
ATOM     18  C   UNL A   1      39.099  29.857  29.406  1.00  0.00     0.049 A 
ATOM     19  N   UNL A   1      39.425  30.687  32.318  1.00  0.00    -0.248 NA
ATOM     20  C   UNL A   1      37.522  32.014  32.060  1.00  0.00     0.031 C 
ATOM     21  C   UNL A   1      38.914  29.404  28.027  1.00  0.00     0.029 A 
ATOM     22  N   UNL A   1      40.118  29.075  29.884  1.00  0.00    -0.354 N 
ATOM     23  C   UNL A   1      39.104  31.283  33.530  1.00  0.00     0.074 A 
ATOM     24  C   UNL A   1      37.936  32.105  33.313  1.00  0.00     0.031 C 
ATOM     25  C   UNL A   1      39.784  28.413  27.773  1.00  0.00     0.029 A 
ATOM     26  C   UNL A   1      40.624  28.206  28.948  1.00  0.00     0.049 A 
ATOM     27  H   UNL A   1      40.453  29.131  30.807  1.00  0.00     0.167 HD
ATOM     28  C   UNL A   1      39.742  31.157  34.716  1.00  0.00     0.037 A 
ATOM     29  C   UNL A   1      41.675  27.369  29.038  1.00  0.00     0.037 A 
ATOM     30  C   UNL A   1      40.906  30.335  34.898  1.00  0.00     0.049 A 
ATOM     31  C   UNL A   1      42.432  27.323  30.340  1.00  0.00     0.074 A 
ATOM     32  C   UNL A   1      41.694  30.179  36.021  1.00  0.00     0.029 A 
ATOM     33  N   UNL A   1      41.446  29.523  33.908  1.00  0.00    -0.354 N 
ATOM     34  N   UNL A   1      42.178  27.949  31.467  1.00  0.00    -0.248 NA
ATOM     35  C   UNL A   1      43.628  26.474  30.382  1.00  0.00     0.031 C 
ATOM     36  C   UNL A   1      42.736  29.302  35.698  1.00  0.00     0.029 A 
ATOM     37  C   UNL A   1      42.568  28.874  34.388  1.00  0.00     0.049 A 
ATOM     38  H   UNL A   1      41.083  29.424  32.998  1.00  0.00     0.167 HD
ATOM     39  C   UNL A   1      43.171  27.561  32.355  1.00  0.00     0.074 A 
ATOM     40  C   UNL A   1      44.019  26.626  31.639  1.00  0.00     0.031 C 
ATOM     41  C   UNL A   1      43.375  27.943  33.639  1.00  0.00     0.037 A 
BRANCH  28  42
ATOM     42  C   UNL A   1      39.229  31.985  35.855  1.00  0.00     0.064 A 
ATOM     43  C   UNL A   1      39.715  33.276  36.114  1.00  0.00     0.173 A 
ATOM     44  C   UNL A   1      38.274  31.456  36.735  1.00  0.00     0.173 A 
ATOM     45  F   UNL A   1      40.655  33.816  35.323  1.00  0.00    -0.203 F 
ATOM     46  C   UNL A   1      39.286  33.992  37.231  1.00  0.00     0.198 A 
ATOM     47  C   UNL A   1      37.828  32.185  37.835  1.00  0.00     0.198 A 
ATOM     48  F   UNL A   1      37.784  30.223  36.539  1.00  0.00    -0.203 F 
ATOM     49  F   UNL A   1      39.813  35.196  37.495  1.00  0.00    -0.200 F 
ATOM     50  C   UNL A   1      38.343  33.447  38.087  1.00  0.00     0.200 A 
ATOM     51  F   UNL A   1      36.916  31.656  38.662  1.00  0.00    -0.200 F 
ATOM     52  F   UNL A   1      37.942  34.132  39.168  1.00  0.00    -0.200 F 
ENDBRANCH  28  42
BRANCH  29  53
ATOM     53  C   UNL A   1      42.096  26.561  27.863  1.00  0.00     0.064 A 
ATOM     54  C   UNL A   1      41.622  25.256  27.665  1.00  0.00     0.173 A 
ATOM     55  C   UNL A   1      42.997  27.072  26.914  1.00  0.00     0.173 A 
ATOM     56  F   UNL A   1      40.777  24.709  28.552  1.00  0.00    -0.203 F 
ATOM     57  C   UNL A   1      42.041  24.492  26.576  1.00  0.00     0.198 A 
ATOM     58  C   UNL A   1      43.391  26.319  25.810  1.00  0.00     0.198 A 
ATOM     59  F   UNL A   1      43.490  28.310  27.054  1.00  0.00    -0.203 F 
ATOM     60  F   UNL A   1      41.607  23.232  26.437  1.00  0.00    -0.200 F 
ATOM     61  C   UNL A   1      42.919  25.027  25.646  1.00  0.00     0.200 A 
ATOM     62  F   UNL A   1      44.231  26.846  24.907  1.00  0.00    -0.200 F 
ATOM     63  F   UNL A   1      43.320  24.293  24.597  1.00  0.00    -0.200 F 
ENDBRANCH  29  53
BRANCH  41  64
ATOM     64  C   UNL A   1      44.539  27.326  34.353  1.00  0.00     0.064 A 
ATOM     65  C   UNL A   1      44.422  26.094  35.012  1.00  0.00     0.173 A 
ATOM     66  C   UNL A   1      45.795  27.949  34.325  1.00  0.00     0.173 A 
ATOM     67  F   UNL A   1      43.236  25.471  35.077  1.00  0.00    -0.203 F 
ATOM     68  C   UNL A   1      45.523  25.516  35.637  1.00  0.00     0.198 A 
ATOM     69  C   UNL A   1      46.898  27.353  34.926  1.00  0.00     0.198 A 
ATOM     70  F   UNL A   1      45.954  29.123  33.698  1.00  0.00    -0.203 F 
ATOM     71  F   UNL A   1      45.384  24.358  36.297  1.00  0.00    -0.200 F 
ATOM     72  C   UNL A   1      46.761  26.141  35.586  1.00  0.00     0.200 A 
ATOM     73  F   UNL A   1      48.097  27.950  34.863  1.00  0.00    -0.200 F 
ATOM     74  F   UNL A   1      47.822  25.577  36.178  1.00  0.00    -0.200 F 
ENDBRANCH  41  64
ENDBRANCH  15  16
ENDBRANCH   8  10
ENDBRANCH   7   8
ENDBRANCH   6   7
ENDBRANCH   5   6
ENDBRANCH   4   5
ENDBRANCH   3   4
ENDBRANCH   2   3
ENDBRANCH   1   2
BRANCH   1  75
ATOM     75  C   UNL A   1      32.624  28.437  24.476  1.00  0.00     0.188 C 
BRANCH  75  76
ATOM     76  C   UNL A   1      31.921  27.446  23.523  1.00  0.00     0.188 C 
BRANCH  76  77
ATOM     77  O   UNL A   1      30.525  27.279  23.741  1.00  0.00    -0.376 OA
BRANCH  77  78
ATOM     78  C   UNL A   1      30.123  26.003  24.231  1.00  0.00     0.202 C 
BRANCH  78  79
ATOM     79  C   UNL A   1      30.147  25.876  25.759  1.00  0.00     0.261 C 
BRANCH  79  80
ATOM     80  O   UNL A   1      31.294  25.192  26.290  1.00  0.00    -0.460 OA
BRANCH  80  81
ATOM     81  C   UNL A   1      31.147  23.930  26.747  1.00  0.00     0.341 C 
ATOM     82  O   UNL A   1      30.172  23.442  27.287  1.00  0.00    -0.246 OA
BRANCH  81  83
ATOM     83  C   UNL A   1      32.295  23.171  26.255  1.00  0.00     0.096 A 
ATOM     84  C   UNL A   1      32.537  22.994  24.919  1.00  0.00     0.132 A 
ATOM     85  C   UNL A   1      33.075  22.421  27.108  1.00  0.00     0.132 A 
ATOM     86  N   UNL A   1      33.492  22.168  24.460  1.00  0.00    -0.220 NA
ATOM     87  N   UNL A   1      33.999  21.524  26.684  1.00  0.00    -0.220 NA
ATOM     88  C   UNL A   1      34.194  21.447  25.355  1.00  0.00     0.227 A 
BRANCH  88  89
ATOM     89  N   UNL A   1      35.177  20.587  24.882  1.00  0.00    -0.324 N 
ATOM     90  H   UNL A   1      34.886  19.827  24.328  1.00  0.00     0.170 HD
BRANCH  89  91
ATOM     91  C   UNL A   1      36.550  20.713  25.130  1.00  0.00     0.041 A 
ATOM     92  C   UNL A   1      37.097  21.926  25.551  1.00  0.00     0.026 A 
ATOM     93  C   UNL A   1      37.400  19.602  25.003  1.00  0.00     0.026 A 
ATOM     94  C   UNL A   1      38.455  22.010  25.879  1.00  0.00     0.002 A 
ATOM     95  C   UNL A   1      38.754  19.686  25.310  1.00  0.00     0.002 A 
ATOM     96  C   UNL A   1      39.280  20.891  25.761  1.00  0.00     0.000 A 
ENDBRANCH  89  91
ENDBRANCH  88  89
ENDBRANCH  81  83
ENDBRANCH  80  81
ENDBRANCH  79  80
ENDBRANCH  78  79
ENDBRANCH  77  78
ENDBRANCH  76  77
ENDBRANCH  75  76
ENDBRANCH   1  75
TORSDOF 22
ENDMDL
MODEL 3
REMARK VINA RESULT:     -10.5      3.509      8.563
REMARK SMILES O=C(OCCOCCOCCOCCOC(=O)c1cnc(Nc2ccccc2)nc1)c1ccc(-c2c3nc(c(-c4c(F)c(F)c(F)c(F)c4F)c4ccc([nH]4)c(-c4c(F)c(F)c(F)c(F)c4F)c4nc(c(-c5c(F)c(F)c(F)c(F)c5F)c5ccc2[nH]5)C=C4)C=C3)cc1
REMARK SMILES IDX 9 1 8 2 7 3 6 4 5 5 4 6 3 7 2 8 1 9 31 10 32 11 93 12 33 13
REMARK SMILES IDX 92 14 34 15 35 16 36 17 86 18 37 19 91 20 85 21 87 22 38 23
REMARK SMILES IDX 90 24 84 25 83 26 39 28 71 29 51 30 70 31 52 32 55 33 69 34
REMARK SMILES IDX 88 35 53 36 54 37 68 39 89 40 56 41 40 42 41 43 49 44 42 45
REMARK SMILES IDX 43 46 47 47 50 48 44 49 45 50 48 51 46 52 72 53 73 54 81 55
REMARK SMILES IDX 74 56 75 57 79 58 82 59 76 60 77 61 80 62 78 63 57 64 58 65
REMARK SMILES IDX 66 66 59 67 60 68 64 69 67 70 61 71 62 72 65 73 63 74 10 75
REMARK SMILES IDX 11 76 12 77 13 78 14 79 15 80 16 81 17 82 18 83 19 84 30 85
REMARK SMILES IDX 20 86 29 87 21 88 22 89 23 91 24 92 28 93 25 94 27 95 26 96
REMARK H PARENT 87 27 55 38 22 90
REMARK Flexibility Score: inf
ROOT
ATOM      1  O   UNL A   1      34.147  28.071  26.008  1.00  0.00    -0.377 OA
ENDROOT
BRANCH   1   2
ATOM      2  C   UNL A   1      33.496  28.615  27.156  1.00  0.00     0.188 C 
BRANCH   2   3
ATOM      3  C   UNL A   1      32.199  29.373  26.870  1.00  0.00     0.188 C 
BRANCH   3   4
ATOM      4  O   UNL A   1      32.334  30.753  27.231  1.00  0.00    -0.376 OA
BRANCH   4   5
ATOM      5  C   UNL A   1      31.520  31.651  26.477  1.00  0.00     0.202 C 
BRANCH   5   6
ATOM      6  C   UNL A   1      31.785  33.127  26.778  1.00  0.00     0.261 C 
BRANCH   6   7
ATOM      7  O   UNL A   1      32.641  33.294  27.917  1.00  0.00    -0.460 OA
BRANCH   7   8
ATOM      8  C   UNL A   1      33.929  33.717  27.939  1.00  0.00     0.338 C 
ATOM      9  O   UNL A   1      34.165  34.871  27.580  1.00  0.00    -0.246 OA
BRANCH   8  10
ATOM     10  C   UNL A   1      35.089  32.888  28.405  1.00  0.00     0.060 A 
ATOM     11  C   UNL A   1      35.048  31.534  28.745  1.00  0.00     0.016 A 
ATOM     12  C   UNL A   1      36.339  33.532  28.455  1.00  0.00     0.016 A 
ATOM     13  C   UNL A   1      36.173  30.862  29.208  1.00  0.00     0.010 A 
ATOM     14  C   UNL A   1      37.485  32.860  28.891  1.00  0.00     0.010 A 
ATOM     15  C   UNL A   1      37.390  31.529  29.307  1.00  0.00    -0.014 A 
BRANCH  15  16
ATOM     16  C   UNL A   1      38.486  30.862  30.031  1.00  0.00     0.031 A 
ATOM     17  C   UNL A   1      38.639  31.164  31.491  1.00  0.00     0.074 A 
ATOM     18  C   UNL A   1      39.216  29.911  29.427  1.00  0.00     0.049 A 
ATOM     19  N   UNL A   1      39.534  30.739  32.340  1.00  0.00    -0.248 NA
ATOM     20  C   UNL A   1      37.626  32.059  32.080  1.00  0.00     0.031 C 
ATOM     21  C   UNL A   1      39.036  29.459  28.047  1.00  0.00     0.029 A 
ATOM     22  N   UNL A   1      40.237  29.133  29.906  1.00  0.00    -0.354 N 
ATOM     23  C   UNL A   1      39.208  31.333  33.552  1.00  0.00     0.074 A 
ATOM     24  C   UNL A   1      38.038  32.150  33.334  1.00  0.00     0.031 C 
ATOM     25  C   UNL A   1      39.911  28.471  27.793  1.00  0.00     0.029 A 
ATOM     26  C   UNL A   1      40.749  28.267  28.970  1.00  0.00     0.049 A 
ATOM     27  H   UNL A   1      40.571  29.189  30.829  1.00  0.00     0.167 HD
ATOM     28  C   UNL A   1      39.844  31.207  34.739  1.00  0.00     0.037 A 
ATOM     29  C   UNL A   1      41.803  27.434  29.060  1.00  0.00     0.037 A 
ATOM     30  C   UNL A   1      41.011  30.390  34.922  1.00  0.00     0.049 A 
ATOM     31  C   UNL A   1      42.558  27.390  30.365  1.00  0.00     0.074 A 
ATOM     32  C   UNL A   1      41.798  30.236  36.047  1.00  0.00     0.029 A 
ATOM     33  N   UNL A   1      41.557  29.581  33.933  1.00  0.00    -0.354 N 
ATOM     34  N   UNL A   1      42.299  28.013  31.491  1.00  0.00    -0.248 NA
ATOM     35  C   UNL A   1      43.757  26.545  30.408  1.00  0.00     0.031 C 
ATOM     36  C   UNL A   1      42.844  29.363  35.725  1.00  0.00     0.029 A 
ATOM     37  C   UNL A   1      42.680  28.936  34.414  1.00  0.00     0.049 A 
ATOM     38  H   UNL A   1      41.196  29.482  33.022  1.00  0.00     0.167 HD
ATOM     39  C   UNL A   1      43.292  27.627  32.380  1.00  0.00     0.074 A 
ATOM     40  C   UNL A   1      44.145  26.697  31.666  1.00  0.00     0.031 C 
ATOM     41  C   UNL A   1      43.492  28.009  33.666  1.00  0.00     0.037 A 
BRANCH  28  42
ATOM     42  C   UNL A   1      39.327  32.032  35.879  1.00  0.00     0.064 A 
ATOM     43  C   UNL A   1      39.807  33.325  36.140  1.00  0.00     0.173 A 
ATOM     44  C   UNL A   1      38.371  31.498  36.756  1.00  0.00     0.173 A 
ATOM     45  F   UNL A   1      40.746  33.869  35.352  1.00  0.00    -0.203 F 
ATOM     46  C   UNL A   1      39.373  34.038  37.257  1.00  0.00     0.198 A 
ATOM     47  C   UNL A   1      37.920  32.224  37.856  1.00  0.00     0.198 A 
ATOM     48  F   UNL A   1      37.887  30.263  36.558  1.00  0.00    -0.203 F 
ATOM     49  F   UNL A   1      39.895  35.243  37.524  1.00  0.00    -0.200 F 
ATOM     50  C   UNL A   1      38.430  33.488  38.111  1.00  0.00     0.200 A 
ATOM     51  F   UNL A   1      37.009  31.691  38.680  1.00  0.00    -0.200 F 
ATOM     52  F   UNL A   1      38.024  34.170  39.192  1.00  0.00    -0.200 F 
ENDBRANCH  28  42
BRANCH  29  53
ATOM     53  C   UNL A   1      42.229  26.628  27.885  1.00  0.00     0.064 A 
ATOM     54  C   UNL A   1      43.191  27.104  26.982  1.00  0.00     0.173 A 
ATOM     55  C   UNL A   1      41.672  25.365  27.630  1.00  0.00     0.173 A 
ATOM     56  F   UNL A   1      43.739  28.314  27.165  1.00  0.00    -0.203 F 
ATOM     57  C   UNL A   1      43.567  26.356  25.866  1.00  0.00     0.198 A 
ATOM     58  C   UNL A   1      42.070  24.605  26.532  1.00  0.00     0.198 A 
ATOM     59  F   UNL A   1      40.742  24.861  28.454  1.00  0.00    -0.203 F 
ATOM     60  F   UNL A   1      44.455  26.855  24.996  1.00  0.00    -0.200 F 
ATOM     61  C   UNL A   1      43.012  25.105  25.646  1.00  0.00     0.200 A 
ATOM     62  F   UNL A   1      41.539  23.391  26.331  1.00  0.00    -0.200 F 
ATOM     63  F   UNL A   1      43.376  24.385  24.575  1.00  0.00    -0.200 F 
ENDBRANCH  29  53
BRANCH  41  64
ATOM     64  C   UNL A   1      44.657  27.396  34.381  1.00  0.00     0.064 A 
ATOM     65  C   UNL A   1      45.910  28.024  34.410  1.00  0.00     0.173 A 
ATOM     66  C   UNL A   1      44.498  26.198  35.091  1.00  0.00     0.173 A 
ATOM     67  F   UNL A   1      46.110  29.165  33.732  1.00  0.00    -0.203 F 
ATOM     68  C   UNL A   1      46.971  27.461  35.111  1.00  0.00     0.198 A 
ATOM     69  C   UNL A   1      45.555  25.654  35.815  1.00  0.00     0.198 A 
ATOM     70  F   UNL A   1      43.315  25.567  35.098  1.00  0.00    -0.203 F 
ATOM     71  F   UNL A   1      48.173  28.056  35.095  1.00  0.00    -0.200 F 
ATOM     72  C   UNL A   1      46.790  26.282  35.820  1.00  0.00     0.200 A 
ATOM     73  F   UNL A   1      45.374  24.522  36.511  1.00  0.00    -0.200 F 
ATOM     74  F   UNL A   1      47.811  25.748  36.504  1.00  0.00    -0.200 F 
ENDBRANCH  41  64
ENDBRANCH  15  16
ENDBRANCH   8  10
ENDBRANCH   7   8
ENDBRANCH   6   7
ENDBRANCH   5   6
ENDBRANCH   4   5
ENDBRANCH   3   4
ENDBRANCH   2   3
ENDBRANCH   1   2
BRANCH   1  75
ATOM     75  C   UNL A   1      33.666  28.495  24.738  1.00  0.00     0.188 C 
BRANCH  75  76
ATOM     76  C   UNL A   1      33.446  27.428  23.644  1.00  0.00     0.188 C 
BRANCH  76  77
ATOM     77  O   UNL A   1      32.107  27.301  23.181  1.00  0.00    -0.376 OA
BRANCH  77  78
ATOM     78  C   UNL A   1      31.358  26.223  23.738  1.00  0.00     0.202 C 
BRANCH  78  79
ATOM     79  C   UNL A   1      31.253  26.250  25.267  1.00  0.00     0.261 C 
BRANCH  79  80
ATOM     80  O   UNL A   1      31.999  25.225  25.942  1.00  0.00    -0.460 OA
BRANCH  80  81
ATOM     81  C   UNL A   1      31.330  24.201  26.515  1.00  0.00     0.341 C 
ATOM     82  O   UNL A   1      30.257  24.241  27.089  1.00  0.00    -0.246 OA
BRANCH  81  83
ATOM     83  C   UNL A   1      32.014  22.975  26.109  1.00  0.00     0.096 A 
ATOM     84  C   UNL A   1      32.664  22.168  27.005  1.00  0.00     0.132 A 
ATOM     85  C   UNL A   1      32.219  22.678  24.780  1.00  0.00     0.132 A 
ATOM     86  N   UNL A   1      33.427  21.131  26.623  1.00  0.00    -0.220 NA
ATOM     87  N   UNL A   1      33.038  21.687  24.352  1.00  0.00    -0.220 NA
ATOM     88  C   UNL A   1      33.602  20.922  25.304  1.00  0.00     0.227 A 
BRANCH  88  89
ATOM     89  N   UNL A   1      34.398  19.855  24.907  1.00  0.00    -0.324 N 
ATOM     90  H   UNL A   1      35.314  20.059  24.608  1.00  0.00     0.170 HD
BRANCH  89  91
ATOM     91  C   UNL A   1      34.003  18.511  24.896  1.00  0.00     0.041 A 
ATOM     92  C   UNL A   1      32.859  18.091  25.577  1.00  0.00     0.026 A 
ATOM     93  C   UNL A   1      34.729  17.563  24.156  1.00  0.00     0.026 A 
ATOM     94  C   UNL A   1      32.430  16.762  25.482  1.00  0.00     0.002 A 
ATOM     95  C   UNL A   1      34.317  16.237  24.074  1.00  0.00     0.002 A 
ATOM     96  C   UNL A   1      33.157  15.839  24.729  1.00  0.00     0.000 A 
ENDBRANCH  89  91
ENDBRANCH  88  89
ENDBRANCH  81  83
ENDBRANCH  80  81
ENDBRANCH  79  80
ENDBRANCH  78  79
ENDBRANCH  77  78
ENDBRANCH  76  77
ENDBRANCH  75  76
ENDBRANCH   1  75
TORSDOF 22
ENDMDL
