MODEL 1
REMARK VINA RESULT:     -10.4      0.000      0.000
REMARK SMILES CCCN1C(=O)/C(=C\c2ccc(OC)c(OC)c2C(=O)OCCOCCOCCOCCOC(=O)c2ccc(-c3c4nc(c(-c5c(F)c(F)c(F)c(F)c5F)c5ccc([nH]5)c(-c5c(F)c(F)c(F)c(F)c5F)c5nc(c(-c6c(F)c(F)c(F)c(F)c6F)c6ccc3[nH]6)C=C5)C=C4)cc2)S/C1=[NH+]\c1nccs1
REMARK SMILES IDX 26 1 25 2 24 3 23 4 22 5 21 6 19 7 20 8 18 9 9 10 10 11
REMARK SMILES IDX 11 12 15 13 12 14 8 15 4 16 5 17 100 18 6 19 7 20 99 21
REMARK SMILES IDX 101 22 3 24 2 25 1 26 102 27 103 28 106 29 104 30 105 31
REMARK SMILES IDX 16 32 17 33 13 34 14 35 27 36 28 37 29 38 30 39 31 40 32 41
REMARK SMILES IDX 33 42 34 43 35 44 36 45 37 46 98 47 38 48 97 49 39 50 40 51
REMARK SMILES IDX 41 52 91 53 42 54 96 55 90 56 92 57 43 58 95 59 89 60 88 61
REMARK SMILES IDX 44 63 76 64 56 65 75 66 57 67 60 68 74 69 93 70 58 71 59 72
REMARK SMILES IDX 73 74 94 75 61 76 45 77 46 78 54 79 47 80 48 81 52 82 55 83
REMARK SMILES IDX 49 84 50 85 53 86 51 87 77 88 78 89 86 90 79 91 80 92 84 93
REMARK SMILES IDX 87 94 81 95 82 96 85 97 83 98 62 99 63 100 71 101 64 102
REMARK SMILES IDX 65 103 69 104 72 105 66 106 67 107 70 108 68 109
REMARK H PARENT 101 23 92 62 60 73
REMARK Flexibility Score: inf
ROOT
ATOM      1  C   UNL A   1      41.053  21.361  27.511  1.00  0.00     0.188 C 
ENDROOT
BRANCH   1   2
ATOM      2  C   UNL A   1      40.232  22.239  26.546  1.00  0.00     0.188 C 
BRANCH   2   3
ATOM      3  O   UNL A   1      39.536  21.506  25.551  1.00  0.00    -0.376 OA
BRANCH   3   4
ATOM      4  C   UNL A   1      38.132  21.364  25.676  1.00  0.00     0.202 C 
BRANCH   4   5
ATOM      5  C   UNL A   1      37.219  22.537  25.310  1.00  0.00     0.261 C 
BRANCH   5   6
ATOM      6  O   UNL A   1      35.854  22.200  25.026  1.00  0.00    -0.460 OA
BRANCH   6   7
ATOM      7  C   UNL A   1      35.092  21.591  25.971  1.00  0.00     0.342 C 
ATOM      8  O   UNL A   1      35.084  21.881  27.141  1.00  0.00    -0.246 OA
BRANCH   7   9
ATOM      9  C   UNL A   1      34.209  20.596  25.262  1.00  0.00     0.113 A 
ATOM     10  C   UNL A   1      32.800  20.812  25.132  1.00  0.00    -0.006 A 
ATOM     11  C   UNL A   1      32.021  19.820  24.528  1.00  0.00     0.013 A 
ATOM     12  C   UNL A   1      32.611  18.655  24.044  1.00  0.00     0.051 A 
ATOM     13  C   UNL A   1      34.798  19.401  24.767  1.00  0.00     0.175 A 
ATOM     14  C   UNL A   1      33.989  18.430  24.149  1.00  0.00     0.161 A 
BRANCH  10  15
ATOM     15  C   UNL A   1      32.038  21.981  25.644  1.00  0.00     0.032 C 
ATOM     16  N   UNL A   1      32.756  24.653  23.529  1.00  0.00    -0.219 N 
ATOM     17  C   UNL A   1      32.256  23.372  23.584  1.00  0.00     0.321 C 
ATOM     18  C   UNL A   1      32.404  25.485  24.565  1.00  0.00     0.271 C 
ATOM     19  O   UNL A   1      32.240  22.544  22.687  1.00  0.00    -0.250 OA
ATOM     20  C   UNL A   1      31.797  23.115  24.968  1.00  0.00     0.100 C 
ATOM     21  S   UNL A   1      31.369  24.621  25.698  1.00  0.00    -0.012 SA
ATOM     22  N   UNL A   1      32.827  26.700  24.611  1.00  0.00    -0.228 N 
ATOM     23  H   UNL A   1      33.492  27.016  23.959  1.00  0.00     0.268 HD
BRANCH  16  24
ATOM     24  C   UNL A   1      33.672  25.023  22.458  1.00  0.00     0.206 C 
BRANCH  24  25
ATOM     25  C   UNL A   1      32.991  25.322  21.127  1.00  0.00     0.035 C 
ATOM     26  C   UNL A   1      31.691  26.094  21.276  1.00  0.00     0.007 C 
ENDBRANCH  24  25
ENDBRANCH  16  24
BRANCH  22  27
ATOM     27  C   UNL A   1      32.351  27.537  25.554  1.00  0.00     0.319 A 
ATOM     28  N   UNL A   1      32.647  27.554  26.836  1.00  0.00    -0.101 NA
ATOM     29  S   UNL A   1      31.374  28.869  25.025  1.00  0.00    -0.070 S 
ATOM     30  C   UNL A   1      32.133  28.693  27.426  1.00  0.00     0.219 A 
ATOM     31  C   UNL A   1      31.412  29.522  26.600  1.00  0.00     0.110 A 
ENDBRANCH  22  27
ENDBRANCH  10  15
BRANCH  13  32
ATOM     32  O   UNL A   1      36.163  19.242  24.760  1.00  0.00    -0.492 OA
ATOM     33  C   UNL A   1      36.604  17.969  25.231  1.00  0.00     0.278 C 
ENDBRANCH  13  32
BRANCH  14  34
ATOM     34  O   UNL A   1      34.342  17.238  23.577  1.00  0.00    -0.493 OA
ATOM     35  C   UNL A   1      33.533  16.092  23.768  1.00  0.00     0.278 C 
ENDBRANCH  14  34
ENDBRANCH   7   9
ENDBRANCH   6   7
ENDBRANCH   5   6
ENDBRANCH   4   5
ENDBRANCH   3   4
ENDBRANCH   2   3
ENDBRANCH   1   2
BRANCH   1  36
ATOM     36  O   UNL A   1      41.143  19.994  27.149  1.00  0.00    -0.377 OA
BRANCH  36  37
ATOM     37  C   UNL A   1      42.421  19.471  26.782  1.00  0.00     0.188 C 
BRANCH  37  38
ATOM     38  C   UNL A   1      42.876  19.311  25.304  1.00  0.00     0.188 C 
BRANCH  38  39
ATOM     39  O   UNL A   1      43.971  20.127  24.917  1.00  0.00    -0.376 OA
BRANCH  39  40
ATOM     40  C   UNL A   1      44.020  21.466  25.367  1.00  0.00     0.202 C 
BRANCH  40  41
ATOM     41  C   UNL A   1      44.041  22.546  24.278  1.00  0.00     0.261 C 
BRANCH  41  42
ATOM     42  O   UNL A   1      43.406  23.784  24.626  1.00  0.00    -0.460 OA
BRANCH  42  43
ATOM     43  C   UNL A   1      44.201  24.755  25.120  1.00  0.00     0.338 C 
ATOM     44  O   UNL A   1      45.357  24.990  24.818  1.00  0.00    -0.246 OA
BRANCH  43  45
ATOM     45  C   UNL A   1      43.365  25.633  25.962  1.00  0.00     0.060 A 
ATOM     46  C   UNL A   1      43.789  26.949  26.195  1.00  0.00     0.016 A 
ATOM     47  C   UNL A   1      42.169  25.161  26.511  1.00  0.00     0.016 A 
ATOM     48  C   UNL A   1      43.051  27.776  27.036  1.00  0.00     0.010 A 
ATOM     49  C   UNL A   1      41.444  25.981  27.375  1.00  0.00     0.010 A 
ATOM     50  C   UNL A   1      41.917  27.270  27.683  1.00  0.00    -0.014 A 
BRANCH  50  51
ATOM     51  C   UNL A   1      41.422  27.973  28.887  1.00  0.00     0.031 A 
ATOM     52  C   UNL A   1      42.178  27.765  30.172  1.00  0.00     0.074 A 
ATOM     53  C   UNL A   1      40.377  28.813  28.838  1.00  0.00     0.049 A 
ATOM     54  N   UNL A   1      41.968  28.279  31.357  1.00  0.00    -0.248 NA
ATOM     55  C   UNL A   1      43.326  26.845  30.111  1.00  0.00     0.031 C 
ATOM     56  C   UNL A   1      39.584  29.107  27.649  1.00  0.00     0.029 A 
ATOM     57  N   UNL A   1      39.803  29.572  29.827  1.00  0.00    -0.354 N 
ATOM     58  C   UNL A   1      42.953  27.741  32.176  1.00  0.00     0.074 A 
ATOM     59  C   UNL A   1      43.733  26.831  31.369  1.00  0.00     0.031 C 
ATOM     60  C   UNL A   1      38.616  29.980  27.982  1.00  0.00     0.029 A 
ATOM     61  C   UNL A   1      38.721  30.300  29.404  1.00  0.00     0.049 A 
ATOM     62  H   UNL A   1      40.139  29.593  30.753  1.00  0.00     0.167 HD
ATOM     63  C   UNL A   1      43.193  27.992  33.484  1.00  0.00     0.037 A 
ATOM     64  C   UNL A   1      37.907  31.123  30.093  1.00  0.00     0.037 A 
ATOM     65  C   UNL A   1      42.410  28.892  34.285  1.00  0.00     0.049 A 
ATOM     66  C   UNL A   1      38.170  31.355  31.560  1.00  0.00     0.074 A 
ATOM     67  C   UNL A   1      42.568  29.223  35.619  1.00  0.00     0.029 A 
ATOM     68  N   UNL A   1      41.312  29.604  33.823  1.00  0.00    -0.354 N 
ATOM     69  N   UNL A   1      39.118  30.866  32.322  1.00  0.00    -0.248 NA
ATOM     70  C   UNL A   1      37.250  32.263  32.258  1.00  0.00     0.031 C 
ATOM     71  C   UNL A   1      41.532  30.089  35.979  1.00  0.00     0.029 A 
ATOM     72  C   UNL A   1      40.770  30.356  34.852  1.00  0.00     0.049 A 
ATOM     73  H   UNL A   1      40.968  29.577  32.900  1.00  0.00     0.167 HD
ATOM     74  C   UNL A   1      38.931  31.432  33.577  1.00  0.00     0.074 A 
ATOM     75  C   UNL A   1      37.791  32.317  33.467  1.00  0.00     0.031 C 
ATOM     76  C   UNL A   1      39.637  31.239  34.720  1.00  0.00     0.037 A 
BRANCH  63  77
ATOM     77  C   UNL A   1      44.328  27.251  34.130  1.00  0.00     0.064 A 
ATOM     78  C   UNL A   1      44.152  25.988  34.716  1.00  0.00     0.173 A 
ATOM     79  C   UNL A   1      45.614  27.812  34.156  1.00  0.00     0.173 A 
ATOM     80  F   UNL A   1      42.938  25.417  34.739  1.00  0.00    -0.203 F 
ATOM     81  C   UNL A   1      45.213  25.328  35.330  1.00  0.00     0.198 A 
ATOM     82  C   UNL A   1      46.680  27.133  34.739  1.00  0.00     0.198 A 
ATOM     83  F   UNL A   1      45.838  29.017  33.614  1.00  0.00    -0.203 F 
ATOM     84  F   UNL A   1      45.009  24.149  35.935  1.00  0.00    -0.200 F 
ATOM     85  C   UNL A   1      46.478  25.898  35.334  1.00  0.00     0.200 A 
ATOM     86  F   UNL A   1      47.904  27.680  34.732  1.00  0.00    -0.200 F 
ATOM     87  F   UNL A   1      47.501  25.258  35.919  1.00  0.00    -0.200 F 
ENDBRANCH  63  77
BRANCH  64  88
ATOM     88  C   UNL A   1      36.774  31.803  29.408  1.00  0.00     0.064 A 
ATOM     89  C   UNL A   1      36.798  33.184  29.164  1.00  0.00     0.173 A 
ATOM     90  C   UNL A   1      35.632  31.093  29.009  1.00  0.00     0.173 A 
ATOM     91  F   UNL A   1      37.859  33.912  29.541  1.00  0.00    -0.203 F 
ATOM     92  C   UNL A   1      35.715  33.831  28.572  1.00  0.00     0.198 A 
ATOM     93  C   UNL A   1      34.565  31.735  28.387  1.00  0.00     0.198 A 
ATOM     94  F   UNL A   1      35.558  29.770  29.214  1.00  0.00    -0.203 F 
ATOM     95  F   UNL A   1      35.746  35.159  28.396  1.00  0.00    -0.200 F 
ATOM     96  C   UNL A   1      34.601  33.105  28.179  1.00  0.00     0.200 A 
ATOM     97  F   UNL A   1      33.502  31.027  27.984  1.00  0.00    -0.200 F 
ATOM     98  F   UNL A   1      33.567  33.726  27.596  1.00  0.00    -0.200 F 
ENDBRANCH  64  88
BRANCH  76  99
ATOM     99  C   UNL A   1      39.228  32.039  35.925  1.00  0.00     0.064 A 
ATOM    100  C   UNL A   1      39.737  33.322  36.177  1.00  0.00     0.173 A 
ATOM    101  C   UNL A   1      38.301  31.512  36.840  1.00  0.00     0.173 A 
ATOM    102  F   UNL A   1      40.635  33.867  35.341  1.00  0.00    -0.203 F 
ATOM    103  C   UNL A   1      39.372  34.026  37.321  1.00  0.00     0.198 A 
ATOM    104  C   UNL A   1      37.907  32.237  37.961  1.00  0.00     0.198 A 
ATOM    105  F   UNL A   1      37.771  30.296  36.643  1.00  0.00    -0.203 F 
ATOM    106  F   UNL A   1      39.928  35.218  37.576  1.00  0.00    -0.200 F 
ATOM    107  C   UNL A   1      38.454  33.486  38.208  1.00  0.00     0.200 A 
ATOM    108  F   UNL A   1      37.005  31.721  38.806  1.00  0.00    -0.200 F 
ATOM    109  F   UNL A   1      38.104  34.166  39.309  1.00  0.00    -0.200 F 
ENDBRANCH  76  99
ENDBRANCH  50  51
ENDBRANCH  43  45
ENDBRANCH  42  43
ENDBRANCH  41  42
ENDBRANCH  40  41
ENDBRANCH  39  40
ENDBRANCH  38  39
ENDBRANCH  37  38
ENDBRANCH  36  37
ENDBRANCH   1  36
TORSDOF 26
ENDMDL
MODEL 2
REMARK VINA RESULT:     -10.1      1.526      2.601
REMARK SMILES CCCN1C(=O)/C(=C\c2ccc(OC)c(OC)c2C(=O)OCCOCCOCCOCCOC(=O)c2ccc(-c3c4nc(c(-c5c(F)c(F)c(F)c(F)c5F)c5ccc([nH]5)c(-c5c(F)c(F)c(F)c(F)c5F)c5nc(c(-c6c(F)c(F)c(F)c(F)c6F)c6ccc3[nH]6)C=C5)C=C4)cc2)S/C1=[NH+]\c1nccs1
REMARK SMILES IDX 26 1 25 2 24 3 23 4 22 5 21 6 19 7 20 8 18 9 9 10 10 11
REMARK SMILES IDX 11 12 15 13 12 14 8 15 4 16 5 17 100 18 6 19 7 20 99 21
REMARK SMILES IDX 101 22 3 24 2 25 1 26 102 27 103 28 106 29 104 30 105 31
REMARK SMILES IDX 16 32 17 33 13 34 14 35 27 36 28 37 29 38 30 39 31 40 32 41
REMARK SMILES IDX 33 42 34 43 35 44 36 45 37 46 98 47 38 48 97 49 39 50 40 51
REMARK SMILES IDX 41 52 91 53 42 54 96 55 90 56 92 57 43 58 95 59 89 60 88 61
REMARK SMILES IDX 44 63 76 64 56 65 75 66 57 67 60 68 74 69 93 70 58 71 59 72
REMARK SMILES IDX 73 74 94 75 61 76 45 77 46 78 54 79 47 80 48 81 52 82 55 83
REMARK SMILES IDX 49 84 50 85 53 86 51 87 77 88 78 89 86 90 79 91 80 92 84 93
REMARK SMILES IDX 87 94 81 95 82 96 85 97 83 98 62 99 63 100 71 101 64 102
REMARK SMILES IDX 65 103 69 104 72 105 66 106 67 107 70 108 68 109
REMARK H PARENT 101 23 92 62 60 73
REMARK Flexibility Score: inf
ROOT
ATOM      1  C   UNL A   1      40.697  22.271  27.972  1.00  0.00     0.188 C 
ENDROOT
BRANCH   1   2
ATOM      2  C   UNL A   1      40.009  22.881  26.735  1.00  0.00     0.188 C 
BRANCH   2   3
ATOM      3  O   UNL A   1      39.176  21.974  26.032  1.00  0.00    -0.376 OA
BRANCH   3   4
ATOM      4  C   UNL A   1      37.870  22.394  25.678  1.00  0.00     0.202 C 
BRANCH   4   5
ATOM      5  C   UNL A   1      37.688  23.497  24.634  1.00  0.00     0.261 C 
BRANCH   5   6
ATOM      6  O   UNL A   1      36.459  23.463  23.896  1.00  0.00    -0.460 OA
BRANCH   6   7
ATOM      7  C   UNL A   1      35.302  23.867  24.481  1.00  0.00     0.342 C 
ATOM      8  O   UNL A   1      35.209  24.774  25.270  1.00  0.00    -0.246 OA
BRANCH   7   9
ATOM      9  C   UNL A   1      34.186  23.053  23.877  1.00  0.00     0.113 A 
ATOM     10  C   UNL A   1      33.194  23.656  23.041  1.00  0.00    -0.006 A 
ATOM     11  C   UNL A   1      32.142  22.866  22.567  1.00  0.00     0.013 A 
ATOM     12  C   UNL A   1      32.075  21.512  22.888  1.00  0.00     0.051 A 
ATOM     13  C   UNL A   1      34.105  21.671  24.200  1.00  0.00     0.175 A 
ATOM     14  C   UNL A   1      33.043  20.899  23.694  1.00  0.00     0.161 A 
BRANCH  10  15
ATOM     15  C   UNL A   1      33.118  25.092  22.661  1.00  0.00     0.032 C 
ATOM     16  N   UNL A   1      30.899  26.604  24.877  1.00  0.00    -0.219 N 
ATOM     17  C   UNL A   1      32.066  25.881  24.781  1.00  0.00     0.321 C 
ATOM     18  C   UNL A   1      30.708  27.576  23.923  1.00  0.00     0.271 C 
ATOM     19  O   UNL A   1      32.552  25.143  25.623  1.00  0.00    -0.250 OA
ATOM     20  C   UNL A   1      32.619  26.078  23.421  1.00  0.00     0.100 C 
ATOM     21  S   UNL A   1      32.080  27.605  22.820  1.00  0.00    -0.012 SA
ATOM     22  N   UNL A   1      29.645  28.301  23.922  1.00  0.00    -0.228 N 
ATOM     23  H   UNL A   1      28.907  28.098  24.541  1.00  0.00     0.268 HD
BRANCH  16  24
ATOM     24  C   UNL A   1      29.919  26.256  25.897  1.00  0.00     0.206 C 
BRANCH  24  25
ATOM     25  C   UNL A   1      29.326  24.860  25.747  1.00  0.00     0.035 C 
ATOM     26  C   UNL A   1      29.647  23.941  26.913  1.00  0.00     0.007 C 
ENDBRANCH  24  25
ENDBRANCH  16  24
BRANCH  22  27
ATOM     27  C   UNL A   1      29.548  29.342  23.070  1.00  0.00     0.319 A 
ATOM     28  N   UNL A   1      29.430  29.299  21.760  1.00  0.00    -0.101 NA
ATOM     29  S   UNL A   1      29.376  30.925  23.756  1.00  0.00    -0.070 S 
ATOM     30  C   UNL A   1      29.135  30.557  21.270  1.00  0.00     0.219 A 
ATOM     31  C   UNL A   1      29.068  31.564  22.205  1.00  0.00     0.110 A 
ENDBRANCH  22  27
ENDBRANCH  10  15
BRANCH  13  32
ATOM     32  O   UNL A   1      35.120  21.049  24.885  1.00  0.00    -0.492 OA
ATOM     33  C   UNL A   1      34.955  21.052  26.303  1.00  0.00     0.278 C 
ENDBRANCH  13  32
BRANCH  14  34
ATOM     34  O   UNL A   1      32.788  19.563  23.845  1.00  0.00    -0.493 OA
ATOM     35  C   UNL A   1      32.265  19.073  25.066  1.00  0.00     0.278 C 
ENDBRANCH  14  34
ENDBRANCH   7   9
ENDBRANCH   6   7
ENDBRANCH   5   6
ENDBRANCH   4   5
ENDBRANCH   3   4
ENDBRANCH   2   3
ENDBRANCH   1   2
BRANCH   1  36
ATOM     36  O   UNL A   1      40.903  20.871  27.914  1.00  0.00    -0.377 OA
BRANCH  36  37
ATOM     37  C   UNL A   1      42.119  20.386  27.341  1.00  0.00     0.188 C 
BRANCH  37  38
ATOM     38  C   UNL A   1      42.281  20.095  25.823  1.00  0.00     0.188 C 
BRANCH  38  39
ATOM     39  O   UNL A   1      43.495  20.552  25.246  1.00  0.00    -0.376 OA
BRANCH  39  40
ATOM     40  C   UNL A   1      43.932  21.868  25.521  1.00  0.00     0.202 C 
BRANCH  40  41
ATOM     41  C   UNL A   1      44.365  22.704  24.312  1.00  0.00     0.261 C 
BRANCH  41  42
ATOM     42  O   UNL A   1      44.121  24.113  24.417  1.00  0.00    -0.460 OA
BRANCH  42  43
ATOM     43  C   UNL A   1      44.857  24.790  25.324  1.00  0.00     0.338 C 
ATOM     44  O   UNL A   1      46.070  24.865  25.385  1.00  0.00    -0.246 OA
BRANCH  43  45
ATOM     45  C   UNL A   1      43.930  25.606  26.134  1.00  0.00     0.060 A 
ATOM     46  C   UNL A   1      44.189  26.974  26.283  1.00  0.00     0.016 A 
ATOM     47  C   UNL A   1      42.810  25.022  26.733  1.00  0.00     0.016 A 
ATOM     48  C   UNL A   1      43.366  27.752  27.091  1.00  0.00     0.010 A 
ATOM     49  C   UNL A   1      42.000  25.796  27.565  1.00  0.00     0.010 A 
ATOM     50  C   UNL A   1      42.314  27.149  27.790  1.00  0.00    -0.014 A 
BRANCH  50  51
ATOM     51  C   UNL A   1      41.753  27.855  28.963  1.00  0.00     0.031 A 
ATOM     52  C   UNL A   1      42.502  27.744  30.263  1.00  0.00     0.074 A 
ATOM     53  C   UNL A   1      40.651  28.616  28.872  1.00  0.00     0.049 A 
ATOM     54  N   UNL A   1      42.239  28.281  31.427  1.00  0.00    -0.248 NA
ATOM     55  C   UNL A   1      43.713  26.906  30.248  1.00  0.00     0.031 C 
ATOM     56  C   UNL A   1      39.858  28.813  27.664  1.00  0.00     0.029 A 
ATOM     57  N   UNL A   1      40.011  29.365  29.827  1.00  0.00    -0.354 N 
ATOM     58  C   UNL A   1      43.247  27.841  32.277  1.00  0.00     0.074 A 
ATOM     59  C   UNL A   1      44.101  26.963  31.511  1.00  0.00     0.031 C 
ATOM     60  C   UNL A   1      38.826  29.626  27.955  1.00  0.00     0.029 A 
ATOM     61  C   UNL A   1      38.886  30.000  29.366  1.00  0.00     0.049 A 
ATOM     62  H   UNL A   1      40.331  29.441  30.756  1.00  0.00     0.167 HD
ATOM     63  C   UNL A   1      43.449  28.152  33.578  1.00  0.00     0.037 A 
ATOM     64  C   UNL A   1      38.006  30.785  30.016  1.00  0.00     0.037 A 
ATOM     65  C   UNL A   1      42.593  29.021  34.338  1.00  0.00     0.049 A 
ATOM     66  C   UNL A   1      38.231  31.084  31.477  1.00  0.00     0.074 A 
ATOM     67  C   UNL A   1      42.707  29.407  35.661  1.00  0.00     0.029 A 
ATOM     68  N   UNL A   1      41.454  29.638  33.838  1.00  0.00    -0.354 N 
ATOM     69  N   UNL A   1      39.200  30.690  32.267  1.00  0.00    -0.248 NA
ATOM     70  C   UNL A   1      37.239  31.948  32.132  1.00  0.00     0.031 C 
ATOM     71  C   UNL A   1      41.607  30.209  35.979  1.00  0.00     0.029 A 
ATOM     72  C   UNL A   1      40.845  30.383  34.834  1.00  0.00     0.049 A 
ATOM     73  H   UNL A   1      41.127  29.555  32.913  1.00  0.00     0.167 HD
ATOM     74  C   UNL A   1      38.954  31.283  33.500  1.00  0.00     0.074 A 
ATOM     75  C   UNL A   1      37.756  32.080  33.345  1.00  0.00     0.031 C 
ATOM     76  C   UNL A   1      39.655  31.178  34.658  1.00  0.00     0.037 A 
BRANCH  63  77
ATOM     77  C   UNL A   1      44.623  27.516  34.264  1.00  0.00     0.064 A 
ATOM     78  C   UNL A   1      45.880  28.140  34.315  1.00  0.00     0.173 A 
ATOM     79  C   UNL A   1      44.487  26.266  34.886  1.00  0.00     0.173 A 
ATOM     80  F   UNL A   1      46.070  29.326  33.716  1.00  0.00    -0.203 F 
ATOM     81  C   UNL A   1      46.962  27.523  34.937  1.00  0.00     0.198 A 
ATOM     82  C   UNL A   1      45.563  25.668  35.537  1.00  0.00     0.198 A 
ATOM     83  F   UNL A   1      43.311  25.624  34.864  1.00  0.00    -0.203 F 
ATOM     84  F   UNL A   1      48.167  28.111  34.922  1.00  0.00    -0.200 F 
ATOM     85  C   UNL A   1      46.800  26.292  35.554  1.00  0.00     0.200 A 
ATOM     86  F   UNL A   1      45.402  24.484  36.143  1.00  0.00    -0.200 F 
ATOM     87  F   UNL A   1      47.841  25.701  36.159  1.00  0.00    -0.200 F 
ENDBRANCH  63  77
BRANCH  64  88
ATOM     88  C   UNL A   1      36.838  31.360  29.294  1.00  0.00     0.064 A 
ATOM     89  C   UNL A   1      35.757  30.554  28.906  1.00  0.00     0.173 A 
ATOM     90  C   UNL A   1      36.790  32.719  28.953  1.00  0.00     0.173 A 
ATOM     91  F   UNL A   1      35.762  29.244  29.192  1.00  0.00    -0.203 F 
ATOM     92  C   UNL A   1      34.689  31.080  28.183  1.00  0.00     0.198 A 
ATOM     93  C   UNL A   1      35.705  33.251  28.260  1.00  0.00     0.198 A 
ATOM     94  F   UNL A   1      37.794  33.535  29.304  1.00  0.00    -0.203 F 
ATOM     95  F   UNL A   1      33.694  30.277  27.782  1.00  0.00    -0.200 F 
ATOM     96  C   UNL A   1      34.661  32.429  27.865  1.00  0.00     0.200 A 
ATOM     97  F   UNL A   1      35.669  34.559  27.979  1.00  0.00    -0.200 F 
ATOM     98  F   UNL A   1      33.626  32.937  27.184  1.00  0.00    -0.200 F 
ENDBRANCH  64  88
BRANCH  76  99
ATOM     99  C   UNL A   1      39.173  31.987  35.829  1.00  0.00     0.064 A 
ATOM    100  C   UNL A   1      39.571  33.317  36.032  1.00  0.00     0.173 A 
ATOM    101  C   UNL A   1      38.287  31.420  36.761  1.00  0.00     0.173 A 
ATOM    102  F   UNL A   1      40.424  33.903  35.179  1.00  0.00    -0.203 F 
ATOM    103  C   UNL A   1      39.140  34.032  37.147  1.00  0.00     0.198 A 
ATOM    104  C   UNL A   1      37.827  32.151  37.852  1.00  0.00     0.198 A 
ATOM    105  F   UNL A   1      37.863  30.157  36.610  1.00  0.00    -0.203 F 
ATOM    106  F   UNL A   1      39.592  35.276  37.357  1.00  0.00    -0.200 F 
ATOM    107  C   UNL A   1      38.265  33.451  38.051  1.00  0.00     0.200 A 
ATOM    108  F   UNL A   1      36.966  31.594  38.714  1.00  0.00    -0.200 F 
ATOM    109  F   UNL A   1      37.852  34.141  39.125  1.00  0.00    -0.200 F 
ENDBRANCH  76  99
ENDBRANCH  50  51
ENDBRANCH  43  45
ENDBRANCH  42  43
ENDBRANCH  41  42
ENDBRANCH  40  41
ENDBRANCH  39  40
ENDBRANCH  38  39
ENDBRANCH  37  38
ENDBRANCH  36  37
ENDBRANCH   1  36
TORSDOF 26
ENDMDL
MODEL 3
REMARK VINA RESULT:      -9.5      3.986      6.241
REMARK SMILES CCCN1C(=O)/C(=C\c2ccc(OC)c(OC)c2C(=O)OCCOCCOCCOCCOC(=O)c2ccc(-c3c4nc(c(-c5c(F)c(F)c(F)c(F)c5F)c5ccc([nH]5)c(-c5c(F)c(F)c(F)c(F)c5F)c5nc(c(-c6c(F)c(F)c(F)c(F)c6F)c6ccc3[nH]6)C=C5)C=C4)cc2)S/C1=[NH+]\c1nccs1
REMARK SMILES IDX 26 1 25 2 24 3 23 4 22 5 21 6 19 7 20 8 18 9 9 10 10 11
REMARK SMILES IDX 11 12 15 13 12 14 8 15 4 16 5 17 100 18 6 19 7 20 99 21
REMARK SMILES IDX 101 22 3 24 2 25 1 26 102 27 103 28 106 29 104 30 105 31
REMARK SMILES IDX 16 32 17 33 13 34 14 35 27 36 28 37 29 38 30 39 31 40 32 41
REMARK SMILES IDX 33 42 34 43 35 44 36 45 37 46 98 47 38 48 97 49 39 50 40 51
REMARK SMILES IDX 41 52 91 53 42 54 96 55 90 56 92 57 43 58 95 59 89 60 88 61
REMARK SMILES IDX 44 63 76 64 56 65 75 66 57 67 60 68 74 69 93 70 58 71 59 72
REMARK SMILES IDX 73 74 94 75 61 76 45 77 46 78 54 79 47 80 48 81 52 82 55 83
REMARK SMILES IDX 49 84 50 85 53 86 51 87 77 88 78 89 86 90 79 91 80 92 84 93
REMARK SMILES IDX 87 94 81 95 82 96 85 97 83 98 62 99 63 100 71 101 64 102
REMARK SMILES IDX 65 103 69 104 72 105 66 106 67 107 70 108 68 109
REMARK H PARENT 101 23 92 62 60 73
REMARK Flexibility Score: inf
ROOT
ATOM      1  C   UNL A   1      37.598  23.429  25.852  1.00  0.00     0.188 C 
ENDROOT
BRANCH   1   2
ATOM      2  C   UNL A   1      37.090  22.512  24.722  1.00  0.00     0.188 C 
BRANCH   2   3
ATOM      3  O   UNL A   1      35.678  22.400  24.662  1.00  0.00    -0.376 OA
BRANCH   3   4
ATOM      4  C   UNL A   1      34.951  23.394  23.961  1.00  0.00     0.202 C 
BRANCH   4   5
ATOM      5  C   UNL A   1      34.374  24.588  24.725  1.00  0.00     0.261 C 
BRANCH   5   6
ATOM      6  O   UNL A   1      34.344  25.831  24.010  1.00  0.00    -0.460 OA
BRANCH   6   7
ATOM      7  C   UNL A   1      33.628  25.938  22.860  1.00  0.00     0.342 C 
ATOM      8  O   UNL A   1      34.036  25.643  21.765  1.00  0.00    -0.246 OA
BRANCH   7   9
ATOM      9  C   UNL A   1      32.235  26.374  23.239  1.00  0.00     0.113 A 
ATOM     10  C   UNL A   1      31.150  25.443  23.281  1.00  0.00    -0.006 A 
ATOM     11  C   UNL A   1      29.866  25.918  23.568  1.00  0.00     0.013 A 
ATOM     12  C   UNL A   1      29.656  27.270  23.830  1.00  0.00     0.051 A 
ATOM     13  C   UNL A   1      32.007  27.752  23.505  1.00  0.00     0.175 A 
ATOM     14  C   UNL A   1      30.707  28.196  23.808  1.00  0.00     0.161 A 
BRANCH  10  15
ATOM     15  C   UNL A   1      31.225  23.990  22.976  1.00  0.00     0.032 C 
ATOM     16  N   UNL A   1      31.780  22.356  26.001  1.00  0.00    -0.219 N 
ATOM     17  C   UNL A   1      30.931  23.203  25.326  1.00  0.00     0.321 C 
ATOM     18  C   UNL A   1      32.307  21.317  25.270  1.00  0.00     0.271 C 
ATOM     19  O   UNL A   1      30.181  24.037  25.806  1.00  0.00    -0.250 OA
ATOM     20  C   UNL A   1      31.133  22.996  23.873  1.00  0.00     0.100 C 
ATOM     21  S   UNL A   1      31.703  21.385  23.617  1.00  0.00    -0.012 SA
ATOM     22  N   UNL A   1      33.118  20.475  25.807  1.00  0.00    -0.228 N 
ATOM     23  H   UNL A   1      33.453  20.625  26.720  1.00  0.00     0.268 HD
BRANCH  16  24
ATOM     24  C   UNL A   1      32.134  22.644  27.384  1.00  0.00     0.206 C 
BRANCH  24  25
ATOM     25  C   UNL A   1      33.434  23.424  27.550  1.00  0.00     0.035 C 
ATOM     26  C   UNL A   1      34.615  22.549  27.934  1.00  0.00     0.007 C 
ENDBRANCH  24  25
ENDBRANCH  16  24
BRANCH  22  27
ATOM     27  C   UNL A   1      33.503  19.384  25.115  1.00  0.00     0.319 A 
ATOM     28  N   UNL A   1      34.687  19.141  24.593  1.00  0.00    -0.101 NA
ATOM     29  S   UNL A   1      32.396  18.051  25.036  1.00  0.00    -0.070 S 
ATOM     30  C   UNL A   1      34.753  17.831  24.159  1.00  0.00     0.219 A 
ATOM     31  C   UNL A   1      33.606  17.089  24.315  1.00  0.00     0.110 A 
ENDBRANCH  22  27
ENDBRANCH  10  15
BRANCH  13  32
ATOM     32  O   UNL A   1      33.057  28.631  23.606  1.00  0.00    -0.492 OA
ATOM     33  C   UNL A   1      33.347  29.043  24.941  1.00  0.00     0.278 C 
ENDBRANCH  13  32
BRANCH  14  34
ATOM     34  O   UNL A   1      30.267  29.452  24.127  1.00  0.00    -0.493 OA
ATOM     35  C   UNL A   1      29.342  30.115  23.286  1.00  0.00     0.278 C 
ENDBRANCH  14  34
ENDBRANCH   7   9
ENDBRANCH   6   7
ENDBRANCH   5   6
ENDBRANCH   4   5
ENDBRANCH   3   4
ENDBRANCH   2   3
ENDBRANCH   1   2
BRANCH   1  36
ATOM     36  O   UNL A   1      38.887  23.111  26.348  1.00  0.00    -0.377 OA
BRANCH  36  37
ATOM     37  C   UNL A   1      39.429  21.821  26.055  1.00  0.00     0.188 C 
BRANCH  37  38
ATOM     38  C   UNL A   1      40.827  21.359  26.552  1.00  0.00     0.188 C 
BRANCH  38  39
ATOM     39  O   UNL A   1      41.920  21.761  25.741  1.00  0.00    -0.376 OA
BRANCH  39  40
ATOM     40  C   UNL A   1      42.519  23.020  25.974  1.00  0.00     0.202 C 
BRANCH  40  41
ATOM     41  C   UNL A   1      44.046  23.080  25.837  1.00  0.00     0.261 C 
BRANCH  41  42
ATOM     42  O   UNL A   1      44.673  24.226  26.427  1.00  0.00    -0.460 OA
BRANCH  42  43
ATOM     43  C   UNL A   1      45.046  25.213  25.586  1.00  0.00     0.338 C 
ATOM     44  O   UNL A   1      45.368  25.106  24.417  1.00  0.00    -0.246 OA
BRANCH  43  45
ATOM     45  C   UNL A   1      44.805  26.499  26.270  1.00  0.00     0.060 A 
ATOM     46  C   UNL A   1      45.883  27.147  26.888  1.00  0.00     0.016 A 
ATOM     47  C   UNL A   1      43.526  27.061  26.294  1.00  0.00     0.016 A 
ATOM     48  C   UNL A   1      45.670  28.328  27.592  1.00  0.00     0.010 A 
ATOM     49  C   UNL A   1      43.307  28.230  27.023  1.00  0.00     0.010 A 
ATOM     50  C   UNL A   1      44.370  28.832  27.720  1.00  0.00    -0.014 A 
BRANCH  50  51
ATOM     51  C   UNL A   1      44.092  29.788  28.815  1.00  0.00     0.031 A 
ATOM     52  C   UNL A   1      43.891  29.224  30.195  1.00  0.00     0.074 A 
ATOM     53  C   UNL A   1      44.075  31.114  28.610  1.00  0.00     0.049 A 
ATOM     54  N   UNL A   1      43.658  29.842  31.325  1.00  0.00    -0.248 NA
ATOM     55  C   UNL A   1      43.957  27.758  30.316  1.00  0.00     0.031 C 
ATOM     56  C   UNL A   1      44.275  31.773  27.324  1.00  0.00     0.029 A 
ATOM     57  N   UNL A   1      43.873  32.145  29.494  1.00  0.00    -0.354 N 
ATOM     58  C   UNL A   1      43.547  28.841  32.282  1.00  0.00     0.074 A 
ATOM     59  C   UNL A   1      43.694  27.576  31.599  1.00  0.00     0.031 C 
ATOM     60  C   UNL A   1      44.176  33.103  27.502  1.00  0.00     0.029 A 
ATOM     61  C   UNL A   1      43.902  33.385  28.909  1.00  0.00     0.049 A 
ATOM     62  H   UNL A   1      43.723  32.006  30.458  1.00  0.00     0.167 HD
ATOM     63  C   UNL A   1      43.350  28.966  33.614  1.00  0.00     0.037 A 
ATOM     64  C   UNL A   1      43.720  34.604  29.452  1.00  0.00     0.037 A 
ATOM     65  C   UNL A   1      43.196  30.226  34.289  1.00  0.00     0.049 A 
ATOM     66  C   UNL A   1      43.461  34.714  30.934  1.00  0.00     0.074 A 
ATOM     67  C   UNL A   1      42.996  30.467  35.636  1.00  0.00     0.029 A 
ATOM     68  N   UNL A   1      43.221  31.463  33.660  1.00  0.00    -0.354 N 
ATOM     69  N   UNL A   1      43.385  33.768  31.838  1.00  0.00    -0.248 NA
ATOM     70  C   UNL A   1      43.272  36.069  31.470  1.00  0.00     0.031 C 
ATOM     71  C   UNL A   1      42.841  31.845  35.814  1.00  0.00     0.029 A 
ATOM     72  C   UNL A   1      43.017  32.469  34.589  1.00  0.00     0.049 A 
ATOM     73  H   UNL A   1      43.360  31.604  32.694  1.00  0.00     0.167 HD
ATOM     74  C   UNL A   1      43.174  34.412  33.051  1.00  0.00     0.074 A 
ATOM     75  C   UNL A   1      43.156  35.832  32.769  1.00  0.00     0.031 C 
ATOM     76  C   UNL A   1      43.010  33.880  34.289  1.00  0.00     0.037 A 
BRANCH  63  77
ATOM     77  C   UNL A   1      43.255  27.701  34.418  1.00  0.00     0.064 A 
ATOM     78  C   UNL A   1      44.378  27.125  35.030  1.00  0.00     0.173 A 
ATOM     79  C   UNL A   1      42.018  27.060  34.584  1.00  0.00     0.173 A 
ATOM     80  F   UNL A   1      45.589  27.685  34.883  1.00  0.00    -0.203 F 
ATOM     81  C   UNL A   1      44.273  25.939  35.753  1.00  0.00     0.198 A 
ATOM     82  C   UNL A   1      41.910  25.894  35.337  1.00  0.00     0.198 A 
ATOM     83  F   UNL A   1      40.912  27.565  34.018  1.00  0.00    -0.203 F 
ATOM     84  F   UNL A   1      45.370  25.376  36.279  1.00  0.00    -0.200 F 
ATOM     85  C   UNL A   1      43.038  25.330  35.912  1.00  0.00     0.200 A 
ATOM     86  F   UNL A   1      40.714  25.313  35.499  1.00  0.00    -0.200 F 
ATOM     87  F   UNL A   1      42.935  24.192  36.614  1.00  0.00    -0.200 F 
ENDBRANCH  63  77
BRANCH  64  88
ATOM     88  C   UNL A   1      43.789  35.822  28.601  1.00  0.00     0.064 A 
ATOM     89  C   UNL A   1      42.624  36.425  28.102  1.00  0.00     0.173 A 
ATOM     90  C   UNL A   1      45.019  36.393  28.245  1.00  0.00     0.173 A 
ATOM     91  F   UNL A   1      41.423  35.908  28.397  1.00  0.00    -0.203 F 
ATOM     92  C   UNL A   1      42.690  37.534  27.260  1.00  0.00     0.198 A 
ATOM     93  C   UNL A   1      45.082  37.522  27.432  1.00  0.00     0.198 A 
ATOM     94  F   UNL A   1      46.163  35.861  28.699  1.00  0.00    -0.203 F 
ATOM     95  F   UNL A   1      41.564  38.059  26.759  1.00  0.00    -0.200 F 
ATOM     96  C   UNL A   1      43.918  38.085  26.930  1.00  0.00     0.200 A 
ATOM     97  F   UNL A   1      46.269  38.068  27.137  1.00  0.00    -0.200 F 
ATOM     98  F   UNL A   1      43.980  39.160  26.134  1.00  0.00    -0.200 F 
ENDBRANCH  64  88
BRANCH  76  99
ATOM     99  C   UNL A   1      42.850  34.839  35.435  1.00  0.00     0.064 A 
ATOM    100  C   UNL A   1      43.948  35.317  36.166  1.00  0.00     0.173 A 
ATOM    101  C   UNL A   1      41.572  35.295  35.800  1.00  0.00     0.173 A 
ATOM    102  F   UNL A   1      45.189  34.905  35.867  1.00  0.00    -0.203 F 
ATOM    103  C   UNL A   1      43.769  36.175  37.249  1.00  0.00     0.198 A 
ATOM    104  C   UNL A   1      41.402  36.185  36.856  1.00  0.00     0.198 A 
ATOM    105  F   UNL A   1      40.488  34.882  35.127  1.00  0.00    -0.203 F 
ATOM    106  F   UNL A   1      44.826  36.560  37.976  1.00  0.00    -0.200 F 
ATOM    107  C   UNL A   1      42.499  36.612  37.588  1.00  0.00     0.200 A 
ATOM    108  F   UNL A   1      40.175  36.621  37.171  1.00  0.00    -0.200 F 
ATOM    109  F   UNL A   1      42.328  37.438  38.631  1.00  0.00    -0.200 F 
ENDBRANCH  76  99
ENDBRANCH  50  51
ENDBRANCH  43  45
ENDBRANCH  42  43
ENDBRANCH  41  42
ENDBRANCH  40  41
ENDBRANCH  39  40
ENDBRANCH  38  39
ENDBRANCH  37  38
ENDBRANCH  36  37
ENDBRANCH   1  36
TORSDOF 26
ENDMDL
