MODEL 1
REMARK VINA RESULT:     -12.7      0.000      0.000
REMARK SMILES O=C(NC1(C(=O)OCCOCCOCCOCCOC(=O)c2ccc(-c3c4nc(c(-c5c(F)c(F)c(F)c(F)c5F)c5ccc([nH]5)c(-c5c(F)c(F)c(F)c(F)c5F)c5nc(c(-c6c(F)c(F)c(F)c(F)c6F)c6ccc3[nH]6)C=C5)C=C4)cc2)Cc2ccccc2C1)OCC1c2ccccc2-c2ccccc21
REMARK SMILES IDX 12 1 11 2 10 3 9 4 8 5 7 6 5 7 6 8 4 9 85 10 92 11 86 12
REMARK SMILES IDX 91 13 87 14 90 15 88 16 89 17 3 18 1 19 2 20 93 22 94 23
REMARK SMILES IDX 95 24 96 25 107 26 97 27 101 28 102 29 106 30 98 31 100 32
REMARK SMILES IDX 103 33 105 34 99 35 104 36 13 37 14 38 15 39 16 40 17 41
REMARK SMILES IDX 18 42 19 43 20 44 21 45 22 46 23 47 84 48 24 49 83 50 25 51
REMARK SMILES IDX 26 52 27 53 77 54 28 55 82 56 76 57 78 58 29 59 81 60 75 61
REMARK SMILES IDX 74 62 30 64 62 65 42 66 61 67 43 68 46 69 60 70 79 71 44 72
REMARK SMILES IDX 45 73 59 75 80 76 47 77 31 78 32 79 40 80 33 81 34 82 38 83
REMARK SMILES IDX 41 84 35 85 36 86 39 87 37 88 63 89 64 90 72 91 65 92 66 93
REMARK SMILES IDX 70 94 73 95 67 96 68 97 71 98 69 99 48 100 49 101 57 102
REMARK SMILES IDX 50 103 51 104 55 105 58 106 52 107 53 108 56 109 54 110
REMARK H PARENT 3 21 78 63 46 74
REMARK Flexibility Score: inf
ROOT
ATOM      1  C   UNL A   1      38.772  23.146  26.452  1.00  0.00     0.188 C 
ENDROOT
BRANCH   1   2
ATOM      2  C   UNL A   1      37.411  23.290  25.768  1.00  0.00     0.188 C 
BRANCH   2   3
ATOM      3  O   UNL A   1      37.043  22.231  24.888  1.00  0.00    -0.376 OA
BRANCH   3   4
ATOM      4  C   UNL A   1      36.503  21.082  25.524  1.00  0.00     0.202 C 
BRANCH   4   5
ATOM      5  C   UNL A   1      35.035  20.843  25.142  1.00  0.00     0.261 C 
BRANCH   5   6
ATOM      6  O   UNL A   1      34.069  21.051  26.196  1.00  0.00    -0.461 OA
BRANCH   6   7
ATOM      7  C   UNL A   1      33.921  22.324  26.658  1.00  0.00     0.332 C 
ATOM      8  O   UNL A   1      34.380  22.731  27.726  1.00  0.00    -0.249 OA
BRANCH   7   9
ATOM      9  C   UNL A   1      32.948  23.197  25.824  1.00  0.00     0.149 C 
ATOM     10  C   UNL A   1      33.924  24.284  25.235  1.00  0.00     0.076 C 
ATOM     11  C   UNL A   1      31.844  23.986  26.578  1.00  0.00     0.076 C 
ATOM     12  C   UNL A   1      33.443  25.574  25.816  1.00  0.00    -0.042 A 
ATOM     13  C   UNL A   1      32.213  25.416  26.425  1.00  0.00    -0.042 A 
ATOM     14  C   UNL A   1      34.021  26.827  25.751  1.00  0.00     0.004 A 
ATOM     15  C   UNL A   1      31.438  26.499  26.796  1.00  0.00     0.004 A 
ATOM     16  C   UNL A   1      33.288  27.927  26.210  1.00  0.00     0.000 A 
ATOM     17  C   UNL A   1      31.978  27.770  26.678  1.00  0.00     0.000 A 
BRANCH   9  18
ATOM     18  N   UNL A   1      32.362  22.367  24.720  1.00  0.00    -0.305 N 
ATOM     19  O   UNL A   1      31.459  21.991  22.670  1.00  0.00    -0.225 OA
ATOM     20  C   UNL A   1      31.834  22.783  23.524  1.00  0.00     0.408 C 
ATOM     21  H   UNL A   1      32.356  21.396  24.874  1.00  0.00     0.168 HD
BRANCH  20  22
ATOM     22  O   UNL A   1      31.822  24.127  23.376  1.00  0.00    -0.449 OA
BRANCH  22  23
ATOM     23  C   UNL A   1      30.560  24.794  23.491  1.00  0.00     0.248 C 
BRANCH  23  24
ATOM     24  C   UNL A   1      30.562  26.145  22.761  1.00  0.00     0.088 C 
ATOM     25  C   UNL A   1      31.897  26.962  22.662  1.00  0.00    -0.029 A 
ATOM     26  C   UNL A   1      29.553  27.148  23.283  1.00  0.00    -0.029 A 
ATOM     27  C   UNL A   1      33.136  26.449  22.290  1.00  0.00     0.005 A 
ATOM     28  C   UNL A   1      31.780  28.374  22.886  1.00  0.00    -0.014 A 
ATOM     29  C   UNL A   1      30.418  28.723  23.194  1.00  0.00    -0.014 A 
ATOM     30  C   UNL A   1      27.774  27.090  23.501  1.00  0.00     0.005 A 
ATOM     31  C   UNL A   1      34.236  27.318  22.195  1.00  0.00     0.000 A 
ATOM     32  C   UNL A   1      32.878  29.220  22.839  1.00  0.00     0.009 A 
ATOM     33  C   UNL A   1      29.528  30.263  23.345  1.00  0.00     0.009 A 
ATOM     34  C   UNL A   1      26.836  28.662  23.620  1.00  0.00     0.000 A 
ATOM     35  C   UNL A   1      34.116  28.683  22.493  1.00  0.00     0.001 A 
ATOM     36  C   UNL A   1      27.717  30.249  23.502  1.00  0.00     0.001 A 
ENDBRANCH  23  24
ENDBRANCH  22  23
ENDBRANCH  20  22
ENDBRANCH   9  18
ENDBRANCH   7   9
ENDBRANCH   6   7
ENDBRANCH   5   6
ENDBRANCH   4   5
ENDBRANCH   3   4
ENDBRANCH   2   3
ENDBRANCH   1   2
BRANCH   1  37
ATOM     37  O   UNL A   1      39.681  22.168  25.982  1.00  0.00    -0.377 OA
BRANCH  37  38
ATOM     38  C   UNL A   1      40.406  21.281  26.819  1.00  0.00     0.188 C 
BRANCH  38  39
ATOM     39  C   UNL A   1      41.155  20.022  26.136  1.00  0.00     0.188 C 
BRANCH  39  40
ATOM     40  O   UNL A   1      43.028  19.888  25.466  1.00  0.00    -0.376 OA
BRANCH  40  41
ATOM     41  C   UNL A   1      44.282  20.576  24.929  1.00  0.00     0.202 C 
BRANCH  41  42
ATOM     42  C   UNL A   1      44.611  21.838  25.751  1.00  0.00     0.261 C 
BRANCH  42  43
ATOM     43  O   UNL A   1      43.603  22.846  25.701  1.00  0.00    -0.460 OA
BRANCH  43  44
ATOM     44  C   UNL A   1      44.015  24.093  25.369  1.00  0.00     0.338 C 
ATOM     45  O   UNL A   1      44.733  24.419  24.455  1.00  0.00    -0.246 OA
BRANCH  44  46
ATOM     46  C   UNL A   1      43.280  25.036  26.249  1.00  0.00     0.060 A 
ATOM     47  C   UNL A   1      43.732  26.360  26.318  1.00  0.00     0.016 A 
ATOM     48  C   UNL A   1      42.108  24.652  26.912  1.00  0.00     0.016 A 
ATOM     49  C   UNL A   1      43.002  27.306  27.039  1.00  0.00     0.010 A 
ATOM     50  C   UNL A   1      41.399  25.585  27.665  1.00  0.00     0.010 A 
ATOM     51  C   UNL A   1      41.860  26.906  27.751  1.00  0.00    -0.014 A 
BRANCH  51  52
ATOM     52  C   UNL A   1      41.377  27.752  28.863  1.00  0.00     0.031 A 
ATOM     53  C   UNL A   1      42.113  27.606  30.166  1.00  0.00     0.074 A 
ATOM     54  C   UNL A   1      40.331  28.587  28.748  1.00  0.00     0.049 A 
ATOM     55  N   UNL A   1      41.932  28.223  31.301  1.00  0.00    -0.248 NA
ATOM     56  C   UNL A   1      43.214  26.624  30.182  1.00  0.00     0.031 C 
ATOM     57  C   UNL A   1      39.550  28.821  27.537  1.00  0.00     0.029 A 
ATOM     58  N   UNL A   1      39.743  29.394  29.691  1.00  0.00    -0.354 N 
ATOM     59  C   UNL A   1      42.912  27.727  32.148  1.00  0.00     0.074 A 
ATOM     60  C   UNL A   1      43.662  26.734  31.418  1.00  0.00     0.031 C 
ATOM     61  C   UNL A   1      38.572  29.706  27.814  1.00  0.00     0.029 A 
ATOM     62  C   UNL A   1      38.652  30.084  29.225  1.00  0.00     0.049 A 
ATOM     63  H   UNL A   1      40.074  29.470  30.614  1.00  0.00     0.167 HD
ATOM     64  C   UNL A   1      43.171  28.070  33.429  1.00  0.00     0.037 A 
ATOM     65  C   UNL A   1      37.815  30.913  29.882  1.00  0.00     0.037 A 
ATOM     66  C   UNL A   1      42.382  29.000  34.180  1.00  0.00     0.049 A 
ATOM     67  C   UNL A   1      38.058  31.195  31.348  1.00  0.00     0.074 A 
ATOM     68  C   UNL A   1      42.538  29.398  35.494  1.00  0.00     0.029 A 
ATOM     69  N   UNL A   1      41.263  29.651  33.685  1.00  0.00    -0.354 N 
ATOM     70  N   UNL A   1      39.028  30.776  32.127  1.00  0.00    -0.248 NA
ATOM     71  C   UNL A   1      37.088  32.069  32.025  1.00  0.00     0.031 C 
ATOM     72  C   UNL A   1      41.476  30.251  35.812  1.00  0.00     0.029 A 
ATOM     73  C   UNL A   1      40.697  30.430  34.678  1.00  0.00     0.049 A 
ATOM     74  H   UNL A   1      40.923  29.572  32.765  1.00  0.00     0.167 HD
ATOM     75  C   UNL A   1      38.805  31.363  33.368  1.00  0.00     0.074 A 
ATOM     76  C   UNL A   1      37.614  32.174  33.237  1.00  0.00     0.031 C 
ATOM     77  C   UNL A   1      39.521  31.244  34.515  1.00  0.00     0.037 A 
BRANCH  64  78
ATOM     78  C   UNL A   1      44.326  27.384  34.088  1.00  0.00     0.064 A 
ATOM     79  C   UNL A   1      44.166  26.158  34.751  1.00  0.00     0.173 A 
ATOM     80  C   UNL A   1      45.596  27.977  34.090  1.00  0.00     0.173 A 
ATOM     81  F   UNL A   1      42.962  25.571  34.806  1.00  0.00    -0.203 F 
ATOM     82  C   UNL A   1      45.235  25.561  35.415  1.00  0.00     0.198 A 
ATOM     83  C   UNL A   1      46.668  27.363  34.731  1.00  0.00     0.198 A 
ATOM     84  F   UNL A   1      45.793  29.157  33.485  1.00  0.00    -0.203 F 
ATOM     85  F   UNL A   1      45.048  24.420  36.091  1.00  0.00    -0.200 F 
ATOM     86  C   UNL A   1      46.486  26.161  35.398  1.00  0.00     0.200 A 
ATOM     87  F   UNL A   1      47.876  27.944  34.715  1.00  0.00    -0.200 F 
ATOM     88  F   UNL A   1      47.513  25.588  36.040  1.00  0.00    -0.200 F 
ENDBRANCH  64  78
BRANCH  65  89
ATOM     89  C   UNL A   1      36.661  31.541  29.181  1.00  0.00     0.064 A 
ATOM     90  C   UNL A   1      36.637  32.918  28.918  1.00  0.00     0.173 A 
ATOM     91  C   UNL A   1      35.531  30.791  28.821  1.00  0.00     0.173 A 
ATOM     92  F   UNL A   1      37.680  33.685  29.271  1.00  0.00    -0.203 F 
ATOM     93  C   UNL A   1      35.518  33.527  28.350  1.00  0.00     0.198 A 
ATOM     94  C   UNL A   1      34.423  31.396  28.228  1.00  0.00     0.198 A 
ATOM     95  F   UNL A   1      35.496  29.473  29.057  1.00  0.00    -0.203 F 
ATOM     96  F   UNL A   1      35.499  34.854  28.169  1.00  0.00    -0.200 F 
ATOM     97  C   UNL A   1      34.413  32.764  28.004  1.00  0.00     0.200 A 
ATOM     98  F   UNL A   1      33.358  30.656  27.891  1.00  0.00    -0.200 F 
ATOM     99  F   UNL A   1      33.333  33.351  27.470  1.00  0.00    -0.200 F 
ENDBRANCH  65  89
BRANCH  77 100
ATOM    100  C   UNL A   1      39.073  32.042  35.704  1.00  0.00     0.064 A 
ATOM    101  C   UNL A   1      38.254  31.490  36.699  1.00  0.00     0.173 A 
ATOM    102  C   UNL A   1      39.538  33.354  35.888  1.00  0.00     0.173 A 
ATOM    103  F   UNL A   1      37.776  30.243  36.566  1.00  0.00    -0.203 F 
ATOM    104  C   UNL A   1      37.901  32.228  37.825  1.00  0.00     0.198 A 
ATOM    105  C   UNL A   1      39.210  34.077  37.031  1.00  0.00     0.198 A 
ATOM    106  F   UNL A   1      40.335  33.924  34.971  1.00  0.00    -0.203 F 
ATOM    107  F   UNL A   1      37.086  31.695  38.745  1.00  0.00    -0.200 F 
ATOM    108  C   UNL A   1      38.388  33.517  37.995  1.00  0.00     0.200 A 
ATOM    109  F   UNL A   1      39.698  35.314  37.201  1.00  0.00    -0.200 F 
ATOM    110  F   UNL A   1      38.061  34.219  39.088  1.00  0.00    -0.200 F 
ENDBRANCH  77 100
ENDBRANCH  51  52
ENDBRANCH  44  46
ENDBRANCH  43  44
ENDBRANCH  42  43
ENDBRANCH  41  42
ENDBRANCH  40  41
ENDBRANCH  39  40
ENDBRANCH  38  39
ENDBRANCH  37  38
ENDBRANCH   1  37
TORSDOF 24
ENDMDL
MODEL 2
REMARK VINA RESULT:     -11.8      0.653      6.687
REMARK SMILES O=C(NC1(C(=O)OCCOCCOCCOCCOC(=O)c2ccc(-c3c4nc(c(-c5c(F)c(F)c(F)c(F)c5F)c5ccc([nH]5)c(-c5c(F)c(F)c(F)c(F)c5F)c5nc(c(-c6c(F)c(F)c(F)c(F)c6F)c6ccc3[nH]6)C=C5)C=C4)cc2)Cc2ccccc2C1)OCC1c2ccccc2-c2ccccc21
REMARK SMILES IDX 12 1 11 2 10 3 9 4 8 5 7 6 5 7 6 8 4 9 85 10 92 11 86 12
REMARK SMILES IDX 91 13 87 14 90 15 88 16 89 17 3 18 1 19 2 20 93 22 94 23
REMARK SMILES IDX 95 24 96 25 107 26 97 27 101 28 102 29 106 30 98 31 100 32
REMARK SMILES IDX 103 33 105 34 99 35 104 36 13 37 14 38 15 39 16 40 17 41
REMARK SMILES IDX 18 42 19 43 20 44 21 45 22 46 23 47 84 48 24 49 83 50 25 51
REMARK SMILES IDX 26 52 27 53 77 54 28 55 82 56 76 57 78 58 29 59 81 60 75 61
REMARK SMILES IDX 74 62 30 64 62 65 42 66 61 67 43 68 46 69 60 70 79 71 44 72
REMARK SMILES IDX 45 73 59 75 80 76 47 77 31 78 32 79 40 80 33 81 34 82 38 83
REMARK SMILES IDX 41 84 35 85 36 86 39 87 37 88 63 89 64 90 72 91 65 92 66 93
REMARK SMILES IDX 70 94 73 95 67 96 68 97 71 98 69 99 48 100 49 101 57 102
REMARK SMILES IDX 50 103 51 104 55 105 58 106 52 107 53 108 56 109 54 110
REMARK H PARENT 3 21 78 63 46 74
REMARK Flexibility Score: inf
ROOT
ATOM      1  C   UNL A   1      38.898  23.358  26.521  1.00  0.00     0.188 C 
ENDROOT
BRANCH   1   2
ATOM      2  C   UNL A   1      37.490  23.563  25.958  1.00  0.00     0.188 C 
BRANCH   2   3
ATOM      3  O   UNL A   1      37.025  22.553  25.068  1.00  0.00    -0.376 OA
BRANCH   3   4
ATOM      4  C   UNL A   1      36.561  21.366  25.695  1.00  0.00     0.202 C 
BRANCH   4   5
ATOM      5  C   UNL A   1      35.128  21.008  25.272  1.00  0.00     0.261 C 
BRANCH   5   6
ATOM      6  O   UNL A   1      34.116  21.160  26.290  1.00  0.00    -0.461 OA
BRANCH   6   7
ATOM      7  C   UNL A   1      33.880  22.422  26.748  1.00  0.00     0.332 C 
ATOM      8  O   UNL A   1      34.272  22.849  27.834  1.00  0.00    -0.249 OA
BRANCH   7   9
ATOM      9  C   UNL A   1      32.898  23.244  25.874  1.00  0.00     0.149 C 
ATOM     10  C   UNL A   1      33.855  24.337  25.264  1.00  0.00     0.076 C 
ATOM     11  C   UNL A   1      31.765  24.028  26.589  1.00  0.00     0.076 C 
ATOM     12  C   UNL A   1      33.335  25.632  25.799  1.00  0.00    -0.042 A 
ATOM     13  C   UNL A   1      32.100  25.462  26.397  1.00  0.00    -0.042 A 
ATOM     14  C   UNL A   1      33.883  26.896  25.704  1.00  0.00     0.004 A 
ATOM     15  C   UNL A   1      31.295  26.536  26.724  1.00  0.00     0.004 A 
ATOM     16  C   UNL A   1      33.117  27.991  26.119  1.00  0.00     0.000 A 
ATOM     17  C   UNL A   1      31.804  27.816  26.574  1.00  0.00     0.000 A 
BRANCH   9  18
ATOM     18  N   UNL A   1      32.348  22.367  24.788  1.00  0.00    -0.305 N 
ATOM     19  O   UNL A   1      31.477  21.907  22.742  1.00  0.00    -0.225 OA
ATOM     20  C   UNL A   1      31.820  22.733  23.576  1.00  0.00     0.408 C 
ATOM     21  H   UNL A   1      32.369  21.400  24.969  1.00  0.00     0.168 HD
BRANCH  20  22
ATOM     22  O   UNL A   1      31.769  24.072  23.390  1.00  0.00    -0.449 OA
BRANCH  22  23
ATOM     23  C   UNL A   1      30.484  24.700  23.448  1.00  0.00     0.248 C 
BRANCH  23  24
ATOM     24  C   UNL A   1      30.477  26.050  22.717  1.00  0.00     0.088 C 
ATOM     25  C   UNL A   1      31.812  26.863  22.593  1.00  0.00    -0.029 A 
ATOM     26  C   UNL A   1      29.480  27.056  23.255  1.00  0.00    -0.029 A 
ATOM     27  C   UNL A   1      33.043  26.346  22.200  1.00  0.00     0.005 A 
ATOM     28  C   UNL A   1      31.702  28.276  22.817  1.00  0.00    -0.014 A 
ATOM     29  C   UNL A   1      30.347  28.628  23.148  1.00  0.00    -0.014 A 
ATOM     30  C   UNL A   1      27.704  27.003  23.504  1.00  0.00     0.005 A 
ATOM     31  C   UNL A   1      34.143  27.212  22.085  1.00  0.00     0.000 A 
ATOM     32  C   UNL A   1      32.802  29.118  22.750  1.00  0.00     0.009 A 
ATOM     33  C   UNL A   1      29.464  30.171  23.312  1.00  0.00     0.009 A 
ATOM     34  C   UNL A   1      26.773  28.578  23.637  1.00  0.00     0.000 A 
ATOM     35  C   UNL A   1      34.032  28.578  22.383  1.00  0.00     0.001 A 
ATOM     36  C   UNL A   1      27.656  30.162  23.501  1.00  0.00     0.001 A 
ENDBRANCH  23  24
ENDBRANCH  22  23
ENDBRANCH  20  22
ENDBRANCH   9  18
ENDBRANCH   7   9
ENDBRANCH   6   7
ENDBRANCH   5   6
ENDBRANCH   4   5
ENDBRANCH   3   4
ENDBRANCH   2   3
ENDBRANCH   1   2
BRANCH   1  37
ATOM     37  O   UNL A   1      39.680  22.277  26.049  1.00  0.00    -0.377 OA
BRANCH  37  38
ATOM     38  C   UNL A   1      40.492  21.456  26.873  1.00  0.00     0.188 C 
BRANCH  38  39
ATOM     39  C   UNL A   1      41.321  20.254  26.179  1.00  0.00     0.188 C 
BRANCH  39  40
ATOM     40  O   UNL A   1      43.226  20.221  25.589  1.00  0.00    -0.376 OA
BRANCH  40  41
ATOM     41  C   UNL A   1      44.427  20.950  24.991  1.00  0.00     0.202 C 
BRANCH  41  42
ATOM     42  C   UNL A   1      44.782  22.199  25.820  1.00  0.00     0.261 C 
BRANCH  42  43
ATOM     43  O   UNL A   1      43.714  23.137  25.948  1.00  0.00    -0.460 OA
BRANCH  43  44
ATOM     44  C   UNL A   1      43.998  24.420  25.622  1.00  0.00     0.338 C 
ATOM     45  O   UNL A   1      44.543  24.830  24.626  1.00  0.00    -0.246 OA
BRANCH  44  46
ATOM     46  C   UNL A   1      43.360  25.277  26.654  1.00  0.00     0.060 A 
ATOM     47  C   UNL A   1      43.817  26.594  26.790  1.00  0.00     0.016 A 
ATOM     48  C   UNL A   1      42.265  24.825  27.401  1.00  0.00     0.016 A 
ATOM     49  C   UNL A   1      43.167  27.466  27.663  1.00  0.00     0.010 A 
ATOM     50  C   UNL A   1      41.641  25.682  28.303  1.00  0.00     0.010 A 
ATOM     51  C   UNL A   1      42.107  26.996  28.455  1.00  0.00    -0.014 A 
BRANCH  51  52
ATOM     52  C   UNL A   1      41.745  27.737  29.681  1.00  0.00     0.031 A 
ATOM     53  C   UNL A   1      40.553  28.645  29.572  1.00  0.00     0.074 A 
ATOM     54  C   UNL A   1      42.441  27.641  30.827  1.00  0.00     0.049 A 
ATOM     55  N   UNL A   1      39.991  29.400  30.477  1.00  0.00    -0.248 NA
ATOM     56  C   UNL A   1      39.899  28.700  28.250  1.00  0.00     0.031 C 
ATOM     57  C   UNL A   1      43.604  26.788  31.056  1.00  0.00     0.029 A 
ATOM     58  N   UNL A   1      42.259  28.292  32.022  1.00  0.00    -0.354 N 
ATOM     59  C   UNL A   1      38.909  29.990  29.841  1.00  0.00     0.074 A 
ATOM     60  C   UNL A   1      38.907  29.542  28.470  1.00  0.00     0.031 C 
ATOM     61  C   UNL A   1      44.041  26.979  32.316  1.00  0.00     0.029 A 
ATOM     62  C   UNL A   1      43.199  27.979  32.972  1.00  0.00     0.049 A 
ATOM     63  H   UNL A   1      41.522  28.924  32.183  1.00  0.00     0.167 HD
ATOM     64  C   UNL A   1      37.988  30.834  30.355  1.00  0.00     0.037 A 
ATOM     65  C   UNL A   1      43.354  28.464  34.221  1.00  0.00     0.037 A 
ATOM     66  C   UNL A   1      38.030  31.340  31.695  1.00  0.00     0.049 A 
ATOM     67  C   UNL A   1      42.375  29.495  34.737  1.00  0.00     0.074 A 
ATOM     68  C   UNL A   1      37.164  32.223  32.310  1.00  0.00     0.029 A 
ATOM     69  N   UNL A   1      39.018  31.027  32.615  1.00  0.00    -0.354 N 
ATOM     70  N   UNL A   1      41.312  29.998  34.155  1.00  0.00    -0.248 NA
ATOM     71  C   UNL A   1      42.619  30.023  36.088  1.00  0.00     0.031 C 
ATOM     72  C   UNL A   1      37.662  32.489  33.590  1.00  0.00     0.029 A 
ATOM     73  C   UNL A   1      38.802  31.725  33.790  1.00  0.00     0.049 A 
ATOM     74  H   UNL A   1      39.762  30.402  32.457  1.00  0.00     0.167 HD
ATOM     75  C   UNL A   1      40.744  30.869  35.079  1.00  0.00     0.074 A 
ATOM     76  C   UNL A   1      41.574  30.820  36.263  1.00  0.00     0.031 C 
ATOM     77  C   UNL A   1      39.634  31.641  34.962  1.00  0.00     0.037 A 
BRANCH  64  78
ATOM     78  C   UNL A   1      36.901  31.287  29.432  1.00  0.00     0.064 A 
ATOM     79  C   UNL A   1      36.898  32.579  28.885  1.00  0.00     0.173 A 
ATOM     80  C   UNL A   1      35.833  30.435  29.121  1.00  0.00     0.173 A 
ATOM     81  F   UNL A   1      37.881  33.442  29.183  1.00  0.00    -0.203 F 
ATOM     82  C   UNL A   1      35.849  33.010  28.078  1.00  0.00     0.198 A 
ATOM     83  C   UNL A   1      34.800  30.860  28.292  1.00  0.00     0.198 A 
ATOM     84  F   UNL A   1      35.783  29.197  29.634  1.00  0.00    -0.203 F 
ATOM     85  F   UNL A   1      35.836  34.267  27.613  1.00  0.00    -0.200 F 
ATOM     86  C   UNL A   1      34.805  32.148  27.777  1.00  0.00     0.200 A 
ATOM     87  F   UNL A   1      33.791  30.027  28.002  1.00  0.00    -0.200 F 
ATOM     88  F   UNL A   1      33.793  32.564  27.003  1.00  0.00    -0.200 F 
ENDBRANCH  64  78
BRANCH  65  89
ATOM     89  C   UNL A   1      44.476  27.999  35.083  1.00  0.00     0.064 A 
ATOM     90  C   UNL A   1      45.723  28.640  35.053  1.00  0.00     0.173 A 
ATOM     91  C   UNL A   1      44.347  26.867  35.901  1.00  0.00     0.173 A 
ATOM     92  F   UNL A   1      45.907  29.709  34.264  1.00  0.00    -0.203 F 
ATOM     93  C   UNL A   1      46.805  28.151  35.784  1.00  0.00     0.198 A 
ATOM     94  C   UNL A   1      45.422  26.394  36.652  1.00  0.00     0.198 A 
ATOM     95  F   UNL A   1      43.180  26.210  35.960  1.00  0.00    -0.203 F 
ATOM     96  F   UNL A   1      48.001  28.747  35.687  1.00  0.00    -0.200 F 
ATOM     97  C   UNL A   1      46.653  27.029  36.585  1.00  0.00     0.200 A 
ATOM     98  F   UNL A   1      45.271  25.312  37.428  1.00  0.00    -0.200 F 
ATOM     99  F   UNL A   1      47.696  26.552  37.277  1.00  0.00    -0.200 F 
ENDBRANCH  65  89
BRANCH  77 100
ATOM    100  C   UNL A   1      39.220  32.455  36.152  1.00  0.00     0.064 A 
ATOM    101  C   UNL A   1      38.343  31.953  37.123  1.00  0.00     0.173 A 
ATOM    102  C   UNL A   1      39.777  33.727  36.363  1.00  0.00     0.173 A 
ATOM    103  F   UNL A   1      37.778  30.747  36.964  1.00  0.00    -0.203 F 
ATOM    104  C   UNL A   1      38.022  32.702  38.252  1.00  0.00     0.198 A 
ATOM    105  C   UNL A   1      39.479  34.459  37.509  1.00  0.00     0.198 A 
ATOM    106  F   UNL A   1      40.632  34.247  35.469  1.00  0.00    -0.203 F 
ATOM    107  F   UNL A   1      37.151  32.220  39.149  1.00  0.00    -0.200 F 
ATOM    108  C   UNL A   1      38.598  33.949  38.449  1.00  0.00     0.200 A 
ATOM    109  F   UNL A   1      40.053  35.654  37.705  1.00  0.00    -0.200 F 
ATOM    110  F   UNL A   1      38.301  34.661  39.544  1.00  0.00    -0.200 F 
ENDBRANCH  77 100
ENDBRANCH  51  52
ENDBRANCH  44  46
ENDBRANCH  43  44
ENDBRANCH  42  43
ENDBRANCH  41  42
ENDBRANCH  40  41
ENDBRANCH  39  40
ENDBRANCH  38  39
ENDBRANCH  37  38
ENDBRANCH   1  37
TORSDOF 24
ENDMDL
MODEL 3
REMARK VINA RESULT:     -11.7      1.441      2.676
REMARK SMILES O=C(NC1(C(=O)OCCOCCOCCOCCOC(=O)c2ccc(-c3c4nc(c(-c5c(F)c(F)c(F)c(F)c5F)c5ccc([nH]5)c(-c5c(F)c(F)c(F)c(F)c5F)c5nc(c(-c6c(F)c(F)c(F)c(F)c6F)c6ccc3[nH]6)C=C5)C=C4)cc2)Cc2ccccc2C1)OCC1c2ccccc2-c2ccccc21
REMARK SMILES IDX 12 1 11 2 10 3 9 4 8 5 7 6 5 7 6 8 4 9 85 10 92 11 86 12
REMARK SMILES IDX 91 13 87 14 90 15 88 16 89 17 3 18 1 19 2 20 93 22 94 23
REMARK SMILES IDX 95 24 96 25 107 26 97 27 101 28 102 29 106 30 98 31 100 32
REMARK SMILES IDX 103 33 105 34 99 35 104 36 13 37 14 38 15 39 16 40 17 41
REMARK SMILES IDX 18 42 19 43 20 44 21 45 22 46 23 47 84 48 24 49 83 50 25 51
REMARK SMILES IDX 26 52 27 53 77 54 28 55 82 56 76 57 78 58 29 59 81 60 75 61
REMARK SMILES IDX 74 62 30 64 62 65 42 66 61 67 43 68 46 69 60 70 79 71 44 72
REMARK SMILES IDX 45 73 59 75 80 76 47 77 31 78 32 79 40 80 33 81 34 82 38 83
REMARK SMILES IDX 41 84 35 85 36 86 39 87 37 88 63 89 64 90 72 91 65 92 66 93
REMARK SMILES IDX 70 94 73 95 67 96 68 97 71 98 69 99 48 100 49 101 57 102
REMARK SMILES IDX 50 103 51 104 55 105 58 106 52 107 53 108 56 109 54 110
REMARK H PARENT 3 21 78 63 46 74
REMARK Flexibility Score: inf
ROOT
ATOM      1  C   UNL A   1      40.145  21.612  26.301  1.00  0.00     0.188 C 
ENDROOT
BRANCH   1   2
ATOM      2  C   UNL A   1      38.920  22.529  26.294  1.00  0.00     0.188 C 
BRANCH   2   3
ATOM      3  O   UNL A   1      37.727  21.968  25.756  1.00  0.00    -0.376 OA
BRANCH   3   4
ATOM      4  C   UNL A   1      37.090  22.755  24.760  1.00  0.00     0.202 C 
BRANCH   4   5
ATOM      5  C   UNL A   1      36.162  23.819  25.367  1.00  0.00     0.261 C 
BRANCH   5   6
ATOM      6  O   UNL A   1      34.841  23.366  25.733  1.00  0.00    -0.461 OA
BRANCH   6   7
ATOM      7  C   UNL A   1      34.073  22.829  24.743  1.00  0.00     0.332 C 
ATOM      8  O   UNL A   1      33.961  23.311  23.615  1.00  0.00    -0.249 OA
BRANCH   7   9
ATOM      9  C   UNL A   1      33.176  21.650  25.200  1.00  0.00     0.149 C 
ATOM     10  C   UNL A   1      34.252  20.564  25.580  1.00  0.00     0.076 C 
ATOM     11  C   UNL A   1      32.256  20.980  24.144  1.00  0.00     0.076 C 
ATOM     12  C   UNL A   1      34.006  19.441  24.624  1.00  0.00    -0.042 A 
ATOM     13  C   UNL A   1      32.813  19.618  23.948  1.00  0.00    -0.042 A 
ATOM     14  C   UNL A   1      34.751  18.297  24.414  1.00  0.00     0.004 A 
ATOM     15  C   UNL A   1      32.232  18.600  23.217  1.00  0.00     0.004 A 
ATOM     16  C   UNL A   1      34.218  17.292  23.598  1.00  0.00     0.000 A 
ATOM     17  C   UNL A   1      32.937  17.419  23.049  1.00  0.00     0.000 A 
BRANCH   9  18
ATOM     18  N   UNL A   1      32.399  22.061  26.415  1.00  0.00    -0.305 N 
ATOM     19  O   UNL A   1      30.880  23.279  27.585  1.00  0.00    -0.225 OA
ATOM     20  C   UNL A   1      31.512  23.099  26.553  1.00  0.00     0.408 C 
ATOM     21  H   UNL A   1      32.544  21.515  27.220  1.00  0.00     0.168 HD
BRANCH  20  22
ATOM     22  O   UNL A   1      31.379  23.850  25.436  1.00  0.00    -0.449 OA
BRANCH  22  23
ATOM     23  C   UNL A   1      30.353  24.848  25.428  1.00  0.00     0.248 C 
BRANCH  23  24
ATOM     24  C   UNL A   1      30.681  25.994  24.460  1.00  0.00     0.088 C 
ATOM     25  C   UNL A   1      31.965  26.861  24.704  1.00  0.00    -0.029 A 
ATOM     26  C   UNL A   1      29.574  27.014  24.289  1.00  0.00    -0.029 A 
ATOM     27  C   UNL A   1      33.236  26.366  24.983  1.00  0.00     0.005 A 
ATOM     28  C   UNL A   1      31.805  28.275  24.522  1.00  0.00    -0.014 A 
ATOM     29  C   UNL A   1      30.443  28.585  24.177  1.00  0.00    -0.014 A 
ATOM     30  C   UNL A   1      27.855  26.880  23.796  1.00  0.00     0.005 A 
ATOM     31  C   UNL A   1      34.304  27.267  25.125  1.00  0.00     0.000 A 
ATOM     32  C   UNL A   1      32.853  29.164  24.712  1.00  0.00     0.009 A 
ATOM     33  C   UNL A   1      29.607  30.051  23.595  1.00  0.00     0.009 A 
ATOM     34  C   UNL A   1      26.988  28.367  23.159  1.00  0.00     0.000 A 
ATOM     35  C   UNL A   1      34.111  28.653  25.019  1.00  0.00     0.001 A 
ATOM     36  C   UNL A   1      27.885  29.944  23.024  1.00  0.00     0.001 A 
ENDBRANCH  23  24
ENDBRANCH  22  23
ENDBRANCH  20  22
ENDBRANCH   9  18
ENDBRANCH   7   9
ENDBRANCH   6   7
ENDBRANCH   5   6
ENDBRANCH   4   5
ENDBRANCH   3   4
ENDBRANCH   2   3
ENDBRANCH   1   2
BRANCH   1  37
ATOM     37  O   UNL A   1      39.968  20.223  26.089  1.00  0.00    -0.377 OA
BRANCH  37  38
ATOM     38  C   UNL A   1      41.023  19.274  26.076  1.00  0.00     0.188 C 
BRANCH  38  39
ATOM     39  C   UNL A   1      42.512  19.777  26.452  1.00  0.00     0.188 C 
BRANCH  39  40
ATOM     40  O   UNL A   1      43.773  20.884  25.374  1.00  0.00    -0.376 OA
BRANCH  40  41
ATOM     41  C   UNL A   1      45.116  21.021  24.659  1.00  0.00     0.202 C 
BRANCH  41  42
ATOM     42  C   UNL A   1      45.522  22.502  24.530  1.00  0.00     0.261 C 
BRANCH  42  43
ATOM     43  O   UNL A   1      44.996  23.342  25.558  1.00  0.00    -0.460 OA
BRANCH  43  44
ATOM     44  C   UNL A   1      43.871  24.032  25.254  1.00  0.00     0.338 C 
ATOM     45  O   UNL A   1      43.167  23.913  24.280  1.00  0.00    -0.246 OA
BRANCH  44  46
ATOM     46  C   UNL A   1      43.549  24.871  26.435  1.00  0.00     0.060 A 
ATOM     47  C   UNL A   1      42.673  24.349  27.395  1.00  0.00     0.016 A 
ATOM     48  C   UNL A   1      44.178  26.104  26.646  1.00  0.00     0.016 A 
ATOM     49  C   UNL A   1      42.437  25.055  28.575  1.00  0.00     0.010 A 
ATOM     50  C   UNL A   1      43.913  26.829  27.805  1.00  0.00     0.010 A 
ATOM     51  C   UNL A   1      43.021  26.317  28.759  1.00  0.00    -0.014 A 
BRANCH  51  52
ATOM     52  C   UNL A   1      42.422  27.249  29.737  1.00  0.00     0.031 A 
ATOM     53  C   UNL A   1      43.071  27.287  31.092  1.00  0.00     0.074 A 
ATOM     54  C   UNL A   1      41.345  28.006  29.463  1.00  0.00     0.049 A 
ATOM     55  N   UNL A   1      42.782  28.012  32.137  1.00  0.00    -0.248 NA
ATOM     56  C   UNL A   1      44.216  26.376  31.287  1.00  0.00     0.031 C 
ATOM     57  C   UNL A   1      40.640  28.063  28.186  1.00  0.00     0.029 A 
ATOM     58  N   UNL A   1      40.654  28.875  30.271  1.00  0.00    -0.354 N 
ATOM     59  C   UNL A   1      43.723  27.667  33.095  1.00  0.00     0.074 A 
ATOM     60  C   UNL A   1      44.571  26.645  32.529  1.00  0.00     0.031 C 
ATOM     61  C   UNL A   1      39.603  28.915  28.300  1.00  0.00     0.029 A 
ATOM     62  C   UNL A   1      39.565  29.447  29.663  1.00  0.00     0.049 A 
ATOM     63  H   UNL A   1      40.916  29.069  31.199  1.00  0.00     0.167 HD
ATOM     64  C   UNL A   1      43.876  28.160  34.343  1.00  0.00     0.037 A 
ATOM     65  C   UNL A   1      38.644  30.294  30.168  1.00  0.00     0.037 A 
ATOM     66  C   UNL A   1      42.991  29.119  34.935  1.00  0.00     0.049 A 
ATOM     67  C   UNL A   1      38.771  30.746  31.606  1.00  0.00     0.074 A 
ATOM     68  C   UNL A   1      43.035  29.666  36.203  1.00  0.00     0.029 A 
ATOM     69  N   UNL A   1      41.878  29.649  34.300  1.00  0.00    -0.354 N 
ATOM     70  N   UNL A   1      39.704  30.469  32.487  1.00  0.00    -0.248 NA
ATOM     71  C   UNL A   1      37.714  31.631  32.118  1.00  0.00     0.031 C 
ATOM     72  C   UNL A   1      41.913  30.486  36.355  1.00  0.00     0.029 A 
ATOM     73  C   UNL A   1      41.207  30.496  35.162  1.00  0.00     0.049 A 
ATOM     74  H   UNL A   1      41.607  29.451  33.374  1.00  0.00     0.167 HD
ATOM     75  C   UNL A   1      39.366  31.173  33.638  1.00  0.00     0.074 A 
ATOM     76  C   UNL A   1      38.148  31.896  33.342  1.00  0.00     0.031 C 
ATOM     77  C   UNL A   1      40.006  31.220  34.834  1.00  0.00     0.037 A 
BRANCH  64  78
ATOM     78  C   UNL A   1      45.015  27.617  35.147  1.00  0.00     0.064 A 
ATOM     79  C   UNL A   1      44.822  26.598  36.093  1.00  0.00     0.173 A 
ATOM     80  C   UNL A   1      46.304  28.146  34.998  1.00  0.00     0.173 A 
ATOM     81  F   UNL A   1      43.598  26.087  36.295  1.00  0.00    -0.203 F 
ATOM     82  C   UNL A   1      45.877  26.145  36.879  1.00  0.00     0.198 A 
ATOM     83  C   UNL A   1      47.362  27.671  35.767  1.00  0.00     0.198 A 
ATOM     84  F   UNL A   1      46.534  29.132  34.120  1.00  0.00    -0.203 F 
ATOM     85  F   UNL A   1      45.660  25.213  37.817  1.00  0.00    -0.200 F 
ATOM     86  C   UNL A   1      47.147  26.677  36.711  1.00  0.00     0.200 A 
ATOM     87  F   UNL A   1      48.589  28.185  35.605  1.00  0.00    -0.200 F 
ATOM     88  F   UNL A   1      48.162  26.243  37.470  1.00  0.00    -0.200 F 
ENDBRANCH  64  78
BRANCH  65  89
ATOM     89  C   UNL A   1      37.512  30.775  29.329  1.00  0.00     0.064 A 
ATOM     90  C   UNL A   1      37.470  32.096  28.861  1.00  0.00     0.173 A 
ATOM     91  C   UNL A   1      36.418  29.947  29.036  1.00  0.00     0.173 A 
ATOM     92  F   UNL A   1      38.477  32.937  29.141  1.00  0.00    -0.203 F 
ATOM     93  C   UNL A   1      36.367  32.580  28.159  1.00  0.00     0.198 A 
ATOM     94  C   UNL A   1      35.327  30.424  28.310  1.00  0.00     0.198 A 
ATOM     95  F   UNL A   1      36.401  28.678  29.467  1.00  0.00    -0.203 F 
ATOM     96  F   UNL A   1      36.327  33.864  27.779  1.00  0.00    -0.200 F 
ATOM     97  C   UNL A   1      35.297  31.742  27.882  1.00  0.00     0.200 A 
ATOM     98  F   UNL A   1      34.297  29.610  28.041  1.00  0.00    -0.200 F 
ATOM     99  F   UNL A   1      34.232  32.210  27.217  1.00  0.00    -0.200 F 
ENDBRANCH  65  89
BRANCH  77 100
ATOM    100  C   UNL A   1      39.437  32.115  35.896  1.00  0.00     0.064 A 
ATOM    101  C   UNL A   1      38.484  31.657  36.816  1.00  0.00     0.173 A 
ATOM    102  C   UNL A   1      39.916  33.427  36.042  1.00  0.00     0.173 A 
ATOM    103  F   UNL A   1      37.989  30.414  36.714  1.00  0.00    -0.203 F 
ATOM    104  C   UNL A   1      38.016  32.486  37.832  1.00  0.00     0.198 A 
ATOM    105  C   UNL A   1      39.470  34.241  37.078  1.00  0.00     0.198 A 
ATOM    106  F   UNL A   1      40.838  33.909  35.194  1.00  0.00    -0.203 F 
ATOM    107  F   UNL A   1      37.076  32.041  38.678  1.00  0.00    -0.200 F 
ATOM    108  C   UNL A   1      38.517  33.773  37.968  1.00  0.00     0.200 A 
ATOM    109  F   UNL A   1      39.970  35.477  37.220  1.00  0.00    -0.200 F 
ATOM    110  F   UNL A   1      38.077  34.563  38.957  1.00  0.00    -0.200 F 
ENDBRANCH  77 100
ENDBRANCH  51  52
ENDBRANCH  44  46
ENDBRANCH  43  44
ENDBRANCH  42  43
ENDBRANCH  41  42
ENDBRANCH  40  41
ENDBRANCH  39  40
ENDBRANCH  38  39
ENDBRANCH  37  38
ENDBRANCH   1  37
TORSDOF 24
ENDMDL
