MODEL 1
REMARK VINA RESULT:     -10.3      0.000      0.000
REMARK SMILES CC(=O)c1cc2c(cc1NC(=O)/C=C/C(=O)OCCOCCOCCOCCOC(=O)c1ccc(-c3c4nc(c(-c5c(F)c(F)c(F)c(F)c5F)c5ccc([nH]5)c(-c5c(F)c(F)c(F)c(F)c5F)c5nc(c(-c6c(F)c(F)c(F)c(F)c6F)c6ccc3[nH]6)C=C5)C=C4)cc1)OCO2
REMARK SMILES IDX 22 1 21 2 20 3 19 4 18 5 17 6 15 7 16 8 14 9 13 10 11 11
REMARK SMILES IDX 10 12 12 14 9 15 4 16 5 17 6 18 8 19 7 20 97 21 95 22 96 23
REMARK SMILES IDX 2 24 1 25 3 26 23 27 24 28 25 29 26 30 27 31 28 32 29 33
REMARK SMILES IDX 30 34 31 35 32 36 33 37 94 38 34 39 93 40 35 41 36 42 37 43
REMARK SMILES IDX 87 44 38 45 92 46 86 47 88 48 39 49 91 50 85 51 84 52 40 54
REMARK SMILES IDX 72 55 52 56 71 57 53 58 56 59 70 60 89 61 54 62 55 63 69 65
REMARK SMILES IDX 90 66 57 67 41 68 42 69 50 70 43 71 44 72 48 73 51 74 45 75
REMARK SMILES IDX 46 76 49 77 47 78 73 79 74 80 82 81 75 82 76 83 80 84 83 85
REMARK SMILES IDX 77 86 78 87 81 88 79 89 58 90 59 91 67 92 60 93 61 94 65 95
REMARK SMILES IDX 68 96 62 97 63 98 66 99 64 100
REMARK H PARENT 10 13 88 53 56 64
REMARK Flexibility Score: inf
ROOT
ATOM      1  C   UNL A   1      34.442  25.297  25.244  1.00  0.00     0.188 C 
ENDROOT
BRANCH   1   2
ATOM      2  C   UNL A   1      35.542  24.385  25.844  1.00  0.00     0.188 C 
BRANCH   2   3
ATOM      3  O   UNL A   1      35.131  23.064  26.152  1.00  0.00    -0.376 OA
BRANCH   3   4
ATOM      4  C   UNL A   1      34.384  22.889  27.343  1.00  0.00     0.202 C 
BRANCH   4   5
ATOM      5  C   UNL A   1      33.065  22.124  27.175  1.00  0.00     0.261 C 
BRANCH   5   6
ATOM      6  O   UNL A   1      31.918  22.770  27.761  1.00  0.00    -0.460 OA
BRANCH   6   7
ATOM      7  C   UNL A   1      30.915  23.110  26.920  1.00  0.00     0.331 C 
ATOM      8  O   UNL A   1      29.787  23.438  27.251  1.00  0.00    -0.247 OA
BRANCH   7   9
ATOM      9  C   UNL A   1      31.373  23.173  25.511  1.00  0.00     0.099 C 
ATOM     10  C   UNL A   1      31.131  24.195  24.674  1.00  0.00     0.079 C 
BRANCH  10  11
ATOM     11  C   UNL A   1      31.494  24.174  23.238  1.00  0.00     0.248 C 
ATOM     12  N   UNL A   1      31.294  25.245  22.407  1.00  0.00    -0.322 N 
ATOM     13  H   UNL A   1      31.445  25.027  21.458  1.00  0.00     0.170 HD
ATOM     14  O   UNL A   1      32.005  23.145  22.796  1.00  0.00    -0.270 OA
BRANCH  12  15
ATOM     15  C   UNL A   1      30.919  26.595  22.611  1.00  0.00     0.056 A 
ATOM     16  C   UNL A   1      31.845  27.649  22.376  1.00  0.00     0.045 A 
ATOM     17  C   UNL A   1      31.431  28.996  22.379  1.00  0.00     0.064 A 
ATOM     18  C   UNL A   1      30.119  29.266  22.688  1.00  0.00     0.166 A 
ATOM     19  C   UNL A   1      29.649  26.945  23.059  1.00  0.00     0.077 A 
ATOM     20  C   UNL A   1      29.262  28.266  23.054  1.00  0.00     0.167 A 
ATOM     21  O   UNL A   1      29.523  30.486  22.707  1.00  0.00    -0.454 OA
ATOM     22  O   UNL A   1      28.026  28.726  23.377  1.00  0.00    -0.454 OA
ATOM     23  C   UNL A   1      28.167  30.124  23.057  1.00  0.00     0.468 C 
BRANCH  16  24
ATOM     24  C   UNL A   1      33.288  27.348  22.176  1.00  0.00     0.162 C 
ATOM     25  C   UNL A   1      34.291  28.257  22.841  1.00  0.00     0.093 C 
ATOM     26  O   UNL A   1      33.622  26.328  21.579  1.00  0.00    -0.294 OA
ENDBRANCH  16  24
ENDBRANCH  12  15
ENDBRANCH  10  11
ENDBRANCH   7   9
ENDBRANCH   6   7
ENDBRANCH   5   6
ENDBRANCH   4   5
ENDBRANCH   3   4
ENDBRANCH   2   3
ENDBRANCH   1   2
BRANCH   1  27
ATOM     27  O   UNL A   1      33.577  26.085  26.046  1.00  0.00    -0.377 OA
BRANCH  27  28
ATOM     28  C   UNL A   1      33.886  27.451  26.259  1.00  0.00     0.188 C 
BRANCH  28  29
ATOM     29  C   UNL A   1      32.726  28.409  26.592  1.00  0.00     0.188 C 
BRANCH  29  30
ATOM     30  O   UNL A   1      32.602  29.489  25.678  1.00  0.00    -0.376 OA
BRANCH  30  31
ATOM     31  C   UNL A   1      31.566  30.426  25.920  1.00  0.00     0.202 C 
BRANCH  31  32
ATOM     32  C   UNL A   1      31.863  31.593  26.875  1.00  0.00     0.261 C 
BRANCH  32  33
ATOM     33  O   UNL A   1      33.091  32.304  26.662  1.00  0.00    -0.460 OA
BRANCH  33  34
ATOM     34  C   UNL A   1      33.579  33.048  27.676  1.00  0.00     0.338 C 
ATOM     35  O   UNL A   1      33.059  34.020  28.198  1.00  0.00    -0.246 OA
BRANCH  34  36
ATOM     36  C   UNL A   1      34.780  32.353  28.189  1.00  0.00     0.060 A 
ATOM     37  C   UNL A   1      34.717  30.976  28.449  1.00  0.00     0.016 A 
ATOM     38  C   UNL A   1      35.979  33.050  28.356  1.00  0.00     0.016 A 
ATOM     39  C   UNL A   1      35.855  30.295  28.887  1.00  0.00     0.010 A 
ATOM     40  C   UNL A   1      37.108  32.374  28.825  1.00  0.00     0.010 A 
ATOM     41  C   UNL A   1      37.044  30.999  29.116  1.00  0.00    -0.014 A 
BRANCH  41  42
ATOM     42  C   UNL A   1      38.155  30.351  29.851  1.00  0.00     0.031 A 
ATOM     43  C   UNL A   1      38.368  30.733  31.288  1.00  0.00     0.074 A 
ATOM     44  C   UNL A   1      38.956  29.445  29.266  1.00  0.00     0.049 A 
ATOM     45  N   UNL A   1      39.295  30.350  32.128  1.00  0.00    -0.248 NA
ATOM     46  C   UNL A   1      37.400  31.686  31.854  1.00  0.00     0.031 C 
ATOM     47  C   UNL A   1      38.826  28.962  27.895  1.00  0.00     0.029 A 
ATOM     48  N   UNL A   1      40.050  28.777  29.761  1.00  0.00    -0.354 N 
ATOM     49  C   UNL A   1      39.028  31.021  33.313  1.00  0.00     0.074 A 
ATOM     50  C   UNL A   1      37.873  31.859  33.077  1.00  0.00     0.031 C 
ATOM     51  C   UNL A   1      39.810  28.076  27.652  1.00  0.00     0.029 A 
ATOM     52  C   UNL A   1      40.656  27.960  28.839  1.00  0.00     0.049 A 
ATOM     53  H   UNL A   1      40.367  28.874  30.687  1.00  0.00     0.167 HD
ATOM     54  C   UNL A   1      39.684  30.942  34.495  1.00  0.00     0.037 A 
ATOM     55  C   UNL A   1      41.779  27.222  28.942  1.00  0.00     0.037 A 
ATOM     56  C   UNL A   1      40.840  30.115  34.721  1.00  0.00     0.049 A 
ATOM     57  C   UNL A   1      42.547  27.218  30.240  1.00  0.00     0.074 A 
ATOM     58  C   UNL A   1      41.561  29.941  35.888  1.00  0.00     0.029 A 
ATOM     59  N   UNL A   1      41.456  29.337  33.750  1.00  0.00    -0.354 N 
ATOM     60  N   UNL A   1      42.271  27.823  31.371  1.00  0.00    -0.248 NA
ATOM     61  C   UNL A   1      43.785  26.426  30.275  1.00  0.00     0.031 C 
ATOM     62  C   UNL A   1      42.654  29.113  35.607  1.00  0.00     0.029 A 
ATOM     63  C   UNL A   1      42.572  28.713  34.282  1.00  0.00     0.049 A 
ATOM     64  H   UNL A   1      41.144  29.243  32.821  1.00  0.00     0.167 HD
ATOM     65  C   UNL A   1      43.279  27.463  32.257  1.00  0.00     0.074 A 
ATOM     66  C   UNL A   1      44.168  26.576  31.536  1.00  0.00     0.031 C 
ATOM     67  C   UNL A   1      43.450  27.831  33.552  1.00  0.00     0.037 A 
BRANCH  54  68
ATOM     68  C   UNL A   1      39.190  31.813  35.615  1.00  0.00     0.064 A 
ATOM     69  C   UNL A   1      38.284  31.344  36.579  1.00  0.00     0.173 A 
ATOM     70  C   UNL A   1      39.625  33.143  35.720  1.00  0.00     0.173 A 
ATOM     71  F   UNL A   1      37.824  30.085  36.517  1.00  0.00    -0.203 F 
ATOM     72  C   UNL A   1      37.803  32.183  37.580  1.00  0.00     0.198 A 
ATOM     73  C   UNL A   1      39.170  33.970  36.743  1.00  0.00     0.198 A 
ATOM     74  F   UNL A   1      40.492  33.644  34.827  1.00  0.00    -0.203 F 
ATOM     75  F   UNL A   1      36.886  31.733  38.448  1.00  0.00    -0.200 F 
ATOM     76  C   UNL A   1      38.249  33.493  37.664  1.00  0.00     0.200 A 
ATOM     77  F   UNL A   1      39.613  35.231  36.832  1.00  0.00    -0.200 F 
ATOM     78  F   UNL A   1      37.784  34.301  38.627  1.00  0.00    -0.200 F 
ENDBRANCH  54  68
BRANCH  55  79
ATOM     79  C   UNL A   1      42.249  26.421  27.781  1.00  0.00     0.064 A 
ATOM     80  C   UNL A   1      43.105  26.980  26.821  1.00  0.00     0.173 A 
ATOM     81  C   UNL A   1      41.852  25.088  27.603  1.00  0.00     0.173 A 
ATOM     82  F   UNL A   1      43.489  28.260  26.930  1.00  0.00    -0.203 F 
ATOM     83  C   UNL A   1      43.539  26.237  25.723  1.00  0.00     0.198 A 
ATOM     84  C   UNL A   1      42.309  24.338  26.521  1.00  0.00     0.198 A 
ATOM     85  F   UNL A   1      41.030  24.508  28.489  1.00  0.00    -0.203 F 
ATOM     86  F   UNL A   1      44.324  26.808  24.800  1.00  0.00    -0.200 F 
ATOM     87  C   UNL A   1      43.147  24.915  25.579  1.00  0.00     0.200 A 
ATOM     88  F   UNL A   1      41.939  23.056  26.392  1.00  0.00    -0.200 F 
ATOM     89  F   UNL A   1      43.573  24.199  24.529  1.00  0.00    -0.200 F 
ENDBRANCH  55  79
BRANCH  67  90
ATOM     90  C   UNL A   1      44.623  27.247  34.291  1.00  0.00     0.064 A 
ATOM     91  C   UNL A   1      45.863  27.901  34.348  1.00  0.00     0.173 A 
ATOM     92  C   UNL A   1      44.489  26.037  34.991  1.00  0.00     0.173 A 
ATOM     93  F   UNL A   1      46.050  29.053  33.687  1.00  0.00    -0.203 F 
ATOM     94  C   UNL A   1      46.931  27.351  35.054  1.00  0.00     0.198 A 
ATOM     95  C   UNL A   1      45.547  25.509  35.725  1.00  0.00     0.198 A 
ATOM     96  F   UNL A   1      43.323  25.373  34.977  1.00  0.00    -0.203 F 
ATOM     97  F   UNL A   1      48.121  27.968  35.052  1.00  0.00    -0.200 F 
ATOM     98  C   UNL A   1      46.769  26.161  35.749  1.00  0.00     0.200 A 
ATOM     99  F   UNL A   1      45.383  24.369  36.411  1.00  0.00    -0.200 F 
ATOM    100  F   UNL A   1      47.795  25.641  36.437  1.00  0.00    -0.200 F 
ENDBRANCH  67  90
ENDBRANCH  41  42
ENDBRANCH  34  36
ENDBRANCH  33  34
ENDBRANCH  32  33
ENDBRANCH  31  32
ENDBRANCH  30  31
ENDBRANCH  29  30
ENDBRANCH  28  29
ENDBRANCH  27  28
ENDBRANCH   1  27
TORSDOF 23
ENDMDL
MODEL 2
REMARK VINA RESULT:     -10.3      4.642      8.246
REMARK SMILES CC(=O)c1cc2c(cc1NC(=O)/C=C/C(=O)OCCOCCOCCOCCOC(=O)c1ccc(-c3c4nc(c(-c5c(F)c(F)c(F)c(F)c5F)c5ccc([nH]5)c(-c5c(F)c(F)c(F)c(F)c5F)c5nc(c(-c6c(F)c(F)c(F)c(F)c6F)c6ccc3[nH]6)C=C5)C=C4)cc1)OCO2
REMARK SMILES IDX 22 1 21 2 20 3 19 4 18 5 17 6 15 7 16 8 14 9 13 10 11 11
REMARK SMILES IDX 10 12 12 14 9 15 4 16 5 17 6 18 8 19 7 20 97 21 95 22 96 23
REMARK SMILES IDX 2 24 1 25 3 26 23 27 24 28 25 29 26 30 27 31 28 32 29 33
REMARK SMILES IDX 30 34 31 35 32 36 33 37 94 38 34 39 93 40 35 41 36 42 37 43
REMARK SMILES IDX 87 44 38 45 92 46 86 47 88 48 39 49 91 50 85 51 84 52 40 54
REMARK SMILES IDX 72 55 52 56 71 57 53 58 56 59 70 60 89 61 54 62 55 63 69 65
REMARK SMILES IDX 90 66 57 67 41 68 42 69 50 70 43 71 44 72 48 73 51 74 45 75
REMARK SMILES IDX 46 76 49 77 47 78 73 79 74 80 82 81 75 82 76 83 80 84 83 85
REMARK SMILES IDX 77 86 78 87 81 88 79 89 58 90 59 91 67 92 60 93 61 94 65 95
REMARK SMILES IDX 68 96 62 97 63 98 66 99 64 100
REMARK H PARENT 10 13 88 53 56 64
REMARK Flexibility Score: inf
ROOT
ATOM      1  C   UNL A   1      34.816  21.872  26.918  1.00  0.00     0.188 C 
ENDROOT
BRANCH   1   2
ATOM      2  C   UNL A   1      34.262  20.867  25.878  1.00  0.00     0.188 C 
BRANCH   2   3
ATOM      3  O   UNL A   1      33.123  21.305  25.159  1.00  0.00    -0.376 OA
BRANCH   3   4
ATOM      4  C   UNL A   1      33.353  21.854  23.873  1.00  0.00     0.202 C 
BRANCH   4   5
ATOM      5  C   UNL A   1      32.146  21.816  22.926  1.00  0.00     0.261 C 
BRANCH   5   6
ATOM      6  O   UNL A   1      30.952  22.430  23.451  1.00  0.00    -0.460 OA
BRANCH   6   7
ATOM      7  C   UNL A   1      31.072  23.694  23.917  1.00  0.00     0.331 C 
ATOM      8  O   UNL A   1      31.018  24.029  25.089  1.00  0.00    -0.247 OA
BRANCH   7   9
ATOM      9  C   UNL A   1      31.418  24.650  22.838  1.00  0.00     0.099 C 
ATOM     10  C   UNL A   1      32.577  25.325  22.758  1.00  0.00     0.079 C 
BRANCH  10  11
ATOM     11  C   UNL A   1      32.843  26.366  21.738  1.00  0.00     0.248 C 
ATOM     12  N   UNL A   1      32.720  27.705  21.995  1.00  0.00    -0.322 N 
ATOM     13  H   UNL A   1      32.784  28.260  21.183  1.00  0.00     0.170 HD
ATOM     14  O   UNL A   1      33.199  25.989  20.621  1.00  0.00    -0.270 OA
BRANCH  12  15
ATOM     15  C   UNL A   1      32.522  28.470  23.171  1.00  0.00     0.056 A 
ATOM     16  C   UNL A   1      31.242  29.011  23.477  1.00  0.00     0.045 A 
ATOM     17  C   UNL A   1      30.980  29.596  24.732  1.00  0.00     0.064 A 
ATOM     18  C   UNL A   1      32.021  29.694  25.626  1.00  0.00     0.166 A 
ATOM     19  C   UNL A   1      33.559  28.734  24.059  1.00  0.00     0.077 A 
ATOM     20  C   UNL A   1      33.284  29.306  25.281  1.00  0.00     0.167 A 
ATOM     21  O   UNL A   1      31.962  30.189  26.890  1.00  0.00    -0.454 OA
ATOM     22  O   UNL A   1      34.190  29.528  26.268  1.00  0.00    -0.454 OA
ATOM     23  C   UNL A   1      33.327  29.994  27.325  1.00  0.00     0.468 C 
BRANCH  16  24
ATOM     24  C   UNL A   1      30.166  29.017  22.450  1.00  0.00     0.162 C 
ATOM     25  C   UNL A   1      28.904  28.249  22.756  1.00  0.00     0.093 C 
ATOM     26  O   UNL A   1      30.280  29.717  21.448  1.00  0.00    -0.294 OA
ENDBRANCH  16  24
ENDBRANCH  12  15
ENDBRANCH  10  11
ENDBRANCH   7   9
ENDBRANCH   6   7
ENDBRANCH   5   6
ENDBRANCH   4   5
ENDBRANCH   3   4
ENDBRANCH   2   3
ENDBRANCH   1   2
BRANCH   1  27
ATOM     27  O   UNL A   1      34.908  23.266  26.664  1.00  0.00    -0.377 OA
BRANCH  27  28
ATOM     28  C   UNL A   1      35.810  23.729  25.675  1.00  0.00     0.188 C 
BRANCH  28  29
ATOM     29  C   UNL A   1      37.271  23.239  25.746  1.00  0.00     0.188 C 
BRANCH  29  30
ATOM     30  O   UNL A   1      37.573  22.222  24.801  1.00  0.00    -0.376 OA
BRANCH  30  31
ATOM     31  C   UNL A   1      38.140  21.023  25.302  1.00  0.00     0.202 C 
BRANCH  31  32
ATOM     32  C   UNL A   1      39.463  21.124  26.079  1.00  0.00     0.261 C 
BRANCH  32  33
ATOM     33  O   UNL A   1      40.048  19.889  26.519  1.00  0.00    -0.460 OA
BRANCH  33  34
ATOM     34  C   UNL A   1      41.352  19.674  26.253  1.00  0.00     0.338 C 
ATOM     35  O   UNL A   1      41.852  18.684  25.746  1.00  0.00    -0.246 OA
BRANCH  34  36
ATOM     36  C   UNL A   1      42.063  20.946  26.504  1.00  0.00     0.060 A 
ATOM     37  C   UNL A   1      42.270  21.368  27.825  1.00  0.00     0.016 A 
ATOM     38  C   UNL A   1      42.573  21.690  25.436  1.00  0.00     0.016 A 
ATOM     39  C   UNL A   1      42.982  22.542  28.081  1.00  0.00     0.010 A 
ATOM     40  C   UNL A   1      43.257  22.881  25.693  1.00  0.00     0.010 A 
ATOM     41  C   UNL A   1      43.442  23.325  27.014  1.00  0.00    -0.014 A 
BRANCH  41  42
ATOM     42  C   UNL A   1      43.931  24.701  27.266  1.00  0.00     0.031 A 
ATOM     43  C   UNL A   1      42.936  25.733  27.716  1.00  0.00     0.074 A 
ATOM     44  C   UNL A   1      45.223  25.033  27.104  1.00  0.00     0.049 A 
ATOM     45  N   UNL A   1      43.101  27.009  27.951  1.00  0.00    -0.248 NA
ATOM     46  C   UNL A   1      41.559  25.255  27.923  1.00  0.00     0.031 C 
ATOM     47  C   UNL A   1      46.289  24.115  26.713  1.00  0.00     0.029 A 
ATOM     48  N   UNL A   1      45.851  26.246  27.243  1.00  0.00    -0.354 N 
ATOM     49  C   UNL A   1      41.852  27.486  28.322  1.00  0.00     0.074 A 
ATOM     50  C   UNL A   1      40.932  26.372  28.251  1.00  0.00     0.031 C 
ATOM     51  C   UNL A   1      47.444  24.801  26.636  1.00  0.00     0.029 A 
ATOM     52  C   UNL A   1      47.189  26.209  26.936  1.00  0.00     0.049 A 
ATOM     53  H   UNL A   1      45.387  27.064  27.534  1.00  0.00     0.167 HD
ATOM     54  C   UNL A   1      41.503  28.740  28.695  1.00  0.00     0.037 A 
ATOM     55  C   UNL A   1      48.094  27.207  26.884  1.00  0.00     0.037 A 
ATOM     56  C   UNL A   1      42.421  29.847  28.753  1.00  0.00     0.049 A 
ATOM     57  C   UNL A   1      47.664  28.614  27.216  1.00  0.00     0.074 A 
ATOM     58  C   UNL A   1      42.176  31.151  29.144  1.00  0.00     0.029 A 
ATOM     59  N   UNL A   1      43.759  29.784  28.388  1.00  0.00    -0.354 N 
ATOM     60  N   UNL A   1      46.492  29.056  27.604  1.00  0.00    -0.248 NA
ATOM     61  C   UNL A   1      48.688  29.663  27.100  1.00  0.00     0.031 C 
ATOM     62  C   UNL A   1      43.347  31.892  28.951  1.00  0.00     0.029 A 
ATOM     63  C   UNL A   1      44.342  31.035  28.507  1.00  0.00     0.049 A 
ATOM     64  H   UNL A   1      44.224  28.969  28.090  1.00  0.00     0.167 HD
ATOM     65  C   UNL A   1      46.643  30.422  27.808  1.00  0.00     0.074 A 
ATOM     66  C   UNL A   1      48.026  30.735  27.512  1.00  0.00     0.031 C 
ATOM     67  C   UNL A   1      45.721  31.333  28.209  1.00  0.00     0.037 A 
BRANCH  54  68
ATOM     68  C   UNL A   1      40.057  28.984  29.020  1.00  0.00     0.064 A 
ATOM     69  C   UNL A   1      39.560  28.879  30.328  1.00  0.00     0.173 A 
ATOM     70  C   UNL A   1      39.152  29.321  28.002  1.00  0.00     0.173 A 
ATOM     71  F   UNL A   1      40.378  28.544  31.337  1.00  0.00    -0.203 F 
ATOM     72  C   UNL A   1      38.206  29.062  30.598  1.00  0.00     0.198 A 
ATOM     73  C   UNL A   1      37.805  29.540  28.280  1.00  0.00     0.198 A 
ATOM     74  F   UNL A   1      39.573  29.438  26.733  1.00  0.00    -0.203 F 
ATOM     75  F   UNL A   1      37.743  28.888  31.843  1.00  0.00    -0.200 F 
ATOM     76  C   UNL A   1      37.331  29.397  29.575  1.00  0.00     0.200 A 
ATOM     77  F   UNL A   1      36.965  29.877  27.293  1.00  0.00    -0.200 F 
ATOM     78  F   UNL A   1      36.028  29.571  29.836  1.00  0.00    -0.200 F 
ENDBRANCH  54  68
BRANCH  55  79
ATOM     79  C   UNL A   1      49.501  26.912  26.504  1.00  0.00     0.064 A 
ATOM     80  C   UNL A   1      50.453  26.575  27.476  1.00  0.00     0.173 A 
ATOM     81  C   UNL A   1      49.924  26.964  25.168  1.00  0.00     0.173 A 
ATOM     82  F   UNL A   1      50.106  26.540  28.771  1.00  0.00    -0.203 F 
ATOM     83  C   UNL A   1      51.777  26.309  27.127  1.00  0.00     0.198 A 
ATOM     84  C   UNL A   1      51.240  26.671  24.816  1.00  0.00     0.198 A 
ATOM     85  F   UNL A   1      49.054  27.289  24.200  1.00  0.00    -0.203 F 
ATOM     86  F   UNL A   1      52.675  26.028  28.080  1.00  0.00    -0.200 F 
ATOM     87  C   UNL A   1      52.167  26.350  25.796  1.00  0.00     0.200 A 
ATOM     88  F   UNL A   1      51.610  26.700  23.529  1.00  0.00    -0.200 F 
ATOM     89  F   UNL A   1      53.436  26.085  25.460  1.00  0.00    -0.200 F 
ENDBRANCH  55  79
BRANCH  67  90
ATOM     90  C   UNL A   1      46.182  32.754  28.389  1.00  0.00     0.064 A 
ATOM     91  C   UNL A   1      46.088  33.700  27.357  1.00  0.00     0.173 A 
ATOM     92  C   UNL A   1      46.680  33.186  29.629  1.00  0.00     0.173 A 
ATOM     93  F   UNL A   1      45.631  33.339  26.149  1.00  0.00    -0.203 F 
ATOM     94  C   UNL A   1      46.503  35.016  27.551  1.00  0.00     0.198 A 
ATOM     95  C   UNL A   1      47.060  34.510  29.830  1.00  0.00     0.198 A 
ATOM     96  F   UNL A   1      46.783  32.326  30.653  1.00  0.00    -0.203 F 
ATOM     97  F   UNL A   1      46.452  35.889  26.535  1.00  0.00    -0.200 F 
ATOM     98  C   UNL A   1      46.979  35.422  28.789  1.00  0.00     0.200 A 
ATOM     99  F   UNL A   1      47.502  34.904  31.033  1.00  0.00    -0.200 F 
ATOM    100  F   UNL A   1      47.367  36.691  28.976  1.00  0.00    -0.200 F 
ENDBRANCH  67  90
ENDBRANCH  41  42
ENDBRANCH  34  36
ENDBRANCH  33  34
ENDBRANCH  32  33
ENDBRANCH  31  32
ENDBRANCH  30  31
ENDBRANCH  29  30
ENDBRANCH  28  29
ENDBRANCH  27  28
ENDBRANCH   1  27
TORSDOF 23
ENDMDL
MODEL 3
REMARK VINA RESULT:     -10.1      4.814      8.545
REMARK SMILES CC(=O)c1cc2c(cc1NC(=O)/C=C/C(=O)OCCOCCOCCOCCOC(=O)c1ccc(-c3c4nc(c(-c5c(F)c(F)c(F)c(F)c5F)c5ccc([nH]5)c(-c5c(F)c(F)c(F)c(F)c5F)c5nc(c(-c6c(F)c(F)c(F)c(F)c6F)c6ccc3[nH]6)C=C5)C=C4)cc1)OCO2
REMARK SMILES IDX 22 1 21 2 20 3 19 4 18 5 17 6 15 7 16 8 14 9 13 10 11 11
REMARK SMILES IDX 10 12 12 14 9 15 4 16 5 17 6 18 8 19 7 20 97 21 95 22 96 23
REMARK SMILES IDX 2 24 1 25 3 26 23 27 24 28 25 29 26 30 27 31 28 32 29 33
REMARK SMILES IDX 30 34 31 35 32 36 33 37 94 38 34 39 93 40 35 41 36 42 37 43
REMARK SMILES IDX 87 44 38 45 92 46 86 47 88 48 39 49 91 50 85 51 84 52 40 54
REMARK SMILES IDX 72 55 52 56 71 57 53 58 56 59 70 60 89 61 54 62 55 63 69 65
REMARK SMILES IDX 90 66 57 67 41 68 42 69 50 70 43 71 44 72 48 73 51 74 45 75
REMARK SMILES IDX 46 76 49 77 47 78 73 79 74 80 82 81 75 82 76 83 80 84 83 85
REMARK SMILES IDX 77 86 78 87 81 88 79 89 58 90 59 91 67 92 60 93 61 94 65 95
REMARK SMILES IDX 68 96 62 97 63 98 66 99 64 100
REMARK H PARENT 10 13 88 53 56 64
REMARK Flexibility Score: inf
ROOT
ATOM      1  C   UNL A   1      34.913  21.897  26.415  1.00  0.00     0.188 C 
ENDROOT
BRANCH   1   2
ATOM      2  C   UNL A   1      33.990  21.328  25.308  1.00  0.00     0.188 C 
BRANCH   2   3
ATOM      3  O   UNL A   1      33.385  22.294  24.468  1.00  0.00    -0.376 OA
BRANCH   3   4
ATOM      4  C   UNL A   1      34.059  22.601  23.260  1.00  0.00     0.202 C 
BRANCH   4   5
ATOM      5  C   UNL A   1      33.238  23.410  22.247  1.00  0.00     0.261 C 
BRANCH   5   6
ATOM      6  O   UNL A   1      33.471  24.832  22.284  1.00  0.00    -0.460 OA
BRANCH   6   7
ATOM      7  C   UNL A   1      32.899  25.567  21.303  1.00  0.00     0.331 C 
ATOM      8  O   UNL A   1      33.250  25.593  20.135  1.00  0.00    -0.247 OA
BRANCH   7   9
ATOM      9  C   UNL A   1      31.680  26.266  21.776  1.00  0.00     0.099 C 
ATOM     10  C   UNL A   1      31.679  27.424  22.456  1.00  0.00     0.079 C 
BRANCH  10  11
ATOM     11  C   UNL A   1      30.453  28.033  23.023  1.00  0.00     0.248 C 
ATOM     12  N   UNL A   1      30.385  28.506  24.307  1.00  0.00    -0.322 N 
ATOM     13  H   UNL A   1      29.469  28.741  24.582  1.00  0.00     0.170 HD
ATOM     14  O   UNL A   1      29.468  28.117  22.289  1.00  0.00    -0.270 OA
BRANCH  12  15
ATOM     15  C   UNL A   1      31.343  28.732  25.326  1.00  0.00     0.056 A 
ATOM     16  C   UNL A   1      31.924  27.640  26.030  1.00  0.00     0.045 A 
ATOM     17  C   UNL A   1      33.017  27.833  26.899  1.00  0.00     0.064 A 
ATOM     18  C   UNL A   1      33.458  29.120  27.102  1.00  0.00     0.166 A 
ATOM     19  C   UNL A   1      31.741  30.014  25.690  1.00  0.00     0.077 A 
ATOM     20  C   UNL A   1      32.811  30.183  26.539  1.00  0.00     0.167 A 
ATOM     21  O   UNL A   1      34.513  29.506  27.866  1.00  0.00    -0.454 OA
ATOM     22  O   UNL A   1      33.353  31.376  26.895  1.00  0.00    -0.454 OA
ATOM     23  C   UNL A   1      34.496  30.936  27.656  1.00  0.00     0.468 C 
BRANCH  16  24
ATOM     24  C   UNL A   1      31.349  26.275  25.902  1.00  0.00     0.162 C 
ATOM     25  C   UNL A   1      32.275  25.163  25.475  1.00  0.00     0.093 C 
ATOM     26  O   UNL A   1      30.188  26.065  26.243  1.00  0.00    -0.294 OA
ENDBRANCH  16  24
ENDBRANCH  12  15
ENDBRANCH  10  11
ENDBRANCH   7   9
ENDBRANCH   6   7
ENDBRANCH   5   6
ENDBRANCH   4   5
ENDBRANCH   3   4
ENDBRANCH   2   3
ENDBRANCH   1   2
BRANCH   1  27
ATOM     27  O   UNL A   1      35.171  23.286  26.558  1.00  0.00    -0.377 OA
BRANCH  27  28
ATOM     28  C   UNL A   1      36.180  23.885  25.764  1.00  0.00     0.188 C 
BRANCH  28  29
ATOM     29  C   UNL A   1      37.590  23.264  25.802  1.00  0.00     0.188 C 
BRANCH  29  30
ATOM     30  O   UNL A   1      37.763  22.194  24.884  1.00  0.00    -0.376 OA
BRANCH  30  31
ATOM     31  C   UNL A   1      38.392  21.021  25.371  1.00  0.00     0.202 C 
BRANCH  31  32
ATOM     32  C   UNL A   1      39.692  21.184  26.176  1.00  0.00     0.261 C 
BRANCH  32  33
ATOM     33  O   UNL A   1      40.344  19.977  26.599  1.00  0.00    -0.460 OA
BRANCH  33  34
ATOM     34  C   UNL A   1      41.619  19.774  26.210  1.00  0.00     0.338 C 
ATOM     35  O   UNL A   1      42.069  18.805  25.623  1.00  0.00    -0.246 OA
BRANCH  34  36
ATOM     36  C   UNL A   1      42.352  21.037  26.446  1.00  0.00     0.060 A 
ATOM     37  C   UNL A   1      42.606  21.447  27.763  1.00  0.00     0.016 A 
ATOM     38  C   UNL A   1      42.836  21.781  25.367  1.00  0.00     0.016 A 
ATOM     39  C   UNL A   1      43.339  22.612  28.003  1.00  0.00     0.010 A 
ATOM     40  C   UNL A   1      43.541  22.963  25.609  1.00  0.00     0.010 A 
ATOM     41  C   UNL A   1      43.774  23.396  26.926  1.00  0.00    -0.014 A 
BRANCH  41  42
ATOM     42  C   UNL A   1      44.286  24.765  27.171  1.00  0.00     0.031 A 
ATOM     43  C   UNL A   1      43.318  25.805  27.658  1.00  0.00     0.074 A 
ATOM     44  C   UNL A   1      45.577  25.083  26.970  1.00  0.00     0.049 A 
ATOM     45  N   UNL A   1      43.506  27.077  27.896  1.00  0.00    -0.248 NA
ATOM     46  C   UNL A   1      41.944  25.341  27.907  1.00  0.00     0.031 C 
ATOM     47  C   UNL A   1      46.619  24.156  26.539  1.00  0.00     0.029 A 
ATOM     48  N   UNL A   1      46.223  26.288  27.096  1.00  0.00    -0.354 N 
ATOM     49  C   UNL A   1      42.274  27.566  28.310  1.00  0.00     0.074 A 
ATOM     50  C   UNL A   1      41.340  26.464  28.261  1.00  0.00     0.031 C 
ATOM     51  C   UNL A   1      47.779  24.829  26.429  1.00  0.00     0.029 A 
ATOM     52  C   UNL A   1      47.550  26.238  26.746  1.00  0.00     0.049 A 
ATOM     53  H   UNL A   1      45.778  27.109  27.407  1.00  0.00     0.167 HD
ATOM     54  C   UNL A   1      41.952  28.822  28.701  1.00  0.00     0.037 A 
ATOM     55  C   UNL A   1      48.464  27.225  26.672  1.00  0.00     0.037 A 
ATOM     56  C   UNL A   1      42.884  29.918  28.737  1.00  0.00     0.049 A 
ATOM     57  C   UNL A   1      48.061  28.635  27.025  1.00  0.00     0.074 A 
ATOM     58  C   UNL A   1      42.667  31.222  29.143  1.00  0.00     0.029 A 
ATOM     59  N   UNL A   1      44.209  29.842  28.329  1.00  0.00    -0.354 N 
ATOM     60  N   UNL A   1      46.907  29.088  27.453  1.00  0.00    -0.248 NA
ATOM     61  C   UNL A   1      49.093  29.674  26.884  1.00  0.00     0.031 C 
ATOM     62  C   UNL A   1      43.840  31.951  28.918  1.00  0.00     0.029 A 
ATOM     63  C   UNL A   1      44.810  31.085  28.437  1.00  0.00     0.049 A 
ATOM     64  H   UNL A   1      44.655  29.024  28.011  1.00  0.00     0.167 HD
ATOM     65  C   UNL A   1      47.081  30.451  27.661  1.00  0.00     0.074 A 
ATOM     66  C   UNL A   1      48.457  30.750  27.323  1.00  0.00     0.031 C 
ATOM     67  C   UNL A   1      46.182  31.370  28.097  1.00  0.00     0.037 A 
BRANCH  54  68
ATOM     68  C   UNL A   1      40.520  29.080  29.074  1.00  0.00     0.064 A 
ATOM     69  C   UNL A   1      40.085  29.072  30.408  1.00  0.00     0.173 A 
ATOM     70  C   UNL A   1      39.566  29.332  28.077  1.00  0.00     0.173 A 
ATOM     71  F   UNL A   1      40.952  28.820  31.400  1.00  0.00    -0.203 F 
ATOM     72  C   UNL A   1      38.743  29.266  30.726  1.00  0.00     0.198 A 
ATOM     73  C   UNL A   1      38.231  29.562  28.400  1.00  0.00     0.198 A 
ATOM     74  F   UNL A   1      39.927  29.355  26.785  1.00  0.00    -0.203 F 
ATOM     75  F   UNL A   1      38.340  29.185  32.002  1.00  0.00    -0.200 F 
ATOM     76  C   UNL A   1      37.819  29.516  29.723  1.00  0.00     0.200 A 
ATOM     77  F   UNL A   1      37.343  29.818  27.431  1.00  0.00    -0.200 F 
ATOM     78  F   UNL A   1      36.527  29.700  30.030  1.00  0.00    -0.200 F 
ENDBRANCH  54  68
BRANCH  55  79
ATOM     79  C   UNL A   1      49.854  26.917  26.245  1.00  0.00     0.064 A 
ATOM     80  C   UNL A   1      50.223  26.981  24.893  1.00  0.00     0.173 A 
ATOM     81  C   UNL A   1      50.840  26.551  27.172  1.00  0.00     0.173 A 
ATOM     82  F   UNL A   1      49.309  27.298  23.964  1.00  0.00    -0.203 F 
ATOM     83  C   UNL A   1      51.522  26.682  24.485  1.00  0.00     0.198 A 
ATOM     84  C   UNL A   1      52.145  26.279  26.767  1.00  0.00     0.198 A 
ATOM     85  F   UNL A   1      50.538  26.468  28.476  1.00  0.00    -0.203 F 
ATOM     86  F   UNL A   1      51.837  26.713  23.183  1.00  0.00    -0.200 F 
ATOM     87  C   UNL A   1      52.484  26.339  25.424  1.00  0.00     0.200 A 
ATOM     88  F   UNL A   1      53.076  25.960  27.678  1.00  0.00    -0.200 F 
ATOM     89  F   UNL A   1      53.735  26.061  25.032  1.00  0.00    -0.200 F 
ENDBRANCH  55  79
BRANCH  67  90
ATOM     90  C   UNL A   1      46.665  32.784  28.271  1.00  0.00     0.064 A 
ATOM     91  C   UNL A   1      47.274  33.219  29.458  1.00  0.00     0.173 A 
ATOM     92  C   UNL A   1      46.558  33.705  27.216  1.00  0.00     0.173 A 
ATOM     93  F   UNL A   1      47.391  32.385  30.502  1.00  0.00    -0.203 F 
ATOM     94  C   UNL A   1      47.731  34.528  29.591  1.00  0.00     0.198 A 
ATOM     95  C   UNL A   1      47.048  35.002  27.340  1.00  0.00     0.198 A 
ATOM     96  F   UNL A   1      45.992  33.341  26.055  1.00  0.00    -0.203 F 
ATOM     97  F   UNL A   1      48.262  34.935  30.753  1.00  0.00    -0.200 F 
ATOM     98  C   UNL A   1      47.626  35.415  28.529  1.00  0.00     0.200 A 
ATOM     99  F   UNL A   1      46.962  35.851  26.306  1.00  0.00    -0.200 F 
ATOM    100  F   UNL A   1      48.077  36.671  28.657  1.00  0.00    -0.200 F 
ENDBRANCH  67  90
ENDBRANCH  41  42
ENDBRANCH  34  36
ENDBRANCH  33  34
ENDBRANCH  32  33
ENDBRANCH  31  32
ENDBRANCH  30  31
ENDBRANCH  29  30
ENDBRANCH  28  29
ENDBRANCH  27  28
ENDBRANCH   1  27
TORSDOF 23
ENDMDL
