MODEL 1
REMARK VINA RESULT:     -10.9      0.000      0.000
REMARK SMILES Cc1cc(Br)cc2c1O[C@H](C(F)(F)F)C(C(=O)OCCOCCOCCOCCOC(=O)c1ccc(-c3c4nc(c(-c5c(F)c(F)c(F)c(F)c5F)c5ccc([nH]5)c(-c5c(F)c(F)c(F)c(F)c5F)c5nc(c(-c6c(F)c(F)c(F)c(F)c6F)c6ccc3[nH]6)C=C5)C=C4)cc1)=C2
REMARK SMILES IDX 25 1 24 2 23 3 22 4 21 5 20 6 19 7 18 8 16 9 17 10 15 11
REMARK SMILES IDX 1 12 2 13 3 14 8 15 4 16 7 17 9 18 5 19 6 20 96 21 10 22
REMARK SMILES IDX 11 23 12 24 13 25 14 26 26 27 27 28 28 29 29 30 30 31 31 32
REMARK SMILES IDX 32 33 33 34 34 35 95 36 35 37 94 38 36 39 37 40 38 41 88 42
REMARK SMILES IDX 39 43 93 44 87 45 89 46 40 47 92 48 86 49 85 50 41 52 73 53
REMARK SMILES IDX 53 54 72 55 54 56 57 57 71 58 90 59 55 60 56 61 70 63 91 64
REMARK SMILES IDX 58 65 42 66 43 67 51 68 44 69 45 70 49 71 52 72 46 73 47 74
REMARK SMILES IDX 50 75 48 76 74 77 75 78 83 79 76 80 77 81 81 82 84 83 78 84
REMARK SMILES IDX 79 85 82 86 80 87 59 88 60 89 68 90 61 91 62 92 66 93 69 94
REMARK SMILES IDX 63 95 64 96 67 97 65 98
REMARK H PARENT 89 51 57 62
REMARK Flexibility Score: inf
ROOT
ATOM      1  C   UNL A   1      32.701  29.191  25.002  1.00  0.00     0.188 C 
ENDROOT
BRANCH   1   2
ATOM      2  O   UNL A   1      33.301  29.373  23.717  1.00  0.00    -0.377 OA
BRANCH   2   3
ATOM      3  C   UNL A   1      34.069  28.306  23.180  1.00  0.00     0.188 C 
BRANCH   3   4
ATOM      4  C   UNL A   1      33.268  27.388  22.233  1.00  0.00     0.188 C 
BRANCH   4   5
ATOM      5  O   UNL A   1      33.017  26.109  22.794  1.00  0.00    -0.376 OA
BRANCH   5   6
ATOM      6  C   UNL A   1      31.779  25.458  22.566  1.00  0.00     0.202 C 
BRANCH   6   7
ATOM      7  C   UNL A   1      30.792  25.148  23.706  1.00  0.00     0.261 C 
BRANCH   7   8
ATOM      8  O   UNL A   1      30.610  23.773  24.052  1.00  0.00    -0.460 OA
BRANCH   8   9
ATOM      9  C   UNL A   1      31.014  23.374  25.272  1.00  0.00     0.338 C 
ATOM     10  O   UNL A   1      30.464  23.603  26.334  1.00  0.00    -0.246 OA
BRANCH   9  11
ATOM     11  C   UNL A   1      32.159  22.455  25.085  1.00  0.00     0.087 C 
ATOM     12  C   UNL A   1      36.814  20.265  24.870  1.00  0.00     0.048 C 
ATOM     13  C   UNL A   1      35.383  19.809  24.770  1.00  0.00    -0.007 A 
ATOM     14  C   UNL A   1      35.123  18.431  24.716  1.00  0.00     0.023 A 
ATOM     15  C   UNL A   1      34.303  20.708  24.790  1.00  0.00     0.130 A 
ATOM     16  C   UNL A   1      33.812  17.964  24.664  1.00  0.00     0.019 A 
ATOM     17  C   UNL A   1      32.988  20.229  24.793  1.00  0.00     0.019 A 
ATOM     18  O   UNL A   1      34.606  22.039  24.820  1.00  0.00    -0.475 OA
ATOM     19  Br  UNL A   1      33.479  16.104  24.597  1.00  0.00    -0.051 Br
ATOM     20  C   UNL A   1      32.743  18.855  24.699  1.00  0.00     0.027 A 
ATOM     21  C   UNL A   1      31.879  21.151  24.972  1.00  0.00     0.027 C 
ATOM     22  C   UNL A   1      33.547  23.024  24.952  1.00  0.00     0.316 C 
BRANCH  22  23
ATOM     23  C   UNL A   1      33.915  23.947  26.121  1.00  0.00     0.430 C 
ATOM     24  F   UNL A   1      33.720  23.334  27.313  1.00  0.00    -0.167 F 
ATOM     25  F   UNL A   1      35.216  24.319  26.088  1.00  0.00    -0.167 F 
ATOM     26  F   UNL A   1      33.173  25.078  26.120  1.00  0.00    -0.167 F 
ENDBRANCH  22  23
ENDBRANCH   9  11
ENDBRANCH   8   9
ENDBRANCH   7   8
ENDBRANCH   6   7
ENDBRANCH   5   6
ENDBRANCH   4   5
ENDBRANCH   3   4
ENDBRANCH   2   3
ENDBRANCH   1   2
BRANCH   1  27
ATOM     27  C   UNL A   1      31.404  29.925  25.430  1.00  0.00     0.188 C 
BRANCH  27  28
ATOM     28  O   UNL A   1      31.621  31.131  26.147  1.00  0.00    -0.376 OA
BRANCH  28  29
ATOM     29  C   UNL A   1      32.629  31.144  27.143  1.00  0.00     0.202 C 
BRANCH  29  30
ATOM     30  C   UNL A   1      33.307  32.499  27.383  1.00  0.00     0.261 C 
BRANCH  30  31
ATOM     31  O   UNL A   1      32.446  33.551  27.844  1.00  0.00    -0.460 OA
BRANCH  31  32
ATOM     32  C   UNL A   1      33.019  34.587  28.491  1.00  0.00     0.338 C 
ATOM     33  O   UNL A   1      32.594  35.725  28.591  1.00  0.00    -0.246 OA
BRANCH  32  34
ATOM     34  C   UNL A   1      34.179  34.055  29.235  1.00  0.00     0.060 A 
ATOM     35  C   UNL A   1      35.473  34.364  28.795  1.00  0.00     0.016 A 
ATOM     36  C   UNL A   1      33.986  33.270  30.374  1.00  0.00     0.016 A 
ATOM     37  C   UNL A   1      36.580  33.862  29.478  1.00  0.00     0.010 A 
ATOM     38  C   UNL A   1      35.095  32.746  31.043  1.00  0.00     0.010 A 
ATOM     39  C   UNL A   1      36.394  33.012  30.577  1.00  0.00    -0.014 A 
BRANCH  39  40
ATOM     40  C   UNL A   1      37.539  32.227  31.098  1.00  0.00     0.031 A 
ATOM     41  C   UNL A   1      38.031  32.536  32.484  1.00  0.00     0.074 A 
ATOM     42  C   UNL A   1      38.107  31.244  30.378  1.00  0.00     0.049 A 
ATOM     43  N   UNL A   1      39.033  32.020  33.147  1.00  0.00    -0.248 NA
ATOM     44  C   UNL A   1      37.286  33.566  33.228  1.00  0.00     0.031 C 
ATOM     45  C   UNL A   1      37.683  30.815  29.048  1.00  0.00     0.029 A 
ATOM     46  N   UNL A   1      39.172  30.427  30.674  1.00  0.00    -0.354 N 
ATOM     47  C   UNL A   1      39.036  32.657  34.380  1.00  0.00     0.074 A 
ATOM     48  C   UNL A   1      37.962  33.624  34.365  1.00  0.00     0.031 C 
ATOM     49  C   UNL A   1      38.484  29.814  28.639  1.00  0.00     0.029 A 
ATOM     50  C   UNL A   1      39.495  29.556  29.664  1.00  0.00     0.049 A 
ATOM     51  H   UNL A   1      39.657  30.464  31.530  1.00  0.00     0.167 HD
ATOM     52  C   UNL A   1      39.852  32.442  35.437  1.00  0.00     0.037 A 
ATOM     53  C   UNL A   1      40.505  28.667  29.574  1.00  0.00     0.037 A 
ATOM     54  C   UNL A   1      40.923  31.483  35.448  1.00  0.00     0.049 A 
ATOM     55  C   UNL A   1      41.467  28.521  30.729  1.00  0.00     0.074 A 
ATOM     56  C   UNL A   1      41.808  31.195  36.471  1.00  0.00     0.029 A 
ATOM     57  N   UNL A   1      41.255  30.659  34.384  1.00  0.00    -0.354 N 
ATOM     58  N   UNL A   1      41.457  29.118  31.896  1.00  0.00    -0.248 NA
ATOM     59  C   UNL A   1      42.583  27.578  30.552  1.00  0.00     0.031 C 
ATOM     60  C   UNL A   1      42.711  30.236  36.008  1.00  0.00     0.029 A 
ATOM     61  C   UNL A   1      42.352  29.881  34.717  1.00  0.00     0.049 A 
ATOM     62  H   UNL A   1      40.783  30.632  33.520  1.00  0.00     0.167 HD
ATOM     63  C   UNL A   1      42.540  28.604  32.600  1.00  0.00     0.074 A 
ATOM     64  C   UNL A   1      43.178  27.635  31.735  1.00  0.00     0.031 C 
ATOM     65  C   UNL A   1      42.969  28.911  33.849  1.00  0.00     0.037 A 
BRANCH  52  66
ATOM     66  C   UNL A   1      39.629  33.264  36.671  1.00  0.00     0.064 A 
ATOM     67  C   UNL A   1      38.796  32.819  37.707  1.00  0.00     0.173 A 
ATOM     68  C   UNL A   1      40.313  34.477  36.850  1.00  0.00     0.173 A 
ATOM     69  F   UNL A   1      38.107  31.676  37.575  1.00  0.00    -0.203 F 
ATOM     70  C   UNL A   1      38.649  33.561  38.876  1.00  0.00     0.198 A 
ATOM     71  C   UNL A   1      40.186  35.201  38.032  1.00  0.00     0.198 A 
ATOM     72  F   UNL A   1      41.121  34.946  35.889  1.00  0.00    -0.203 F 
ATOM     73  F   UNL A   1      37.824  33.131  39.841  1.00  0.00    -0.200 F 
ATOM     74  C   UNL A   1      39.354  34.744  39.043  1.00  0.00     0.200 A 
ATOM     75  F   UNL A   1      40.878  36.337  38.197  1.00  0.00    -0.200 F 
ATOM     76  F   UNL A   1      39.229  35.445  40.178  1.00  0.00    -0.200 F 
ENDBRANCH  52  66
BRANCH  53  77
ATOM     77  C   UNL A   1      40.665  27.841  28.347  1.00  0.00     0.064 A 
ATOM     78  C   UNL A   1      40.080  26.571  28.249  1.00  0.00     0.173 A 
ATOM     79  C   UNL A   1      41.420  28.296  27.254  1.00  0.00     0.173 A 
ATOM     80  F   UNL A   1      39.374  26.079  29.277  1.00  0.00    -0.203 F 
ATOM     81  C   UNL A   1      40.250  25.784  27.111  1.00  0.00     0.198 A 
ATOM     82  C   UNL A   1      41.565  27.520  26.105  1.00  0.00     0.198 A 
ATOM     83  F   UNL A   1      42.010  29.498  27.298  1.00  0.00    -0.203 F 
ATOM     84  F   UNL A   1      39.716  24.556  27.063  1.00  0.00    -0.200 F 
ATOM     85  C   UNL A   1      40.986  26.261  26.038  1.00  0.00     0.200 A 
ATOM     86  F   UNL A   1      42.269  27.990  25.066  1.00  0.00    -0.200 F 
ATOM     87  F   UNL A   1      41.144  25.507  24.942  1.00  0.00    -0.200 F 
ENDBRANCH  53  77
BRANCH  65  88
ATOM     88  C   UNL A   1      44.168  28.180  34.381  1.00  0.00     0.064 A 
ATOM     89  C   UNL A   1      44.044  26.952  35.046  1.00  0.00     0.173 A 
ATOM     90  C   UNL A   1      45.463  28.668  34.140  1.00  0.00     0.173 A 
ATOM     91  F   UNL A   1      42.830  26.446  35.309  1.00  0.00    -0.203 F 
ATOM     92  C   UNL A   1      45.171  26.246  35.462  1.00  0.00     0.198 A 
ATOM     93  C   UNL A   1      46.587  27.944  34.527  1.00  0.00     0.198 A 
ATOM     94  F   UNL A   1      45.639  29.832  33.496  1.00  0.00    -0.203 F 
ATOM     95  F   UNL A   1      45.027  25.090  36.125  1.00  0.00    -0.200 F 
ATOM     96  C   UNL A   1      46.440  26.735  35.191  1.00  0.00     0.200 A 
ATOM     97  F   UNL A   1      47.812  28.408  34.246  1.00  0.00    -0.200 F 
ATOM     98  F   UNL A   1      47.522  26.043  35.573  1.00  0.00    -0.200 F 
ENDBRANCH  65  88
ENDBRANCH  39  40
ENDBRANCH  32  34
ENDBRANCH  31  32
ENDBRANCH  30  31
ENDBRANCH  29  30
ENDBRANCH  28  29
ENDBRANCH  27  28
ENDBRANCH   1  27
TORSDOF 21
ENDMDL
MODEL 2
REMARK VINA RESULT:     -10.9      3.621      9.605
REMARK SMILES Cc1cc(Br)cc2c1O[C@H](C(F)(F)F)C(C(=O)OCCOCCOCCOCCOC(=O)c1ccc(-c3c4nc(c(-c5c(F)c(F)c(F)c(F)c5F)c5ccc([nH]5)c(-c5c(F)c(F)c(F)c(F)c5F)c5nc(c(-c6c(F)c(F)c(F)c(F)c6F)c6ccc3[nH]6)C=C5)C=C4)cc1)=C2
REMARK SMILES IDX 25 1 24 2 23 3 22 4 21 5 20 6 19 7 18 8 16 9 17 10 15 11
REMARK SMILES IDX 1 12 2 13 3 14 8 15 4 16 7 17 9 18 5 19 6 20 96 21 10 22
REMARK SMILES IDX 11 23 12 24 13 25 14 26 26 27 27 28 28 29 29 30 30 31 31 32
REMARK SMILES IDX 32 33 33 34 34 35 95 36 35 37 94 38 36 39 37 40 38 41 88 42
REMARK SMILES IDX 39 43 93 44 87 45 89 46 40 47 92 48 86 49 85 50 41 52 73 53
REMARK SMILES IDX 53 54 72 55 54 56 57 57 71 58 90 59 55 60 56 61 70 63 91 64
REMARK SMILES IDX 58 65 42 66 43 67 51 68 44 69 45 70 49 71 52 72 46 73 47 74
REMARK SMILES IDX 50 75 48 76 74 77 75 78 83 79 76 80 77 81 81 82 84 83 78 84
REMARK SMILES IDX 79 85 82 86 80 87 59 88 60 89 68 90 61 91 62 92 66 93 69 94
REMARK SMILES IDX 63 95 64 96 67 97 65 98
REMARK H PARENT 89 51 57 62
REMARK Flexibility Score: inf
ROOT
ATOM      1  C   UNL A   1      43.065  19.446  25.508  1.00  0.00     0.188 C 
ENDROOT
BRANCH   1   2
ATOM      2  O   UNL A   1      42.055  19.470  26.520  1.00  0.00    -0.377 OA
BRANCH   2   3
ATOM      3  C   UNL A   1      40.787  20.016  26.187  1.00  0.00     0.188 C 
BRANCH   3   4
ATOM      4  C   UNL A   1      40.548  21.420  26.780  1.00  0.00     0.188 C 
BRANCH   4   5
ATOM      5  O   UNL A   1      39.321  21.991  26.356  1.00  0.00    -0.376 OA
BRANCH   5   6
ATOM      6  C   UNL A   1      39.091  23.382  26.501  1.00  0.00     0.202 C 
BRANCH   6   7
ATOM      7  C   UNL A   1      37.745  24.035  26.133  1.00  0.00     0.261 C 
BRANCH   7   8
ATOM      8  O   UNL A   1      36.766  23.198  25.511  1.00  0.00    -0.460 OA
BRANCH   8   9
ATOM      9  C   UNL A   1      35.518  23.217  26.011  1.00  0.00     0.338 C 
ATOM     10  O   UNL A   1      35.134  22.681  27.036  1.00  0.00    -0.246 OA
BRANCH   9  11
ATOM     11  C   UNL A   1      34.720  24.153  25.188  1.00  0.00     0.087 C 
ATOM     12  C   UNL A   1      31.712  26.350  21.634  1.00  0.00     0.048 C 
ATOM     13  C   UNL A   1      32.287  26.733  22.970  1.00  0.00    -0.007 A 
ATOM     14  C   UNL A   1      31.873  27.940  23.554  1.00  0.00     0.023 A 
ATOM     15  C   UNL A   1      33.173  25.901  23.675  1.00  0.00     0.130 A 
ATOM     16  C   UNL A   1      32.349  28.315  24.809  1.00  0.00     0.019 A 
ATOM     17  C   UNL A   1      33.604  26.258  24.958  1.00  0.00     0.019 A 
ATOM     18  O   UNL A   1      33.565  24.749  23.057  1.00  0.00    -0.475 OA
ATOM     19  Br  UNL A   1      31.777  29.941  25.584  1.00  0.00    -0.051 Br
ATOM     20  C   UNL A   1      33.215  27.482  25.513  1.00  0.00     0.027 A 
ATOM     21  C   UNL A   1      34.392  25.325  25.746  1.00  0.00     0.027 C 
ATOM     22  C   UNL A   1      34.391  23.787  23.764  1.00  0.00     0.316 C 
BRANCH  22  23
ATOM     23  C   UNL A   1      33.706  22.418  23.656  1.00  0.00     0.430 C 
ATOM     24  F   UNL A   1      34.573  21.411  23.920  1.00  0.00    -0.167 F 
ATOM     25  F   UNL A   1      32.685  22.288  24.534  1.00  0.00    -0.167 F 
ATOM     26  F   UNL A   1      33.203  22.206  22.418  1.00  0.00    -0.167 F 
ENDBRANCH  22  23
ENDBRANCH   9  11
ENDBRANCH   8   9
ENDBRANCH   7   8
ENDBRANCH   6   7
ENDBRANCH   5   6
ENDBRANCH   4   5
ENDBRANCH   3   4
ENDBRANCH   2   3
ENDBRANCH   1   2
BRANCH   1  27
ATOM     27  C   UNL A   1      44.127  20.566  25.361  1.00  0.00     0.188 C 
BRANCH  27  28
ATOM     28  O   UNL A   1      44.511  20.839  24.021  1.00  0.00    -0.376 OA
BRANCH  28  29
ATOM     29  C   UNL A   1      44.620  22.193  23.620  1.00  0.00     0.202 C 
BRANCH  29  30
ATOM     30  C   UNL A   1      43.789  23.195  24.432  1.00  0.00     0.261 C 
BRANCH  30  31
ATOM     31  O   UNL A   1      44.506  24.333  24.934  1.00  0.00    -0.460 OA
BRANCH  31  32
ATOM     32  C   UNL A   1      45.083  24.218  26.149  1.00  0.00     0.338 C 
ATOM     33  O   UNL A   1      46.126  23.648  26.423  1.00  0.00    -0.246 OA
BRANCH  32  34
ATOM     34  C   UNL A   1      44.323  25.075  27.081  1.00  0.00     0.060 A 
ATOM     35  C   UNL A   1      44.650  26.434  27.180  1.00  0.00     0.016 A 
ATOM     36  C   UNL A   1      43.280  24.539  27.840  1.00  0.00     0.016 A 
ATOM     37  C   UNL A   1      43.952  27.257  28.062  1.00  0.00     0.010 A 
ATOM     38  C   UNL A   1      42.598  25.358  28.742  1.00  0.00     0.010 A 
ATOM     39  C   UNL A   1      42.954  26.711  28.882  1.00  0.00    -0.014 A 
BRANCH  39  40
ATOM     40  C   UNL A   1      42.442  27.494  30.032  1.00  0.00     0.031 A 
ATOM     41  C   UNL A   1      41.188  28.299  29.832  1.00  0.00     0.074 A 
ATOM     42  C   UNL A   1      43.049  27.467  31.231  1.00  0.00     0.049 A 
ATOM     43  N   UNL A   1      40.565  29.091  30.666  1.00  0.00    -0.248 NA
ATOM     44  C   UNL A   1      40.545  28.191  28.511  1.00  0.00     0.031 C 
ATOM     45  C   UNL A   1      44.235  26.683  31.562  1.00  0.00     0.029 A 
ATOM     46  N   UNL A   1      42.743  28.127  32.397  1.00  0.00    -0.354 N 
ATOM     47  C   UNL A   1      39.461  29.570  29.974  1.00  0.00     0.074 A 
ATOM     48  C   UNL A   1      39.515  29.013  28.641  1.00  0.00     0.031 C 
ATOM     49  C   UNL A   1      44.560  26.909  32.848  1.00  0.00     0.029 A 
ATOM     50  C   UNL A   1      43.626  27.879  33.418  1.00  0.00     0.049 A 
ATOM     51  H   UNL A   1      41.963  28.721  32.491  1.00  0.00     0.167 HD
ATOM     52  C   UNL A   1      38.480  30.389  30.417  1.00  0.00     0.037 A 
ATOM     53  C   UNL A   1      43.680  28.394  34.663  1.00  0.00     0.037 A 
ATOM     54  C   UNL A   1      38.431  30.946  31.741  1.00  0.00     0.049 A 
ATOM     55  C   UNL A   1      42.630  29.388  35.099  1.00  0.00     0.074 A 
ATOM     56  C   UNL A   1      37.479  31.791  32.283  1.00  0.00     0.029 A 
ATOM     57  N   UNL A   1      39.376  30.717  32.729  1.00  0.00    -0.354 N 
ATOM     58  N   UNL A   1      41.583  29.828  34.444  1.00  0.00    -0.248 NA
ATOM     59  C   UNL A   1      42.773  29.960  36.447  1.00  0.00     0.031 C 
ATOM     60  C   UNL A   1      37.876  32.117  33.582  1.00  0.00     0.029 A 
ATOM     61  C   UNL A   1      39.043  31.427  33.871  1.00  0.00     0.049 A 
ATOM     62  H   UNL A   1      40.165  30.136  32.634  1.00  0.00     0.167 HD
ATOM     63  C   UNL A   1      40.929  30.700  35.307  1.00  0.00     0.074 A 
ATOM     64  C   UNL A   1      41.689  30.717  36.538  1.00  0.00     0.031 C 
ATOM     65  C   UNL A   1      39.803  31.424  35.095  1.00  0.00     0.037 A 
BRANCH  52  66
ATOM     66  C   UNL A   1      37.381  30.745  29.461  1.00  0.00     0.064 A 
ATOM     67  C   UNL A   1      36.360  29.836  29.148  1.00  0.00     0.173 A 
ATOM     68  C   UNL A   1      37.308  32.033  28.908  1.00  0.00     0.173 A 
ATOM     69  F   UNL A   1      36.395  28.587  29.637  1.00  0.00    -0.203 F 
ATOM     70  C   UNL A   1      35.309  30.201  28.311  1.00  0.00     0.198 A 
ATOM     71  C   UNL A   1      36.241  32.403  28.095  1.00  0.00     0.198 A 
ATOM     72  F   UNL A   1      38.260  32.938  29.176  1.00  0.00    -0.203 F 
ATOM     73  F   UNL A   1      34.361  29.306  28.001  1.00  0.00    -0.200 F 
ATOM     74  C   UNL A   1      35.244  31.486  27.796  1.00  0.00     0.200 A 
ATOM     75  F   UNL A   1      36.173  33.649  27.609  1.00  0.00    -0.200 F 
ATOM     76  F   UNL A   1      34.219  31.843  27.008  1.00  0.00    -0.200 F 
ENDBRANCH  52  66
BRANCH  53  77
ATOM     77  C   UNL A   1      44.765  27.982  35.594  1.00  0.00     0.064 A 
ATOM     78  C   UNL A   1      45.965  28.704  35.670  1.00  0.00     0.173 A 
ATOM     79  C   UNL A   1      44.634  26.850  36.414  1.00  0.00     0.173 A 
ATOM     80  F   UNL A   1      46.151  29.775  34.886  1.00  0.00    -0.203 F 
ATOM     81  C   UNL A   1      46.994  28.305  36.521  1.00  0.00     0.198 A 
ATOM     82  C   UNL A   1      45.652  26.470  37.286  1.00  0.00     0.198 A 
ATOM     83  F   UNL A   1      43.512  26.118  36.374  1.00  0.00    -0.203 F 
ATOM     84  F   UNL A   1      48.147  28.989  36.541  1.00  0.00    -0.200 F 
ATOM     85  C   UNL A   1      46.834  27.193  37.334  1.00  0.00     0.200 A 
ATOM     86  F   UNL A   1      45.490  25.400  38.077  1.00  0.00    -0.200 F 
ATOM     87  F   UNL A   1      47.822  26.815  38.156  1.00  0.00    -0.200 F 
ENDBRANCH  53  77
BRANCH  65  88
ATOM     88  C   UNL A   1      39.294  32.281  36.219  1.00  0.00     0.064 A 
ATOM     89  C   UNL A   1      38.338  31.807  37.128  1.00  0.00     0.173 A 
ATOM     90  C   UNL A   1      39.840  33.555  36.446  1.00  0.00     0.173 A 
ATOM     91  F   UNL A   1      37.779  30.600  36.952  1.00  0.00    -0.203 F 
ATOM     92  C   UNL A   1      37.935  32.582  38.214  1.00  0.00     0.198 A 
ATOM     93  C   UNL A   1      39.460  34.312  37.550  1.00  0.00     0.198 A 
ATOM     94  F   UNL A   1      40.769  34.051  35.614  1.00  0.00    -0.203 F 
ATOM     95  F   UNL A   1      36.995  32.121  39.051  1.00  0.00    -0.200 F 
ATOM     96  C   UNL A   1      38.506  33.827  38.431  1.00  0.00     0.200 A 
ATOM     97  F   UNL A   1      40.028  35.507  37.770  1.00  0.00    -0.200 F 
ATOM     98  F   UNL A   1      38.133  34.561  39.489  1.00  0.00    -0.200 F 
ENDBRANCH  65  88
ENDBRANCH  39  40
ENDBRANCH  32  34
ENDBRANCH  31  32
ENDBRANCH  30  31
ENDBRANCH  29  30
ENDBRANCH  28  29
ENDBRANCH  27  28
ENDBRANCH   1  27
TORSDOF 21
ENDMDL
MODEL 3
REMARK VINA RESULT:     -10.7      2.120      2.934
REMARK SMILES Cc1cc(Br)cc2c1O[C@H](C(F)(F)F)C(C(=O)OCCOCCOCCOCCOC(=O)c1ccc(-c3c4nc(c(-c5c(F)c(F)c(F)c(F)c5F)c5ccc([nH]5)c(-c5c(F)c(F)c(F)c(F)c5F)c5nc(c(-c6c(F)c(F)c(F)c(F)c6F)c6ccc3[nH]6)C=C5)C=C4)cc1)=C2
REMARK SMILES IDX 25 1 24 2 23 3 22 4 21 5 20 6 19 7 18 8 16 9 17 10 15 11
REMARK SMILES IDX 1 12 2 13 3 14 8 15 4 16 7 17 9 18 5 19 6 20 96 21 10 22
REMARK SMILES IDX 11 23 12 24 13 25 14 26 26 27 27 28 28 29 29 30 30 31 31 32
REMARK SMILES IDX 32 33 33 34 34 35 95 36 35 37 94 38 36 39 37 40 38 41 88 42
REMARK SMILES IDX 39 43 93 44 87 45 89 46 40 47 92 48 86 49 85 50 41 52 73 53
REMARK SMILES IDX 53 54 72 55 54 56 57 57 71 58 90 59 55 60 56 61 70 63 91 64
REMARK SMILES IDX 58 65 42 66 43 67 51 68 44 69 45 70 49 71 52 72 46 73 47 74
REMARK SMILES IDX 50 75 48 76 74 77 75 78 83 79 76 80 77 81 81 82 84 83 78 84
REMARK SMILES IDX 79 85 82 86 80 87 59 88 60 89 68 90 61 91 62 92 66 93 69 94
REMARK SMILES IDX 63 95 64 96 67 97 65 98
REMARK H PARENT 89 51 57 62
REMARK Flexibility Score: inf
ROOT
ATOM      1  C   UNL A   1      32.708  28.397  25.885  1.00  0.00     0.188 C 
ENDROOT
BRANCH   1   2
ATOM      2  O   UNL A   1      31.384  27.909  26.117  1.00  0.00    -0.377 OA
BRANCH   2   3
ATOM      3  C   UNL A   1      31.227  26.542  26.469  1.00  0.00     0.188 C 
BRANCH   3   4
ATOM      4  C   UNL A   1      30.015  25.869  25.793  1.00  0.00     0.188 C 
BRANCH   4   5
ATOM      5  O   UNL A   1      29.987  26.073  24.389  1.00  0.00    -0.376 OA
BRANCH   5   6
ATOM      6  C   UNL A   1      30.442  25.060  23.509  1.00  0.00     0.202 C 
BRANCH   6   7
ATOM      7  C   UNL A   1      31.670  24.186  23.825  1.00  0.00     0.261 C 
BRANCH   7   8
ATOM      8  O   UNL A   1      31.419  22.848  24.261  1.00  0.00    -0.460 OA
BRANCH   8   9
ATOM      9  C   UNL A   1      31.735  22.532  25.529  1.00  0.00     0.338 C 
ATOM     10  O   UNL A   1      30.969  22.446  26.473  1.00  0.00    -0.246 OA
BRANCH   9  11
ATOM     11  C   UNL A   1      33.161  22.135  25.550  1.00  0.00     0.087 C 
ATOM     12  C   UNL A   1      37.682  19.743  24.960  1.00  0.00     0.048 C 
ATOM     13  C   UNL A   1      37.211  21.099  25.411  1.00  0.00    -0.007 A 
ATOM     14  C   UNL A   1      38.172  22.094  25.653  1.00  0.00     0.023 A 
ATOM     15  C   UNL A   1      35.849  21.419  25.539  1.00  0.00     0.130 A 
ATOM     16  C   UNL A   1      37.778  23.374  26.034  1.00  0.00     0.019 A 
ATOM     17  C   UNL A   1      35.459  22.723  25.869  1.00  0.00     0.019 A 
ATOM     18  O   UNL A   1      34.953  20.413  25.316  1.00  0.00    -0.475 OA
ATOM     19  Br  UNL A   1      39.084  24.704  26.350  1.00  0.00    -0.051 Br
ATOM     20  C   UNL A   1      36.427  23.694  26.146  1.00  0.00     0.027 A 
ATOM     21  C   UNL A   1      34.053  23.089  25.847  1.00  0.00     0.027 C 
ATOM     22  C   UNL A   1      33.528  20.692  25.323  1.00  0.00     0.316 C 
BRANCH  22  23
ATOM     23  C   UNL A   1      32.940  20.138  24.019  1.00  0.00     0.430 C 
ATOM     24  F   UNL A   1      33.578  19.006  23.633  1.00  0.00    -0.167 F 
ATOM     25  F   UNL A   1      31.631  19.819  24.144  1.00  0.00    -0.167 F 
ATOM     26  F   UNL A   1      33.044  21.027  23.004  1.00  0.00    -0.167 F 
ENDBRANCH  22  23
ENDBRANCH   9  11
ENDBRANCH   8   9
ENDBRANCH   7   8
ENDBRANCH   6   7
ENDBRANCH   5   6
ENDBRANCH   4   5
ENDBRANCH   3   4
ENDBRANCH   2   3
ENDBRANCH   1   2
BRANCH   1  27
ATOM     27  C   UNL A   1      33.143  29.839  26.252  1.00  0.00     0.188 C 
BRANCH  27  28
ATOM     28  O   UNL A   1      32.220  30.538  27.075  1.00  0.00    -0.376 OA
BRANCH  28  29
ATOM     29  C   UNL A   1      31.577  31.680  26.537  1.00  0.00     0.202 C 
BRANCH  29  30
ATOM     30  C   UNL A   1      32.117  33.034  27.016  1.00  0.00     0.261 C 
BRANCH  30  31
ATOM     31  O   UNL A   1      33.119  32.974  28.042  1.00  0.00    -0.460 OA
BRANCH  31  32
ATOM     32  C   UNL A   1      34.206  33.760  27.897  1.00  0.00     0.338 C 
ATOM     33  O   UNL A   1      34.231  34.944  27.606  1.00  0.00    -0.246 OA
BRANCH  32  34
ATOM     34  C   UNL A   1      35.378  32.979  28.343  1.00  0.00     0.060 A 
ATOM     35  C   UNL A   1      35.208  31.634  28.699  1.00  0.00     0.016 A 
ATOM     36  C   UNL A   1      36.642  33.571  28.391  1.00  0.00     0.016 A 
ATOM     37  C   UNL A   1      36.300  30.885  29.133  1.00  0.00     0.010 A 
ATOM     38  C   UNL A   1      37.731  32.827  28.850  1.00  0.00     0.010 A 
ATOM     39  C   UNL A   1      37.557  31.492  29.255  1.00  0.00    -0.014 A 
BRANCH  39  40
ATOM     40  C   UNL A   1      38.632  30.805  30.012  1.00  0.00     0.031 A 
ATOM     41  C   UNL A   1      38.788  31.136  31.469  1.00  0.00     0.074 A 
ATOM     42  C   UNL A   1      39.426  29.886  29.434  1.00  0.00     0.049 A 
ATOM     43  N   UNL A   1      39.669  30.703  32.333  1.00  0.00    -0.248 NA
ATOM     44  C   UNL A   1      37.812  32.086  32.032  1.00  0.00     0.031 C 
ATOM     45  C   UNL A   1      39.334  29.441  28.047  1.00  0.00     0.029 A 
ATOM     46  N   UNL A   1      40.472  29.164  29.954  1.00  0.00    -0.354 N 
ATOM     47  C   UNL A   1      39.352  31.320  33.535  1.00  0.00     0.074 A 
ATOM     48  C   UNL A   1      38.223  32.187  33.287  1.00  0.00     0.031 C 
ATOM     49  C   UNL A   1      40.290  28.521  27.823  1.00  0.00     0.029 A 
ATOM     50  C   UNL A   1      41.080  28.339  29.041  1.00  0.00     0.049 A 
ATOM     51  H   UNL A   1      40.759  29.232  30.894  1.00  0.00     0.167 HD
ATOM     52  C   UNL A   1      39.941  31.164  34.742  1.00  0.00     0.037 A 
ATOM     53  C   UNL A   1      42.162  27.545  29.172  1.00  0.00     0.037 A 
ATOM     54  C   UNL A   1      41.067  30.304  34.986  1.00  0.00     0.049 A 
ATOM     55  C   UNL A   1      42.866  27.469  30.506  1.00  0.00     0.074 A 
ATOM     56  C   UNL A   1      41.737  30.082  36.175  1.00  0.00     0.029 A 
ATOM     57  N   UNL A   1      41.691  29.528  34.021  1.00  0.00    -0.354 N 
ATOM     58  N   UNL A   1      42.554  28.046  31.641  1.00  0.00    -0.248 NA
ATOM     59  C   UNL A   1      44.074  26.632  30.575  1.00  0.00     0.031 C 
ATOM     60  C   UNL A   1      42.801  29.213  35.920  1.00  0.00     0.029 A 
ATOM     61  C   UNL A   1      42.757  28.846  34.584  1.00  0.00     0.049 A 
ATOM     62  H   UNL A   1      41.417  29.471  33.077  1.00  0.00     0.167 HD
ATOM     63  C   UNL A   1      43.505  27.621  32.562  1.00  0.00     0.074 A 
ATOM     64  C   UNL A   1      44.397  26.726  31.857  1.00  0.00     0.031 C 
ATOM     65  C   UNL A   1      43.630  27.947  33.872  1.00  0.00     0.037 A 
BRANCH  52  66
ATOM     66  C   UNL A   1      39.389  31.945  35.896  1.00  0.00     0.064 A 
ATOM     67  C   UNL A   1      38.403  31.410  36.738  1.00  0.00     0.173 A 
ATOM     68  C   UNL A   1      39.901  33.215  36.206  1.00  0.00     0.173 A 
ATOM     69  F   UNL A   1      37.869  30.209  36.474  1.00  0.00    -0.203 F 
ATOM     70  C   UNL A   1      37.946  32.120  37.846  1.00  0.00     0.198 A 
ATOM     71  C   UNL A   1      39.462  33.908  37.330  1.00  0.00     0.198 A 
ATOM     72  F   UNL A   1      40.844  33.771  35.431  1.00  0.00    -0.203 F 
ATOM     73  F   UNL A   1      36.982  31.602  38.619  1.00  0.00    -0.200 F 
ATOM     74  C   UNL A   1      38.484  33.362  38.147  1.00  0.00     0.200 A 
ATOM     75  F   UNL A   1      39.992  35.102  37.627  1.00  0.00    -0.200 F 
ATOM     76  F   UNL A   1      38.059  34.034  39.226  1.00  0.00    -0.200 F 
ENDBRANCH  52  66
BRANCH  53  77
ATOM     77  C   UNL A   1      42.653  26.755  28.012  1.00  0.00     0.064 A 
ATOM     78  C   UNL A   1      43.449  27.345  27.020  1.00  0.00     0.173 A 
ATOM     79  C   UNL A   1      42.323  25.399  27.859  1.00  0.00     0.173 A 
ATOM     80  F   UNL A   1      43.767  28.644  27.103  1.00  0.00    -0.203 F 
ATOM     81  C   UNL A   1      43.888  26.614  25.917  1.00  0.00     0.198 A 
ATOM     82  C   UNL A   1      42.787  24.661  26.772  1.00  0.00     0.198 A 
ATOM     83  F   UNL A   1      41.557  24.787  28.773  1.00  0.00    -0.203 F 
ATOM     84  F   UNL A   1      44.611  27.215  24.962  1.00  0.00    -0.200 F 
ATOM     85  C   UNL A   1      43.563  25.271  25.797  1.00  0.00     0.200 A 
ATOM     86  F   UNL A   1      42.480  23.361  26.665  1.00  0.00    -0.200 F 
ATOM     87  F   UNL A   1      43.991  24.568  24.740  1.00  0.00    -0.200 F 
ENDBRANCH  53  77
BRANCH  65  88
ATOM     88  C   UNL A   1      44.750  27.319  34.651  1.00  0.00     0.064 A 
ATOM     89  C   UNL A   1      44.606  26.065  35.262  1.00  0.00     0.173 A 
ATOM     90  C   UNL A   1      46.010  27.935  34.707  1.00  0.00     0.173 A 
ATOM     91  F   UNL A   1      43.420  25.438  35.245  1.00  0.00    -0.203 F 
ATOM     92  C   UNL A   1      45.678  25.458  35.912  1.00  0.00     0.198 A 
ATOM     93  C   UNL A   1      47.088  27.311  35.328  1.00  0.00     0.198 A 
ATOM     94  F   UNL A   1      46.206  29.130  34.128  1.00  0.00    -0.203 F 
ATOM     95  F   UNL A   1      45.508  24.274  36.517  1.00  0.00    -0.200 F 
ATOM     96  C   UNL A   1      46.920  26.075  35.933  1.00  0.00     0.200 A 
ATOM     97  F   UNL A   1      48.293  27.899  35.329  1.00  0.00    -0.200 F 
ATOM     98  F   UNL A   1      47.956  25.478  36.539  1.00  0.00    -0.200 F 
ENDBRANCH  65  88
ENDBRANCH  39  40
ENDBRANCH  32  34
ENDBRANCH  31  32
ENDBRANCH  30  31
ENDBRANCH  29  30
ENDBRANCH  28  29
ENDBRANCH  27  28
ENDBRANCH   1  27
TORSDOF 21
ENDMDL
