MODEL 1
REMARK VINA RESULT:     -10.4      0.000      0.000
REMARK SMILES O=C(CC1(NC(=O)c2ccncc2Cl)CCCCC1)OCCOCCOCCOCCOC(=O)c1ccc(-c2c3nc(c(-c4c(F)c(F)c(F)c(F)c4F)c4ccc([nH]4)c(-c4c(F)c(F)c(F)c(F)c4F)c4nc(c(-c5c(F)c(F)c(F)c(F)c5F)c5ccc2[nH]5)C=C4)C=C3)cc1
REMARK SMILES IDX 25 1 24 2 23 3 22 4 21 5 20 6 2 7 1 8 3 9 4 10 15 11 19 12
REMARK SMILES IDX 16 13 18 14 17 15 5 16 6 17 7 19 8 20 9 21 13 22 10 23 12 24
REMARK SMILES IDX 14 25 11 26 26 27 27 28 28 29 29 30 30 31 31 32 32 33 33 34
REMARK SMILES IDX 34 35 35 36 36 37 97 38 37 39 96 40 38 41 39 42 40 43 90 44
REMARK SMILES IDX 41 45 95 46 89 47 91 48 42 49 94 50 88 51 87 52 43 54 75 55
REMARK SMILES IDX 55 56 74 57 56 58 59 59 73 60 92 61 57 62 58 63 72 65 93 66
REMARK SMILES IDX 60 67 44 68 45 69 53 70 46 71 47 72 51 73 54 74 48 75 49 76
REMARK SMILES IDX 52 77 50 78 76 79 77 80 85 81 78 82 79 83 83 84 86 85 80 86
REMARK SMILES IDX 81 87 84 88 82 89 61 90 62 91 70 92 63 93 64 94 68 95 71 96
REMARK SMILES IDX 65 97 66 98 69 99 67 100
REMARK H PARENT 5 18 91 53 59 64
REMARK Flexibility Score: inf
ROOT
ATOM      1  C   UNL A   1      35.862  31.190  27.965  1.00  0.00     0.188 C 
ENDROOT
BRANCH   1   2
ATOM      2  C   UNL A   1      37.481  31.031  28.872  1.00  0.00     0.188 C 
BRANCH   2   3
ATOM      3  O   UNL A   1      38.419  29.714  28.927  1.00  0.00    -0.376 OA
BRANCH   3   4
ATOM      4  C   UNL A   1      39.241  28.820  27.803  1.00  0.00     0.202 C 
BRANCH   4   5
ATOM      5  C   UNL A   1      40.832  28.966  27.010  1.00  0.00     0.261 C 
BRANCH   5   6
ATOM      6  O   UNL A   1      41.830  27.941  26.190  1.00  0.00    -0.463 OA
BRANCH   6   7
ATOM      7  C   UNL A   1      42.528  27.164  25.310  1.00  0.00     0.308 C 
ATOM      8  O   UNL A   1      42.875  27.707  24.252  1.00  0.00    -0.252 OA
BRANCH   7   9
ATOM      9  C   UNL A   1      42.904  25.603  25.414  1.00  0.00     0.151 C 
BRANCH   9  10
ATOM     10  C   UNL A   1      43.381  25.069  26.738  1.00  0.00     0.051 C 
ATOM     11  C   UNL A   1      43.534  23.564  27.086  1.00  0.00     0.029 C 
ATOM     12  C   UNL A   1      44.768  25.709  27.036  1.00  0.00     0.029 C 
ATOM     13  C   UNL A   1      43.900  23.392  28.600  1.00  0.00     0.002 C 
ATOM     14  C   UNL A   1      45.251  25.571  28.477  1.00  0.00     0.002 C 
ATOM     15  C   UNL A   1      45.163  24.148  29.018  1.00  0.00     0.000 C 
BRANCH  10  16
ATOM     16  N   UNL A   1      42.379  25.509  27.613  1.00  0.00    -0.346 N 
ATOM     17  C   UNL A   1      41.256  25.098  28.232  1.00  0.00     0.253 C 
ATOM     18  H   UNL A   1      42.559  26.444  27.862  1.00  0.00     0.164 HD
ATOM     19  O   UNL A   1      41.246  26.064  29.028  1.00  0.00    -0.269 OA
BRANCH  17  20
ATOM     20  C   UNL A   1      40.024  23.758  27.896  1.00  0.00     0.061 A 
ATOM     21  C   UNL A   1      38.586  24.525  27.138  1.00  0.00     0.035 A 
ATOM     22  C   UNL A   1      40.402  21.968  27.360  1.00  0.00     0.072 A 
ATOM     23  C   UNL A   1      37.752  23.703  25.830  1.00  0.00     0.112 A 
ATOM     24  C   UNL A   1      39.448  21.280  25.987  1.00  0.00     0.132 A 
ATOM     25  Cl  UNL A   1      41.674  20.695  27.624  1.00  0.00    -0.082 Cl
ATOM     26  N   UNL A   1      38.173  22.150  25.235  1.00  0.00    -0.263 NA
ENDBRANCH  17  20
ENDBRANCH  10  16
ENDBRANCH   9  10
ENDBRANCH   7   9
ENDBRANCH   6   7
ENDBRANCH   5   6
ENDBRANCH   4   5
ENDBRANCH   3   4
ENDBRANCH   2   3
ENDBRANCH   1   2
BRANCH   1  27
ATOM     27  O   UNL A   1      34.977  32.966  27.706  1.00  0.00    -0.377 OA
BRANCH  27  28
ATOM     28  C   UNL A   1      33.915  34.004  28.085  1.00  0.00     0.188 C 
BRANCH  28  29
ATOM     29  C   UNL A   1      33.681  34.700  29.478  1.00  0.00     0.188 C 
BRANCH  29  30
ATOM     30  O   UNL A   1      33.761  33.948  30.688  1.00  0.00    -0.376 OA
BRANCH  30  31
ATOM     31  C   UNL A   1      34.810  34.273  31.598  1.00  0.00     0.202 C 
BRANCH  31  32
ATOM     32  C   UNL A   1      36.076  33.458  31.351  1.00  0.00     0.261 C 
BRANCH  32  33
ATOM     33  O   UNL A   1      35.966  32.215  32.048  1.00  0.00    -0.460 OA
BRANCH  33  34
ATOM     34  C   UNL A   1      36.513  32.215  33.285  1.00  0.00     0.338 C 
ATOM     35  O   UNL A   1      36.057  32.700  34.305  1.00  0.00    -0.246 OA
BRANCH  34  36
ATOM     36  C   UNL A   1      37.721  31.370  33.258  1.00  0.00     0.060 A 
ATOM     37  C   UNL A   1      38.771  31.717  34.118  1.00  0.00     0.016 A 
ATOM     38  C   UNL A   1      37.824  30.259  32.412  1.00  0.00     0.016 A 
ATOM     39  C   UNL A   1      39.971  31.021  34.056  1.00  0.00     0.010 A 
ATOM     40  C   UNL A   1      39.029  29.568  32.338  1.00  0.00     0.010 A 
ATOM     41  C   UNL A   1      40.121  30.005  33.104  1.00  0.00    -0.014 A 
BRANCH  41  42
ATOM     42  C   UNL A   1      41.480  29.667  32.643  1.00  0.00     0.031 A 
ATOM     43  C   UNL A   1      42.072  30.550  31.577  1.00  0.00     0.074 A 
ATOM     44  C   UNL A   1      42.153  28.623  33.148  1.00  0.00     0.049 A 
ATOM     45  N   UNL A   1      43.222  30.461  30.965  1.00  0.00    -0.248 NA
ATOM     46  C   UNL A   1      41.247  31.694  31.142  1.00  0.00     0.031 C 
ATOM     47  C   UNL A   1      41.672  27.735  34.203  1.00  0.00     0.029 A 
ATOM     48  N   UNL A   1      43.387  28.130  32.820  1.00  0.00    -0.354 N 
ATOM     49  C   UNL A   1      43.259  31.539  30.090  1.00  0.00     0.074 A 
ATOM     50  C   UNL A   1      42.013  32.254  30.223  1.00  0.00     0.031 C 
ATOM     51  C   UNL A   1      42.600  26.785  34.423  1.00  0.00     0.029 A 
ATOM     52  C   UNL A   1      43.720  26.991  33.507  1.00  0.00     0.049 A 
ATOM     53  H   UNL A   1      43.979  28.553  32.156  1.00  0.00     0.167 HD
ATOM     54  C   UNL A   1      44.252  31.902  29.248  1.00  0.00     0.037 A 
ATOM     55  C   UNL A   1      44.802  26.201  33.378  1.00  0.00     0.037 A 
ATOM     56  C   UNL A   1      45.470  31.160  29.095  1.00  0.00     0.049 A 
ATOM     57  C   UNL A   1      45.859  26.578  32.372  1.00  0.00     0.074 A 
ATOM     58  C   UNL A   1      46.541  31.417  28.263  1.00  0.00     0.029 A 
ATOM     59  N   UNL A   1      45.762  29.996  29.791  1.00  0.00    -0.354 N 
ATOM     60  N   UNL A   1      45.903  27.611  31.564  1.00  0.00    -0.248 NA
ATOM     61  C   UNL A   1      47.014  25.677  32.257  1.00  0.00     0.031 C 
ATOM     62  C   UNL A   1      47.469  30.382  28.427  1.00  0.00     0.029 A 
ATOM     63  C   UNL A   1      46.991  29.507  29.391  1.00  0.00     0.049 A 
ATOM     64  H   UNL A   1      45.181  29.581  30.468  1.00  0.00     0.167 HD
ATOM     65  C   UNL A   1      47.095  27.499  30.862  1.00  0.00     0.074 A 
ATOM     66  C   UNL A   1      47.750  26.300  31.346  1.00  0.00     0.031 C 
ATOM     67  C   UNL A   1      47.607  28.310  29.903  1.00  0.00     0.037 A 
BRANCH  54  68
ATOM     68  C   UNL A   1      44.029  33.127  28.417  1.00  0.00     0.064 A 
ATOM     69  C   UNL A   1      43.779  33.042  27.038  1.00  0.00     0.173 A 
ATOM     70  C   UNL A   1      44.084  34.401  28.998  1.00  0.00     0.173 A 
ATOM     71  F   UNL A   1      43.748  31.846  26.431  1.00  0.00    -0.203 F 
ATOM     72  C   UNL A   1      43.610  34.191  26.270  1.00  0.00     0.198 A 
ATOM     73  C   UNL A   1      43.893  35.547  28.230  1.00  0.00     0.198 A 
ATOM     74  F   UNL A   1      44.335  34.536  30.309  1.00  0.00    -0.203 F 
ATOM     75  F   UNL A   1      43.418  34.088  24.947  1.00  0.00    -0.200 F 
ATOM     76  C   UNL A   1      43.662  35.441  26.867  1.00  0.00     0.200 A 
ATOM     77  F   UNL A   1      43.945  36.755  28.809  1.00  0.00    -0.200 F 
ATOM     78  F   UNL A   1      43.502  36.547  26.126  1.00  0.00    -0.200 F 
ENDBRANCH  54  68
BRANCH  55  79
ATOM     79  C   UNL A   1      44.929  24.978  34.210  1.00  0.00     0.064 A 
ATOM     80  C   UNL A   1      44.524  23.728  33.724  1.00  0.00     0.173 A 
ATOM     81  C   UNL A   1      45.457  25.034  35.507  1.00  0.00     0.173 A 
ATOM     82  F   UNL A   1      43.990  23.629  32.497  1.00  0.00    -0.203 F 
ATOM     83  C   UNL A   1      44.633  22.582  34.508  1.00  0.00     0.198 A 
ATOM     84  C   UNL A   1      45.586  23.884  36.283  1.00  0.00     0.198 A 
ATOM     85  F   UNL A   1      45.856  26.208  36.020  1.00  0.00    -0.203 F 
ATOM     86  F   UNL A   1      44.203  21.404  34.034  1.00  0.00    -0.200 F 
ATOM     87  C   UNL A   1      45.169  22.659  35.785  1.00  0.00     0.200 A 
ATOM     88  F   UNL A   1      46.111  23.963  37.513  1.00  0.00    -0.200 F 
ATOM     89  F   UNL A   1      45.274  21.556  36.538  1.00  0.00    -0.200 F 
ENDBRANCH  55  79
BRANCH  67  90
ATOM     90  C   UNL A   1      48.942  27.938  29.336  1.00  0.00     0.064 A 
ATOM     91  C   UNL A   1      50.132  28.252  30.006  1.00  0.00     0.173 A 
ATOM     92  C   UNL A   1      49.024  27.200  28.145  1.00  0.00     0.173 A 
ATOM     93  F   UNL A   1      50.099  28.965  31.142  1.00  0.00    -0.203 F 
ATOM     94  C   UNL A   1      51.362  27.852  29.494  1.00  0.00     0.198 A 
ATOM     95  C   UNL A   1      50.255  26.782  27.650  1.00  0.00     0.198 A 
ATOM     96  F   UNL A   1      47.909  26.868  27.477  1.00  0.00    -0.203 F 
ATOM     97  F   UNL A   1      52.492  28.189  30.132  1.00  0.00    -0.200 F 
ATOM     98  C   UNL A   1      51.422  27.112  28.322  1.00  0.00     0.200 A 
ATOM     99  F   UNL A   1      50.311  26.056  26.525  1.00  0.00    -0.200 F 
ATOM    100  F   UNL A   1      52.608  26.718  27.837  1.00  0.00    -0.200 F 
ENDBRANCH  67  90
ENDBRANCH  41  42
ENDBRANCH  34  36
ENDBRANCH  33  34
ENDBRANCH  32  33
ENDBRANCH  31  32
ENDBRANCH  30  31
ENDBRANCH  29  30
ENDBRANCH  28  29
ENDBRANCH  27  28
ENDBRANCH   1  27
TORSDOF 23
ENDMDL
MODEL 2
REMARK VINA RESULT:      -9.8      1.494      2.723
REMARK SMILES O=C(CC1(NC(=O)c2ccncc2Cl)CCCCC1)OCCOCCOCCOCCOC(=O)c1ccc(-c2c3nc(c(-c4c(F)c(F)c(F)c(F)c4F)c4ccc([nH]4)c(-c4c(F)c(F)c(F)c(F)c4F)c4nc(c(-c5c(F)c(F)c(F)c(F)c5F)c5ccc2[nH]5)C=C4)C=C3)cc1
REMARK SMILES IDX 25 1 24 2 23 3 22 4 21 5 20 6 2 7 1 8 3 9 4 10 15 11 19 12
REMARK SMILES IDX 16 13 18 14 17 15 5 16 6 17 7 19 8 20 9 21 13 22 10 23 12 24
REMARK SMILES IDX 14 25 11 26 26 27 27 28 28 29 29 30 30 31 31 32 32 33 33 34
REMARK SMILES IDX 34 35 35 36 36 37 97 38 37 39 96 40 38 41 39 42 40 43 90 44
REMARK SMILES IDX 41 45 95 46 89 47 91 48 42 49 94 50 88 51 87 52 43 54 75 55
REMARK SMILES IDX 55 56 74 57 56 58 59 59 73 60 92 61 57 62 58 63 72 65 93 66
REMARK SMILES IDX 60 67 44 68 45 69 53 70 46 71 47 72 51 73 54 74 48 75 49 76
REMARK SMILES IDX 52 77 50 78 76 79 77 80 85 81 78 82 79 83 83 84 86 85 80 86
REMARK SMILES IDX 81 87 84 88 82 89 61 90 62 91 70 92 63 93 64 94 68 95 71 96
REMARK SMILES IDX 65 97 66 98 69 99 67 100
REMARK H PARENT 5 18 91 53 59 64
REMARK Flexibility Score: inf
ROOT
ATOM      1  C   UNL A   1      36.135  31.559  27.999  1.00  0.00     0.188 C 
ENDROOT
BRANCH   1   2
ATOM      2  C   UNL A   1      37.826  31.325  28.746  1.00  0.00     0.188 C 
BRANCH   2   3
ATOM      3  O   UNL A   1      38.434  29.938  29.315  1.00  0.00    -0.376 OA
BRANCH   3   4
ATOM      4  C   UNL A   1      39.823  29.079  29.050  1.00  0.00     0.202 C 
BRANCH   4   5
ATOM      5  C   UNL A   1      40.636  27.728  29.883  1.00  0.00     0.261 C 
BRANCH   5   6
ATOM      6  O   UNL A   1      41.886  26.714  29.527  1.00  0.00    -0.463 OA
BRANCH   6   7
ATOM      7  C   UNL A   1      43.039  26.081  29.158  1.00  0.00     0.308 C 
ATOM      8  O   UNL A   1      43.950  26.803  28.729  1.00  0.00    -0.252 OA
BRANCH   7   9
ATOM      9  C   UNL A   1      43.365  24.505  29.125  1.00  0.00     0.151 C 
BRANCH   9  10
ATOM     10  C   UNL A   1      42.942  23.713  27.917  1.00  0.00     0.051 C 
ATOM     11  C   UNL A   1      43.827  23.458  26.668  1.00  0.00     0.029 C 
ATOM     12  C   UNL A   1      42.494  22.305  28.406  1.00  0.00     0.029 C 
ATOM     13  C   UNL A   1      42.997  22.732  25.555  1.00  0.00     0.002 C 
ATOM     14  C   UNL A   1      41.706  21.484  27.389  1.00  0.00     0.002 C 
ATOM     15  C   UNL A   1      42.365  21.417  26.015  1.00  0.00     0.000 C 
BRANCH  10  16
ATOM     16  N   UNL A   1      41.880  24.479  27.418  1.00  0.00    -0.346 N 
ATOM     17  C   UNL A   1      41.599  25.444  26.522  1.00  0.00     0.253 C 
ATOM     18  H   UNL A   1      41.052  24.221  27.883  1.00  0.00     0.164 HD
ATOM     19  O   UNL A   1      40.364  25.247  26.579  1.00  0.00    -0.269 OA
BRANCH  17  20
ATOM     20  C   UNL A   1      42.605  26.758  25.693  1.00  0.00     0.061 A 
ATOM     21  C   UNL A   1      41.907  28.347  26.158  1.00  0.00     0.035 A 
ATOM     22  C   UNL A   1      44.486  26.726  25.378  1.00  0.00     0.072 A 
ATOM     23  C   UNL A   1      42.974  29.699  26.499  1.00  0.00     0.112 A 
ATOM     24  C   UNL A   1      45.435  28.208  25.793  1.00  0.00     0.132 A 
ATOM     25  Cl  UNL A   1      45.794  25.522  24.999  1.00  0.00    -0.082 Cl
ATOM     26  N   UNL A   1      44.683  29.643  26.362  1.00  0.00    -0.263 NA
ENDBRANCH  17  20
ENDBRANCH  10  16
ENDBRANCH   9  10
ENDBRANCH   7   9
ENDBRANCH   6   7
ENDBRANCH   5   6
ENDBRANCH   4   5
ENDBRANCH   3   4
ENDBRANCH   2   3
ENDBRANCH   1   2
BRANCH   1  27
ATOM     27  O   UNL A   1      35.293  33.369  27.862  1.00  0.00    -0.377 OA
BRANCH  27  28
ATOM     28  C   UNL A   1      34.087  34.302  28.014  1.00  0.00     0.188 C 
BRANCH  28  29
ATOM     29  C   UNL A   1      33.638  35.122  29.282  1.00  0.00     0.188 C 
BRANCH  29  30
ATOM     30  O   UNL A   1      33.424  34.466  30.532  1.00  0.00    -0.376 OA
BRANCH  30  31
ATOM     31  C   UNL A   1      34.416  34.635  31.543  1.00  0.00     0.202 C 
BRANCH  31  32
ATOM     32  C   UNL A   1      35.633  33.739  31.329  1.00  0.00     0.261 C 
BRANCH  32  33
ATOM     33  O   UNL A   1      35.465  32.545  32.094  1.00  0.00    -0.460 OA
BRANCH  33  34
ATOM     34  C   UNL A   1      36.010  32.590  33.332  1.00  0.00     0.338 C 
ATOM     35  O   UNL A   1      35.535  33.078  34.342  1.00  0.00    -0.246 OA
BRANCH  34  36
ATOM     36  C   UNL A   1      37.249  31.790  33.321  1.00  0.00     0.060 A 
ATOM     37  C   UNL A   1      38.300  32.217  34.144  1.00  0.00     0.016 A 
ATOM     38  C   UNL A   1      37.380  30.644  32.527  1.00  0.00     0.016 A 
ATOM     39  C   UNL A   1      39.525  31.565  34.092  1.00  0.00     0.010 A 
ATOM     40  C   UNL A   1      38.609  29.996  32.463  1.00  0.00     0.010 A 
ATOM     41  C   UNL A   1      39.696  30.509  33.186  1.00  0.00    -0.014 A 
BRANCH  41  42
ATOM     42  C   UNL A   1      41.060  30.201  32.716  1.00  0.00     0.031 A 
ATOM     43  C   UNL A   1      41.647  31.132  31.690  1.00  0.00     0.074 A 
ATOM     44  C   UNL A   1      41.738  29.142  33.179  1.00  0.00     0.049 A 
ATOM     45  N   UNL A   1      42.800  31.077  31.078  1.00  0.00    -0.248 NA
ATOM     46  C   UNL A   1      40.816  32.287  31.300  1.00  0.00     0.031 C 
ATOM     47  C   UNL A   1      41.261  28.208  34.196  1.00  0.00     0.029 A 
ATOM     48  N   UNL A   1      42.977  28.672  32.835  1.00  0.00    -0.354 N 
ATOM     49  C   UNL A   1      42.831  32.191  30.248  1.00  0.00     0.074 A 
ATOM     50  C   UNL A   1      41.579  32.890  30.407  1.00  0.00     0.031 C 
ATOM     51  C   UNL A   1      42.195  27.256  34.379  1.00  0.00     0.029 A 
ATOM     52  C   UNL A   1      43.316  27.508  33.475  1.00  0.00     0.049 A 
ATOM     53  H   UNL A   1      43.567  29.126  32.191  1.00  0.00     0.167 HD
ATOM     54  C   UNL A   1      43.824  32.595  29.425  1.00  0.00     0.037 A 
ATOM     55  C   UNL A   1      44.405  26.732  33.317  1.00  0.00     0.037 A 
ATOM     56  C   UNL A   1      45.047  31.869  29.245  1.00  0.00     0.049 A 
ATOM     57  C   UNL A   1      45.461  27.158  32.331  1.00  0.00     0.074 A 
ATOM     58  C   UNL A   1      46.120  32.168  28.428  1.00  0.00     0.029 A 
ATOM     59  N   UNL A   1      45.347  30.679  29.893  1.00  0.00    -0.354 N 
ATOM     60  N   UNL A   1      45.501  28.224  31.567  1.00  0.00    -0.248 NA
ATOM     61  C   UNL A   1      46.624  26.271  32.182  1.00  0.00     0.031 C 
ATOM     62  C   UNL A   1      47.055  31.134  28.552  1.00  0.00     0.029 A 
ATOM     63  C   UNL A   1      46.580  30.216  29.477  1.00  0.00     0.049 A 
ATOM     64  H   UNL A   1      44.766  30.232  30.551  1.00  0.00     0.167 HD
ATOM     65  C   UNL A   1      46.695  28.150  30.864  1.00  0.00     0.074 A 
ATOM     66  C   UNL A   1      47.357  26.936  31.300  1.00  0.00     0.031 C 
ATOM     67  C   UNL A   1      47.204  29.004  29.941  1.00  0.00     0.037 A 
BRANCH  54  68
ATOM     68  C   UNL A   1      43.594  33.852  28.645  1.00  0.00     0.064 A 
ATOM     69  C   UNL A   1      43.396  33.826  27.256  1.00  0.00     0.173 A 
ATOM     70  C   UNL A   1      43.591  35.098  29.287  1.00  0.00     0.173 A 
ATOM     71  F   UNL A   1      43.422  32.660  26.592  1.00  0.00    -0.203 F 
ATOM     72  C   UNL A   1      43.221  35.005  26.537  1.00  0.00     0.198 A 
ATOM     73  C   UNL A   1      43.393  36.273  28.567  1.00  0.00     0.198 A 
ATOM     74  F   UNL A   1      43.791  35.176  30.611  1.00  0.00    -0.203 F 
ATOM     75  F   UNL A   1      43.078  34.961  25.204  1.00  0.00    -0.200 F 
ATOM     76  C   UNL A   1      43.214  36.227  27.193  1.00  0.00     0.200 A 
ATOM     77  F   UNL A   1      43.388  37.453  29.203  1.00  0.00    -0.200 F 
ATOM     78  F   UNL A   1      43.047  37.361  26.500  1.00  0.00    -0.200 F 
ENDBRANCH  54  68
BRANCH  55  79
ATOM     79  C   UNL A   1      44.538  25.477  34.097  1.00  0.00     0.064 A 
ATOM     80  C   UNL A   1      44.228  24.235  33.528  1.00  0.00     0.173 A 
ATOM     81  C   UNL A   1      44.978  25.493  35.429  1.00  0.00     0.173 A 
ATOM     82  F   UNL A   1      43.781  24.171  32.265  1.00  0.00    -0.203 F 
ATOM     83  C   UNL A   1      44.343  23.057  34.264  1.00  0.00     0.198 A 
ATOM     84  C   UNL A   1      45.113  24.312  36.157  1.00  0.00     0.198 A 
ATOM     85  F   UNL A   1      45.284  26.657  36.021  1.00  0.00    -0.203 F 
ATOM     86  F   UNL A   1      44.004  21.886  33.708  1.00  0.00    -0.200 F 
ATOM     87  C   UNL A   1      44.791  23.096  35.576  1.00  0.00     0.200 A 
ATOM     88  F   UNL A   1      45.553  24.355  37.422  1.00  0.00    -0.200 F 
ATOM     89  F   UNL A   1      44.902  21.963  36.282  1.00  0.00    -0.200 F 
ENDBRANCH  55  79
BRANCH  67  90
ATOM     90  C   UNL A   1      48.543  28.665  29.363  1.00  0.00     0.064 A 
ATOM     91  C   UNL A   1      48.666  27.818  28.253  1.00  0.00     0.173 A 
ATOM     92  C   UNL A   1      49.706  29.251  29.884  1.00  0.00     0.173 A 
ATOM     93  F   UNL A   1      47.580  27.228  27.731  1.00  0.00    -0.203 F 
ATOM     94  C   UNL A   1      49.912  27.556  27.694  1.00  0.00     0.198 A 
ATOM     95  C   UNL A   1      50.948  29.006  29.306  1.00  0.00     0.198 A 
ATOM     96  F   UNL A   1      49.634  30.078  30.939  1.00  0.00    -0.203 F 
ATOM     97  F   UNL A   1      50.014  26.718  26.653  1.00  0.00    -0.200 F 
ATOM     98  C   UNL A   1      51.050  28.156  28.216  1.00  0.00     0.200 A 
ATOM     99  F   UNL A   1      52.044  29.595  29.803  1.00  0.00    -0.200 F 
ATOM    100  F   UNL A   1      52.249  27.911  27.668  1.00  0.00    -0.200 F 
ENDBRANCH  67  90
ENDBRANCH  41  42
ENDBRANCH  34  36
ENDBRANCH  33  34
ENDBRANCH  32  33
ENDBRANCH  31  32
ENDBRANCH  30  31
ENDBRANCH  29  30
ENDBRANCH  28  29
ENDBRANCH  27  28
ENDBRANCH   1  27
TORSDOF 23
ENDMDL
MODEL 3
REMARK VINA RESULT:      -9.4      1.574      2.753
REMARK SMILES O=C(CC1(NC(=O)c2ccncc2Cl)CCCCC1)OCCOCCOCCOCCOC(=O)c1ccc(-c2c3nc(c(-c4c(F)c(F)c(F)c(F)c4F)c4ccc([nH]4)c(-c4c(F)c(F)c(F)c(F)c4F)c4nc(c(-c5c(F)c(F)c(F)c(F)c5F)c5ccc2[nH]5)C=C4)C=C3)cc1
REMARK SMILES IDX 25 1 24 2 23 3 22 4 21 5 20 6 2 7 1 8 3 9 4 10 15 11 19 12
REMARK SMILES IDX 16 13 18 14 17 15 5 16 6 17 7 19 8 20 9 21 13 22 10 23 12 24
REMARK SMILES IDX 14 25 11 26 26 27 27 28 28 29 29 30 30 31 31 32 32 33 33 34
REMARK SMILES IDX 34 35 35 36 36 37 97 38 37 39 96 40 38 41 39 42 40 43 90 44
REMARK SMILES IDX 41 45 95 46 89 47 91 48 42 49 94 50 88 51 87 52 43 54 75 55
REMARK SMILES IDX 55 56 74 57 56 58 59 59 73 60 92 61 57 62 58 63 72 65 93 66
REMARK SMILES IDX 60 67 44 68 45 69 53 70 46 71 47 72 51 73 54 74 48 75 49 76
REMARK SMILES IDX 52 77 50 78 76 79 77 80 85 81 78 82 79 83 83 84 86 85 80 86
REMARK SMILES IDX 81 87 84 88 82 89 61 90 62 91 70 92 63 93 64 94 68 95 71 96
REMARK SMILES IDX 65 97 66 98 69 99 67 100
REMARK H PARENT 5 18 91 53 59 64
REMARK Flexibility Score: inf
ROOT
ATOM      1  C   UNL A   1      36.192  31.382  28.385  1.00  0.00     0.188 C 
ENDROOT
BRANCH   1   2
ATOM      2  C   UNL A   1      37.854  30.620  28.745  1.00  0.00     0.188 C 
BRANCH   2   3
ATOM      3  O   UNL A   1      38.179  29.038  28.836  1.00  0.00    -0.376 OA
BRANCH   3   4
ATOM      4  C   UNL A   1      39.179  28.005  28.016  1.00  0.00     0.202 C 
BRANCH   4   5
ATOM      5  C   UNL A   1      39.689  26.311  28.247  1.00  0.00     0.261 C 
BRANCH   5   6
ATOM      6  O   UNL A   1      40.847  25.337  27.593  1.00  0.00    -0.463 OA
BRANCH   6   7
ATOM      7  C   UNL A   1      41.615  24.381  26.994  1.00  0.00     0.308 C 
ATOM      8  O   UNL A   1      41.873  23.376  27.672  1.00  0.00    -0.252 OA
BRANCH   7   9
ATOM      9  C   UNL A   1      42.310  24.401  25.542  1.00  0.00     0.151 C 
BRANCH   9  10
ATOM     10  C   UNL A   1      43.729  23.915  25.422  1.00  0.00     0.051 C 
ATOM     11  C   UNL A   1      44.554  23.288  26.579  1.00  0.00     0.029 C 
ATOM     12  C   UNL A   1      43.780  22.878  24.264  1.00  0.00     0.029 C 
ATOM     13  C   UNL A   1      46.034  23.052  26.123  1.00  0.00     0.002 C 
ATOM     14  C   UNL A   1      45.179  22.536  23.758  1.00  0.00     0.002 C 
ATOM     15  C   UNL A   1      46.162  22.183  24.869  1.00  0.00     0.000 C 
BRANCH  10  16
ATOM     16  N   UNL A   1      44.423  25.096  25.127  1.00  0.00    -0.346 N 
ATOM     17  C   UNL A   1      44.991  26.168  25.713  1.00  0.00     0.253 C 
ATOM     18  H   UNL A   1      44.534  25.167  24.151  1.00  0.00     0.164 HD
ATOM     19  O   UNL A   1      45.616  26.500  24.681  1.00  0.00    -0.269 OA
BRANCH  17  20
ATOM     20  C   UNL A   1      44.760  27.009  27.345  1.00  0.00     0.061 A 
ATOM     21  C   UNL A   1      43.991  28.602  27.027  1.00  0.00     0.035 A 
ATOM     22  C   UNL A   1      44.318  26.180  29.005  1.00  0.00     0.072 A 
ATOM     23  C   UNL A   1      42.751  29.202  28.116  1.00  0.00     0.112 A 
ATOM     24  C   UNL A   1      43.009  26.930  30.000  1.00  0.00     0.132 A 
ATOM     25  Cl  UNL A   1      44.627  24.619  29.883  1.00  0.00    -0.082 Cl
ATOM     26  N   UNL A   1      42.237  28.393  29.539  1.00  0.00    -0.263 NA
ENDBRANCH  17  20
ENDBRANCH  10  16
ENDBRANCH   9  10
ENDBRANCH   7   9
ENDBRANCH   6   7
ENDBRANCH   5   6
ENDBRANCH   4   5
ENDBRANCH   3   4
ENDBRANCH   2   3
ENDBRANCH   1   2
BRANCH   1  27
ATOM     27  O   UNL A   1      35.679  33.171  29.119  1.00  0.00    -0.377 OA
BRANCH  27  28
ATOM     28  C   UNL A   1      34.622  34.221  29.479  1.00  0.00     0.188 C 
BRANCH  28  29
ATOM     29  C   UNL A   1      34.078  34.614  30.903  1.00  0.00     0.188 C 
BRANCH  29  30
ATOM     30  O   UNL A   1      33.827  33.610  31.887  1.00  0.00    -0.376 OA
BRANCH  30  31
ATOM     31  C   UNL A   1      34.357  33.821  33.194  1.00  0.00     0.202 C 
BRANCH  31  32
ATOM     32  C   UNL A   1      35.879  33.931  33.201  1.00  0.00     0.261 C 
BRANCH  32  33
ATOM     33  O   UNL A   1      36.419  32.788  33.868  1.00  0.00    -0.460 OA
BRANCH  33  34
ATOM     34  C   UNL A   1      37.445  33.060  34.707  1.00  0.00     0.338 C 
ATOM     35  O   UNL A   1      37.481  33.885  35.603  1.00  0.00    -0.246 OA
BRANCH  34  36
ATOM     36  C   UNL A   1      38.508  32.065  34.476  1.00  0.00     0.060 A 
ATOM     37  C   UNL A   1      39.630  32.114  35.313  1.00  0.00     0.016 A 
ATOM     38  C   UNL A   1      38.408  31.100  33.465  1.00  0.00     0.016 A 
ATOM     39  C   UNL A   1      40.708  31.271  35.072  1.00  0.00     0.010 A 
ATOM     40  C   UNL A   1      39.490  30.264  33.213  1.00  0.00     0.010 A 
ATOM     41  C   UNL A   1      40.664  30.409  33.968  1.00  0.00    -0.014 A 
BRANCH  41  42
ATOM     42  C   UNL A   1      41.938  29.957  33.378  1.00  0.00     0.031 A 
ATOM     43  C   UNL A   1      42.505  30.799  32.268  1.00  0.00     0.074 A 
ATOM     44  C   UNL A   1      42.556  28.849  33.810  1.00  0.00     0.049 A 
ATOM     45  N   UNL A   1      43.580  30.616  31.549  1.00  0.00    -0.248 NA
ATOM     46  C   UNL A   1      41.753  32.020  31.921  1.00  0.00     0.031 C 
ATOM     47  C   UNL A   1      42.097  27.992  34.900  1.00  0.00     0.029 A 
ATOM     48  N   UNL A   1      43.704  28.251  33.363  1.00  0.00    -0.354 N 
ATOM     49  C   UNL A   1      43.634  31.700  30.681  1.00  0.00     0.074 A 
ATOM     50  C   UNL A   1      42.476  32.523  30.937  1.00  0.00     0.031 C 
ATOM     51  C   UNL A   1      42.949  26.958  35.024  1.00  0.00     0.029 A 
ATOM     52  C   UNL A   1      43.993  27.076  34.007  1.00  0.00     0.049 A 
ATOM     53  H   UNL A   1      44.267  28.629  32.650  1.00  0.00     0.167 HD
ATOM     54  C   UNL A   1      44.573  31.984  29.752  1.00  0.00     0.037 A 
ATOM     55  C   UNL A   1      44.982  26.193  33.772  1.00  0.00     0.037 A 
ATOM     56  C   UNL A   1      45.698  31.137  29.479  1.00  0.00     0.049 A 
ATOM     57  C   UNL A   1      45.969  26.488  32.672  1.00  0.00     0.074 A 
ATOM     58  C   UNL A   1      46.706  31.309  28.552  1.00  0.00     0.029 A 
ATOM     59  N   UNL A   1      45.946  29.941  30.136  1.00  0.00    -0.354 N 
ATOM     60  N   UNL A   1      46.033  27.525  31.871  1.00  0.00    -0.248 NA
ATOM     61  C   UNL A   1      47.021  25.488  32.442  1.00  0.00     0.031 C 
ATOM     62  C   UNL A   1      47.546  30.192  28.620  1.00  0.00     0.029 A 
ATOM     63  C   UNL A   1      47.082  29.348  29.618  1.00  0.00     0.049 A 
ATOM     64  H   UNL A   1      45.395  29.570  30.862  1.00  0.00     0.167 HD
ATOM     65  C   UNL A   1      47.138  27.317  31.059  1.00  0.00     0.074 A 
ATOM     66  C   UNL A   1      47.723  26.055  31.470  1.00  0.00     0.031 C 
ATOM     67  C   UNL A   1      47.631  28.093  30.061  1.00  0.00     0.037 A 
BRANCH  54  68
ATOM     68  C   UNL A   1      44.387  33.238  28.954  1.00  0.00     0.064 A 
ATOM     69  C   UNL A   1      43.925  33.201  27.629  1.00  0.00     0.173 A 
ATOM     70  C   UNL A   1      44.690  34.487  29.512  1.00  0.00     0.173 A 
ATOM     71  F   UNL A   1      43.651  32.026  27.043  1.00  0.00    -0.203 F 
ATOM     72  C   UNL A   1      43.791  34.371  26.887  1.00  0.00     0.198 A 
ATOM     73  C   UNL A   1      44.534  35.657  28.772  1.00  0.00     0.198 A 
ATOM     74  F   UNL A   1      45.149  34.573  30.769  1.00  0.00    -0.203 F 
ATOM     75  F   UNL A   1      43.392  34.309  25.608  1.00  0.00    -0.200 F 
ATOM     76  C   UNL A   1      44.090  35.597  27.460  1.00  0.00     0.200 A 
ATOM     77  F   UNL A   1      44.825  36.842  29.327  1.00  0.00    -0.200 F 
ATOM     78  F   UNL A   1      43.964  36.723  26.743  1.00  0.00    -0.200 F 
ENDBRANCH  54  68
BRANCH  55  79
ATOM     79  C   UNL A   1      45.073  24.951  34.578  1.00  0.00     0.064 A 
ATOM     80  C   UNL A   1      45.687  24.949  35.838  1.00  0.00     0.173 A 
ATOM     81  C   UNL A   1      44.548  23.739  34.107  1.00  0.00     0.173 A 
ATOM     82  F   UNL A   1      46.225  26.079  36.320  1.00  0.00    -0.203 F 
ATOM     83  C   UNL A   1      45.782  23.781  36.590  1.00  0.00     0.198 A 
ATOM     84  C   UNL A   1      44.624  22.576  34.869  1.00  0.00     0.198 A 
ATOM     85  F   UNL A   1      43.953  23.688  32.905  1.00  0.00    -0.203 F 
ATOM     86  F   UNL A   1      46.408  23.798  37.775  1.00  0.00    -0.200 F 
ATOM     87  C   UNL A   1      45.246  22.596  36.108  1.00  0.00     0.200 A 
ATOM     88  F   UNL A   1      44.098  21.435  34.402  1.00  0.00    -0.200 F 
ATOM     89  F   UNL A   1      45.337  21.472  36.833  1.00  0.00    -0.200 F 
ENDBRANCH  55  79
BRANCH  67  90
ATOM     90  C   UNL A   1      48.867  27.611  29.368  1.00  0.00     0.064 A 
ATOM     91  C   UNL A   1      50.137  28.077  29.732  1.00  0.00     0.173 A 
ATOM     92  C   UNL A   1      48.782  26.621  28.377  1.00  0.00     0.173 A 
ATOM     93  F   UNL A   1      50.263  29.031  30.667  1.00  0.00    -0.203 F 
ATOM     94  C   UNL A   1      51.281  27.580  29.116  1.00  0.00     0.198 A 
ATOM     95  C   UNL A   1      49.930  26.109  27.781  1.00  0.00     0.198 A 
ATOM     96  F   UNL A   1      47.587  26.137  28.005  1.00  0.00    -0.203 F 
ATOM     97  F   UNL A   1      52.485  28.061  29.455  1.00  0.00    -0.200 F 
ATOM     98  C   UNL A   1      51.176  26.591  28.147  1.00  0.00     0.200 A 
ATOM     99  F   UNL A   1      49.829  25.145  26.855  1.00  0.00    -0.200 F 
ATOM    100  F   UNL A   1      52.281  26.105  27.564  1.00  0.00    -0.200 F 
ENDBRANCH  67  90
ENDBRANCH  41  42
ENDBRANCH  34  36
ENDBRANCH  33  34
ENDBRANCH  32  33
ENDBRANCH  31  32
ENDBRANCH  30  31
ENDBRANCH  29  30
ENDBRANCH  28  29
ENDBRANCH  27  28
ENDBRANCH   1  27
TORSDOF 23
ENDMDL
