MODEL 1
REMARK VINA RESULT:     -10.8      0.000      0.000
REMARK SMILES CC(C)SCC(=O)N1Cc2ccccc2C[C@H]1C(=O)OCCOCCOCCOCCOC(=O)c1ccc(-c2c3nc(c(-c4c(F)c(F)c(F)c(F)c4F)c4ccc([nH]4)c(-c4c(F)c(F)c(F)c(F)c4F)c4nc(c(-c5c(F)c(F)c(F)c(F)c5F)c5ccc2[nH]5)C=C4)C=C3)cc1
REMARK SMILES IDX 25 1 24 2 23 3 22 4 21 5 20 6 18 7 19 8 17 9 8 10 9 11 10 12
REMARK SMILES IDX 16 13 11 14 15 15 12 16 14 17 13 18 6 19 7 20 5 21 4 22 2 23
REMARK SMILES IDX 1 24 3 25 26 26 27 27 28 28 29 29 30 30 31 31 32 32 33 33
REMARK SMILES IDX 34 34 35 35 36 36 97 37 37 38 96 39 38 40 39 41 40 42 90 43
REMARK SMILES IDX 41 44 95 45 89 46 91 47 42 48 94 49 88 50 87 51 43 53 75 54
REMARK SMILES IDX 55 55 74 56 56 57 59 58 73 59 92 60 57 61 58 62 72 64 93 65
REMARK SMILES IDX 60 66 44 67 45 68 53 69 46 70 47 71 51 72 54 73 48 74 49 75
REMARK SMILES IDX 52 76 50 77 76 78 77 79 85 80 78 81 79 82 83 83 86 84 80 85
REMARK SMILES IDX 81 86 84 87 82 88 61 89 62 90 70 91 63 92 64 93 68 94 71 95
REMARK SMILES IDX 65 96 66 97 69 98 67 99
REMARK H PARENT 91 52 59 63
REMARK Flexibility Score: inf
ROOT
ATOM      1  C   UNL A   1      40.736  19.787  26.298  1.00  0.00     0.188 C 
ENDROOT
BRANCH   1   2
ATOM      2  C   UNL A   1      40.916  21.273  26.639  1.00  0.00     0.188 C 
BRANCH   2   3
ATOM      3  O   UNL A   1      39.794  22.003  27.107  1.00  0.00    -0.376 OA
BRANCH   3   4
ATOM      4  C   UNL A   1      39.413  23.182  26.403  1.00  0.00     0.202 C 
BRANCH   4   5
ATOM      5  C   UNL A   1      37.933  23.629  26.404  1.00  0.00     0.261 C 
BRANCH   5   6
ATOM      6  O   UNL A   1      37.014  22.983  25.472  1.00  0.00    -0.462 OA
BRANCH   6   7
ATOM      7  C   UNL A   1      35.774  23.531  25.423  1.00  0.00     0.329 C 
ATOM      8  O   UNL A   1      35.573  24.733  25.609  1.00  0.00    -0.250 OA
BRANCH   7   9
ATOM      9  C   UNL A   1      34.569  22.572  25.255  1.00  0.00     0.199 C 
ATOM     10  N   UNL A   1      33.254  22.883  24.591  1.00  0.00    -0.323 N 
ATOM     11  C   UNL A   1      32.917  22.037  23.428  1.00  0.00     0.156 C 
ATOM     12  C   UNL A   1      33.100  20.569  23.758  1.00  0.00    -0.025 A 
ATOM     13  C   UNL A   1      35.268  21.315  24.668  1.00  0.00     0.073 C 
ATOM     14  C   UNL A   1      32.140  19.584  23.516  1.00  0.00     0.006 A 
ATOM     15  C   UNL A   1      34.294  20.213  24.400  1.00  0.00    -0.040 A 
ATOM     16  C   UNL A   1      32.384  18.264  23.911  1.00  0.00     0.000 A 
ATOM     17  C   UNL A   1      34.545  18.895  24.777  1.00  0.00     0.004 A 
ATOM     18  C   UNL A   1      33.584  17.920  24.536  1.00  0.00     0.000 A 
BRANCH  10  19
ATOM     19  C   UNL A   1      32.130  23.004  25.446  1.00  0.00     0.233 C 
ATOM     20  O   UNL A   1      31.714  22.048  26.097  1.00  0.00    -0.274 OA
BRANCH  19  21
ATOM     21  C   UNL A   1      31.303  24.241  25.235  1.00  0.00     0.169 C 
BRANCH  21  22
ATOM     22  S   UNL A   1      32.094  25.819  24.787  1.00  0.00    -0.149 SA
BRANCH  22  23
ATOM     23  C   UNL A   1      30.957  26.859  23.783  1.00  0.00     0.041 C 
ATOM     24  C   UNL A   1      31.223  28.295  24.284  1.00  0.00     0.019 C 
ATOM     25  C   UNL A   1      31.263  26.798  22.295  1.00  0.00     0.019 C 
ENDBRANCH  22  23
ENDBRANCH  21  22
ENDBRANCH  19  21
ENDBRANCH  10  19
ENDBRANCH   7   9
ENDBRANCH   6   7
ENDBRANCH   5   6
ENDBRANCH   4   5
ENDBRANCH   3   4
ENDBRANCH   2   3
ENDBRANCH   1   2
BRANCH   1  26
ATOM     26  O   UNL A   1      41.736  19.279  25.435  1.00  0.00    -0.377 OA
BRANCH  26  27
ATOM     27  C   UNL A   1      42.909  18.698  25.984  1.00  0.00     0.188 C 
BRANCH  27  28
ATOM     28  C   UNL A   1      44.216  18.992  25.236  1.00  0.00     0.188 C 
BRANCH  28  29
ATOM     29  O   UNL A   1      44.288  20.137  24.385  1.00  0.00    -0.376 OA
BRANCH  29  30
ATOM     30  C   UNL A   1      44.416  21.428  24.967  1.00  0.00     0.202 C 
BRANCH  30  31
ATOM     31  C   UNL A   1      44.425  22.617  24.013  1.00  0.00     0.261 C 
BRANCH  31  32
ATOM     32  O   UNL A   1      43.639  23.684  24.556  1.00  0.00    -0.460 OA
BRANCH  32  33
ATOM     33  C   UNL A   1      44.361  24.707  25.056  1.00  0.00     0.338 C 
ATOM     34  O   UNL A   1      45.489  25.058  24.743  1.00  0.00    -0.246 OA
BRANCH  33  35
ATOM     35  C   UNL A   1      43.474  25.511  25.904  1.00  0.00     0.060 A 
ATOM     36  C   UNL A   1      43.718  26.889  25.956  1.00  0.00     0.016 A 
ATOM     37  C   UNL A   1      42.434  24.932  26.636  1.00  0.00     0.016 A 
ATOM     38  C   UNL A   1      42.937  27.700  26.755  1.00  0.00     0.010 A 
ATOM     39  C   UNL A   1      41.682  25.738  27.486  1.00  0.00     0.010 A 
ATOM     40  C   UNL A   1      41.967  27.112  27.573  1.00  0.00    -0.014 A 
BRANCH  40  41
ATOM     41  C   UNL A   1      41.495  27.893  28.726  1.00  0.00     0.031 A 
ATOM     42  C   UNL A   1      42.297  27.795  29.992  1.00  0.00     0.074 A 
ATOM     43  C   UNL A   1      40.443  28.718  28.612  1.00  0.00     0.049 A 
ATOM     44  N   UNL A   1      42.090  28.357  31.152  1.00  0.00    -0.248 NA
ATOM     45  C   UNL A   1      43.505  26.948  29.941  1.00  0.00     0.031 C 
ATOM     46  C   UNL A   1      39.663  28.932  27.394  1.00  0.00     0.029 A 
ATOM     47  N   UNL A   1      39.854  29.529  29.542  1.00  0.00    -0.354 N 
ATOM     48  C   UNL A   1      43.127  27.922  31.965  1.00  0.00     0.074 A 
ATOM     49  C   UNL A   1      43.955  27.038  31.182  1.00  0.00     0.031 C 
ATOM     50  C   UNL A   1      38.677  29.806  27.661  1.00  0.00     0.029 A 
ATOM     51  C   UNL A   1      38.741  30.179  29.072  1.00  0.00     0.049 A 
ATOM     52  H   UNL A   1      40.195  29.637  30.459  1.00  0.00     0.167 HD
ATOM     53  C   UNL A   1      43.359  28.240  33.258  1.00  0.00     0.037 A 
ATOM     54  C   UNL A   1      37.865  30.956  29.733  1.00  0.00     0.037 A 
ATOM     55  C   UNL A   1      42.523  29.130  34.015  1.00  0.00     0.049 A 
ATOM     56  C   UNL A   1      38.106  31.223  31.199  1.00  0.00     0.074 A 
ATOM     57  C   UNL A   1      42.667  29.540  35.326  1.00  0.00     0.029 A 
ATOM     58  N   UNL A   1      41.380  29.741  33.521  1.00  0.00    -0.354 N 
ATOM     59  N   UNL A   1      39.096  30.828  31.963  1.00  0.00    -0.248 NA
ATOM     60  C   UNL A   1      37.109  32.048  31.892  1.00  0.00     0.031 C 
ATOM     61  C   UNL A   1      41.572  30.346  35.647  1.00  0.00     0.029 A 
ATOM     62  C   UNL A   1      40.787  30.498  34.514  1.00  0.00     0.049 A 
ATOM     63  H   UNL A   1      41.041  29.648  32.601  1.00  0.00     0.167 HD
ATOM     64  C   UNL A   1      38.863  31.388  33.214  1.00  0.00     0.074 A 
ATOM     65  C   UNL A   1      37.645  32.162  33.098  1.00  0.00     0.031 C 
ATOM     66  C   UNL A   1      39.585  31.276  34.357  1.00  0.00     0.037 A 
BRANCH  53  67
ATOM     67  C   UNL A   1      44.524  27.594  33.945  1.00  0.00     0.064 A 
ATOM     68  C   UNL A   1      45.790  28.195  33.989  1.00  0.00     0.173 A 
ATOM     69  C   UNL A   1      44.350  26.376  34.620  1.00  0.00     0.173 A 
ATOM     70  F   UNL A   1      46.015  29.346  33.338  1.00  0.00    -0.203 F 
ATOM     71  C   UNL A   1      46.842  27.597  34.680  1.00  0.00     0.198 A 
ATOM     72  C   UNL A   1      45.394  25.797  35.335  1.00  0.00     0.198 A 
ATOM     73  F   UNL A   1      43.161  25.756  34.601  1.00  0.00    -0.203 F 
ATOM     74  F   UNL A   1      48.052  28.172  34.683  1.00  0.00    -0.200 F 
ATOM     75  C   UNL A   1      46.639  26.407  35.363  1.00  0.00     0.200 A 
ATOM     76  F   UNL A   1      45.193  24.653  36.002  1.00  0.00    -0.200 F 
ATOM     77  F   UNL A   1      47.645  25.844  36.047  1.00  0.00    -0.200 F 
ENDBRANCH  53  67
BRANCH  54  78
ATOM     78  C   UNL A   1      36.668  31.506  29.042  1.00  0.00     0.064 A 
ATOM     79  C   UNL A   1      36.573  32.869  28.727  1.00  0.00     0.173 A 
ATOM     80  C   UNL A   1      35.569  30.691  28.735  1.00  0.00     0.173 A 
ATOM     81  F   UNL A   1      37.589  33.694  29.015  1.00  0.00    -0.203 F 
ATOM     82  C   UNL A   1      35.411  33.401  28.172  1.00  0.00     0.198 A 
ATOM     83  C   UNL A   1      34.421  31.217  28.146  1.00  0.00     0.198 A 
ATOM     84  F   UNL A   1      35.605  29.378  29.010  1.00  0.00    -0.203 F 
ATOM     85  F   UNL A   1      35.321  34.719  27.949  1.00  0.00    -0.200 F 
ATOM     86  C   UNL A   1      34.336  32.575  27.880  1.00  0.00     0.200 A 
ATOM     87  F   UNL A   1      33.392  30.411  27.851  1.00  0.00    -0.200 F 
ATOM     88  F   UNL A   1      33.216  33.088  27.357  1.00  0.00    -0.200 F 
ENDBRANCH  54  78
BRANCH  66  89
ATOM     89  C   UNL A   1      39.109  32.052  35.550  1.00  0.00     0.064 A 
ATOM     90  C   UNL A   1      38.331  31.463  36.556  1.00  0.00     0.173 A 
ATOM     91  C   UNL A   1      39.481  33.397  35.708  1.00  0.00     0.173 A 
ATOM     92  F   UNL A   1      37.942  30.183  36.446  1.00  0.00    -0.203 F 
ATOM     93  C   UNL A   1      37.915  32.200  37.660  1.00  0.00     0.198 A 
ATOM     94  C   UNL A   1      39.097  34.119  36.832  1.00  0.00     0.198 A 
ATOM     95  F   UNL A   1      40.236  34.005  34.779  1.00  0.00    -0.203 F 
ATOM     96  F   UNL A   1      37.123  31.633  38.580  1.00  0.00    -0.200 F 
ATOM     97  C   UNL A   1      38.304  33.524  37.802  1.00  0.00     0.200 A 
ATOM     98  F   UNL A   1      39.493  35.391  36.977  1.00  0.00    -0.200 F 
ATOM     99  F   UNL A   1      37.911  34.228  38.871  1.00  0.00    -0.200 F 
ENDBRANCH  66  89
ENDBRANCH  40  41
ENDBRANCH  33  35
ENDBRANCH  32  33
ENDBRANCH  31  32
ENDBRANCH  30  31
ENDBRANCH  29  30
ENDBRANCH  28  29
ENDBRANCH  27  28
ENDBRANCH  26  27
ENDBRANCH   1  26
TORSDOF 24
ENDMDL
MODEL 2
REMARK VINA RESULT:     -10.7      1.118      7.647
REMARK SMILES CC(C)SCC(=O)N1Cc2ccccc2C[C@H]1C(=O)OCCOCCOCCOCCOC(=O)c1ccc(-c2c3nc(c(-c4c(F)c(F)c(F)c(F)c4F)c4ccc([nH]4)c(-c4c(F)c(F)c(F)c(F)c4F)c4nc(c(-c5c(F)c(F)c(F)c(F)c5F)c5ccc2[nH]5)C=C4)C=C3)cc1
REMARK SMILES IDX 25 1 24 2 23 3 22 4 21 5 20 6 18 7 19 8 17 9 8 10 9 11 10 12
REMARK SMILES IDX 16 13 11 14 15 15 12 16 14 17 13 18 6 19 7 20 5 21 4 22 2 23
REMARK SMILES IDX 1 24 3 25 26 26 27 27 28 28 29 29 30 30 31 31 32 32 33 33
REMARK SMILES IDX 34 34 35 35 36 36 97 37 37 38 96 39 38 40 39 41 40 42 90 43
REMARK SMILES IDX 41 44 95 45 89 46 91 47 42 48 94 49 88 50 87 51 43 53 75 54
REMARK SMILES IDX 55 55 74 56 56 57 59 58 73 59 92 60 57 61 58 62 72 64 93 65
REMARK SMILES IDX 60 66 44 67 45 68 53 69 46 70 47 71 51 72 54 73 48 74 49 75
REMARK SMILES IDX 52 76 50 77 76 78 77 79 85 80 78 81 79 82 83 83 86 84 80 85
REMARK SMILES IDX 81 86 84 87 82 88 61 89 62 90 70 91 63 92 64 93 68 94 71 95
REMARK SMILES IDX 65 96 66 97 69 98 67 99
REMARK H PARENT 91 52 59 63
REMARK Flexibility Score: inf
ROOT
ATOM      1  C   UNL A   1      40.786  19.814  26.306  1.00  0.00     0.188 C 
ENDROOT
BRANCH   1   2
ATOM      2  C   UNL A   1      40.959  21.332  26.455  1.00  0.00     0.188 C 
BRANCH   2   3
ATOM      3  O   UNL A   1      39.990  22.055  27.198  1.00  0.00    -0.376 OA
BRANCH   3   4
ATOM      4  C   UNL A   1      39.211  23.035  26.516  1.00  0.00     0.202 C 
BRANCH   4   5
ATOM      5  C   UNL A   1      37.902  22.615  25.809  1.00  0.00     0.261 C 
BRANCH   5   6
ATOM      6  O   UNL A   1      37.109  23.648  25.149  1.00  0.00    -0.462 OA
BRANCH   6   7
ATOM      7  C   UNL A   1      36.151  23.181  24.310  1.00  0.00     0.329 C 
ATOM      8  O   UNL A   1      36.418  22.577  23.269  1.00  0.00    -0.250 OA
BRANCH   7   9
ATOM      9  C   UNL A   1      34.679  23.547  24.624  1.00  0.00     0.199 C 
ATOM     10  N   UNL A   1      33.732  22.792  25.519  1.00  0.00    -0.323 N 
ATOM     11  C   UNL A   1      33.208  23.551  26.672  1.00  0.00     0.156 C 
ATOM     12  C   UNL A   1      32.682  24.903  26.233  1.00  0.00    -0.025 A 
ATOM     13  C   UNL A   1      34.821  25.044  25.012  1.00  0.00     0.073 C 
ATOM     14  C   UNL A   1      31.425  25.406  26.577  1.00  0.00     0.006 A 
ATOM     15  C   UNL A   1      33.504  25.650  25.378  1.00  0.00    -0.040 A 
ATOM     16  C   UNL A   1      31.009  26.643  26.072  1.00  0.00     0.000 A 
ATOM     17  C   UNL A   1      33.098  26.891  24.889  1.00  0.00     0.004 A 
ATOM     18  C   UNL A   1      31.844  27.385  25.234  1.00  0.00     0.000 A 
BRANCH  10  19
ATOM     19  C   UNL A   1      32.678  22.096  24.875  1.00  0.00     0.233 C 
ATOM     20  O   UNL A   1      31.509  22.232  25.233  1.00  0.00    -0.274 OA
BRANCH  19  21
ATOM     21  C   UNL A   1      33.112  20.959  23.995  1.00  0.00     0.169 C 
BRANCH  21  22
ATOM     22  S   UNL A   1      34.180  19.636  24.649  1.00  0.00    -0.149 SA
BRANCH  22  23
ATOM     23  C   UNL A   1      33.401  17.987  24.408  1.00  0.00     0.041 C 
ATOM     24  C   UNL A   1      34.600  17.030  24.232  1.00  0.00     0.019 C 
ATOM     25  C   UNL A   1      32.592  17.537  25.614  1.00  0.00     0.019 C 
ENDBRANCH  22  23
ENDBRANCH  21  22
ENDBRANCH  19  21
ENDBRANCH  10  19
ENDBRANCH   7   9
ENDBRANCH   6   7
ENDBRANCH   5   6
ENDBRANCH   4   5
ENDBRANCH   3   4
ENDBRANCH   2   3
ENDBRANCH   1   2
BRANCH   1  26
ATOM     26  O   UNL A   1      41.695  19.229  25.393  1.00  0.00    -0.377 OA
BRANCH  26  27
ATOM     27  C   UNL A   1      42.905  18.659  25.871  1.00  0.00     0.188 C 
BRANCH  27  28
ATOM     28  C   UNL A   1      44.192  19.177  25.218  1.00  0.00     0.188 C 
BRANCH  28  29
ATOM     29  O   UNL A   1      44.144  20.371  24.435  1.00  0.00    -0.376 OA
BRANCH  29  30
ATOM     30  C   UNL A   1      44.284  21.631  25.080  1.00  0.00     0.202 C 
BRANCH  30  31
ATOM     31  C   UNL A   1      44.289  22.866  24.187  1.00  0.00     0.261 C 
BRANCH  31  32
ATOM     32  O   UNL A   1      43.509  23.906  24.787  1.00  0.00    -0.460 OA
BRANCH  32  33
ATOM     33  C   UNL A   1      44.227  24.964  25.213  1.00  0.00     0.338 C 
ATOM     34  O   UNL A   1      45.291  25.379  24.776  1.00  0.00    -0.246 OA
BRANCH  33  35
ATOM     35  C   UNL A   1      43.401  25.714  26.165  1.00  0.00     0.060 A 
ATOM     36  C   UNL A   1      43.673  27.080  26.307  1.00  0.00     0.016 A 
ATOM     37  C   UNL A   1      42.391  25.096  26.908  1.00  0.00     0.016 A 
ATOM     38  C   UNL A   1      42.950  27.840  27.206  1.00  0.00     0.010 A 
ATOM     39  C   UNL A   1      41.700  25.846  27.856  1.00  0.00     0.010 A 
ATOM     40  C   UNL A   1      42.015  27.205  28.029  1.00  0.00    -0.014 A 
BRANCH  40  41
ATOM     41  C   UNL A   1      41.619  27.904  29.262  1.00  0.00     0.031 A 
ATOM     42  C   UNL A   1      40.341  28.691  29.221  1.00  0.00     0.074 A 
ATOM     43  C   UNL A   1      42.334  27.765  30.389  1.00  0.00     0.049 A 
ATOM     44  N   UNL A   1      39.780  29.412  30.153  1.00  0.00    -0.248 NA
ATOM     45  C   UNL A   1      39.588  28.656  27.952  1.00  0.00     0.031 C 
ATOM     46  C   UNL A   1      43.540  26.951  30.532  1.00  0.00     0.029 A 
ATOM     47  N   UNL A   1      42.140  28.310  31.628  1.00  0.00    -0.354 N 
ATOM     48  C   UNL A   1      38.624  29.924  29.580  1.00  0.00     0.074 A 
ATOM     49  C   UNL A   1      38.565  29.451  28.218  1.00  0.00     0.031 C 
ATOM     50  C   UNL A   1      43.995  27.070  31.792  1.00  0.00     0.029 A 
ATOM     51  C   UNL A   1      43.130  27.993  32.524  1.00  0.00     0.049 A 
ATOM     52  H   UNL A   1      41.367  28.874  31.856  1.00  0.00     0.167 HD
ATOM     53  C   UNL A   1      37.696  30.722  30.152  1.00  0.00     0.037 A 
ATOM     54  C   UNL A   1      43.318  28.438  33.779  1.00  0.00     0.037 A 
ATOM     55  C   UNL A   1      37.773  31.174  31.513  1.00  0.00     0.049 A 
ATOM     56  C   UNL A   1      42.307  29.396  34.360  1.00  0.00     0.074 A 
ATOM     57  C   UNL A   1      36.885  31.971  32.208  1.00  0.00     0.029 A 
ATOM     58  N   UNL A   1      38.810  30.868  32.383  1.00  0.00    -0.354 N 
ATOM     59  N   UNL A   1      41.205  29.865  33.826  1.00  0.00    -0.248 NA
ATOM     60  C   UNL A   1      42.567  29.884  35.720  1.00  0.00     0.031 C 
ATOM     61  C   UNL A   1      37.418  32.205  33.478  1.00  0.00     0.029 A 
ATOM     62  C   UNL A   1      38.601  31.491  33.599  1.00  0.00     0.049 A 
ATOM     63  H   UNL A   1      39.579  30.294  32.165  1.00  0.00     0.167 HD
ATOM     64  C   UNL A   1      40.619  30.669  34.797  1.00  0.00     0.074 A 
ATOM     65  C   UNL A   1      41.484  30.609  35.957  1.00  0.00     0.031 C 
ATOM     66  C   UNL A   1      39.473  31.392  34.741  1.00  0.00     0.037 A 
BRANCH  53  67
ATOM     67  C   UNL A   1      36.552  31.193  29.305  1.00  0.00     0.064 A 
ATOM     68  C   UNL A   1      36.453  32.518  28.857  1.00  0.00     0.173 A 
ATOM     69  C   UNL A   1      35.568  30.283  28.891  1.00  0.00     0.173 A 
ATOM     70  F   UNL A   1      37.353  33.433  29.246  1.00  0.00    -0.203 F 
ATOM     71  C   UNL A   1      35.407  32.915  28.026  1.00  0.00     0.198 A 
ATOM     72  C   UNL A   1      34.542  30.675  28.037  1.00  0.00     0.198 A 
ATOM     73  F   UNL A   1      35.613  29.006  29.300  1.00  0.00    -0.203 F 
ATOM     74  F   UNL A   1      35.312  34.193  27.635  1.00  0.00    -0.200 F 
ATOM     75  C   UNL A   1      34.461  31.990  27.607  1.00  0.00     0.200 A 
ATOM     76  F   UNL A   1      33.636  29.778  27.625  1.00  0.00    -0.200 F 
ATOM     77  F   UNL A   1      33.468  32.369  26.790  1.00  0.00    -0.200 F 
ENDBRANCH  53  67
BRANCH  54  78
ATOM     78  C   UNL A   1      44.515  28.022  34.559  1.00  0.00     0.064 A 
ATOM     79  C   UNL A   1      44.469  26.924  35.430  1.00  0.00     0.173 A 
ATOM     80  C   UNL A   1      45.712  28.750  34.494  1.00  0.00     0.173 A 
ATOM     81  F   UNL A   1      43.343  26.205  35.541  1.00  0.00    -0.203 F 
ATOM     82  C   UNL A   1      45.559  26.597  36.235  1.00  0.00     0.198 A 
ATOM     83  C   UNL A   1      46.814  28.400  35.272  1.00  0.00     0.198 A 
ATOM     84  F   UNL A   1      45.815  29.808  33.675  1.00  0.00    -0.203 F 
ATOM     85  F   UNL A   1      45.461  25.589  37.111  1.00  0.00    -0.200 F 
ATOM     86  C   UNL A   1      46.730  27.334  36.155  1.00  0.00     0.200 A 
ATOM     87  F   UNL A   1      47.949  29.105  35.178  1.00  0.00    -0.200 F 
ATOM     88  F   UNL A   1      47.773  27.026  36.936  1.00  0.00    -0.200 F 
ENDBRANCH  54  78
BRANCH  66  89
ATOM     89  C   UNL A   1      39.061  32.125  35.984  1.00  0.00     0.064 A 
ATOM     90  C   UNL A   1      39.436  33.456  36.218  1.00  0.00     0.173 A 
ATOM     91  C   UNL A   1      38.238  31.496  36.932  1.00  0.00     0.173 A 
ATOM     92  F   UNL A   1      40.230  34.097  35.347  1.00  0.00    -0.203 F 
ATOM     93  C   UNL A   1      39.029  34.119  37.371  1.00  0.00     0.198 A 
ATOM     94  C   UNL A   1      37.801  32.177  38.063  1.00  0.00     0.198 A 
ATOM     95  F   UNL A   1      37.841  30.228  36.749  1.00  0.00    -0.203 F 
ATOM     96  F   UNL A   1      39.447  35.371  37.603  1.00  0.00    -0.200 F 
ATOM     97  C   UNL A   1      38.206  33.483  38.288  1.00  0.00     0.200 A 
ATOM     98  F   UNL A   1      36.987  31.566  38.936  1.00  0.00    -0.200 F 
ATOM     99  F   UNL A   1      37.807  34.128  39.392  1.00  0.00    -0.200 F 
ENDBRANCH  66  89
ENDBRANCH  40  41
ENDBRANCH  33  35
ENDBRANCH  32  33
ENDBRANCH  31  32
ENDBRANCH  30  31
ENDBRANCH  29  30
ENDBRANCH  28  29
ENDBRANCH  27  28
ENDBRANCH  26  27
ENDBRANCH   1  26
TORSDOF 24
ENDMDL
MODEL 3
REMARK VINA RESULT:     -10.5      5.173     10.606
REMARK SMILES CC(C)SCC(=O)N1Cc2ccccc2C[C@H]1C(=O)OCCOCCOCCOCCOC(=O)c1ccc(-c2c3nc(c(-c4c(F)c(F)c(F)c(F)c4F)c4ccc([nH]4)c(-c4c(F)c(F)c(F)c(F)c4F)c4nc(c(-c5c(F)c(F)c(F)c(F)c5F)c5ccc2[nH]5)C=C4)C=C3)cc1
REMARK SMILES IDX 25 1 24 2 23 3 22 4 21 5 20 6 18 7 19 8 17 9 8 10 9 11 10 12
REMARK SMILES IDX 16 13 11 14 15 15 12 16 14 17 13 18 6 19 7 20 5 21 4 22 2 23
REMARK SMILES IDX 1 24 3 25 26 26 27 27 28 28 29 29 30 30 31 31 32 32 33 33
REMARK SMILES IDX 34 34 35 35 36 36 97 37 37 38 96 39 38 40 39 41 40 42 90 43
REMARK SMILES IDX 41 44 95 45 89 46 91 47 42 48 94 49 88 50 87 51 43 53 75 54
REMARK SMILES IDX 55 55 74 56 56 57 59 58 73 59 92 60 57 61 58 62 72 64 93 65
REMARK SMILES IDX 60 66 44 67 45 68 53 69 46 70 47 71 51 72 54 73 48 74 49 75
REMARK SMILES IDX 52 76 50 77 76 78 77 79 85 80 78 81 79 82 83 83 86 84 80 85
REMARK SMILES IDX 81 86 84 87 82 88 61 89 62 90 70 91 63 92 64 93 68 94 71 95
REMARK SMILES IDX 65 96 66 97 69 98 67 99
REMARK H PARENT 91 52 59 63
REMARK Flexibility Score: inf
ROOT
ATOM      1  C   UNL A   1      34.135  31.275  27.733  1.00  0.00     0.188 C 
ENDROOT
BRANCH   1   2
ATOM      2  C   UNL A   1      34.987  30.064  27.327  1.00  0.00     0.188 C 
BRANCH   2   3
ATOM      3  O   UNL A   1      34.327  28.870  26.938  1.00  0.00    -0.376 OA
BRANCH   3   4
ATOM      4  C   UNL A   1      33.568  28.880  25.732  1.00  0.00     0.202 C 
BRANCH   4   5
ATOM      5  C   UNL A   1      32.023  28.865  25.801  1.00  0.00     0.261 C 
BRANCH   5   6
ATOM      6  O   UNL A   1      31.361  27.633  26.216  1.00  0.00    -0.462 OA
BRANCH   6   7
ATOM      7  C   UNL A   1      31.015  26.802  25.201  1.00  0.00     0.329 C 
ATOM      8  O   UNL A   1      29.918  26.858  24.642  1.00  0.00    -0.250 OA
BRANCH   7   9
ATOM      9  C   UNL A   1      32.000  25.664  24.836  1.00  0.00     0.199 C 
ATOM     10  N   UNL A   1      32.960  25.638  23.676  1.00  0.00    -0.323 N 
ATOM     11  C   UNL A   1      34.387  25.517  24.037  1.00  0.00     0.156 C 
ATOM     12  C   UNL A   1      34.599  24.388  25.027  1.00  0.00    -0.025 A 
ATOM     13  C   UNL A   1      32.692  25.417  26.205  1.00  0.00     0.073 C 
ATOM     14  C   UNL A   1      35.558  23.384  24.879  1.00  0.00     0.006 A 
ATOM     15  C   UNL A   1      33.723  24.338  26.119  1.00  0.00    -0.040 A 
ATOM     16  C   UNL A   1      35.635  22.352  25.821  1.00  0.00     0.000 A 
ATOM     17  C   UNL A   1      33.811  23.321  27.068  1.00  0.00     0.004 A 
ATOM     18  C   UNL A   1      34.767  22.323  26.914  1.00  0.00     0.000 A 
BRANCH  10  19
ATOM     19  C   UNL A   1      32.648  24.745  22.620  1.00  0.00     0.233 C 
ATOM     20  O   UNL A   1      32.732  25.091  21.443  1.00  0.00    -0.274 OA
BRANCH  19  21
ATOM     21  C   UNL A   1      31.899  23.510  23.033  1.00  0.00     0.169 C 
BRANCH  21  22
ATOM     22  S   UNL A   1      32.617  21.858  22.764  1.00  0.00    -0.149 SA
BRANCH  22  23
ATOM     23  C   UNL A   1      32.114  20.700  24.102  1.00  0.00     0.041 C 
ATOM     24  C   UNL A   1      33.410  19.931  24.437  1.00  0.00     0.019 C 
ATOM     25  C   UNL A   1      31.637  21.419  25.353  1.00  0.00     0.019 C 
ENDBRANCH  22  23
ENDBRANCH  21  22
ENDBRANCH  19  21
ENDBRANCH  10  19
ENDBRANCH   7   9
ENDBRANCH   6   7
ENDBRANCH   5   6
ENDBRANCH   4   5
ENDBRANCH   3   4
ENDBRANCH   2   3
ENDBRANCH   1   2
BRANCH   1  26
ATOM     26  O   UNL A   1      34.890  32.454  27.937  1.00  0.00    -0.377 OA
BRANCH  26  27
ATOM     27  C   UNL A   1      34.231  33.711  27.992  1.00  0.00     0.188 C 
BRANCH  27  28
ATOM     28  C   UNL A   1      34.504  34.556  29.242  1.00  0.00     0.188 C 
BRANCH  28  29
ATOM     29  O   UNL A   1      34.008  34.110  30.506  1.00  0.00    -0.376 OA
BRANCH  29  30
ATOM     30  C   UNL A   1      34.057  34.990  31.622  1.00  0.00     0.202 C 
BRANCH  30  31
ATOM     31  C   UNL A   1      35.090  34.680  32.700  1.00  0.00     0.261 C 
BRANCH  31  32
ATOM     32  O   UNL A   1      36.124  33.849  32.161  1.00  0.00    -0.460 OA
BRANCH  32  33
ATOM     33  C   UNL A   1      36.343  32.714  32.853  1.00  0.00     0.338 C 
ATOM     34  O   UNL A   1      35.788  32.334  33.875  1.00  0.00    -0.246 OA
BRANCH  33  35
ATOM     35  C   UNL A   1      37.217  31.857  32.045  1.00  0.00     0.060 A 
ATOM     36  C   UNL A   1      38.166  31.088  32.732  1.00  0.00     0.016 A 
ATOM     37  C   UNL A   1      37.118  31.811  30.653  1.00  0.00     0.016 A 
ATOM     38  C   UNL A   1      39.039  30.278  32.030  1.00  0.00     0.010 A 
ATOM     39  C   UNL A   1      38.034  31.040  29.940  1.00  0.00     0.010 A 
ATOM     40  C   UNL A   1      39.017  30.313  30.633  1.00  0.00    -0.014 A 
BRANCH  40  41
ATOM     41  C   UNL A   1      40.219  29.840  29.929  1.00  0.00     0.031 A 
ATOM     42  C   UNL A   1      41.336  30.827  29.746  1.00  0.00     0.074 A 
ATOM     43  C   UNL A   1      40.333  28.558  29.550  1.00  0.00     0.049 A 
ATOM     44  N   UNL A   1      42.486  30.678  29.147  1.00  0.00    -0.248 NA
ATOM     45  C   UNL A   1      41.129  32.169  30.324  1.00  0.00     0.031 C 
ATOM     46  C   UNL A   1      39.327  27.519  29.766  1.00  0.00     0.029 A 
ATOM     47  N   UNL A   1      41.352  27.918  28.901  1.00  0.00    -0.354 N 
ATOM     48  C   UNL A   1      43.126  31.903  29.263  1.00  0.00     0.074 A 
ATOM     49  C   UNL A   1      42.241  32.794  29.973  1.00  0.00     0.031 C 
ATOM     50  C   UNL A   1      39.775  26.367  29.234  1.00  0.00     0.029 A 
ATOM     51  C   UNL A   1      41.076  26.605  28.614  1.00  0.00     0.049 A 
ATOM     52  H   UNL A   1      42.201  28.355  28.663  1.00  0.00     0.167 HD
ATOM     53  C   UNL A   1      44.353  32.247  28.811  1.00  0.00     0.037 A 
ATOM     54  C   UNL A   1      41.794  25.720  27.899  1.00  0.00     0.037 A 
ATOM     55  C   UNL A   1      45.221  31.339  28.114  1.00  0.00     0.049 A 
ATOM     56  C   UNL A   1      43.122  26.161  27.335  1.00  0.00     0.074 A 
ATOM     57  C   UNL A   1      46.491  31.568  27.624  1.00  0.00     0.029 A 
ATOM     58  N   UNL A   1      44.895  30.027  27.804  1.00  0.00    -0.354 N 
ATOM     59  N   UNL A   1      43.737  27.313  27.462  1.00  0.00    -0.248 NA
ATOM     60  C   UNL A   1      43.858  25.176  26.532  1.00  0.00     0.031 C 
ATOM     61  C   UNL A   1      46.909  30.414  26.956  1.00  0.00     0.029 A 
ATOM     62  C   UNL A   1      45.929  29.443  27.096  1.00  0.00     0.049 A 
ATOM     63  H   UNL A   1      44.054  29.579  28.051  1.00  0.00     0.167 HD
ATOM     64  C   UNL A   1      44.947  27.179  26.790  1.00  0.00     0.074 A 
ATOM     65  C   UNL A   1      44.982  25.827  26.272  1.00  0.00     0.031 C 
ATOM     66  C   UNL A   1      45.940  28.085  26.614  1.00  0.00     0.037 A 
BRANCH  53  67
ATOM     67  C   UNL A   1      44.808  33.661  29.013  1.00  0.00     0.064 A 
ATOM     68  C   UNL A   1      45.562  34.049  30.130  1.00  0.00     0.173 A 
ATOM     69  C   UNL A   1      44.531  34.631  28.038  1.00  0.00     0.173 A 
ATOM     70  F   UNL A   1      45.832  33.166  31.103  1.00  0.00    -0.203 F 
ATOM     71  C   UNL A   1      46.018  35.358  30.265  1.00  0.00     0.198 A 
ATOM     72  C   UNL A   1      45.013  35.930  28.161  1.00  0.00     0.198 A 
ATOM     73  F   UNL A   1      43.806  34.312  26.955  1.00  0.00    -0.203 F 
ATOM     74  F   UNL A   1      46.710  35.716  31.355  1.00  0.00    -0.200 F 
ATOM     75  C   UNL A   1      45.755  36.293  29.274  1.00  0.00     0.200 A 
ATOM     76  F   UNL A   1      44.766  36.828  27.197  1.00  0.00    -0.200 F 
ATOM     77  F   UNL A   1      46.213  37.547  29.394  1.00  0.00    -0.200 F 
ENDBRANCH  53  67
BRANCH  54  78
ATOM     78  C   UNL A   1      41.268  24.352  27.640  1.00  0.00     0.064 A 
ATOM     79  C   UNL A   1      41.865  23.223  28.219  1.00  0.00     0.173 A 
ATOM     80  C   UNL A   1      40.196  24.141  26.761  1.00  0.00     0.173 A 
ATOM     81  F   UNL A   1      42.904  23.370  29.053  1.00  0.00    -0.203 F 
ATOM     82  C   UNL A   1      41.437  21.937  27.896  1.00  0.00     0.198 A 
ATOM     83  C   UNL A   1      39.744  22.856  26.467  1.00  0.00     0.198 A 
ATOM     84  F   UNL A   1      39.584  25.185  26.180  1.00  0.00    -0.203 F 
ATOM     85  F   UNL A   1      42.073  20.875  28.408  1.00  0.00    -0.200 F 
ATOM     86  C   UNL A   1      40.376  21.754  27.022  1.00  0.00     0.200 A 
ATOM     87  F   UNL A   1      38.708  22.686  25.635  1.00  0.00    -0.200 F 
ATOM     88  F   UNL A   1      39.972  20.517  26.704  1.00  0.00    -0.200 F 
ENDBRANCH  54  78
BRANCH  66  89
ATOM     89  C   UNL A   1      47.168  27.626  25.883  1.00  0.00     0.064 A 
ATOM     90  C   UNL A   1      48.271  27.083  26.556  1.00  0.00     0.173 A 
ATOM     91  C   UNL A   1      47.218  27.690  24.481  1.00  0.00     0.173 A 
ATOM     92  F   UNL A   1      48.276  27.010  27.896  1.00  0.00    -0.203 F 
ATOM     93  C   UNL A   1      49.392  26.651  25.855  1.00  0.00     0.198 A 
ATOM     94  C   UNL A   1      48.324  27.220  23.783  1.00  0.00     0.198 A 
ATOM     95  F   UNL A   1      46.182  28.190  23.789  1.00  0.00    -0.203 F 
ATOM     96  F   UNL A   1      50.459  26.188  26.523  1.00  0.00    -0.200 F 
ATOM     97  C   UNL A   1      49.415  26.711  24.470  1.00  0.00     0.200 A 
ATOM     98  F   UNL A   1      48.333  27.260  22.443  1.00  0.00    -0.200 F 
ATOM     99  F   UNL A   1      50.491  26.284  23.797  1.00  0.00    -0.200 F 
ENDBRANCH  66  89
ENDBRANCH  40  41
ENDBRANCH  33  35
ENDBRANCH  32  33
ENDBRANCH  31  32
ENDBRANCH  30  31
ENDBRANCH  29  30
ENDBRANCH  28  29
ENDBRANCH  27  28
ENDBRANCH  26  27
ENDBRANCH   1  26
TORSDOF 24
ENDMDL
