MODEL 1
REMARK VINA RESULT:     -11.2      0.000      0.000
REMARK SMILES C[NH+]1CCC([NH+]2CCC(Oc3ccc4ccccc4c3)(C(=O)OCCOCCOCCOCCOC(=O)c3ccc(-c4c5nc(c(-c6c(F)c(F)c(F)c(F)c6F)c6ccc([nH]6)c(-c6c(F)c(F)c(F)c(F)c6F)c6nc(c(-c7c(F)c(F)c(F)c(F)c7F)c7ccc4[nH]7)C=C6)C=C5)cc3)CC2)CC1
REMARK SMILES IDX 29 1 28 2 27 3 26 4 25 5 24 6 23 7 21 8 22 9 9 10 6 11 7 12
REMARK SMILES IDX 102 13 8 15 101 16 5 17 1 18 2 19 3 20 104 21 4 23 103 24
REMARK SMILES IDX 10 25 11 26 12 27 20 28 13 29 19 30 14 31 18 32 15 33 17 34
REMARK SMILES IDX 16 35 30 36 31 37 32 38 33 39 34 40 35 41 36 42 37 43 38 44
REMARK SMILES IDX 39 45 100 46 40 47 99 48 41 49 42 50 43 51 93 52 44 53 98 54
REMARK SMILES IDX 92 55 94 56 45 57 97 58 91 59 90 60 46 62 78 63 58 64 77 65
REMARK SMILES IDX 59 66 62 67 76 68 95 69 60 70 61 71 75 73 96 74 63 75 47 76
REMARK SMILES IDX 48 77 56 78 49 79 50 80 54 81 57 82 51 83 52 84 55 85 53 86
REMARK SMILES IDX 79 87 80 88 88 89 81 90 82 91 86 92 89 93 83 94 84 95 87 96
REMARK SMILES IDX 85 97 64 98 65 99 73 100 66 101 67 102 71 103 74 104 68 105
REMARK SMILES IDX 69 106 72 107 70 108
REMARK H PARENT 6 14 2 22 94 61 62 72
REMARK Flexibility Score: inf
ROOT
ATOM      1  O   UNL A   1      35.646  23.489  23.148  1.00  0.00    -0.377 OA
ENDROOT
BRANCH   1   2
ATOM      2  C   UNL A   1      34.359  22.972  22.883  1.00  0.00     0.188 C 
BRANCH   2   3
ATOM      3  C   UNL A   1      33.283  23.964  22.427  1.00  0.00     0.188 C 
BRANCH   3   4
ATOM      4  O   UNL A   1      33.515  25.357  22.539  1.00  0.00    -0.376 OA
BRANCH   4   5
ATOM      5  C   UNL A   1      32.887  26.248  21.630  1.00  0.00     0.202 C 
BRANCH   5   6
ATOM      6  C   UNL A   1      33.160  27.767  21.707  1.00  0.00     0.261 C 
BRANCH   6   7
ATOM      7  O   UNL A   1      32.483  28.539  22.731  1.00  0.00    -0.460 OA
BRANCH   7   8
ATOM      8  C   UNL A   1      33.144  28.689  23.917  1.00  0.00     0.351 C 
ATOM      9  O   UNL A   1      34.371  28.657  23.993  1.00  0.00    -0.247 OA
BRANCH   8  10
ATOM     10  C   UNL A   1      32.222  28.817  25.172  1.00  0.00     0.216 C 
ATOM     11  N   UNL A   1      32.959  30.917  27.238  1.00  0.00    -0.332 N 
ATOM     12  C   UNL A   1      31.921  31.228  26.256  1.00  0.00     0.267 C 
ATOM     13  C   UNL A   1      33.867  29.852  26.813  1.00  0.00     0.267 C 
ATOM     14  H   UNL A   1      32.452  30.523  28.031  1.00  0.00     0.348 HD
ATOM     15  C   UNL A   1      31.370  30.086  25.376  1.00  0.00     0.122 C 
ATOM     16  C   UNL A   1      33.098  28.580  26.421  1.00  0.00     0.122 C 
BRANCH  11  17
ATOM     17  C   UNL A   1      33.647  32.122  27.818  1.00  0.00     0.195 C 
ATOM     18  C   UNL A   1      34.332  35.157  30.876  1.00  0.00     0.332 C 
ATOM     19  N   UNL A   1      33.884  34.047  30.036  1.00  0.00    -0.337 N 
ATOM     20  C   UNL A   1      34.953  33.064  29.832  1.00  0.00     0.268 C 
ATOM     21  C   UNL A   1      33.412  34.521  28.731  1.00  0.00     0.268 C 
ATOM     22  H   UNL A   1      33.110  33.600  30.528  1.00  0.00     0.347 HD
ATOM     23  C   UNL A   1      34.380  31.817  29.150  1.00  0.00     0.126 C 
ATOM     24  C   UNL A   1      32.753  33.373  27.962  1.00  0.00     0.126 C 
ENDBRANCH  11  17
BRANCH  10  25
ATOM     25  O   UNL A   1      31.347  27.710  24.767  1.00  0.00    -0.475 OA
BRANCH  25  26
ATOM     26  C   UNL A   1      31.481  26.529  25.425  1.00  0.00     0.121 A 
ATOM     27  C   UNL A   1      30.368  25.787  25.807  1.00  0.00     0.047 A 
ATOM     28  C   UNL A   1      32.760  26.002  25.568  1.00  0.00     0.055 A 
ATOM     29  C   UNL A   1      30.532  24.580  26.479  1.00  0.00     0.012 A 
ATOM     30  C   UNL A   1      32.938  24.754  26.180  1.00  0.00    -0.015 A 
ATOM     31  C   UNL A   1      31.811  24.054  26.676  1.00  0.00    -0.018 A 
ATOM     32  C   UNL A   1      34.210  24.176  26.300  1.00  0.00     0.009 A 
ATOM     33  C   UNL A   1      31.990  22.827  27.325  1.00  0.00     0.009 A 
ATOM     34  C   UNL A   1      34.367  22.936  26.918  1.00  0.00     0.001 A 
ATOM     35  C   UNL A   1      33.262  22.269  27.442  1.00  0.00     0.001 A 
ENDBRANCH  25  26
ENDBRANCH  10  25
ENDBRANCH   8  10
ENDBRANCH   7   8
ENDBRANCH   6   7
ENDBRANCH   5   6
ENDBRANCH   4   5
ENDBRANCH   3   4
ENDBRANCH   2   3
ENDBRANCH   1   2
BRANCH   1  36
ATOM     36  C   UNL A   1      36.666  22.527  23.357  1.00  0.00     0.188 C 
BRANCH  36  37
ATOM     37  C   UNL A   1      37.219  22.418  24.788  1.00  0.00     0.188 C 
BRANCH  37  38
ATOM     38  O   UNL A   1      37.854  21.177  25.087  1.00  0.00    -0.376 OA
BRANCH  38  39
ATOM     39  C   UNL A   1      39.116  21.183  25.744  1.00  0.00     0.202 C 
BRANCH  39  40
ATOM     40  C   UNL A   1      39.717  19.820  26.126  1.00  0.00     0.261 C 
BRANCH  40  41
ATOM     41  O   UNL A   1      40.885  19.452  25.380  1.00  0.00    -0.460 OA
BRANCH  41  42
ATOM     42  C   UNL A   1      42.009  19.224  26.082  1.00  0.00     0.338 C 
ATOM     43  O   UNL A   1      42.567  18.155  26.280  1.00  0.00    -0.246 OA
BRANCH  42  44
ATOM     44  C   UNL A   1      42.597  20.537  26.376  1.00  0.00     0.060 A 
ATOM     45  C   UNL A   1      42.518  21.014  27.689  1.00  0.00     0.016 A 
ATOM     46  C   UNL A   1      43.250  21.268  25.380  1.00  0.00     0.016 A 
ATOM     47  C   UNL A   1      43.076  22.243  28.012  1.00  0.00     0.010 A 
ATOM     48  C   UNL A   1      43.774  22.521  25.694  1.00  0.00     0.010 A 
ATOM     49  C   UNL A   1      43.656  23.021  27.002  1.00  0.00    -0.014 A 
BRANCH  49  50
ATOM     50  C   UNL A   1      43.889  24.451  27.277  1.00  0.00     0.031 A 
ATOM     51  C   UNL A   1      45.265  24.992  27.017  1.00  0.00     0.074 A 
ATOM     52  C   UNL A   1      42.887  25.253  27.672  1.00  0.00     0.049 A 
ATOM     53  N   UNL A   1      45.725  26.205  27.166  1.00  0.00    -0.248 NA
ATOM     54  C   UNL A   1      46.258  24.028  26.510  1.00  0.00     0.031 C 
ATOM     55  C   UNL A   1      41.504  24.833  27.889  1.00  0.00     0.029 A 
ATOM     56  N   UNL A   1      42.885  26.593  27.957  1.00  0.00    -0.354 N 
ATOM     57  C   UNL A   1      47.057  26.148  26.775  1.00  0.00     0.074 A 
ATOM     58  C   UNL A   1      47.342  24.779  26.412  1.00  0.00     0.031 C 
ATOM     59  C   UNL A   1      40.786  25.899  28.285  1.00  0.00     0.029 A 
ATOM     60  C   UNL A   1      41.666  27.061  28.378  1.00  0.00     0.049 A 
ATOM     61  H   UNL A   1      43.682  27.165  27.867  1.00  0.00     0.167 HD
ATOM     62  C   UNL A   1      47.956  27.156  26.717  1.00  0.00     0.037 A 
ATOM     63  C   UNL A   1      41.320  28.289  28.811  1.00  0.00     0.037 A 
ATOM     64  C   UNL A   1      47.658  28.510  27.095  1.00  0.00     0.049 A 
ATOM     65  C   UNL A   1      42.368  29.374  28.824  1.00  0.00     0.074 A 
ATOM     66  C   UNL A   1      48.491  29.614  27.082  1.00  0.00     0.029 A 
ATOM     67  N   UNL A   1      46.426  28.940  27.567  1.00  0.00    -0.354 N 
ATOM     68  N   UNL A   1      43.621  29.324  28.439  1.00  0.00    -0.248 NA
ATOM     69  C   UNL A   1      41.951  30.689  29.328  1.00  0.00     0.031 C 
ATOM     70  C   UNL A   1      47.782  30.698  27.607  1.00  0.00     0.029 A 
ATOM     71  C   UNL A   1      46.485  30.288  27.879  1.00  0.00     0.049 A 
ATOM     72  H   UNL A   1      45.629  28.371  27.666  1.00  0.00     0.167 HD
ATOM     73  C   UNL A   1      44.133  30.602  28.624  1.00  0.00     0.074 A 
ATOM     74  C   UNL A   1      43.047  31.411  29.141  1.00  0.00     0.031 C 
ATOM     75  C   UNL A   1      45.384  31.070  28.386  1.00  0.00     0.037 A 
BRANCH  62  76
ATOM     76  C   UNL A   1      49.349  26.815  26.274  1.00  0.00     0.064 A 
ATOM     77  C   UNL A   1      50.308  26.306  27.163  1.00  0.00     0.173 A 
ATOM     78  C   UNL A   1      49.727  26.993  24.935  1.00  0.00     0.173 A 
ATOM     79  F   UNL A   1      50.006  26.138  28.460  1.00  0.00    -0.203 F 
ATOM     80  C   UNL A   1      51.600  26.014  26.734  1.00  0.00     0.198 A 
ATOM     81  C   UNL A   1      51.010  26.669  24.502  1.00  0.00     0.198 A 
ATOM     82  F   UNL A   1      48.852  27.481  24.043  1.00  0.00    -0.203 F 
ATOM     83  F   UNL A   1      52.516  25.582  27.613  1.00  0.00    -0.200 F 
ATOM     84  C   UNL A   1      51.948  26.188  25.402  1.00  0.00     0.200 A 
ATOM     85  F   UNL A   1      51.340  26.828  23.213  1.00  0.00    -0.200 F 
ATOM     86  F   UNL A   1      53.189  25.901  24.989  1.00  0.00    -0.200 F 
ENDBRANCH  62  76
BRANCH  63  87
ATOM     87  C   UNL A   1      39.935  28.552  29.281  1.00  0.00     0.064 A 
ATOM     88  C   UNL A   1      38.958  29.066  28.419  1.00  0.00     0.173 A 
ATOM     89  C   UNL A   1      39.566  28.318  30.615  1.00  0.00     0.173 A 
ATOM     90  F   UNL A   1      39.265  29.331  27.140  1.00  0.00    -0.203 F 
ATOM     91  C   UNL A   1      37.672  29.355  28.875  1.00  0.00     0.198 A 
ATOM     92  C   UNL A   1      38.273  28.577  31.063  1.00  0.00     0.198 A 
ATOM     93  F   UNL A   1      40.463  27.829  31.485  1.00  0.00    -0.203 F 
ATOM     94  F   UNL A   1      36.774  29.896  28.042  1.00  0.00    -0.200 F 
ATOM     95  C   UNL A   1      37.330  29.104  30.195  1.00  0.00     0.200 A 
ATOM     96  F   UNL A   1      37.943  28.320  32.337  1.00  0.00    -0.200 F 
ATOM     97  F   UNL A   1      36.094  29.382  30.634  1.00  0.00    -0.200 F 
ENDBRANCH  63  87
BRANCH  75  98
ATOM     98  C   UNL A   1      45.635  32.529  28.641  1.00  0.00     0.064 A 
ATOM     99  C   UNL A   1      46.155  32.989  29.860  1.00  0.00     0.173 A 
ATOM    100  C   UNL A   1      45.396  33.474  27.631  1.00  0.00     0.173 A 
ATOM    101  F   UNL A   1      46.389  32.128  30.862  1.00  0.00    -0.203 F 
ATOM    102  C   UNL A   1      46.395  34.344  30.069  1.00  0.00     0.198 A 
ATOM    103  C   UNL A   1      45.673  34.823  27.829  1.00  0.00     0.198 A 
ATOM    104  F   UNL A   1      44.911  33.085  26.442  1.00  0.00    -0.203 F 
ATOM    105  F   UNL A   1      46.838  34.768  31.260  1.00  0.00    -0.200 F 
ATOM    106  C   UNL A   1      46.163  35.258  29.051  1.00  0.00     0.200 A 
ATOM    107  F   UNL A   1      45.467  35.701  26.839  1.00  0.00    -0.200 F 
ATOM    108  F   UNL A   1      46.405  36.561  29.251  1.00  0.00    -0.200 F 
ENDBRANCH  75  98
ENDBRANCH  49  50
ENDBRANCH  42  44
ENDBRANCH  41  42
ENDBRANCH  40  41
ENDBRANCH  39  40
ENDBRANCH  38  39
ENDBRANCH  37  38
ENDBRANCH  36  37
ENDBRANCH   1  36
TORSDOF 23
ENDMDL
MODEL 2
REMARK VINA RESULT:     -10.9      0.483      6.800
REMARK SMILES C[NH+]1CCC([NH+]2CCC(Oc3ccc4ccccc4c3)(C(=O)OCCOCCOCCOCCOC(=O)c3ccc(-c4c5nc(c(-c6c(F)c(F)c(F)c(F)c6F)c6ccc([nH]6)c(-c6c(F)c(F)c(F)c(F)c6F)c6nc(c(-c7c(F)c(F)c(F)c(F)c7F)c7ccc4[nH]7)C=C6)C=C5)cc3)CC2)CC1
REMARK SMILES IDX 29 1 28 2 27 3 26 4 25 5 24 6 23 7 21 8 22 9 9 10 6 11 7 12
REMARK SMILES IDX 102 13 8 15 101 16 5 17 1 18 2 19 3 20 104 21 4 23 103 24
REMARK SMILES IDX 10 25 11 26 12 27 20 28 13 29 19 30 14 31 18 32 15 33 17 34
REMARK SMILES IDX 16 35 30 36 31 37 32 38 33 39 34 40 35 41 36 42 37 43 38 44
REMARK SMILES IDX 39 45 100 46 40 47 99 48 41 49 42 50 43 51 93 52 44 53 98 54
REMARK SMILES IDX 92 55 94 56 45 57 97 58 91 59 90 60 46 62 78 63 58 64 77 65
REMARK SMILES IDX 59 66 62 67 76 68 95 69 60 70 61 71 75 73 96 74 63 75 47 76
REMARK SMILES IDX 48 77 56 78 49 79 50 80 54 81 57 82 51 83 52 84 55 85 53 86
REMARK SMILES IDX 79 87 80 88 88 89 81 90 82 91 86 92 89 93 83 94 84 95 87 96
REMARK SMILES IDX 85 97 64 98 65 99 73 100 66 101 67 102 71 103 74 104 68 105
REMARK SMILES IDX 69 106 72 107 70 108
REMARK H PARENT 6 14 2 22 94 61 62 72
REMARK Flexibility Score: inf
ROOT
ATOM      1  O   UNL A   1      35.612  23.489  22.957  1.00  0.00    -0.377 OA
ENDROOT
BRANCH   1   2
ATOM      2  C   UNL A   1      34.278  23.030  22.982  1.00  0.00     0.188 C 
BRANCH   2   3
ATOM      3  C   UNL A   1      33.193  23.995  22.492  1.00  0.00     0.188 C 
BRANCH   3   4
ATOM      4  O   UNL A   1      33.559  25.251  21.947  1.00  0.00    -0.376 OA
BRANCH   4   5
ATOM      5  C   UNL A   1      32.572  26.256  21.778  1.00  0.00     0.202 C 
BRANCH   5   6
ATOM      6  C   UNL A   1      32.975  27.747  21.716  1.00  0.00     0.261 C 
BRANCH   6   7
ATOM      7  O   UNL A   1      32.447  28.646  22.723  1.00  0.00    -0.460 OA
BRANCH   7   8
ATOM      8  C   UNL A   1      33.124  28.698  23.909  1.00  0.00     0.351 C 
ATOM      9  O   UNL A   1      34.347  28.592  23.971  1.00  0.00    -0.247 OA
BRANCH   8  10
ATOM     10  C   UNL A   1      32.219  28.817  25.178  1.00  0.00     0.216 C 
ATOM     11  N   UNL A   1      32.991  30.894  27.254  1.00  0.00    -0.332 N 
ATOM     12  C   UNL A   1      31.941  31.218  26.289  1.00  0.00     0.267 C 
ATOM     13  C   UNL A   1      33.890  29.832  26.806  1.00  0.00     0.267 C 
ATOM     14  H   UNL A   1      32.494  30.495  28.049  1.00  0.00     0.348 HD
ATOM     15  C   UNL A   1      31.375  30.087  25.405  1.00  0.00     0.122 C 
ATOM     16  C   UNL A   1      33.112  28.565  26.412  1.00  0.00     0.122 C 
BRANCH  11  17
ATOM     17  C   UNL A   1      33.690  32.092  27.835  1.00  0.00     0.195 C 
ATOM     18  C   UNL A   1      34.415  35.105  30.906  1.00  0.00     0.332 C 
ATOM     19  N   UNL A   1      33.955  34.002  30.063  1.00  0.00    -0.337 N 
ATOM     20  C   UNL A   1      35.017  33.014  29.845  1.00  0.00     0.268 C 
ATOM     21  C   UNL A   1      33.476  34.487  28.765  1.00  0.00     0.268 C 
ATOM     22  H   UNL A   1      33.182  33.557  30.559  1.00  0.00     0.347 HD
ATOM     23  C   UNL A   1      34.432  31.775  29.160  1.00  0.00     0.126 C 
ATOM     24  C   UNL A   1      32.805  33.347  27.993  1.00  0.00     0.126 C 
ENDBRANCH  11  17
BRANCH  10  25
ATOM     25  O   UNL A   1      31.336  27.716  24.774  1.00  0.00    -0.475 OA
BRANCH  25  26
ATOM     26  C   UNL A   1      31.449  26.540  25.445  1.00  0.00     0.121 A 
ATOM     27  C   UNL A   1      30.322  25.837  25.859  1.00  0.00     0.047 A 
ATOM     28  C   UNL A   1      32.714  25.977  25.571  1.00  0.00     0.055 A 
ATOM     29  C   UNL A   1      30.464  24.635  26.544  1.00  0.00     0.012 A 
ATOM     30  C   UNL A   1      32.868  24.734  26.196  1.00  0.00    -0.015 A 
ATOM     31  C   UNL A   1      31.731  24.074  26.723  1.00  0.00    -0.018 A 
ATOM     32  C   UNL A   1      34.124  24.120  26.298  1.00  0.00     0.009 A 
ATOM     33  C   UNL A   1      31.886  22.850  27.385  1.00  0.00     0.009 A 
ATOM     34  C   UNL A   1      34.257  22.883  26.930  1.00  0.00     0.001 A 
ATOM     35  C   UNL A   1      33.144  22.257  27.485  1.00  0.00     0.001 A 
ENDBRANCH  25  26
ENDBRANCH  10  25
ENDBRANCH   8  10
ENDBRANCH   7   8
ENDBRANCH   6   7
ENDBRANCH   5   6
ENDBRANCH   4   5
ENDBRANCH   3   4
ENDBRANCH   2   3
ENDBRANCH   1   2
BRANCH   1  36
ATOM     36  C   UNL A   1      36.584  22.589  23.464  1.00  0.00     0.188 C 
BRANCH  36  37
ATOM     37  C   UNL A   1      37.154  22.912  24.856  1.00  0.00     0.188 C 
BRANCH  37  38
ATOM     38  O   UNL A   1      37.965  21.884  25.419  1.00  0.00    -0.376 OA
BRANCH  38  39
ATOM     39  C   UNL A   1      39.291  22.194  25.830  1.00  0.00     0.202 C 
BRANCH  39  40
ATOM     40  C   UNL A   1      39.982  21.206  26.786  1.00  0.00     0.261 C 
BRANCH  40  41
ATOM     41  O   UNL A   1      40.398  19.978  26.175  1.00  0.00    -0.460 OA
BRANCH  41  42
ATOM     42  C   UNL A   1      41.690  19.634  26.318  1.00  0.00     0.338 C 
ATOM     43  O   UNL A   1      42.198  18.536  26.150  1.00  0.00    -0.246 OA
BRANCH  42  44
ATOM     44  C   UNL A   1      42.444  20.883  26.482  1.00  0.00     0.060 A 
ATOM     45  C   UNL A   1      42.725  21.316  27.782  1.00  0.00     0.016 A 
ATOM     46  C   UNL A   1      42.899  21.595  25.369  1.00  0.00     0.016 A 
ATOM     47  C   UNL A   1      43.450  22.483  27.979  1.00  0.00     0.010 A 
ATOM     48  C   UNL A   1      43.590  22.790  25.566  1.00  0.00     0.010 A 
ATOM     49  C   UNL A   1      43.835  23.249  26.872  1.00  0.00    -0.014 A 
BRANCH  49  50
ATOM     50  C   UNL A   1      44.251  24.645  27.105  1.00  0.00     0.031 A 
ATOM     51  C   UNL A   1      43.208  25.606  27.594  1.00  0.00     0.074 A 
ATOM     52  C   UNL A   1      45.532  25.019  26.959  1.00  0.00     0.049 A 
ATOM     53  N   UNL A   1      43.315  26.876  27.883  1.00  0.00    -0.248 NA
ATOM     54  C   UNL A   1      41.855  25.054  27.791  1.00  0.00     0.031 C 
ATOM     55  C   UNL A   1      46.628  24.142  26.550  1.00  0.00     0.029 A 
ATOM     56  N   UNL A   1      46.124  26.241  27.142  1.00  0.00    -0.354 N 
ATOM     57  C   UNL A   1      42.048  27.272  28.292  1.00  0.00     0.074 A 
ATOM     58  C   UNL A   1      41.180  26.121  28.185  1.00  0.00     0.031 C 
ATOM     59  C   UNL A   1      47.763  24.862  26.505  1.00  0.00     0.029 A 
ATOM     60  C   UNL A   1      47.464  26.250  26.848  1.00  0.00     0.049 A 
ATOM     61  H   UNL A   1      45.634  27.036  27.455  1.00  0.00     0.167 HD
ATOM     62  C   UNL A   1      41.651  28.489  28.726  1.00  0.00     0.037 A 
ATOM     63  C   UNL A   1      48.335  27.278  26.839  1.00  0.00     0.037 A 
ATOM     64  C   UNL A   1      42.525  29.626  28.813  1.00  0.00     0.049 A 
ATOM     65  C   UNL A   1      47.844  28.647  27.239  1.00  0.00     0.074 A 
ATOM     66  C   UNL A   1      42.233  30.910  29.235  1.00  0.00     0.029 A 
ATOM     67  N   UNL A   1      43.867  29.614  28.458  1.00  0.00    -0.354 N 
ATOM     68  N   UNL A   1      46.651  29.017  27.641  1.00  0.00    -0.248 NA
ATOM     69  C   UNL A   1      48.823  29.741  27.190  1.00  0.00     0.031 C 
ATOM     70  C   UNL A   1      43.382  31.691  29.074  1.00  0.00     0.029 A 
ATOM     71  C   UNL A   1      44.410  30.877  28.621  1.00  0.00     0.049 A 
ATOM     72  H   UNL A   1      44.359  28.824  28.137  1.00  0.00     0.167 HD
ATOM     73  C   UNL A   1      46.743  30.375  27.920  1.00  0.00     0.074 A 
ATOM     74  C   UNL A   1      48.115  30.759  27.658  1.00  0.00     0.031 C 
ATOM     75  C   UNL A   1      45.783  31.229  28.358  1.00  0.00     0.037 A 
BRANCH  62  76
ATOM     76  C   UNL A   1      40.204  28.655  29.090  1.00  0.00     0.064 A 
ATOM     77  C   UNL A   1      39.244  29.062  28.152  1.00  0.00     0.173 A 
ATOM     78  C   UNL A   1      39.772  28.394  30.400  1.00  0.00     0.173 A 
ATOM     79  F   UNL A   1      39.607  29.348  26.893  1.00  0.00    -0.203 F 
ATOM     80  C   UNL A   1      37.910  29.228  28.517  1.00  0.00     0.198 A 
ATOM     81  C   UNL A   1      38.432  28.528  30.753  1.00  0.00     0.198 A 
ATOM     82  F   UNL A   1      40.649  28.006  31.338  1.00  0.00    -0.203 F 
ATOM     83  F   UNL A   1      37.020  29.672  27.619  1.00  0.00    -0.200 F 
ATOM     84  C   UNL A   1      37.504  28.952  29.815  1.00  0.00     0.200 A 
ATOM     85  F   UNL A   1      38.041  28.252  32.004  1.00  0.00    -0.200 F 
ATOM     86  F   UNL A   1      36.219  29.106  30.164  1.00  0.00    -0.200 F 
ENDBRANCH  62  76
BRANCH  63  87
ATOM     87  C   UNL A   1      49.745  27.058  26.423  1.00  0.00     0.064 A 
ATOM     88  C   UNL A   1      50.126  27.125  25.077  1.00  0.00     0.173 A 
ATOM     89  C   UNL A   1      50.739  26.752  27.365  1.00  0.00     0.173 A 
ATOM     90  F   UNL A   1      49.210  27.390  24.133  1.00  0.00    -0.203 F 
ATOM     91  C   UNL A   1      51.440  26.874  24.685  1.00  0.00     0.198 A 
ATOM     92  C   UNL A   1      52.059  26.533  26.978  1.00  0.00     0.198 A 
ATOM     93  F   UNL A   1      50.429  26.673  28.668  1.00  0.00    -0.203 F 
ATOM     94  F   UNL A   1      51.765  26.891  23.386  1.00  0.00    -0.200 F 
ATOM     95  C   UNL A   1      52.406  26.584  25.637  1.00  0.00     0.200 A 
ATOM     96  F   UNL A   1      52.991  26.266  27.902  1.00  0.00    -0.200 F 
ATOM     97  F   UNL A   1      53.670  26.342  25.260  1.00  0.00    -0.200 F 
ENDBRANCH  63  87
BRANCH  75  98
ATOM     98  C   UNL A   1      46.193  32.650  28.621  1.00  0.00     0.064 A 
ATOM     99  C   UNL A   1      46.682  33.062  29.869  1.00  0.00     0.173 A 
ATOM    100  C   UNL A   1      46.142  33.602  27.589  1.00  0.00     0.173 A 
ATOM    101  F   UNL A   1      46.740  32.194  30.891  1.00  0.00    -0.203 F 
ATOM    102  C   UNL A   1      47.072  34.380  30.085  1.00  0.00     0.198 A 
ATOM    103  C   UNL A   1      46.569  34.909  27.798  1.00  0.00     0.198 A 
ATOM    104  F   UNL A   1      45.695  33.257  26.373  1.00  0.00    -0.203 F 
ATOM    105  F   UNL A   1      47.483  34.765  31.302  1.00  0.00    -0.200 F 
ATOM    106  C   UNL A   1      47.024  35.300  29.047  1.00  0.00     0.200 A 
ATOM    107  F   UNL A   1      46.541  35.791  26.789  1.00  0.00    -0.200 F 
ATOM    108  F   UNL A   1      47.411  36.567  29.255  1.00  0.00    -0.200 F 
ENDBRANCH  75  98
ENDBRANCH  49  50
ENDBRANCH  42  44
ENDBRANCH  41  42
ENDBRANCH  40  41
ENDBRANCH  39  40
ENDBRANCH  38  39
ENDBRANCH  37  38
ENDBRANCH  36  37
ENDBRANCH   1  36
TORSDOF 23
ENDMDL
MODEL 3
REMARK VINA RESULT:     -10.9      2.437      5.025
REMARK SMILES C[NH+]1CCC([NH+]2CCC(Oc3ccc4ccccc4c3)(C(=O)OCCOCCOCCOCCOC(=O)c3ccc(-c4c5nc(c(-c6c(F)c(F)c(F)c(F)c6F)c6ccc([nH]6)c(-c6c(F)c(F)c(F)c(F)c6F)c6nc(c(-c7c(F)c(F)c(F)c(F)c7F)c7ccc4[nH]7)C=C6)C=C5)cc3)CC2)CC1
REMARK SMILES IDX 29 1 28 2 27 3 26 4 25 5 24 6 23 7 21 8 22 9 9 10 6 11 7 12
REMARK SMILES IDX 102 13 8 15 101 16 5 17 1 18 2 19 3 20 104 21 4 23 103 24
REMARK SMILES IDX 10 25 11 26 12 27 20 28 13 29 19 30 14 31 18 32 15 33 17 34
REMARK SMILES IDX 16 35 30 36 31 37 32 38 33 39 34 40 35 41 36 42 37 43 38 44
REMARK SMILES IDX 39 45 100 46 40 47 99 48 41 49 42 50 43 51 93 52 44 53 98 54
REMARK SMILES IDX 92 55 94 56 45 57 97 58 91 59 90 60 46 62 78 63 58 64 77 65
REMARK SMILES IDX 59 66 62 67 76 68 95 69 60 70 61 71 75 73 96 74 63 75 47 76
REMARK SMILES IDX 48 77 56 78 49 79 50 80 54 81 57 82 51 83 52 84 55 85 53 86
REMARK SMILES IDX 79 87 80 88 88 89 81 90 82 91 86 92 89 93 83 94 84 95 87 96
REMARK SMILES IDX 85 97 64 98 65 99 73 100 66 101 67 102 71 103 74 104 68 105
REMARK SMILES IDX 69 106 72 107 70 108
REMARK H PARENT 6 14 2 22 94 61 62 72
REMARK Flexibility Score: inf
ROOT
ATOM      1  O   UNL A   1      33.038  22.562  24.651  1.00  0.00    -0.377 OA
ENDROOT
BRANCH   1   2
ATOM      2  C   UNL A   1      32.085  22.110  25.587  1.00  0.00     0.188 C 
BRANCH   2   3
ATOM      3  C   UNL A   1      32.039  22.821  26.945  1.00  0.00     0.188 C 
BRANCH   3   4
ATOM      4  O   UNL A   1      30.930  23.640  27.275  1.00  0.00    -0.376 OA
BRANCH   4   5
ATOM      5  C   UNL A   1      30.318  24.431  26.268  1.00  0.00     0.202 C 
BRANCH   5   6
ATOM      6  C   UNL A   1      30.720  25.912  26.082  1.00  0.00     0.261 C 
BRANCH   6   7
ATOM      7  O   UNL A   1      31.757  26.457  26.936  1.00  0.00    -0.460 OA
BRANCH   7   8
ATOM      8  C   UNL A   1      32.918  26.833  26.321  1.00  0.00     0.351 C 
ATOM      9  O   UNL A   1      33.745  26.013  25.926  1.00  0.00    -0.247 OA
BRANCH   8  10
ATOM     10  C   UNL A   1      33.149  28.375  26.238  1.00  0.00     0.216 C 
ATOM     11  N   UNL A   1      31.240  29.983  24.509  1.00  0.00    -0.332 N 
ATOM     12  C   UNL A   1      31.016  29.941  25.954  1.00  0.00     0.267 C 
ATOM     13  C   UNL A   1      32.031  28.861  24.005  1.00  0.00     0.267 C 
ATOM     14  H   UNL A   1      31.830  30.802  24.364  1.00  0.00     0.348 HD
ATOM     15  C   UNL A   1      32.118  29.343  26.854  1.00  0.00     0.122 C 
ATOM     16  C   UNL A   1      33.368  28.735  24.753  1.00  0.00     0.122 C 
BRANCH  11  17
ATOM     17  C   UNL A   1      30.009  30.284  23.699  1.00  0.00     0.195 C 
ATOM     18  C   UNL A   1      27.770  32.373  20.592  1.00  0.00     0.332 C 
ATOM     19  N   UNL A   1      28.746  31.852  21.548  1.00  0.00    -0.337 N 
ATOM     20  C   UNL A   1      29.001  30.424  21.330  1.00  0.00     0.268 C 
ATOM     21  C   UNL A   1      28.300  32.055  22.929  1.00  0.00     0.268 C 
ATOM     22  H   UNL A   1      29.611  32.372  21.396  1.00  0.00     0.347 HD
ATOM     23  C   UNL A   1      30.188  29.978  22.189  1.00  0.00     0.126 C 
ATOM     24  C   UNL A   1      29.428  31.700  23.903  1.00  0.00     0.126 C 
ENDBRANCH  11  17
BRANCH  10  25
ATOM     25  O   UNL A   1      34.346  28.343  27.087  1.00  0.00    -0.475 OA
BRANCH  25  26
ATOM     26  C   UNL A   1      34.883  29.533  27.464  1.00  0.00     0.121 A 
ATOM     27  C   UNL A   1      36.260  29.701  27.564  1.00  0.00     0.047 A 
ATOM     28  C   UNL A   1      34.030  30.622  27.595  1.00  0.00     0.055 A 
ATOM     29  C   UNL A   1      36.785  30.930  27.951  1.00  0.00     0.012 A 
ATOM     30  C   UNL A   1      34.549  31.883  27.917  1.00  0.00    -0.015 A 
ATOM     31  C   UNL A   1      35.941  32.028  28.135  1.00  0.00    -0.018 A 
ATOM     32  C   UNL A   1      33.720  33.010  28.012  1.00  0.00     0.009 A 
ATOM     33  C   UNL A   1      36.458  33.278  28.497  1.00  0.00     0.009 A 
ATOM     34  C   UNL A   1      34.256  34.256  28.340  1.00  0.00     0.001 A 
ATOM     35  C   UNL A   1      35.619  34.387  28.595  1.00  0.00     0.001 A 
ENDBRANCH  25  26
ENDBRANCH  10  25
ENDBRANCH   8  10
ENDBRANCH   7   8
ENDBRANCH   6   7
ENDBRANCH   5   6
ENDBRANCH   4   5
ENDBRANCH   3   4
ENDBRANCH   2   3
ENDBRANCH   1   2
BRANCH   1  36
ATOM     36  C   UNL A   1      34.020  21.616  24.264  1.00  0.00     0.188 C 
BRANCH  36  37
ATOM     37  C   UNL A   1      34.702  20.834  25.401  1.00  0.00     0.188 C 
BRANCH  37  38
ATOM     38  O   UNL A   1      36.002  20.342  25.087  1.00  0.00    -0.376 OA
BRANCH  38  39
ATOM     39  C   UNL A   1      36.831  21.087  24.202  1.00  0.00     0.202 C 
BRANCH  39  40
ATOM     40  C   UNL A   1      37.423  22.404  24.733  1.00  0.00     0.261 C 
BRANCH  40  41
ATOM     41  O   UNL A   1      37.864  22.355  26.096  1.00  0.00    -0.460 OA
BRANCH  41  42
ATOM     42  C   UNL A   1      39.166  22.091  26.306  1.00  0.00     0.338 C 
ATOM     43  O   UNL A   1      39.832  21.179  25.840  1.00  0.00    -0.246 OA
BRANCH  42  44
ATOM     44  C   UNL A   1      39.721  23.249  27.018  1.00  0.00     0.060 A 
ATOM     45  C   UNL A   1      39.073  24.481  26.876  1.00  0.00     0.016 A 
ATOM     46  C   UNL A   1      40.840  23.112  27.844  1.00  0.00     0.016 A 
ATOM     47  C   UNL A   1      39.557  25.596  27.547  1.00  0.00     0.010 A 
ATOM     48  C   UNL A   1      41.351  24.240  28.484  1.00  0.00     0.010 A 
ATOM     49  C   UNL A   1      40.728  25.487  28.307  1.00  0.00    -0.014 A 
BRANCH  49  50
ATOM     50  C   UNL A   1      41.427  26.730  28.685  1.00  0.00     0.031 A 
ATOM     51  C   UNL A   1      42.823  26.924  28.168  1.00  0.00     0.074 A 
ATOM     52  C   UNL A   1      40.809  27.682  29.400  1.00  0.00     0.049 A 
ATOM     53  N   UNL A   1      43.645  27.923  28.344  1.00  0.00    -0.248 NA
ATOM     54  C   UNL A   1      43.362  25.840  27.327  1.00  0.00     0.031 C 
ATOM     55  C   UNL A   1      39.434  27.612  29.892  1.00  0.00     0.029 A 
ATOM     56  N   UNL A   1      41.263  28.900  29.833  1.00  0.00    -0.354 N 
ATOM     57  C   UNL A   1      44.795  27.588  27.641  1.00  0.00     0.074 A 
ATOM     58  C   UNL A   1      44.580  26.282  27.061  1.00  0.00     0.031 C 
ATOM     59  C   UNL A   1      39.160  28.740  30.571  1.00  0.00     0.029 A 
ATOM     60  C   UNL A   1      40.348  29.590  30.587  1.00  0.00     0.049 A 
ATOM     61  H   UNL A   1      42.161  29.247  29.622  1.00  0.00     0.167 HD
ATOM     62  C   UNL A   1      45.925  28.314  27.488  1.00  0.00     0.037 A 
ATOM     63  C   UNL A   1      40.477  30.766  31.231  1.00  0.00     0.037 A 
ATOM     64  C   UNL A   1      46.125  29.607  28.083  1.00  0.00     0.049 A 
ATOM     65  C   UNL A   1      41.782  31.513  31.120  1.00  0.00     0.074 A 
ATOM     66  C   UNL A   1      47.230  30.433  28.001  1.00  0.00     0.029 A 
ATOM     67  N   UNL A   1      45.196  30.255  28.885  1.00  0.00    -0.354 N 
ATOM     68  N   UNL A   1      42.862  31.203  30.443  1.00  0.00    -0.248 NA
ATOM     69  C   UNL A   1      41.885  32.777  31.861  1.00  0.00     0.031 C 
ATOM     70  C   UNL A   1      46.995  31.552  28.804  1.00  0.00     0.029 A 
ATOM     71  C   UNL A   1      45.715  31.459  29.330  1.00  0.00     0.049 A 
ATOM     72  H   UNL A   1      44.301  29.909  29.104  1.00  0.00     0.167 HD
ATOM     73  C   UNL A   1      43.759  32.245  30.649  1.00  0.00     0.074 A 
ATOM     74  C   UNL A   1      43.088  33.204  31.502  1.00  0.00     0.031 C 
ATOM     75  C   UNL A   1      45.021  32.398  30.174  1.00  0.00     0.037 A 
BRANCH  62  76
ATOM     76  C   UNL A   1      47.037  27.702  26.687  1.00  0.00     0.064 A 
ATOM     77  C   UNL A   1      47.110  27.838  25.293  1.00  0.00     0.173 A 
ATOM     78  C   UNL A   1      48.051  26.975  27.329  1.00  0.00     0.173 A 
ATOM     79  F   UNL A   1      46.154  28.504  24.627  1.00  0.00    -0.203 F 
ATOM     80  C   UNL A   1      48.141  27.246  24.567  1.00  0.00     0.198 A 
ATOM     81  C   UNL A   1      49.099  26.412  26.604  1.00  0.00     0.198 A 
ATOM     82  F   UNL A   1      48.027  26.809  28.659  1.00  0.00    -0.203 F 
ATOM     83  F   UNL A   1      48.160  27.342  23.230  1.00  0.00    -0.200 F 
ATOM     84  C   UNL A   1      49.139  26.541  25.225  1.00  0.00     0.200 A 
ATOM     85  F   UNL A   1      50.066  25.741  27.243  1.00  0.00    -0.200 F 
ATOM     86  F   UNL A   1      50.134  25.977  24.527  1.00  0.00    -0.200 F 
ENDBRANCH  62  76
BRANCH  63  87
ATOM     87  C   UNL A   1      39.354  31.297  32.048  1.00  0.00     0.064 A 
ATOM     88  C   UNL A   1      39.116  30.833  33.348  1.00  0.00     0.173 A 
ATOM     89  C   UNL A   1      38.479  32.266  31.533  1.00  0.00     0.173 A 
ATOM     90  F   UNL A   1      39.908  29.889  33.879  1.00  0.00    -0.203 F 
ATOM     91  C   UNL A   1      38.035  31.300  34.095  1.00  0.00     0.198 A 
ATOM     92  C   UNL A   1      37.418  32.756  32.291  1.00  0.00     0.198 A 
ATOM     93  F   UNL A   1      38.659  32.744  30.293  1.00  0.00    -0.203 F 
ATOM     94  F   UNL A   1      37.799  30.799  35.314  1.00  0.00    -0.200 F 
ATOM     95  C   UNL A   1      37.190  32.266  33.567  1.00  0.00     0.200 A 
ATOM     96  F   UNL A   1      36.612  33.699  31.781  1.00  0.00    -0.200 F 
ATOM     97  F   UNL A   1      36.151  32.715  34.285  1.00  0.00    -0.200 F 
ENDBRANCH  63  87
BRANCH  75  98
ATOM     98  C   UNL A   1      45.741  33.668  30.532  1.00  0.00     0.064 A 
ATOM     99  C   UNL A   1      46.527  33.772  31.689  1.00  0.00     0.173 A 
ATOM    100  C   UNL A   1      45.681  34.779  29.676  1.00  0.00     0.173 A 
ATOM    101  F   UNL A   1      46.608  32.742  32.546  1.00  0.00    -0.203 F 
ATOM    102  C   UNL A   1      47.199  34.952  31.992  1.00  0.00     0.198 A 
ATOM    103  C   UNL A   1      46.386  35.944  29.963  1.00  0.00     0.198 A 
ATOM    104  F   UNL A   1      44.954  34.727  28.550  1.00  0.00    -0.203 F 
ATOM    105  F   UNL A   1      47.899  35.048  33.131  1.00  0.00    -0.200 F 
ATOM    106  C   UNL A   1      47.136  36.033  31.125  1.00  0.00     0.200 A 
ATOM    107  F   UNL A   1      46.339  36.979  29.114  1.00  0.00    -0.200 F 
ATOM    108  F   UNL A   1      47.793  37.165  31.414  1.00  0.00    -0.200 F 
ENDBRANCH  75  98
ENDBRANCH  49  50
ENDBRANCH  42  44
ENDBRANCH  41  42
ENDBRANCH  40  41
ENDBRANCH  39  40
ENDBRANCH  38  39
ENDBRANCH  37  38
ENDBRANCH  36  37
ENDBRANCH   1  36
TORSDOF 23
ENDMDL
