MODEL 1
REMARK VINA RESULT:     -10.9      0.000      0.000
REMARK SMILES C/C(=C(/F)C(=O)OCCOCCOCCOCCOC(=O)c1ccc(-c2c3nc(c(-c4c(F)c(F)c(F)c(F)c4F)c4ccc([nH]4)c(-c4c(F)c(F)c(F)c(F)c4F)c4nc(c(-c5c(F)c(F)c(F)c(F)c5F)c5ccc2[nH]5)C=C4)C=C3)cc1)c1cccc(-n2cnnn2)c1
REMARK SMILES IDX 13 1 12 2 11 3 10 4 9 5 8 6 7 7 5 8 6 9 3 10 1 11 2 12 4 13
REMARK SMILES IDX 85 14 86 15 95 16 87 17 89 18 88 19 90 20 91 21 94 22 92 23
REMARK SMILES IDX 93 24 14 25 15 26 16 27 17 28 18 29 19 30 20 31 21 32 22 33
REMARK SMILES IDX 23 34 84 35 24 36 83 37 25 38 26 39 27 40 77 41 28 42 82 43
REMARK SMILES IDX 76 44 78 45 29 46 81 47 75 48 74 49 30 51 62 52 42 53 61 54
REMARK SMILES IDX 43 55 46 56 60 57 79 58 44 59 45 60 59 62 80 63 47 64 31 65
REMARK SMILES IDX 32 66 40 67 33 68 34 69 38 70 41 71 35 72 36 73 39 74 37 75
REMARK SMILES IDX 63 76 64 77 72 78 65 79 66 80 70 81 73 82 67 83 68 84 71 85
REMARK SMILES IDX 69 86 48 87 49 88 57 89 50 90 51 91 55 92 58 93 52 94 53 95
REMARK SMILES IDX 56 96 54 97
REMARK H PARENT 78 50 46 61
REMARK Flexibility Score: inf
ROOT
ATOM      1  O   UNL A   1      34.543  31.891  28.529  1.00  0.00    -0.377 OA
ENDROOT
BRANCH   1   2
ATOM      2  C   UNL A   1      34.349  30.892  27.531  1.00  0.00     0.188 C 
BRANCH   2   3
ATOM      3  C   UNL A   1      32.945  30.460  27.033  1.00  0.00     0.188 C 
BRANCH   3   4
ATOM      4  O   UNL A   1      32.912  29.247  26.304  1.00  0.00    -0.376 OA
BRANCH   4   5
ATOM      5  C   UNL A   1      32.653  29.287  24.914  1.00  0.00     0.202 C 
BRANCH   5   6
ATOM      6  C   UNL A   1      31.196  29.067  24.491  1.00  0.00     0.261 C 
BRANCH   6   7
ATOM      7  O   UNL A   1      31.008  28.161  23.395  1.00  0.00    -0.458 OA
BRANCH   7   8
ATOM      8  C   UNL A   1      30.292  27.036  23.641  1.00  0.00     0.367 C 
ATOM      9  O   UNL A   1      29.086  26.976  23.813  1.00  0.00    -0.243 OA
BRANCH   8  10
ATOM     10  C   UNL A   1      31.215  25.875  23.540  1.00  0.00     0.211 C 
ATOM     11  C   UNL A   1      31.715  25.682  26.014  1.00  0.00     0.048 C 
ATOM     12  C   UNL A   1      31.863  25.284  24.566  1.00  0.00    -0.000 C 
ATOM     13  F   UNL A   1      31.295  25.365  22.288  1.00  0.00    -0.199 F 
BRANCH  12  14
ATOM     14  C   UNL A   1      32.854  24.198  24.306  1.00  0.00    -0.017 A 
ATOM     15  C   UNL A   1      34.188  24.557  24.049  1.00  0.00     0.008 A 
ATOM     16  C   UNL A   1      32.550  22.830  24.462  1.00  0.00     0.037 A 
ATOM     17  C   UNL A   1      35.204  23.606  24.018  1.00  0.00     0.003 A 
ATOM     18  C   UNL A   1      33.584  21.872  24.458  1.00  0.00     0.069 A 
ATOM     19  C   UNL A   1      34.911  22.270  24.262  1.00  0.00     0.028 A 
BRANCH  18  20
ATOM     20  N   UNL A   1      33.322  20.504  24.692  1.00  0.00    -0.201 N 
ATOM     21  C   UNL A   1      34.171  19.429  24.650  1.00  0.00     0.252 A 
ATOM     22  N   UNL A   1      32.090  20.047  25.019  1.00  0.00    -0.040 NA
ATOM     23  N   UNL A   1      33.490  18.329  24.876  1.00  0.00    -0.117 NA
ATOM     24  N   UNL A   1      32.196  18.729  25.083  1.00  0.00    -0.024 NA
ENDBRANCH  18  20
ENDBRANCH  12  14
ENDBRANCH   8  10
ENDBRANCH   7   8
ENDBRANCH   6   7
ENDBRANCH   5   6
ENDBRANCH   4   5
ENDBRANCH   3   4
ENDBRANCH   2   3
ENDBRANCH   1   2
BRANCH   1  25
ATOM     25  C   UNL A   1      34.650  33.253  28.147  1.00  0.00     0.188 C 
BRANCH  25  26
ATOM     26  C   UNL A   1      33.481  34.177  28.546  1.00  0.00     0.188 C 
BRANCH  26  27
ATOM     27  O   UNL A   1      33.268  34.233  29.948  1.00  0.00    -0.376 OA
BRANCH  27  28
ATOM     28  C   UNL A   1      34.199  34.933  30.750  1.00  0.00     0.202 C 
BRANCH  28  29
ATOM     29  C   UNL A   1      34.806  34.250  31.987  1.00  0.00     0.261 C 
BRANCH  29  30
ATOM     30  O   UNL A   1      35.089  32.848  31.889  1.00  0.00    -0.460 OA
BRANCH  30  31
ATOM     31  C   UNL A   1      35.934  32.316  32.792  1.00  0.00     0.338 C 
ATOM     32  O   UNL A   1      35.828  32.334  34.008  1.00  0.00    -0.246 OA
BRANCH  31  33
ATOM     33  C   UNL A   1      36.933  31.520  32.048  1.00  0.00     0.060 A 
ATOM     34  C   UNL A   1      37.931  30.841  32.759  1.00  0.00     0.016 A 
ATOM     35  C   UNL A   1      36.869  31.433  30.655  1.00  0.00     0.016 A 
ATOM     36  C   UNL A   1      38.897  30.106  32.073  1.00  0.00     0.010 A 
ATOM     37  C   UNL A   1      37.853  30.720  29.967  1.00  0.00     0.010 A 
ATOM     38  C   UNL A   1      38.895  30.091  30.673  1.00  0.00    -0.014 A 
BRANCH  38  39
ATOM     39  C   UNL A   1      40.104  29.628  29.954  1.00  0.00     0.031 A 
ATOM     40  C   UNL A   1      41.230  30.609  29.764  1.00  0.00     0.074 A 
ATOM     41  C   UNL A   1      40.225  28.362  29.516  1.00  0.00     0.049 A 
ATOM     42  N   UNL A   1      42.375  30.457  29.153  1.00  0.00    -0.248 NA
ATOM     43  C   UNL A   1      41.029  31.947  30.345  1.00  0.00     0.031 C 
ATOM     44  C   UNL A   1      39.223  27.312  29.681  1.00  0.00     0.029 A 
ATOM     45  N   UNL A   1      41.249  27.753  28.837  1.00  0.00    -0.354 N 
ATOM     46  C   UNL A   1      43.026  31.679  29.270  1.00  0.00     0.074 A 
ATOM     47  C   UNL A   1      42.135  32.572  29.976  1.00  0.00     0.031 C 
ATOM     48  C   UNL A   1      39.680  26.184  29.107  1.00  0.00     0.029 A 
ATOM     49  C   UNL A   1      40.989  26.445  28.509  1.00  0.00     0.049 A 
ATOM     50  H   UNL A   1      42.091  28.208  28.607  1.00  0.00     0.167 HD
ATOM     51  C   UNL A   1      44.262  32.022  28.838  1.00  0.00     0.037 A 
ATOM     52  C   UNL A   1      41.720  25.571  27.790  1.00  0.00     0.037 A 
ATOM     53  C   UNL A   1      45.144  31.129  28.133  1.00  0.00     0.049 A 
ATOM     54  C   UNL A   1      43.062  26.001  27.251  1.00  0.00     0.074 A 
ATOM     55  C   UNL A   1      46.421  31.373  27.661  1.00  0.00     0.029 A 
ATOM     56  N   UNL A   1      44.831  29.823  27.788  1.00  0.00    -0.354 N 
ATOM     57  N   UNL A   1      43.684  27.148  27.386  1.00  0.00    -0.248 NA
ATOM     58  C   UNL A   1      43.808  25.009  26.463  1.00  0.00     0.031 C 
ATOM     59  C   UNL A   1      46.856  30.236  26.975  1.00  0.00     0.029 A 
ATOM     60  C   UNL A   1      45.882  29.256  27.083  1.00  0.00     0.049 A 
ATOM     61  H   UNL A   1      43.989  29.365  28.010  1.00  0.00     0.167 HD
ATOM     62  C   UNL A   1      44.905  27.003  26.736  1.00  0.00     0.074 A 
ATOM     63  C   UNL A   1      44.940  25.651  26.219  1.00  0.00     0.031 C 
ATOM     64  C   UNL A   1      45.907  27.904  26.584  1.00  0.00     0.037 A 
BRANCH  51  65
ATOM     65  C   UNL A   1      44.718  33.431  29.086  1.00  0.00     0.064 A 
ATOM     66  C   UNL A   1      44.449  34.468  28.180  1.00  0.00     0.173 A 
ATOM     67  C   UNL A   1      45.417  33.752  30.260  1.00  0.00     0.173 A 
ATOM     68  F   UNL A   1      43.801  34.213  27.033  1.00  0.00    -0.203 F 
ATOM     69  C   UNL A   1      44.889  35.767  28.426  1.00  0.00     0.198 A 
ATOM     70  C   UNL A   1      45.822  35.058  30.519  1.00  0.00     0.198 A 
ATOM     71  F   UNL A   1      45.699  32.799  31.161  1.00  0.00    -0.203 F 
ATOM     72  F   UNL A   1      44.669  36.731  27.520  1.00  0.00    -0.200 F 
ATOM     73  C   UNL A   1      45.567  36.063  29.599  1.00  0.00     0.200 A 
ATOM     74  F   UNL A   1      46.465  35.343  31.660  1.00  0.00    -0.200 F 
ATOM     75  F   UNL A   1      45.981  37.314  29.839  1.00  0.00    -0.200 F 
ENDBRANCH  51  65
BRANCH  52  76
ATOM     76  C   UNL A   1      41.200  24.202  27.526  1.00  0.00     0.064 A 
ATOM     77  C   UNL A   1      41.803  23.073  28.098  1.00  0.00     0.173 A 
ATOM     78  C   UNL A   1      40.110  23.992  26.668  1.00  0.00     0.173 A 
ATOM     79  F   UNL A   1      42.865  23.218  28.905  1.00  0.00    -0.203 F 
ATOM     80  C   UNL A   1      41.351  21.788  27.805  1.00  0.00     0.198 A 
ATOM     81  C   UNL A   1      39.638  22.708  26.402  1.00  0.00     0.198 A 
ATOM     82  F   UNL A   1      39.497  25.036  26.090  1.00  0.00    -0.203 F 
ATOM     83  F   UNL A   1      41.983  20.725  28.321  1.00  0.00    -0.200 F 
ATOM     84  C   UNL A   1      40.266  21.606  26.961  1.00  0.00     0.200 A 
ATOM     85  F   UNL A   1      38.580  22.539  25.598  1.00  0.00    -0.200 F 
ATOM     86  F   UNL A   1      39.832  20.370  26.681  1.00  0.00    -0.200 F 
ENDBRANCH  52  76
BRANCH  64  87
ATOM     87  C   UNL A   1      47.152  27.446  25.875  1.00  0.00     0.064 A 
ATOM     88  C   UNL A   1      48.221  26.848  26.559  1.00  0.00     0.173 A 
ATOM     89  C   UNL A   1      47.259  27.578  24.481  1.00  0.00     0.173 A 
ATOM     90  F   UNL A   1      48.175  26.707  27.893  1.00  0.00    -0.203 F 
ATOM     91  C   UNL A   1      49.364  26.434  25.880  1.00  0.00     0.198 A 
ATOM     92  C   UNL A   1      48.386  27.127  23.801  1.00  0.00     0.198 A 
ATOM     93  F   UNL A   1      46.262  28.130  23.775  1.00  0.00    -0.203 F 
ATOM     94  F   UNL A   1      50.398  25.922  26.563  1.00  0.00    -0.200 F 
ATOM     95  C   UNL A   1      49.443  26.567  24.502  1.00  0.00     0.200 A 
ATOM     96  F   UNL A   1      48.452  27.237  22.467  1.00  0.00    -0.200 F 
ATOM     97  F   UNL A   1      50.542  26.161  23.849  1.00  0.00    -0.200 F 
ENDBRANCH  64  87
ENDBRANCH  38  39
ENDBRANCH  31  33
ENDBRANCH  30  31
ENDBRANCH  29  30
ENDBRANCH  28  29
ENDBRANCH  27  28
ENDBRANCH  26  27
ENDBRANCH  25  26
ENDBRANCH   1  25
TORSDOF 22
ENDMDL
MODEL 2
REMARK VINA RESULT:     -10.6      4.287      9.195
REMARK SMILES C/C(=C(/F)C(=O)OCCOCCOCCOCCOC(=O)c1ccc(-c2c3nc(c(-c4c(F)c(F)c(F)c(F)c4F)c4ccc([nH]4)c(-c4c(F)c(F)c(F)c(F)c4F)c4nc(c(-c5c(F)c(F)c(F)c(F)c5F)c5ccc2[nH]5)C=C4)C=C3)cc1)c1cccc(-n2cnnn2)c1
REMARK SMILES IDX 13 1 12 2 11 3 10 4 9 5 8 6 7 7 5 8 6 9 3 10 1 11 2 12 4 13
REMARK SMILES IDX 85 14 86 15 95 16 87 17 89 18 88 19 90 20 91 21 94 22 92 23
REMARK SMILES IDX 93 24 14 25 15 26 16 27 17 28 18 29 19 30 20 31 21 32 22 33
REMARK SMILES IDX 23 34 84 35 24 36 83 37 25 38 26 39 27 40 77 41 28 42 82 43
REMARK SMILES IDX 76 44 78 45 29 46 81 47 75 48 74 49 30 51 62 52 42 53 61 54
REMARK SMILES IDX 43 55 46 56 60 57 79 58 44 59 45 60 59 62 80 63 47 64 31 65
REMARK SMILES IDX 32 66 40 67 33 68 34 69 38 70 41 71 35 72 36 73 39 74 37 75
REMARK SMILES IDX 63 76 64 77 72 78 65 79 66 80 70 81 73 82 67 83 68 84 71 85
REMARK SMILES IDX 69 86 48 87 49 88 57 89 50 90 51 91 55 92 58 93 52 94 53 95
REMARK SMILES IDX 56 96 54 97
REMARK H PARENT 78 50 46 61
REMARK Flexibility Score: inf
ROOT
ATOM      1  O   UNL A   1      35.620  22.390  25.865  1.00  0.00    -0.377 OA
ENDROOT
BRANCH   1   2
ATOM      2  C   UNL A   1      34.655  23.031  26.695  1.00  0.00     0.188 C 
BRANCH   2   3
ATOM      3  C   UNL A   1      33.632  22.249  27.558  1.00  0.00     0.188 C 
BRANCH   3   4
ATOM      4  O   UNL A   1      32.274  22.450  27.211  1.00  0.00    -0.376 OA
BRANCH   4   5
ATOM      5  C   UNL A   1      31.964  23.162  26.030  1.00  0.00     0.202 C 
BRANCH   5   6
ATOM      6  C   UNL A   1      31.437  24.589  26.219  1.00  0.00     0.261 C 
BRANCH   6   7
ATOM      7  O   UNL A   1      32.444  25.606  26.317  1.00  0.00    -0.458 OA
BRANCH   7   8
ATOM      8  C   UNL A   1      32.943  26.093  25.155  1.00  0.00     0.367 C 
ATOM      9  O   UNL A   1      34.087  25.961  24.753  1.00  0.00    -0.243 OA
BRANCH   8  10
ATOM     10  C   UNL A   1      31.822  26.708  24.397  1.00  0.00     0.211 C 
ATOM     11  C   UNL A   1      31.770  28.894  25.672  1.00  0.00     0.048 C 
ATOM     12  C   UNL A   1      31.281  27.924  24.624  1.00  0.00    -0.000 C 
ATOM     13  F   UNL A   1      31.416  25.958  23.344  1.00  0.00    -0.199 F 
BRANCH  12  14
ATOM     14  C   UNL A   1      30.078  28.368  23.861  1.00  0.00    -0.017 A 
ATOM     15  C   UNL A   1      29.006  27.471  23.721  1.00  0.00     0.008 A 
ATOM     16  C   UNL A   1      29.901  29.694  23.414  1.00  0.00     0.037 A 
ATOM     17  C   UNL A   1      27.773  27.883  23.221  1.00  0.00     0.003 A 
ATOM     18  C   UNL A   1      28.645  30.115  22.935  1.00  0.00     0.069 A 
ATOM     19  C   UNL A   1      27.578  29.211  22.866  1.00  0.00     0.028 A 
BRANCH  18  20
ATOM     20  N   UNL A   1      28.413  31.456  22.554  1.00  0.00    -0.201 N 
ATOM     21  C   UNL A   1      27.878  31.959  21.397  1.00  0.00     0.252 A 
ATOM     22  N   UNL A   1      28.713  32.501  23.361  1.00  0.00    -0.040 NA
ATOM     23  N   UNL A   1      27.902  33.272  21.442  1.00  0.00    -0.117 NA
ATOM     24  N   UNL A   1      28.442  33.592  22.661  1.00  0.00    -0.024 NA
ENDBRANCH  18  20
ENDBRANCH  12  14
ENDBRANCH   8  10
ENDBRANCH   7   8
ENDBRANCH   6   7
ENDBRANCH   5   6
ENDBRANCH   4   5
ENDBRANCH   3   4
ENDBRANCH   2   3
ENDBRANCH   1   2
BRANCH   1  25
ATOM     25  C   UNL A   1      35.241  21.264  25.088  1.00  0.00     0.188 C 
BRANCH  25  26
ATOM     26  C   UNL A   1      36.237  20.087  25.044  1.00  0.00     0.188 C 
BRANCH  26  27
ATOM     27  O   UNL A   1      37.529  20.467  24.600  1.00  0.00    -0.376 OA
BRANCH  27  28
ATOM     28  C   UNL A   1      38.543  20.684  25.562  1.00  0.00     0.202 C 
BRANCH  28  29
ATOM     29  C   UNL A   1      39.632  19.621  25.777  1.00  0.00     0.261 C 
BRANCH  29  30
ATOM     30  O   UNL A   1      40.996  20.048  25.659  1.00  0.00    -0.460 OA
BRANCH  30  31
ATOM     31  C   UNL A   1      41.705  20.197  26.794  1.00  0.00     0.338 C 
ATOM     32  O   UNL A   1      42.353  19.344  27.381  1.00  0.00    -0.246 OA
BRANCH  31  33
ATOM     33  C   UNL A   1      41.731  21.639  27.114  1.00  0.00     0.060 A 
ATOM     34  C   UNL A   1      41.473  22.568  26.098  1.00  0.00     0.016 A 
ATOM     35  C   UNL A   1      41.991  22.068  28.418  1.00  0.00     0.016 A 
ATOM     36  C   UNL A   1      41.519  23.934  26.374  1.00  0.00     0.010 A 
ATOM     37  C   UNL A   1      42.064  23.436  28.688  1.00  0.00     0.010 A 
ATOM     38  C   UNL A   1      41.871  24.372  27.657  1.00  0.00    -0.014 A 
BRANCH  38  39
ATOM     39  C   UNL A   1      42.270  25.785  27.853  1.00  0.00     0.031 A 
ATOM     40  C   UNL A   1      43.605  26.221  27.311  1.00  0.00     0.074 A 
ATOM     41  C   UNL A   1      41.459  26.672  28.455  1.00  0.00     0.049 A 
ATOM     42  N   UNL A   1      44.191  27.389  27.374  1.00  0.00    -0.248 NA
ATOM     43  C   UNL A   1      44.386  25.193  26.604  1.00  0.00     0.031 C 
ATOM     44  C   UNL A   1      40.127  26.379  28.979  1.00  0.00     0.029 A 
ATOM     45  N   UNL A   1      41.647  28.003  28.729  1.00  0.00    -0.354 N 
ATOM     46  C   UNL A   1      45.408  27.232  26.722  1.00  0.00     0.074 A 
ATOM     47  C   UNL A   1      45.495  25.851  26.305  1.00  0.00     0.031 C 
ATOM     48  C   UNL A   1      39.619  27.500  29.522  1.00  0.00     0.029 A 
ATOM     49  C   UNL A   1      40.603  28.576  29.412  1.00  0.00     0.049 A 
ATOM     50  H   UNL A   1      42.453  28.500  28.461  1.00  0.00     0.167 HD
ATOM     51  C   UNL A   1      46.362  28.161  26.482  1.00  0.00     0.037 A 
ATOM     52  C   UNL A   1      40.473  29.822  29.907  1.00  0.00     0.037 A 
ATOM     53  C   UNL A   1      46.272  29.535  26.902  1.00  0.00     0.049 A 
ATOM     54  C   UNL A   1      41.585  30.820  29.694  1.00  0.00     0.074 A 
ATOM     55  C   UNL A   1      47.178  30.559  26.701  1.00  0.00     0.029 A 
ATOM     56  N   UNL A   1      45.214  30.070  27.623  1.00  0.00    -0.354 N 
ATOM     57  N   UNL A   1      42.722  30.675  29.055  1.00  0.00    -0.248 NA
ATOM     58  C   UNL A   1      41.392  32.159  30.268  1.00  0.00     0.031 C 
ATOM     59  C   UNL A   1      46.699  31.699  27.353  1.00  0.00     0.029 A 
ATOM     60  C   UNL A   1      45.459  31.406  27.898  1.00  0.00     0.049 A 
ATOM     61  H   UNL A   1      44.409  29.574  27.898  1.00  0.00     0.167 HD
ATOM     62  C   UNL A   1      43.358  31.909  29.118  1.00  0.00     0.074 A 
ATOM     63  C   UNL A   1      42.474  32.795  29.845  1.00  0.00     0.031 C 
ATOM     64  C   UNL A   1      44.563  32.278  28.615  1.00  0.00     0.037 A 
BRANCH  51  65
ATOM     65  C   UNL A   1      47.601  27.713  25.761  1.00  0.00     0.064 A 
ATOM     66  C   UNL A   1      47.666  27.660  24.360  1.00  0.00     0.173 A 
ATOM     67  C   UNL A   1      48.747  27.349  26.484  1.00  0.00     0.173 A 
ATOM     68  F   UNL A   1      46.592  27.979  23.621  1.00  0.00    -0.203 F 
ATOM     69  C   UNL A   1      48.822  27.233  23.712  1.00  0.00     0.198 A 
ATOM     70  C   UNL A   1      49.913  26.957  25.830  1.00  0.00     0.198 A 
ATOM     71  F   UNL A   1      48.740  27.381  27.824  1.00  0.00    -0.203 F 
ATOM     72  F   UNL A   1      48.843  27.138  22.374  1.00  0.00    -0.200 F 
ATOM     73  C   UNL A   1      49.947  26.890  24.447  1.00  0.00     0.200 A 
ATOM     74  F   UNL A   1      51.003  26.640  26.544  1.00  0.00    -0.200 F 
ATOM     75  F   UNL A   1      51.062  26.488  23.821  1.00  0.00    -0.200 F 
ENDBRANCH  51  65
BRANCH  52  76
ATOM     76  C   UNL A   1      39.248  30.202  30.662  1.00  0.00     0.064 A 
ATOM     77  C   UNL A   1      39.190  30.090  32.058  1.00  0.00     0.173 A 
ATOM     78  C   UNL A   1      38.098  30.654  29.998  1.00  0.00     0.173 A 
ATOM     79  F   UNL A   1      40.255  29.638  32.738  1.00  0.00    -0.203 F 
ATOM     80  C   UNL A   1      38.024  30.392  32.758  1.00  0.00     0.198 A 
ATOM     81  C   UNL A   1      36.943  30.988  30.703  1.00  0.00     0.198 A 
ATOM     82  F   UNL A   1      38.095  30.778  28.663  1.00  0.00    -0.203 F 
ATOM     83  F   UNL A   1      37.980  30.221  34.087  1.00  0.00    -0.200 F 
ATOM     84  C   UNL A   1      36.903  30.846  32.081  1.00  0.00     0.200 A 
ATOM     85  F   UNL A   1      35.866  31.439  30.045  1.00  0.00    -0.200 F 
ATOM     86  F   UNL A   1      35.782  31.137  32.755  1.00  0.00    -0.200 F 
ENDBRANCH  52  76
BRANCH  64  87
ATOM     87  C   UNL A   1      44.976  33.715  28.786  1.00  0.00     0.064 A 
ATOM     88  C   UNL A   1      45.762  34.140  29.868  1.00  0.00     0.173 A 
ATOM     89  C   UNL A   1      44.607  34.674  27.828  1.00  0.00     0.173 A 
ATOM     90  F   UNL A   1      46.133  33.267  30.817  1.00  0.00    -0.203 F 
ATOM     91  C   UNL A   1      46.129  35.476  30.004  1.00  0.00     0.198 A 
ATOM     92  C   UNL A   1      45.010  36.000  27.948  1.00  0.00     0.198 A 
ATOM     93  F   UNL A   1      43.867  34.321  26.767  1.00  0.00    -0.203 F 
ATOM     94  F   UNL A   1      46.827  35.870  31.079  1.00  0.00    -0.200 F 
ATOM     95  C   UNL A   1      45.760  36.403  29.042  1.00  0.00     0.200 A 
ATOM     96  F   UNL A   1      44.669  36.890  27.005  1.00  0.00    -0.200 F 
ATOM     97  F   UNL A   1      46.121  37.688  29.172  1.00  0.00    -0.200 F 
ENDBRANCH  64  87
ENDBRANCH  38  39
ENDBRANCH  31  33
ENDBRANCH  30  31
ENDBRANCH  29  30
ENDBRANCH  28  29
ENDBRANCH  27  28
ENDBRANCH  26  27
ENDBRANCH  25  26
ENDBRANCH   1  25
TORSDOF 22
ENDMDL
MODEL 3
REMARK VINA RESULT:     -10.4      0.792      1.782
REMARK SMILES C/C(=C(/F)C(=O)OCCOCCOCCOCCOC(=O)c1ccc(-c2c3nc(c(-c4c(F)c(F)c(F)c(F)c4F)c4ccc([nH]4)c(-c4c(F)c(F)c(F)c(F)c4F)c4nc(c(-c5c(F)c(F)c(F)c(F)c5F)c5ccc2[nH]5)C=C4)C=C3)cc1)c1cccc(-n2cnnn2)c1
REMARK SMILES IDX 13 1 12 2 11 3 10 4 9 5 8 6 7 7 5 8 6 9 3 10 1 11 2 12 4 13
REMARK SMILES IDX 85 14 86 15 95 16 87 17 89 18 88 19 90 20 91 21 94 22 92 23
REMARK SMILES IDX 93 24 14 25 15 26 16 27 17 28 18 29 19 30 20 31 21 32 22 33
REMARK SMILES IDX 23 34 84 35 24 36 83 37 25 38 26 39 27 40 77 41 28 42 82 43
REMARK SMILES IDX 76 44 78 45 29 46 81 47 75 48 74 49 30 51 62 52 42 53 61 54
REMARK SMILES IDX 43 55 46 56 60 57 79 58 44 59 45 60 59 62 80 63 47 64 31 65
REMARK SMILES IDX 32 66 40 67 33 68 34 69 38 70 41 71 35 72 36 73 39 74 37 75
REMARK SMILES IDX 63 76 64 77 72 78 65 79 66 80 70 81 73 82 67 83 68 84 71 85
REMARK SMILES IDX 69 86 48 87 49 88 57 89 50 90 51 91 55 92 58 93 52 94 53 95
REMARK SMILES IDX 56 96 54 97
REMARK H PARENT 78 50 46 61
REMARK Flexibility Score: inf
ROOT
ATOM      1  O   UNL A   1      33.150  31.205  27.620  1.00  0.00    -0.377 OA
ENDROOT
BRANCH   1   2
ATOM      2  C   UNL A   1      32.982  29.848  27.217  1.00  0.00     0.188 C 
BRANCH   2   3
ATOM      3  C   UNL A   1      33.861  29.177  26.129  1.00  0.00     0.188 C 
BRANCH   3   4
ATOM      4  O   UNL A   1      33.271  29.098  24.844  1.00  0.00    -0.376 OA
BRANCH   4   5
ATOM      5  C   UNL A   1      31.885  29.341  24.708  1.00  0.00     0.202 C 
BRANCH   5   6
ATOM      6  C   UNL A   1      31.059  28.216  24.073  1.00  0.00     0.261 C 
BRANCH   6   7
ATOM      7  O   UNL A   1      30.854  27.064  24.903  1.00  0.00    -0.458 OA
BRANCH   7   8
ATOM      8  C   UNL A   1      30.193  26.017  24.352  1.00  0.00     0.367 C 
ATOM      9  O   UNL A   1      29.051  26.034  23.925  1.00  0.00    -0.243 OA
BRANCH   8  10
ATOM     10  C   UNL A   1      31.144  24.880  24.245  1.00  0.00     0.211 C 
ATOM     11  C   UNL A   1      30.569  23.806  26.464  1.00  0.00     0.048 C 
ATOM     12  C   UNL A   1      31.337  23.915  25.169  1.00  0.00    -0.000 C 
ATOM     13  F   UNL A   1      31.776  24.825  23.048  1.00  0.00    -0.199 F 
BRANCH  12  14
ATOM     14  C   UNL A   1      32.412  22.897  24.983  1.00  0.00    -0.017 A 
ATOM     15  C   UNL A   1      33.748  23.294  25.165  1.00  0.00     0.008 A 
ATOM     16  C   UNL A   1      32.144  21.526  24.790  1.00  0.00     0.037 A 
ATOM     17  C   UNL A   1      34.781  22.362  25.227  1.00  0.00     0.003 A 
ATOM     18  C   UNL A   1      33.188  20.583  24.882  1.00  0.00     0.069 A 
ATOM     19  C   UNL A   1      34.499  21.006  25.127  1.00  0.00     0.028 A 
BRANCH  18  20
ATOM     20  N   UNL A   1      32.939  19.196  24.774  1.00  0.00    -0.201 N 
ATOM     21  C   UNL A   1      33.152  18.348  23.719  1.00  0.00     0.252 A 
ATOM     22  N   UNL A   1      32.418  18.472  25.791  1.00  0.00    -0.040 NA
ATOM     23  N   UNL A   1      32.721  17.148  24.034  1.00  0.00    -0.117 NA
ATOM     24  N   UNL A   1      32.250  17.247  25.317  1.00  0.00    -0.024 NA
ENDBRANCH  18  20
ENDBRANCH  12  14
ENDBRANCH   8  10
ENDBRANCH   7   8
ENDBRANCH   6   7
ENDBRANCH   5   6
ENDBRANCH   4   5
ENDBRANCH   3   4
ENDBRANCH   2   3
ENDBRANCH   1   2
BRANCH   1  25
ATOM     25  C   UNL A   1      34.443  31.685  27.952  1.00  0.00     0.188 C 
BRANCH  25  26
ATOM     26  C   UNL A   1      34.526  33.120  28.510  1.00  0.00     0.188 C 
BRANCH  26  27
ATOM     27  O   UNL A   1      33.952  33.251  29.800  1.00  0.00    -0.376 OA
BRANCH  27  28
ATOM     28  C   UNL A   1      34.148  34.457  30.513  1.00  0.00     0.202 C 
BRANCH  28  29
ATOM     29  C   UNL A   1      34.750  34.419  31.927  1.00  0.00     0.261 C 
BRANCH  29  30
ATOM     30  O   UNL A   1      36.085  33.911  32.057  1.00  0.00    -0.460 OA
BRANCH  30  31
ATOM     31  C   UNL A   1      36.253  32.765  32.745  1.00  0.00     0.338 C 
ATOM     32  O   UNL A   1      35.614  32.379  33.711  1.00  0.00    -0.246 OA
BRANCH  31  33
ATOM     33  C   UNL A   1      37.234  31.945  32.004  1.00  0.00     0.060 A 
ATOM     34  C   UNL A   1      38.226  31.258  32.716  1.00  0.00     0.016 A 
ATOM     35  C   UNL A   1      37.158  31.841  30.612  1.00  0.00     0.016 A 
ATOM     36  C   UNL A   1      39.176  30.500  32.032  1.00  0.00     0.010 A 
ATOM     37  C   UNL A   1      38.126  31.105  29.926  1.00  0.00     0.010 A 
ATOM     38  C   UNL A   1      39.163  30.468  30.632  1.00  0.00    -0.014 A 
BRANCH  38  39
ATOM     39  C   UNL A   1      40.359  29.977  29.910  1.00  0.00     0.031 A 
ATOM     40  C   UNL A   1      41.503  30.934  29.710  1.00  0.00     0.074 A 
ATOM     41  C   UNL A   1      40.453  28.707  29.479  1.00  0.00     0.049 A 
ATOM     42  N   UNL A   1      42.643  30.757  29.095  1.00  0.00    -0.248 NA
ATOM     43  C   UNL A   1      41.332  32.279  30.285  1.00  0.00     0.031 C 
ATOM     44  C   UNL A   1      39.431  27.678  29.654  1.00  0.00     0.029 A 
ATOM     45  N   UNL A   1      41.462  28.073  28.798  1.00  0.00    -0.354 N 
ATOM     46  C   UNL A   1      43.318  31.966  29.202  1.00  0.00     0.074 A 
ATOM     47  C   UNL A   1      42.449  32.881  29.907  1.00  0.00     0.031 C 
ATOM     48  C   UNL A   1      39.863  26.538  29.085  1.00  0.00     0.029 A 
ATOM     49  C   UNL A   1      41.174  26.769  28.480  1.00  0.00     0.049 A 
ATOM     50  H   UNL A   1      42.311  28.511  28.563  1.00  0.00     0.167 HD
ATOM     51  C   UNL A   1      44.559  32.282  28.762  1.00  0.00     0.037 A 
ATOM     52  C   UNL A   1      41.884  25.877  27.762  1.00  0.00     0.037 A 
ATOM     53  C   UNL A   1      45.420  31.368  28.058  1.00  0.00     0.049 A 
ATOM     54  C   UNL A   1      43.233  26.277  27.214  1.00  0.00     0.074 A 
ATOM     55  C   UNL A   1      46.699  31.584  27.579  1.00  0.00     0.029 A 
ATOM     56  N   UNL A   1      45.080  30.066  27.722  1.00  0.00    -0.354 N 
ATOM     57  N   UNL A   1      43.878  27.413  27.340  1.00  0.00    -0.248 NA
ATOM     58  C   UNL A   1      43.955  25.267  26.429  1.00  0.00     0.031 C 
ATOM     59  C   UNL A   1      47.109  30.435  26.898  1.00  0.00     0.029 A 
ATOM     60  C   UNL A   1      46.116  29.475  27.016  1.00  0.00     0.049 A 
ATOM     61  H   UNL A   1      44.229  29.627  27.951  1.00  0.00     0.167 HD
ATOM     62  C   UNL A   1      45.092  27.240  26.686  1.00  0.00     0.074 A 
ATOM     63  C   UNL A   1      45.099  25.885  26.176  1.00  0.00     0.031 C 
ATOM     64  C   UNL A   1      46.111  28.120  26.524  1.00  0.00     0.037 A 
BRANCH  51  65
ATOM     65  C   UNL A   1      45.043  33.683  29.001  1.00  0.00     0.064 A 
ATOM     66  C   UNL A   1      45.829  34.018  30.115  1.00  0.00     0.173 A 
ATOM     67  C   UNL A   1      44.733  34.703  28.089  1.00  0.00     0.173 A 
ATOM     68  F   UNL A   1      46.139  33.084  31.028  1.00  0.00    -0.203 F 
ATOM     69  C   UNL A   1      46.260  35.326  30.321  1.00  0.00     0.198 A 
ATOM     70  C   UNL A   1      45.197  36.002  28.279  1.00  0.00     0.198 A 
ATOM     71  F   UNL A   1      43.986  34.439  27.006  1.00  0.00    -0.203 F 
ATOM     72  F   UNL A   1      46.963  35.633  31.421  1.00  0.00    -0.200 F 
ATOM     73  C   UNL A   1      45.952  36.315  29.399  1.00  0.00     0.200 A 
ATOM     74  F   UNL A   1      44.909  36.953  27.380  1.00  0.00    -0.200 F 
ATOM     75  F   UNL A   1      46.375  37.571  29.594  1.00  0.00    -0.200 F 
ENDBRANCH  51  65
BRANCH  52  76
ATOM     76  C   UNL A   1      41.337  24.517  27.507  1.00  0.00     0.064 A 
ATOM     77  C   UNL A   1      40.224  24.326  26.676  1.00  0.00     0.173 A 
ATOM     78  C   UNL A   1      41.895  23.384  28.117  1.00  0.00     0.173 A 
ATOM     79  F   UNL A   1      39.637  25.380  26.089  1.00  0.00    -0.203 F 
ATOM     80  C   UNL A   1      39.677  23.059  26.484  1.00  0.00     0.198 A 
ATOM     81  C   UNL A   1      41.367  22.113  27.898  1.00  0.00     0.198 A 
ATOM     82  F   UNL A   1      42.958  23.509  28.925  1.00  0.00    -0.203 F 
ATOM     83  F   UNL A   1      38.578  22.914  25.730  1.00  0.00    -0.200 F 
ATOM     84  C   UNL A   1      40.252  21.952  27.091  1.00  0.00     0.200 A 
ATOM     85  F   UNL A   1      41.935  21.046  28.476  1.00  0.00    -0.200 F 
ATOM     86  F   UNL A   1      39.726  20.734  26.905  1.00  0.00    -0.200 F 
ENDBRANCH  52  76
BRANCH  64  87
ATOM     87  C   UNL A   1      47.344  27.633  25.812  1.00  0.00     0.064 A 
ATOM     88  C   UNL A   1      48.426  27.065  26.501  1.00  0.00     0.173 A 
ATOM     89  C   UNL A   1      47.425  27.708  24.412  1.00  0.00     0.173 A 
ATOM     90  F   UNL A   1      48.405  26.980  27.839  1.00  0.00    -0.203 F 
ATOM     91  C   UNL A   1      49.557  26.624  25.818  1.00  0.00     0.198 A 
ATOM     92  C   UNL A   1      48.540  27.229  23.731  1.00  0.00     0.198 A 
ATOM     93  F   UNL A   1      46.415  28.230  23.702  1.00  0.00    -0.203 F 
ATOM     94  F   UNL A   1      50.604  26.141  26.503  1.00  0.00    -0.200 F 
ATOM     95  C   UNL A   1      49.611  26.699  24.435  1.00  0.00     0.200 A 
ATOM     96  F   UNL A   1      48.581  27.284  22.392  1.00  0.00    -0.200 F 
ATOM     97  F   UNL A   1      50.698  26.267  23.780  1.00  0.00    -0.200 F 
ENDBRANCH  64  87
ENDBRANCH  38  39
ENDBRANCH  31  33
ENDBRANCH  30  31
ENDBRANCH  29  30
ENDBRANCH  28  29
ENDBRANCH  27  28
ENDBRANCH  26  27
ENDBRANCH  25  26
ENDBRANCH   1  25
TORSDOF 22
ENDMDL
