MODEL 1
REMARK VINA RESULT:     -10.7      0.000      0.000
REMARK SMILES COc1ccc(F)cc1[C@@H](C(=O)OCCOCCOCCOCCOC(=O)c1ccc(-c2c3nc(c(-c4c(F)c(F)c(F)c(F)c4F)c4ccc([nH]4)c(-c4c(F)c(F)c(F)c(F)c4F)c4nc(c(-c5c(F)c(F)c(F)c(F)c5F)c5ccc2[nH]5)C=C4)C=C3)cc1)[N@@H+](C)CCn1ccnc1C
REMARK SMILES IDX 18 1 17 2 16 3 15 4 14 5 13 6 11 7 12 8 10 9 9 10 3 11 4 12
REMARK SMILES IDX 5 13 8 14 6 15 7 16 2 17 1 18 91 19 92 20 93 22 94 23 95 24
REMARK SMILES IDX 96 25 99 26 97 27 98 28 100 29 19 30 20 31 21 32 22 33 23 34
REMARK SMILES IDX 24 35 25 36 26 37 27 38 28 39 29 40 90 41 30 42 89 43 31 44
REMARK SMILES IDX 32 45 33 46 83 47 34 48 88 49 82 50 84 51 35 52 87 53 81 54
REMARK SMILES IDX 80 55 36 57 68 58 48 59 67 60 49 61 52 62 66 63 85 64 50 65
REMARK SMILES IDX 51 66 65 68 86 69 53 70 37 71 38 72 46 73 39 74 40 75 44 76
REMARK SMILES IDX 47 77 41 78 42 79 45 80 43 81 69 82 70 83 78 84 71 85 72 86
REMARK SMILES IDX 76 87 79 88 73 89 74 90 77 91 75 92 54 93 55 94 63 95 56 96
REMARK SMILES IDX 57 97 61 98 64 99 58 100 59 101 62 102 60 103
REMARK H PARENT 91 21 84 56 52 67
REMARK Flexibility Score: inf
ROOT
ATOM      1  C   UNL A   1      35.278  31.451  28.145  1.00  0.00     0.188 C 
ENDROOT
BRANCH   1   2
ATOM      2  C   UNL A   1      34.817  29.613  26.898  1.00  0.00     0.188 C 
BRANCH   2   3
ATOM      3  O   UNL A   1      33.818  28.474  27.143  1.00  0.00    -0.376 OA
BRANCH   3   4
ATOM      4  C   UNL A   1      33.094  27.920  26.042  1.00  0.00     0.202 C 
BRANCH   4   5
ATOM      5  C   UNL A   1      33.792  27.518  24.691  1.00  0.00     0.261 C 
BRANCH   5   6
ATOM      6  O   UNL A   1      34.284  26.133  24.517  1.00  0.00    -0.459 OA
BRANCH   6   7
ATOM      7  C   UNL A   1      33.567  25.279  23.699  1.00  0.00     0.370 C 
ATOM      8  O   UNL A   1      33.923  25.120  22.527  1.00  0.00    -0.245 OA
BRANCH   7   9
ATOM      9  C   UNL A   1      32.345  24.319  24.363  1.00  0.00     0.330 C 
BRANCH   9  10
ATOM     10  C   UNL A   1      32.292  22.726  24.112  1.00  0.00     0.066 A 
ATOM     11  C   UNL A   1      32.640  21.784  25.096  1.00  0.00     0.128 A 
ATOM     12  C   UNL A   1      32.679  20.391  24.791  1.00  0.00     0.050 A 
ATOM     13  C   UNL A   1      32.426  19.898  23.511  1.00  0.00     0.043 A 
ATOM     14  C   UNL A   1      32.007  22.155  22.837  1.00  0.00     0.053 A 
ATOM     15  C   UNL A   1      32.099  20.797  22.535  1.00  0.00     0.124 A 
ATOM     16  F   UNL A   1      31.902  20.387  21.273  1.00  0.00    -0.207 F 
BRANCH  11  17
ATOM     17  O   UNL A   1      32.931  22.275  26.342  1.00  0.00    -0.496 OA
ATOM     18  C   UNL A   1      33.814  21.469  27.120  1.00  0.00     0.278 C 
ENDBRANCH  11  17
ENDBRANCH   9  10
BRANCH   9  19
ATOM     19  N   UNL A   1      31.007  25.084  24.333  1.00  0.00    -0.320 N 
ATOM     20  C   UNL A   1      30.347  25.160  25.636  1.00  0.00     0.333 C 
ATOM     21  H   UNL A   1      30.773  24.407  23.607  1.00  0.00     0.348 HD
BRANCH  19  22
ATOM     22  C   UNL A   1      30.539  26.175  23.447  1.00  0.00     0.285 C 
BRANCH  22  23
ATOM     23  C   UNL A   1      30.119  27.640  23.831  1.00  0.00     0.184 C 
BRANCH  23  24
ATOM     24  N   UNL A   1      29.328  28.460  22.922  1.00  0.00    -0.330 N 
ATOM     25  C   UNL A   1      30.097  29.829  21.967  1.00  0.00     0.107 A 
ATOM     26  C   UNL A   1      27.533  28.813  23.118  1.00  0.00     0.105 A 
ATOM     27  C   UNL A   1      28.912  31.009  21.600  1.00  0.00     0.131 A 
ATOM     28  N   UNL A   1      27.281  30.304  22.337  1.00  0.00    -0.242 NA
ATOM     29  C   UNL A   1      26.525  27.937  23.739  1.00  0.00     0.087 C 
ENDBRANCH  23  24
ENDBRANCH  22  23
ENDBRANCH  19  22
ENDBRANCH   9  19
ENDBRANCH   7   9
ENDBRANCH   6   7
ENDBRANCH   5   6
ENDBRANCH   4   5
ENDBRANCH   3   4
ENDBRANCH   2   3
ENDBRANCH   1   2
BRANCH   1  30
ATOM     30  O   UNL A   1      34.621  31.944  29.459  1.00  0.00    -0.377 OA
BRANCH  30  31
ATOM     31  C   UNL A   1      34.295  33.321  29.486  1.00  0.00     0.188 C 
BRANCH  31  32
ATOM     32  C   UNL A   1      35.343  34.285  30.068  1.00  0.00     0.188 C 
BRANCH  32  33
ATOM     33  O   UNL A   1      35.257  34.778  31.389  1.00  0.00    -0.376 OA
BRANCH  33  34
ATOM     34  C   UNL A   1      34.452  34.257  32.427  1.00  0.00     0.202 C 
BRANCH  34  35
ATOM     35  C   UNL A   1      34.755  33.064  33.339  1.00  0.00     0.261 C 
BRANCH  35  36
ATOM     36  O   UNL A   1      35.731  32.126  32.926  1.00  0.00    -0.460 OA
BRANCH  36  37
ATOM     37  C   UNL A   1      36.859  32.028  33.658  1.00  0.00     0.338 C 
ATOM     38  O   UNL A   1      36.989  32.138  34.860  1.00  0.00    -0.246 OA
BRANCH  37  39
ATOM     39  C   UNL A   1      37.873  31.541  32.704  1.00  0.00     0.060 A 
ATOM     40  C   UNL A   1      39.027  30.904  33.191  1.00  0.00     0.016 A 
ATOM     41  C   UNL A   1      37.577  31.545  31.338  1.00  0.00     0.016 A 
ATOM     42  C   UNL A   1      39.864  30.223  32.316  1.00  0.00     0.010 A 
ATOM     43  C   UNL A   1      38.463  30.947  30.452  1.00  0.00     0.010 A 
ATOM     44  C   UNL A   1      39.618  30.312  30.941  1.00  0.00    -0.014 A 
BRANCH  44  45
ATOM     45  C   UNL A   1      40.740  30.123  30.007  1.00  0.00     0.031 A 
ATOM     46  C   UNL A   1      40.862  28.751  29.415  1.00  0.00     0.074 A 
ATOM     47  C   UNL A   1      41.630  31.092  29.747  1.00  0.00     0.049 A 
ATOM     48  N   UNL A   1      41.837  28.228  28.723  1.00  0.00    -0.248 NA
ATOM     49  C   UNL A   1      39.732  27.830  29.652  1.00  0.00     0.031 C 
ATOM     50  C   UNL A   1      41.550  32.471  30.219  1.00  0.00     0.029 A 
ATOM     51  N   UNL A   1      42.796  31.042  29.029  1.00  0.00    -0.354 N 
ATOM     52  C   UNL A   1      41.437  26.928  28.454  1.00  0.00     0.074 A 
ATOM     53  C   UNL A   1      40.153  26.721  29.073  1.00  0.00     0.031 C 
ATOM     54  C   UNL A   1      42.642  33.135  29.796  1.00  0.00     0.029 A 
ATOM     55  C   UNL A   1      43.514  32.210  29.070  1.00  0.00     0.049 A 
ATOM     56  H   UNL A   1      43.091  30.244  28.533  1.00  0.00     0.167 HD
ATOM     57  C   UNL A   1      42.092  25.988  27.743  1.00  0.00     0.037 A 
ATOM     58  C   UNL A   1      44.749  32.474  28.601  1.00  0.00     0.037 A 
ATOM     59  C   UNL A   1      43.380  26.205  27.156  1.00  0.00     0.049 A 
ATOM     60  C   UNL A   1      45.515  31.370  27.909  1.00  0.00     0.074 A 
ATOM     61  C   UNL A   1      44.149  25.321  26.427  1.00  0.00     0.029 A 
ATOM     62  N   UNL A   1      44.092  27.392  27.245  1.00  0.00    -0.354 N 
ATOM     63  N   UNL A   1      45.142  30.138  27.650  1.00  0.00    -0.248 NA
ATOM     64  C   UNL A   1      46.876  31.685  27.449  1.00  0.00     0.031 C 
ATOM     65  C   UNL A   1      45.356  25.951  26.128  1.00  0.00     0.029 A 
ATOM     66  C   UNL A   1      45.307  27.255  26.601  1.00  0.00     0.049 A 
ATOM     67  H   UNL A   1      43.779  28.209  27.697  1.00  0.00     0.167 HD
ATOM     68  C   UNL A   1      46.197  29.549  26.966  1.00  0.00     0.074 A 
ATOM     69  C   UNL A   1      47.230  30.557  26.849  1.00  0.00     0.031 C 
ATOM     70  C   UNL A   1      46.302  28.289  26.475  1.00  0.00     0.037 A 
BRANCH  57  71
ATOM     71  C   UNL A   1      41.440  24.650  27.585  1.00  0.00     0.064 A 
ATOM     72  C   UNL A   1      41.962  23.527  28.242  1.00  0.00     0.173 A 
ATOM     73  C   UNL A   1      40.333  24.467  26.743  1.00  0.00     0.173 A 
ATOM     74  F   UNL A   1      43.009  23.653  29.071  1.00  0.00    -0.203 F 
ATOM     75  C   UNL A   1      41.421  22.263  28.034  1.00  0.00     0.198 A 
ATOM     76  C   UNL A   1      39.772  23.206  26.565  1.00  0.00     0.198 A 
ATOM     77  F   UNL A   1      39.777  25.517  26.118  1.00  0.00    -0.203 F 
ATOM     78  F   UNL A   1      41.964  21.196  28.637  1.00  0.00    -0.200 F 
ATOM     79  C   UNL A   1      40.326  22.103  27.197  1.00  0.00     0.200 A 
ATOM     80  F   UNL A   1      38.695  23.060  25.782  1.00  0.00    -0.200 F 
ATOM     81  F   UNL A   1      39.804  20.885  27.000  1.00  0.00    -0.200 F 
ENDBRANCH  57  71
BRANCH  58  82
ATOM     82  C   UNL A   1      45.335  33.830  28.767  1.00  0.00     0.064 A 
ATOM     83  C   UNL A   1      46.066  34.183  29.912  1.00  0.00     0.173 A 
ATOM     84  C   UNL A   1      45.164  34.810  27.779  1.00  0.00     0.173 A 
ATOM     85  F   UNL A   1      46.265  33.285  30.888  1.00  0.00    -0.203 F 
ATOM     86  C   UNL A   1      46.581  35.469  30.071  1.00  0.00     0.198 A 
ATOM     87  C   UNL A   1      45.707  36.085  27.925  1.00  0.00     0.198 A 
ATOM     88  F   UNL A   1      44.496  34.516  26.654  1.00  0.00    -0.203 F 
ATOM     89  F   UNL A   1      47.243  35.789  31.191  1.00  0.00    -0.200 F 
ATOM     90  C   UNL A   1      46.406  36.417  29.075  1.00  0.00     0.200 A 
ATOM     91  F   UNL A   1      45.561  36.989  26.946  1.00  0.00    -0.200 F 
ATOM     92  F   UNL A   1      46.916  37.647  29.221  1.00  0.00    -0.200 F 
ENDBRANCH  58  82
BRANCH  70  93
ATOM     93  C   UNL A   1      47.545  27.920  25.718  1.00  0.00     0.064 A 
ATOM     94  C   UNL A   1      47.515  27.853  24.315  1.00  0.00     0.173 A 
ATOM     95  C   UNL A   1      48.702  27.482  26.374  1.00  0.00     0.173 A 
ATOM     96  F   UNL A   1      46.421  28.245  23.642  1.00  0.00    -0.203 F 
ATOM     97  C   UNL A   1      48.584  27.323  23.601  1.00  0.00     0.198 A 
ATOM     98  C   UNL A   1      49.784  26.985  25.653  1.00  0.00     0.198 A 
ATOM     99  F   UNL A   1      48.781  27.533  27.713  1.00  0.00    -0.203 F 
ATOM    100  F   UNL A   1      48.503  27.204  22.268  1.00  0.00    -0.200 F 
ATOM    101  C   UNL A   1      49.717  26.889  24.270  1.00  0.00     0.200 A 
ATOM    102  F   UNL A   1      50.889  26.586  26.298  1.00  0.00    -0.200 F 
ATOM    103  F   UNL A   1      50.744  26.371  23.583  1.00  0.00    -0.200 F 
ENDBRANCH  70  93
ENDBRANCH  44  45
ENDBRANCH  37  39
ENDBRANCH  36  37
ENDBRANCH  35  36
ENDBRANCH  34  35
ENDBRANCH  33  34
ENDBRANCH  32  33
ENDBRANCH  31  32
ENDBRANCH  30  31
ENDBRANCH   1  30
TORSDOF 26
ENDMDL
MODEL 2
REMARK VINA RESULT:     -10.5      3.440      8.680
REMARK SMILES COc1ccc(F)cc1[C@@H](C(=O)OCCOCCOCCOCCOC(=O)c1ccc(-c2c3nc(c(-c4c(F)c(F)c(F)c(F)c4F)c4ccc([nH]4)c(-c4c(F)c(F)c(F)c(F)c4F)c4nc(c(-c5c(F)c(F)c(F)c(F)c5F)c5ccc2[nH]5)C=C4)C=C3)cc1)[N@@H+](C)CCn1ccnc1C
REMARK SMILES IDX 18 1 17 2 16 3 15 4 14 5 13 6 11 7 12 8 10 9 9 10 3 11 4 12
REMARK SMILES IDX 5 13 8 14 6 15 7 16 2 17 1 18 91 19 92 20 93 22 94 23 95 24
REMARK SMILES IDX 96 25 99 26 97 27 98 28 100 29 19 30 20 31 21 32 22 33 23 34
REMARK SMILES IDX 24 35 25 36 26 37 27 38 28 39 29 40 90 41 30 42 89 43 31 44
REMARK SMILES IDX 32 45 33 46 83 47 34 48 88 49 82 50 84 51 35 52 87 53 81 54
REMARK SMILES IDX 80 55 36 57 68 58 48 59 67 60 49 61 52 62 66 63 85 64 50 65
REMARK SMILES IDX 51 66 65 68 86 69 53 70 37 71 38 72 46 73 39 74 40 75 44 76
REMARK SMILES IDX 47 77 41 78 42 79 45 80 43 81 69 82 70 83 78 84 71 85 72 86
REMARK SMILES IDX 76 87 79 88 73 89 74 90 77 91 75 92 54 93 55 94 63 95 56 96
REMARK SMILES IDX 57 97 61 98 64 99 58 100 59 101 62 102 60 103
REMARK H PARENT 91 21 84 56 52 67
REMARK Flexibility Score: inf
ROOT
ATOM      1  C   UNL A   1      34.561  22.680  26.737  1.00  0.00     0.188 C 
ENDROOT
BRANCH   1   2
ATOM      2  C   UNL A   1      34.962  24.419  25.336  1.00  0.00     0.188 C 
BRANCH   2   3
ATOM      3  O   UNL A   1      35.075  24.453  23.805  1.00  0.00    -0.376 OA
BRANCH   3   4
ATOM      4  C   UNL A   1      34.485  23.407  23.030  1.00  0.00     0.202 C 
BRANCH   4   5
ATOM      5  C   UNL A   1      33.131  23.595  22.253  1.00  0.00     0.261 C 
BRANCH   5   6
ATOM      6  O   UNL A   1      32.279  24.766  22.559  1.00  0.00    -0.459 OA
BRANCH   6   7
ATOM      7  C   UNL A   1      31.064  24.550  23.181  1.00  0.00     0.370 C 
ATOM      8  O   UNL A   1      30.550  23.427  23.135  1.00  0.00    -0.245 OA
BRANCH   7   9
ATOM      9  C   UNL A   1      30.399  25.759  24.157  1.00  0.00     0.330 C 
BRANCH   9  10
ATOM     10  C   UNL A   1      29.804  27.120  23.529  1.00  0.00     0.066 A 
ATOM     11  C   UNL A   1      30.617  28.171  23.069  1.00  0.00     0.128 A 
ATOM     12  C   UNL A   1      30.041  29.396  22.620  1.00  0.00     0.050 A 
ATOM     13  C   UNL A   1      28.668  29.635  22.657  1.00  0.00     0.043 A 
ATOM     14  C   UNL A   1      28.409  27.413  23.503  1.00  0.00     0.053 A 
ATOM     15  C   UNL A   1      27.859  28.632  23.112  1.00  0.00     0.124 A 
ATOM     16  F   UNL A   1      26.536  28.826  23.225  1.00  0.00    -0.207 F 
BRANCH  11  17
ATOM     17  O   UNL A   1      31.969  27.950  23.075  1.00  0.00    -0.496 OA
ATOM     18  C   UNL A   1      32.759  29.005  22.528  1.00  0.00     0.278 C 
ENDBRANCH  11  17
ENDBRANCH   9  10
BRANCH   9  19
ATOM     19  N   UNL A   1      31.209  25.878  25.463  1.00  0.00    -0.320 N 
ATOM     20  C   UNL A   1      31.268  24.633  26.230  1.00  0.00     0.333 C 
ATOM     21  H   UNL A   1      30.562  26.642  25.655  1.00  0.00     0.348 HD
BRANCH  19  22
ATOM     22  C   UNL A   1      32.341  26.763  25.820  1.00  0.00     0.285 C 
BRANCH  22  23
ATOM     23  C   UNL A   1      32.719  27.359  27.224  1.00  0.00     0.184 C 
BRANCH  23  24
ATOM     24  N   UNL A   1      32.826  28.798  27.428  1.00  0.00    -0.330 N 
ATOM     25  C   UNL A   1      31.452  29.926  26.964  1.00  0.00     0.107 A 
ATOM     26  C   UNL A   1      34.402  29.747  27.404  1.00  0.00     0.105 A 
ATOM     27  C   UNL A   1      32.077  31.484  26.622  1.00  0.00     0.131 A 
ATOM     28  N   UNL A   1      33.968  31.327  26.941  1.00  0.00    -0.242 NA
ATOM     29  C   UNL A   1      35.733  29.257  27.797  1.00  0.00     0.087 C 
ENDBRANCH  23  24
ENDBRANCH  22  23
ENDBRANCH  19  22
ENDBRANCH   9  19
ENDBRANCH   7   9
ENDBRANCH   6   7
ENDBRANCH   5   6
ENDBRANCH   4   5
ENDBRANCH   3   4
ENDBRANCH   2   3
ENDBRANCH   1   2
BRANCH   1  30
ATOM     30  O   UNL A   1      34.400  21.172  26.419  1.00  0.00    -0.377 OA
BRANCH  30  31
ATOM     31  C   UNL A   1      35.262  20.677  25.412  1.00  0.00     0.188 C 
BRANCH  31  32
ATOM     32  C   UNL A   1      36.696  21.235  25.371  1.00  0.00     0.188 C 
BRANCH  32  33
ATOM     33  O   UNL A   1      37.731  20.592  24.657  1.00  0.00    -0.376 OA
BRANCH  33  34
ATOM     34  C   UNL A   1      38.430  19.431  25.058  1.00  0.00     0.202 C 
BRANCH  34  35
ATOM     35  C   UNL A   1      39.723  19.351  25.876  1.00  0.00     0.261 C 
BRANCH  35  36
ATOM     36  O   UNL A   1      40.497  20.525  26.035  1.00  0.00    -0.460 OA
BRANCH  36  37
ATOM     37  C   UNL A   1      41.288  20.614  27.124  1.00  0.00     0.338 C 
ATOM     38  O   UNL A   1      41.912  19.732  27.676  1.00  0.00    -0.246 OA
BRANCH  37  39
ATOM     39  C   UNL A   1      41.404  22.064  27.373  1.00  0.00     0.060 A 
ATOM     40  C   UNL A   1      40.636  22.957  26.608  1.00  0.00     0.016 A 
ATOM     41  C   UNL A   1      42.121  22.506  28.489  1.00  0.00     0.016 A 
ATOM     42  C   UNL A   1      40.540  24.290  26.987  1.00  0.00     0.010 A 
ATOM     43  C   UNL A   1      42.104  23.855  28.812  1.00  0.00     0.010 A 
ATOM     44  C   UNL A   1      41.336  24.748  28.044  1.00  0.00    -0.014 A 
BRANCH  44  45
ATOM     45  C   UNL A   1      41.697  26.174  28.091  1.00  0.00     0.031 A 
ATOM     46  C   UNL A   1      43.062  26.512  27.566  1.00  0.00     0.074 A 
ATOM     47  C   UNL A   1      40.890  27.104  28.623  1.00  0.00     0.049 A 
ATOM     48  N   UNL A   1      43.731  27.629  27.650  1.00  0.00    -0.248 NA
ATOM     49  C   UNL A   1      43.780  25.431  26.863  1.00  0.00     0.031 C 
ATOM     50  C   UNL A   1      39.525  26.880  29.089  1.00  0.00     0.029 A 
ATOM     51  N   UNL A   1      41.126  28.430  28.876  1.00  0.00    -0.354 N 
ATOM     52  C   UNL A   1      44.939  27.377  27.019  1.00  0.00     0.074 A 
ATOM     53  C   UNL A   1      44.936  26.005  26.582  1.00  0.00     0.031 C 
ATOM     54  C   UNL A   1      39.050  28.031  29.599  1.00  0.00     0.029 A 
ATOM     55  C   UNL A   1      40.098  29.052  29.537  1.00  0.00     0.049 A 
ATOM     56  H   UNL A   1      41.954  28.891  28.610  1.00  0.00     0.167 HD
ATOM     57  C   UNL A   1      45.965  28.229  26.820  1.00  0.00     0.037 A 
ATOM     58  C   UNL A   1      40.040  30.293  30.058  1.00  0.00     0.037 A 
ATOM     59  C   UNL A   1      45.962  29.583  27.284  1.00  0.00     0.049 A 
ATOM     60  C   UNL A   1      41.247  31.193  29.927  1.00  0.00     0.074 A 
ATOM     61  C   UNL A   1      46.952  30.537  27.156  1.00  0.00     0.029 A 
ATOM     62  N   UNL A   1      44.913  30.171  27.979  1.00  0.00    -0.354 N 
ATOM     63  N   UNL A   1      42.393  30.961  29.330  1.00  0.00    -0.248 NA
ATOM     64  C   UNL A   1      41.159  32.524  30.545  1.00  0.00     0.031 C 
ATOM     65  C   UNL A   1      46.530  31.683  27.829  1.00  0.00     0.029 A 
ATOM     66  C   UNL A   1      45.245  31.471  28.308  1.00  0.00     0.049 A 
ATOM     67  H   UNL A   1      44.063  29.728  28.202  1.00  0.00     0.167 HD
ATOM     68  C   UNL A   1      43.142  32.123  29.464  1.00  0.00     0.074 A 
ATOM     69  C   UNL A   1      42.322  33.062  30.201  1.00  0.00     0.031 C 
ATOM     70  C   UNL A   1      44.393  32.392  29.016  1.00  0.00     0.037 A 
BRANCH  57  71
ATOM     71  C   UNL A   1      47.171  27.715  26.096  1.00  0.00     0.064 A 
ATOM     72  C   UNL A   1      47.246  27.796  24.699  1.00  0.00     0.173 A 
ATOM     73  C   UNL A   1      48.227  27.094  26.779  1.00  0.00     0.173 A 
ATOM     74  F   UNL A   1      46.268  28.395  24.002  1.00  0.00    -0.203 F 
ATOM     75  C   UNL A   1      48.318  27.242  24.008  1.00  0.00     0.198 A 
ATOM     76  C   UNL A   1      49.316  26.571  26.087  1.00  0.00     0.198 A 
ATOM     77  F   UNL A   1      48.217  27.021  28.119  1.00  0.00    -0.203 F 
ATOM     78  F   UNL A   1      48.347  27.291  22.669  1.00  0.00    -0.200 F 
ATOM     79  C   UNL A   1      49.353  26.632  24.702  1.00  0.00     0.200 A 
ATOM     80  F   UNL A   1      50.329  26.012  26.761  1.00  0.00    -0.200 F 
ATOM     81  F   UNL A   1      50.387  26.102  24.035  1.00  0.00    -0.200 F 
ENDBRANCH  57  71
BRANCH  58  82
ATOM     82  C   UNL A   1      38.806  30.756  30.746  1.00  0.00     0.064 A 
ATOM     83  C   UNL A   1      37.771  31.401  30.050  1.00  0.00     0.173 A 
ATOM     84  C   UNL A   1      38.642  30.569  32.125  1.00  0.00     0.173 A 
ATOM     85  F   UNL A   1      37.871  31.603  28.728  1.00  0.00    -0.203 F 
ATOM     86  C   UNL A   1      36.634  31.861  30.713  1.00  0.00     0.198 A 
ATOM     87  C   UNL A   1      37.490  31.001  32.781  1.00  0.00     0.198 A 
ATOM     88  F   UNL A   1      39.589  29.936  32.832  1.00  0.00    -0.203 F 
ATOM     89  F   UNL A   1      35.678  32.506  30.030  1.00  0.00    -0.200 F 
ATOM     90  C   UNL A   1      36.492  31.655  32.077  1.00  0.00     0.200 A 
ATOM     91  F   UNL A   1      37.345  30.774  34.094  1.00  0.00    -0.200 F 
ATOM     92  F   UNL A   1      35.391  32.083  32.710  1.00  0.00    -0.200 F 
ENDBRANCH  58  82
BRANCH  70  93
ATOM     93  C   UNL A   1      44.956  33.764  29.251  1.00  0.00     0.064 A 
ATOM     94  C   UNL A   1      44.853  34.743  28.249  1.00  0.00     0.173 A 
ATOM     95  C   UNL A   1      45.726  34.058  30.383  1.00  0.00     0.173 A 
ATOM     96  F   UNL A   1      44.140  34.501  27.137  1.00  0.00    -0.203 F 
ATOM     97  C   UNL A   1      45.535  35.950  28.355  1.00  0.00     0.198 A 
ATOM     98  C   UNL A   1      46.378  35.282  30.501  1.00  0.00     0.198 A 
ATOM     99  F   UNL A   1      45.849  33.157  31.370  1.00  0.00    -0.203 F 
ATOM    100  F   UNL A   1      45.477  36.840  27.354  1.00  0.00    -0.200 F 
ATOM    101  C   UNL A   1      46.297  36.218  29.481  1.00  0.00     0.200 A 
ATOM    102  F   UNL A   1      47.098  35.551  31.599  1.00  0.00    -0.200 F 
ATOM    103  F   UNL A   1      46.960  37.379  29.580  1.00  0.00    -0.200 F 
ENDBRANCH  70  93
ENDBRANCH  44  45
ENDBRANCH  37  39
ENDBRANCH  36  37
ENDBRANCH  35  36
ENDBRANCH  34  35
ENDBRANCH  33  34
ENDBRANCH  32  33
ENDBRANCH  31  32
ENDBRANCH  30  31
ENDBRANCH   1  30
TORSDOF 26
ENDMDL
MODEL 3
REMARK VINA RESULT:      -9.9      5.487     10.284
REMARK SMILES COc1ccc(F)cc1[C@@H](C(=O)OCCOCCOCCOCCOC(=O)c1ccc(-c2c3nc(c(-c4c(F)c(F)c(F)c(F)c4F)c4ccc([nH]4)c(-c4c(F)c(F)c(F)c(F)c4F)c4nc(c(-c5c(F)c(F)c(F)c(F)c5F)c5ccc2[nH]5)C=C4)C=C3)cc1)[N@@H+](C)CCn1ccnc1C
REMARK SMILES IDX 18 1 17 2 16 3 15 4 14 5 13 6 11 7 12 8 10 9 9 10 3 11 4 12
REMARK SMILES IDX 5 13 8 14 6 15 7 16 2 17 1 18 91 19 92 20 93 22 94 23 95 24
REMARK SMILES IDX 96 25 99 26 97 27 98 28 100 29 19 30 20 31 21 32 22 33 23 34
REMARK SMILES IDX 24 35 25 36 26 37 27 38 28 39 29 40 90 41 30 42 89 43 31 44
REMARK SMILES IDX 32 45 33 46 83 47 34 48 88 49 82 50 84 51 35 52 87 53 81 54
REMARK SMILES IDX 80 55 36 57 68 58 48 59 67 60 49 61 52 62 66 63 85 64 50 65
REMARK SMILES IDX 51 66 65 68 86 69 53 70 37 71 38 72 46 73 39 74 40 75 44 76
REMARK SMILES IDX 47 77 41 78 42 79 45 80 43 81 69 82 70 83 78 84 71 85 72 86
REMARK SMILES IDX 76 87 79 88 73 89 74 90 77 91 75 92 54 93 55 94 63 95 56 96
REMARK SMILES IDX 57 97 61 98 64 99 58 100 59 101 62 102 60 103
REMARK H PARENT 91 21 84 56 52 67
REMARK Flexibility Score: inf
ROOT
ATOM      1  C   UNL A   1      34.812  22.920  26.494  1.00  0.00     0.188 C 
ENDROOT
BRANCH   1   2
ATOM      2  C   UNL A   1      35.037  24.505  24.887  1.00  0.00     0.188 C 
BRANCH   2   3
ATOM      3  O   UNL A   1      35.128  24.363  23.361  1.00  0.00    -0.376 OA
BRANCH   3   4
ATOM      4  C   UNL A   1      34.379  23.341  22.700  1.00  0.00     0.202 C 
BRANCH   4   5
ATOM      5  C   UNL A   1      32.822  23.432  22.501  1.00  0.00     0.261 C 
BRANCH   5   6
ATOM      6  O   UNL A   1      32.137  24.722  22.742  1.00  0.00    -0.459 OA
BRANCH   6   7
ATOM      7  C   UNL A   1      30.857  24.699  23.264  1.00  0.00     0.370 C 
ATOM      8  O   UNL A   1      30.215  23.644  23.250  1.00  0.00    -0.245 OA
BRANCH   7   9
ATOM      9  C   UNL A   1      30.267  26.052  24.088  1.00  0.00     0.330 C 
BRANCH   9  10
ATOM     10  C   UNL A   1      29.972  27.442  23.326  1.00  0.00     0.066 A 
ATOM     11  C   UNL A   1      30.989  28.271  22.821  1.00  0.00     0.128 A 
ATOM     12  C   UNL A   1      30.680  29.540  22.249  1.00  0.00     0.050 A 
ATOM     13  C   UNL A   1      29.380  30.044  22.204  1.00  0.00     0.043 A 
ATOM     14  C   UNL A   1      28.663  27.997  23.212  1.00  0.00     0.053 A 
ATOM     15  C   UNL A   1      28.376  29.261  22.700  1.00  0.00     0.124 A 
ATOM     16  F   UNL A   1      27.115  29.717  22.736  1.00  0.00    -0.207 F 
BRANCH  11  17
ATOM     17  O   UNL A   1      32.271  27.792  22.907  1.00  0.00    -0.496 OA
ATOM     18  C   UNL A   1      33.284  28.790  23.018  1.00  0.00     0.278 C 
ENDBRANCH  11  17
ENDBRANCH   9  10
BRANCH   9  19
ATOM     19  N   UNL A   1      30.915  26.134  25.484  1.00  0.00    -0.320 N 
ATOM     20  C   UNL A   1      31.527  24.879  25.920  1.00  0.00     0.333 C 
ATOM     21  H   UNL A   1      29.987  26.450  25.765  1.00  0.00     0.348 HD
BRANCH  19  22
ATOM     22  C   UNL A   1      31.510  27.282  26.206  1.00  0.00     0.285 C 
BRANCH  22  23
ATOM     23  C   UNL A   1      33.014  27.533  26.584  1.00  0.00     0.184 C 
BRANCH  23  24
ATOM     24  N   UNL A   1      33.570  28.880  26.610  1.00  0.00    -0.330 N 
ATOM     25  C   UNL A   1      35.141  29.240  27.494  1.00  0.00     0.107 A 
ATOM     26  C   UNL A   1      32.579  30.427  26.514  1.00  0.00     0.105 A 
ATOM     27  C   UNL A   1      35.164  30.883  27.977  1.00  0.00     0.131 A 
ATOM     28  N   UNL A   1      33.514  31.608  27.306  1.00  0.00    -0.242 NA
ATOM     29  C   UNL A   1      31.297  30.611  25.814  1.00  0.00     0.087 C 
ENDBRANCH  23  24
ENDBRANCH  22  23
ENDBRANCH  19  22
ENDBRANCH   9  19
ENDBRANCH   7   9
ENDBRANCH   6   7
ENDBRANCH   5   6
ENDBRANCH   4   5
ENDBRANCH   3   4
ENDBRANCH   2   3
ENDBRANCH   1   2
BRANCH   1  30
ATOM     30  O   UNL A   1      35.305  21.451  26.509  1.00  0.00    -0.377 OA
BRANCH  30  31
ATOM     31  C   UNL A   1      36.191  21.106  25.460  1.00  0.00     0.188 C 
BRANCH  31  32
ATOM     32  C   UNL A   1      37.489  21.924  25.333  1.00  0.00     0.188 C 
BRANCH  32  33
ATOM     33  O   UNL A   1      38.761  21.353  25.561  1.00  0.00    -0.376 OA
BRANCH  33  34
ATOM     34  C   UNL A   1      39.699  21.761  26.536  1.00  0.00     0.202 C 
BRANCH  34  35
ATOM     35  C   UNL A   1      40.604  22.997  26.506  1.00  0.00     0.261 C 
BRANCH  35  36
ATOM     36  O   UNL A   1      40.013  24.273  26.666  1.00  0.00    -0.460 OA
BRANCH  36  37
ATOM     37  C   UNL A   1      40.698  25.344  26.216  1.00  0.00     0.338 C 
ATOM     38  O   UNL A   1      41.088  25.569  25.089  1.00  0.00    -0.246 OA
BRANCH  37  39
ATOM     39  C   UNL A   1      40.682  26.290  27.348  1.00  0.00     0.060 A 
ATOM     40  C   UNL A   1      41.311  27.538  27.211  1.00  0.00     0.016 A 
ATOM     41  C   UNL A   1      39.878  26.009  28.457  1.00  0.00     0.016 A 
ATOM     42  C   UNL A   1      41.097  28.531  28.159  1.00  0.00     0.010 A 
ATOM     43  C   UNL A   1      39.740  26.965  29.453  1.00  0.00     0.010 A 
ATOM     44  C   UNL A   1      40.373  28.214  29.314  1.00  0.00    -0.014 A 
BRANCH  44  45
ATOM     45  C   UNL A   1      40.613  28.996  30.538  1.00  0.00     0.031 A 
ATOM     46  C   UNL A   1      39.600  30.062  30.831  1.00  0.00     0.074 A 
ATOM     47  C   UNL A   1      41.695  28.812  31.308  1.00  0.00     0.049 A 
ATOM     48  N   UNL A   1      39.638  31.024  31.711  1.00  0.00    -0.248 NA
ATOM     49  C   UNL A   1      38.378  30.052  30.003  1.00  0.00     0.031 C 
ATOM     50  C   UNL A   1      42.691  27.757  31.140  1.00  0.00     0.029 A 
ATOM     51  N   UNL A   1      42.141  29.537  32.382  1.00  0.00    -0.354 N 
ATOM     52  C   UNL A   1      38.456  31.728  31.533  1.00  0.00     0.074 A 
ATOM     53  C   UNL A   1      37.731  31.113  30.451  1.00  0.00     0.031 C 
ATOM     54  C   UNL A   1      43.651  27.920  32.069  1.00  0.00     0.029 A 
ATOM     55  C   UNL A   1      43.357  29.118  32.857  1.00  0.00     0.049 A 
ATOM     56  H   UNL A   1      41.638  30.287  32.773  1.00  0.00     0.167 HD
ATOM     57  C   UNL A   1      38.015  32.798  32.224  1.00  0.00     0.037 A 
ATOM     58  C   UNL A   1      44.148  29.672  33.798  1.00  0.00     0.037 A 
ATOM     59  C   UNL A   1      38.762  33.412  33.280  1.00  0.00     0.049 A 
ATOM     60  C   UNL A   1      43.687  30.941  34.479  1.00  0.00     0.074 A 
ATOM     61  C   UNL A   1      38.424  34.513  34.042  1.00  0.00     0.029 A 
ATOM     62  N   UNL A   1      40.007  32.979  33.715  1.00  0.00    -0.354 N 
ATOM     63  N   UNL A   1      42.570  31.610  34.315  1.00  0.00    -0.248 NA
ATOM     64  C   UNL A   1      44.596  31.537  35.468  1.00  0.00     0.031 C 
ATOM     65  C   UNL A   1      39.492  34.786  34.895  1.00  0.00     0.029 A 
ATOM     66  C   UNL A   1      40.462  33.809  34.721  1.00  0.00     0.049 A 
ATOM     67  H   UNL A   1      40.491  32.198  33.360  1.00  0.00     0.167 HD
ATOM     68  C   UNL A   1      42.623  32.676  35.204  1.00  0.00     0.074 A 
ATOM     69  C   UNL A   1      43.885  32.568  35.906  1.00  0.00     0.031 C 
ATOM     70  C   UNL A   1      41.711  33.655  35.423  1.00  0.00     0.037 A 
BRANCH  57  71
ATOM     71  C   UNL A   1      36.689  33.379  31.842  1.00  0.00     0.064 A 
ATOM     72  C   UNL A   1      35.591  33.262  32.706  1.00  0.00     0.173 A 
ATOM     73  C   UNL A   1      36.490  34.002  30.602  1.00  0.00     0.173 A 
ATOM     74  F   UNL A   1      35.734  32.689  33.910  1.00  0.00    -0.203 F 
ATOM     75  C   UNL A   1      34.332  33.717  32.326  1.00  0.00     0.198 A 
ATOM     76  C   UNL A   1      35.236  34.486  30.239  1.00  0.00     0.198 A 
ATOM     77  F   UNL A   1      37.517  34.166  29.754  1.00  0.00    -0.203 F 
ATOM     78  F   UNL A   1      33.287  33.554  33.149  1.00  0.00    -0.200 F 
ATOM     79  C   UNL A   1      34.156  34.330  31.095  1.00  0.00     0.200 A 
ATOM     80  F   UNL A   1      35.076  35.108  29.063  1.00  0.00    -0.200 F 
ATOM     81  F   UNL A   1      32.944  34.770  30.732  1.00  0.00    -0.200 F 
ENDBRANCH  57  71
BRANCH  58  82
ATOM     82  C   UNL A   1      45.444  29.037  34.151  1.00  0.00     0.064 A 
ATOM     83  C   UNL A   1      46.620  29.310  33.433  1.00  0.00     0.173 A 
ATOM     84  C   UNL A   1      45.531  28.128  35.214  1.00  0.00     0.173 A 
ATOM     85  F   UNL A   1      46.597  30.174  32.408  1.00  0.00    -0.203 F 
ATOM     86  C   UNL A   1      47.822  28.681  33.752  1.00  0.00     0.198 A 
ATOM     87  C   UNL A   1      46.741  27.525  35.553  1.00  0.00     0.198 A 
ATOM     88  F   UNL A   1      44.443  27.852  35.948  1.00  0.00    -0.203 F 
ATOM     89  F   UNL A   1      48.920  28.933  33.026  1.00  0.00    -0.200 F 
ATOM     90  C   UNL A   1      47.883  27.793  34.815  1.00  0.00     0.200 A 
ATOM     91  F   UNL A   1      46.801  26.690  36.599  1.00  0.00    -0.200 F 
ATOM     92  F   UNL A   1      49.043  27.202  35.131  1.00  0.00    -0.200 F 
ENDBRANCH  58  82
BRANCH  70  93
ATOM     93  C   UNL A   1      41.994  34.668  36.495  1.00  0.00     0.064 A 
ATOM     94  C   UNL A   1      41.416  34.521  37.766  1.00  0.00     0.173 A 
ATOM     95  C   UNL A   1      42.694  35.849  36.221  1.00  0.00     0.173 A 
ATOM     96  F   UNL A   1      40.720  33.413  38.070  1.00  0.00    -0.203 F 
ATOM     97  C   UNL A   1      41.495  35.539  38.710  1.00  0.00     0.198 A 
ATOM     98  C   UNL A   1      42.802  36.851  37.182  1.00  0.00     0.198 A 
ATOM     99  F   UNL A   1      43.270  36.033  35.023  1.00  0.00    -0.203 F 
ATOM    100  F   UNL A   1      40.876  35.404  39.891  1.00  0.00    -0.200 F 
ATOM    101  C   UNL A   1      42.188  36.703  38.417  1.00  0.00     0.200 A 
ATOM    102  F   UNL A   1      43.489  37.968  36.907  1.00  0.00    -0.200 F 
ATOM    103  F   UNL A   1      42.258  37.687  39.324  1.00  0.00    -0.200 F 
ENDBRANCH  70  93
ENDBRANCH  44  45
ENDBRANCH  37  39
ENDBRANCH  36  37
ENDBRANCH  35  36
ENDBRANCH  34  35
ENDBRANCH  33  34
ENDBRANCH  32  33
ENDBRANCH  31  32
ENDBRANCH  30  31
ENDBRANCH   1  30
TORSDOF 26
ENDMDL
