MODEL 1
REMARK VINA RESULT:     -10.8      0.000      0.000
REMARK SMILES O=C(CSc1ccccc1C(=O)OCCOCCOCCOCCOC(=O)c1ccc(-c2c3nc(c(-c4c(F)c(F)c(F)c(F)c4F)c4ccc([nH]4)c(-c4c(F)c(F)c(F)c(F)c4F)c4nc(c(-c5c(F)c(F)c(F)c(F)c5F)c5ccc2[nH]5)C=C4)C=C3)cc1)c1ccc(Cl)cc1
REMARK SMILES IDX 18 1 17 2 16 3 15 4 14 5 13 6 11 7 12 8 10 9 5 10 6 11 7 12
REMARK SMILES IDX 9 13 8 14 4 15 3 16 2 17 1 18 91 19 92 20 97 21 93 22 96 23
REMARK SMILES IDX 94 24 95 25 19 26 20 27 21 28 22 29 23 30 24 31 25 32 26 33
REMARK SMILES IDX 27 34 28 35 29 36 90 37 30 38 89 39 31 40 32 41 33 42 83 43
REMARK SMILES IDX 34 44 88 45 82 46 84 47 35 48 87 49 81 50 80 51 36 53 68 54
REMARK SMILES IDX 48 55 67 56 49 57 52 58 66 59 85 60 50 61 51 62 65 64 86 65
REMARK SMILES IDX 53 66 37 67 38 68 46 69 39 70 40 71 44 72 47 73 41 74 42 75
REMARK SMILES IDX 45 76 43 77 69 78 70 79 78 80 71 81 72 82 76 83 79 84 73 85
REMARK SMILES IDX 74 86 77 87 75 88 54 89 55 90 63 91 56 92 57 93 61 94 64 95
REMARK SMILES IDX 58 96 59 97 62 98 60 99
REMARK H PARENT 84 52 52 63
REMARK Flexibility Score: inf
ROOT
ATOM      1  C   UNL A   1      34.031  33.629  29.008  1.00  0.00     0.188 C 
ENDROOT
BRANCH   1   2
ATOM      2  C   UNL A   1      34.811  33.060  27.793  1.00  0.00     0.188 C 
BRANCH   2   3
ATOM      3  O   UNL A   1      34.827  31.649  27.700  1.00  0.00    -0.376 OA
BRANCH   3   4
ATOM      4  C   UNL A   1      33.622  30.937  27.518  1.00  0.00     0.202 C 
BRANCH   4   5
ATOM      5  C   UNL A   1      33.580  29.787  26.506  1.00  0.00     0.261 C 
BRANCH   5   6
ATOM      6  O   UNL A   1      32.555  29.891  25.513  1.00  0.00    -0.460 OA
BRANCH   6   7
ATOM      7  C   UNL A   1      32.667  29.105  24.424  1.00  0.00     0.339 C 
ATOM      8  O   UNL A   1      33.703  28.898  23.810  1.00  0.00    -0.246 OA
BRANCH   7   9
ATOM      9  C   UNL A   1      31.398  28.374  24.151  1.00  0.00     0.073 A 
ATOM     10  C   UNL A   1      31.054  27.089  24.631  1.00  0.00     0.022 A 
ATOM     11  C   UNL A   1      29.783  26.577  24.320  1.00  0.00     0.016 A 
ATOM     12  C   UNL A   1      28.900  27.286  23.499  1.00  0.00     0.001 A 
ATOM     13  C   UNL A   1      30.507  29.063  23.307  1.00  0.00     0.017 A 
ATOM     14  C   UNL A   1      29.274  28.514  22.966  1.00  0.00     0.001 A 
BRANCH  10  15
ATOM     15  S   UNL A   1      32.206  25.953  25.411  1.00  0.00    -0.117 SA
BRANCH  15  16
ATOM     16  C   UNL A   1      31.377  24.352  25.292  1.00  0.00     0.156 C 
BRANCH  16  17
ATOM     17  C   UNL A   1      31.940  23.411  24.254  1.00  0.00     0.173 C 
ATOM     18  O   UNL A   1      31.467  23.369  23.117  1.00  0.00    -0.293 OA
BRANCH  17  19
ATOM     19  C   UNL A   1      33.162  22.600  24.538  1.00  0.00     0.018 A 
ATOM     20  C   UNL A   1      33.119  21.342  25.146  1.00  0.00     0.013 A 
ATOM     21  C   UNL A   1      34.397  23.103  24.110  1.00  0.00     0.013 A 
ATOM     22  C   UNL A   1      34.275  20.570  25.273  1.00  0.00     0.021 A 
ATOM     23  C   UNL A   1      35.563  22.348  24.276  1.00  0.00     0.021 A 
ATOM     24  C   UNL A   1      35.494  21.076  24.841  1.00  0.00     0.041 A 
ATOM     25  Cl  UNL A   1      36.914  20.122  25.002  1.00  0.00    -0.084 Cl
ENDBRANCH  17  19
ENDBRANCH  16  17
ENDBRANCH  15  16
ENDBRANCH  10  15
ENDBRANCH   7   9
ENDBRANCH   6   7
ENDBRANCH   5   6
ENDBRANCH   4   5
ENDBRANCH   3   4
ENDBRANCH   2   3
ENDBRANCH   1   2
BRANCH   1  26
ATOM     26  O   UNL A   1      32.913  34.501  28.868  1.00  0.00    -0.377 OA
BRANCH  26  27
ATOM     27  C   UNL A   1      33.030  35.875  29.210  1.00  0.00     0.188 C 
BRANCH  27  28
ATOM     28  C   UNL A   1      33.178  36.258  30.698  1.00  0.00     0.188 C 
BRANCH  28  29
ATOM     29  O   UNL A   1      32.593  35.324  31.587  1.00  0.00    -0.376 OA
BRANCH  29  30
ATOM     30  C   UNL A   1      33.420  34.726  32.569  1.00  0.00     0.202 C 
BRANCH  30  31
ATOM     31  C   UNL A   1      34.920  34.532  32.291  1.00  0.00     0.261 C 
BRANCH  31  32
ATOM     32  O   UNL A   1      35.360  33.211  31.940  1.00  0.00    -0.460 OA
BRANCH  32  33
ATOM     33  C   UNL A   1      36.100  32.533  32.838  1.00  0.00     0.338 C 
ATOM     34  O   UNL A   1      35.903  32.429  34.039  1.00  0.00    -0.246 OA
BRANCH  33  35
ATOM     35  C   UNL A   1      37.114  31.768  32.082  1.00  0.00     0.060 A 
ATOM     36  C   UNL A   1      38.059  31.003  32.778  1.00  0.00     0.016 A 
ATOM     37  C   UNL A   1      37.118  31.802  30.686  1.00  0.00     0.016 A 
ATOM     38  C   UNL A   1      39.035  30.293  32.077  1.00  0.00     0.010 A 
ATOM     39  C   UNL A   1      38.111  31.111  29.987  1.00  0.00     0.010 A 
ATOM     40  C   UNL A   1      39.094  30.384  30.682  1.00  0.00    -0.014 A 
BRANCH  40  41
ATOM     41  C   UNL A   1      40.300  29.906  29.963  1.00  0.00     0.031 A 
ATOM     42  C   UNL A   1      41.411  30.888  29.718  1.00  0.00     0.074 A 
ATOM     43  C   UNL A   1      40.417  28.632  29.550  1.00  0.00     0.049 A 
ATOM     44  N   UNL A   1      42.530  30.736  29.057  1.00  0.00    -0.248 NA
ATOM     45  C   UNL A   1      41.232  32.230  30.298  1.00  0.00     0.031 C 
ATOM     46  C   UNL A   1      39.430  27.578  29.770  1.00  0.00     0.029 A 
ATOM     47  N   UNL A   1      41.420  28.016  28.844  1.00  0.00    -0.354 N 
ATOM     48  C   UNL A   1      43.179  31.963  29.133  1.00  0.00     0.074 A 
ATOM     49  C   UNL A   1      42.318  32.856  29.874  1.00  0.00     0.031 C 
ATOM     50  C   UNL A   1      39.871  26.445  29.197  1.00  0.00     0.029 A 
ATOM     51  C   UNL A   1      41.151  26.706  28.537  1.00  0.00     0.049 A 
ATOM     52  H   UNL A   1      42.253  28.471  28.582  1.00  0.00     0.167 HD
ATOM     53  C   UNL A   1      44.389  32.307  28.635  1.00  0.00     0.037 A 
ATOM     54  C   UNL A   1      41.848  25.831  27.785  1.00  0.00     0.037 A 
ATOM     55  C   UNL A   1      45.240  31.415  27.893  1.00  0.00     0.049 A 
ATOM     56  C   UNL A   1      43.154  26.266  27.167  1.00  0.00     0.074 A 
ATOM     57  C   UNL A   1      46.491  31.662  27.358  1.00  0.00     0.029 A 
ATOM     58  N   UNL A   1      44.919  30.104  27.572  1.00  0.00    -0.354 N 
ATOM     59  N   UNL A   1      43.775  27.417  27.260  1.00  0.00    -0.248 NA
ATOM     60  C   UNL A   1      43.858  25.274  26.339  1.00  0.00     0.031 C 
ATOM     61  C   UNL A   1      46.899  30.522  26.657  1.00  0.00     0.029 A 
ATOM     62  C   UNL A   1      45.934  29.539  26.818  1.00  0.00     0.049 A 
ATOM     63  H   UNL A   1      44.091  29.643  27.841  1.00  0.00     0.167 HD
ATOM     64  C   UNL A   1      44.954  27.278  26.536  1.00  0.00     0.074 A 
ATOM     65  C   UNL A   1      44.967  25.925  26.020  1.00  0.00     0.031 C 
ATOM     66  C   UNL A   1      45.938  28.187  26.320  1.00  0.00     0.037 A 
BRANCH  53  67
ATOM     67  C   UNL A   1      44.847  33.723  28.843  1.00  0.00     0.064 A 
ATOM     68  C   UNL A   1      45.660  34.087  29.928  1.00  0.00     0.173 A 
ATOM     69  C   UNL A   1      44.483  34.726  27.932  1.00  0.00     0.173 A 
ATOM     70  F   UNL A   1      46.024  33.172  30.839  1.00  0.00    -0.203 F 
ATOM     71  C   UNL A   1      46.065  35.408  30.108  1.00  0.00     0.198 A 
ATOM     72  C   UNL A   1      44.919  36.038  28.096  1.00  0.00     0.198 A 
ATOM     73  F   UNL A   1      43.709  34.432  26.877  1.00  0.00    -0.203 F 
ATOM     74  F   UNL A   1      46.795  35.743  31.181  1.00  0.00    -0.200 F 
ATOM     75  C   UNL A   1      45.702  36.380  29.188  1.00  0.00     0.200 A 
ATOM     76  F   UNL A   1      44.579  36.971  27.197  1.00  0.00    -0.200 F 
ATOM     77  F   UNL A   1      46.100  37.648  29.357  1.00  0.00    -0.200 F 
ENDBRANCH  53  67
BRANCH  54  78
ATOM     78  C   UNL A   1      41.320  24.459  27.556  1.00  0.00     0.064 A 
ATOM     79  C   UNL A   1      41.936  23.340  28.135  1.00  0.00     0.173 A 
ATOM     80  C   UNL A   1      40.208  24.234  26.731  1.00  0.00     0.173 A 
ATOM     81  F   UNL A   1      43.019  23.497  28.909  1.00  0.00    -0.203 F 
ATOM     82  C   UNL A   1      41.474  22.050  27.879  1.00  0.00     0.198 A 
ATOM     83  C   UNL A   1      39.726  22.946  26.504  1.00  0.00     0.198 A 
ATOM     84  F   UNL A   1      39.582  25.268  26.150  1.00  0.00    -0.203 F 
ATOM     85  F   UNL A   1      42.115  20.995  28.401  1.00  0.00    -0.200 F 
ATOM     86  C   UNL A   1      40.365  21.854  27.070  1.00  0.00     0.200 A 
ATOM     87  F   UNL A   1      38.645  22.765  25.733  1.00  0.00    -0.200 F 
ATOM     88  F   UNL A   1      39.919  20.614  26.826  1.00  0.00    -0.200 F 
ENDBRANCH  54  78
BRANCH  66  89
ATOM     89  C   UNL A   1      47.138  27.738  25.533  1.00  0.00     0.064 A 
ATOM     90  C   UNL A   1      47.171  27.794  24.131  1.00  0.00     0.173 A 
ATOM     91  C   UNL A   1      48.292  27.289  26.197  1.00  0.00     0.173 A 
ATOM     92  F   UNL A   1      46.093  28.204  23.447  1.00  0.00    -0.203 F 
ATOM     93  C   UNL A   1      48.301  27.389  23.424  1.00  0.00     0.198 A 
ATOM     94  C   UNL A   1      49.431  26.920  25.488  1.00  0.00     0.198 A 
ATOM     95  F   UNL A   1      48.319  27.225  27.536  1.00  0.00    -0.203 F 
ATOM     96  F   UNL A   1      48.289  27.401  22.085  1.00  0.00    -0.200 F 
ATOM     97  C   UNL A   1      49.432  26.961  24.103  1.00  0.00     0.200 A 
ATOM     98  F   UNL A   1      50.529  26.525  26.147  1.00  0.00    -0.200 F 
ATOM     99  F   UNL A   1      50.521  26.582  23.421  1.00  0.00    -0.200 F 
ENDBRANCH  66  89
ENDBRANCH  40  41
ENDBRANCH  33  35
ENDBRANCH  32  33
ENDBRANCH  31  32
ENDBRANCH  30  31
ENDBRANCH  29  30
ENDBRANCH  28  29
ENDBRANCH  27  28
ENDBRANCH  26  27
ENDBRANCH   1  26
TORSDOF 24
ENDMDL
MODEL 2
REMARK VINA RESULT:     -10.5      4.267      9.024
REMARK SMILES O=C(CSc1ccccc1C(=O)OCCOCCOCCOCCOC(=O)c1ccc(-c2c3nc(c(-c4c(F)c(F)c(F)c(F)c4F)c4ccc([nH]4)c(-c4c(F)c(F)c(F)c(F)c4F)c4nc(c(-c5c(F)c(F)c(F)c(F)c5F)c5ccc2[nH]5)C=C4)C=C3)cc1)c1ccc(Cl)cc1
REMARK SMILES IDX 18 1 17 2 16 3 15 4 14 5 13 6 11 7 12 8 10 9 5 10 6 11 7 12
REMARK SMILES IDX 9 13 8 14 4 15 3 16 2 17 1 18 91 19 92 20 97 21 93 22 96 23
REMARK SMILES IDX 94 24 95 25 19 26 20 27 21 28 22 29 23 30 24 31 25 32 26 33
REMARK SMILES IDX 27 34 28 35 29 36 90 37 30 38 89 39 31 40 32 41 33 42 83 43
REMARK SMILES IDX 34 44 88 45 82 46 84 47 35 48 87 49 81 50 80 51 36 53 68 54
REMARK SMILES IDX 48 55 67 56 49 57 52 58 66 59 85 60 50 61 51 62 65 64 86 65
REMARK SMILES IDX 53 66 37 67 38 68 46 69 39 70 40 71 44 72 47 73 41 74 42 75
REMARK SMILES IDX 45 76 43 77 69 78 70 79 78 80 71 81 72 82 76 83 79 84 73 85
REMARK SMILES IDX 74 86 77 87 75 88 54 89 55 90 63 91 56 92 57 93 61 94 64 95
REMARK SMILES IDX 58 96 59 97 62 98 60 99
REMARK H PARENT 84 52 52 63
REMARK Flexibility Score: inf
ROOT
ATOM      1  C   UNL A   1      32.982  26.164  26.013  1.00  0.00     0.188 C 
ENDROOT
BRANCH   1   2
ATOM      2  C   UNL A   1      33.989  25.847  24.876  1.00  0.00     0.188 C 
BRANCH   2   3
ATOM      3  O   UNL A   1      33.619  26.325  23.598  1.00  0.00    -0.376 OA
BRANCH   3   4
ATOM      4  C   UNL A   1      33.297  25.416  22.567  1.00  0.00     0.202 C 
BRANCH   4   5
ATOM      5  C   UNL A   1      32.086  24.493  22.739  1.00  0.00     0.261 C 
BRANCH   5   6
ATOM      6  O   UNL A   1      32.402  23.110  22.925  1.00  0.00    -0.460 OA
BRANCH   6   7
ATOM      7  C   UNL A   1      31.917  22.508  24.029  1.00  0.00     0.339 C 
ATOM      8  O   UNL A   1      31.082  22.986  24.781  1.00  0.00    -0.246 OA
BRANCH   7   9
ATOM      9  C   UNL A   1      32.398  21.102  24.135  1.00  0.00     0.073 A 
ATOM     10  C   UNL A   1      33.055  20.524  25.246  1.00  0.00     0.022 A 
ATOM     11  C   UNL A   1      33.386  19.160  25.191  1.00  0.00     0.016 A 
ATOM     12  C   UNL A   1      33.135  18.400  24.044  1.00  0.00     0.001 A 
ATOM     13  C   UNL A   1      32.175  20.329  22.979  1.00  0.00     0.017 A 
ATOM     14  C   UNL A   1      32.561  18.993  22.926  1.00  0.00     0.001 A 
BRANCH  10  15
ATOM     15  S   UNL A   1      33.718  21.455  26.631  1.00  0.00    -0.117 SA
BRANCH  15  16
ATOM     16  C   UNL A   1      34.849  22.632  25.856  1.00  0.00     0.156 C 
BRANCH  16  17
ATOM     17  C   UNL A   1      35.763  22.050  24.805  1.00  0.00     0.173 C 
ATOM     18  O   UNL A   1      35.529  22.209  23.605  1.00  0.00    -0.293 OA
BRANCH  17  19
ATOM     19  C   UNL A   1      37.038  21.374  25.189  1.00  0.00     0.018 A 
ATOM     20  C   UNL A   1      37.303  20.030  24.914  1.00  0.00     0.013 A 
ATOM     21  C   UNL A   1      38.037  22.150  25.792  1.00  0.00     0.013 A 
ATOM     22  C   UNL A   1      38.558  19.479  25.178  1.00  0.00     0.021 A 
ATOM     23  C   UNL A   1      39.281  21.588  26.096  1.00  0.00     0.021 A 
ATOM     24  C   UNL A   1      39.543  20.259  25.771  1.00  0.00     0.041 A 
ATOM     25  Cl  UNL A   1      41.085  19.576  26.097  1.00  0.00    -0.084 Cl
ENDBRANCH  17  19
ENDBRANCH  16  17
ENDBRANCH  15  16
ENDBRANCH  10  15
ENDBRANCH   7   9
ENDBRANCH   6   7
ENDBRANCH   5   6
ENDBRANCH   4   5
ENDBRANCH   3   4
ENDBRANCH   2   3
ENDBRANCH   1   2
BRANCH   1  26
ATOM     26  O   UNL A   1      31.604  25.808  25.945  1.00  0.00    -0.377 OA
BRANCH  26  27
ATOM     27  C   UNL A   1      30.618  26.804  25.712  1.00  0.00     0.188 C 
BRANCH  27  28
ATOM     28  C   UNL A   1      30.312  27.218  24.256  1.00  0.00     0.188 C 
BRANCH  28  29
ATOM     29  O   UNL A   1      30.932  28.430  23.867  1.00  0.00    -0.376 OA
BRANCH  29  30
ATOM     30  C   UNL A   1      31.116  29.434  24.849  1.00  0.00     0.202 C 
BRANCH  30  31
ATOM     31  C   UNL A   1      32.535  29.914  25.197  1.00  0.00     0.261 C 
BRANCH  31  32
ATOM     32  O   UNL A   1      32.893  29.957  26.586  1.00  0.00    -0.460 OA
BRANCH  32  33
ATOM     33  C   UNL A   1      33.368  31.116  27.080  1.00  0.00     0.338 C 
ATOM     34  O   UNL A   1      32.775  32.179  27.183  1.00  0.00    -0.246 OA
BRANCH  33  35
ATOM     35  C   UNL A   1      34.699  30.835  27.657  1.00  0.00     0.060 A 
ATOM     36  C   UNL A   1      35.078  29.509  27.900  1.00  0.00     0.016 A 
ATOM     37  C   UNL A   1      35.573  31.887  27.944  1.00  0.00     0.016 A 
ATOM     38  C   UNL A   1      36.324  29.231  28.464  1.00  0.00     0.010 A 
ATOM     39  C   UNL A   1      36.809  31.609  28.532  1.00  0.00     0.010 A 
ATOM     40  C   UNL A   1      37.174  30.283  28.827  1.00  0.00    -0.014 A 
BRANCH  40  41
ATOM     41  C   UNL A   1      38.337  30.019  29.708  1.00  0.00     0.031 A 
ATOM     42  C   UNL A   1      39.406  29.089  29.207  1.00  0.00     0.074 A 
ATOM     43  C   UNL A   1      38.453  30.598  30.916  1.00  0.00     0.049 A 
ATOM     44  N   UNL A   1      40.478  28.646  29.810  1.00  0.00    -0.248 NA
ATOM     45  C   UNL A   1      39.238  28.587  27.833  1.00  0.00     0.031 C 
ATOM     46  C   UNL A   1      37.509  31.553  31.490  1.00  0.00     0.029 A 
ATOM     47  N   UNL A   1      39.418  30.453  31.881  1.00  0.00    -0.354 N 
ATOM     48  C   UNL A   1      41.104  27.807  28.896  1.00  0.00     0.074 A 
ATOM     49  C   UNL A   1      40.276  27.776  27.711  1.00  0.00     0.031 C 
ATOM     50  C   UNL A   1      37.934  31.898  32.718  1.00  0.00     0.029 A 
ATOM     51  C   UNL A   1      39.158  31.159  33.029  1.00  0.00     0.049 A 
ATOM     52  H   UNL A   1      40.220  29.894  31.762  1.00  0.00     0.167 HD
ATOM     53  C   UNL A   1      42.268  27.131  29.032  1.00  0.00     0.037 A 
ATOM     54  C   UNL A   1      39.820  31.180  34.203  1.00  0.00     0.037 A 
ATOM     55  C   UNL A   1      43.085  27.161  30.216  1.00  0.00     0.049 A 
ATOM     56  C   UNL A   1      41.070  30.349  34.360  1.00  0.00     0.074 A 
ATOM     57  C   UNL A   1      44.289  26.523  30.449  1.00  0.00     0.029 A 
ATOM     58  N   UNL A   1      42.771  27.861  31.372  1.00  0.00    -0.354 N 
ATOM     59  N   UNL A   1      41.669  29.576  33.486  1.00  0.00    -0.248 NA
ATOM     60  C   UNL A   1      41.736  30.396  35.670  1.00  0.00     0.031 C 
ATOM     61  C   UNL A   1      44.672  26.784  31.769  1.00  0.00     0.029 A 
ATOM     62  C   UNL A   1      43.744  27.645  32.334  1.00  0.00     0.049 A 
ATOM     63  H   UNL A   1      41.975  28.429  31.491  1.00  0.00     0.167 HD
ATOM     64  C   UNL A   1      42.798  29.075  34.126  1.00  0.00     0.074 A 
ATOM     65  C   UNL A   1      42.805  29.642  35.459  1.00  0.00     0.031 C 
ATOM     66  C   UNL A   1      43.743  28.225  33.653  1.00  0.00     0.037 A 
BRANCH  53  67
ATOM     67  C   UNL A   1      42.707  26.269  27.882  1.00  0.00     0.064 A 
ATOM     68  C   UNL A   1      42.279  24.939  27.747  1.00  0.00     0.173 A 
ATOM     69  C   UNL A   1      43.552  26.789  26.890  1.00  0.00     0.173 A 
ATOM     70  F   UNL A   1      41.484  24.386  28.676  1.00  0.00    -0.203 F 
ATOM     71  C   UNL A   1      42.706  24.154  26.678  1.00  0.00     0.198 A 
ATOM     72  C   UNL A   1      43.947  26.012  25.804  1.00  0.00     0.198 A 
ATOM     73  F   UNL A   1      43.988  28.055  26.969  1.00  0.00    -0.203 F 
ATOM     74  F   UNL A   1      42.329  22.870  26.599  1.00  0.00    -0.200 F 
ATOM     75  C   UNL A   1      43.532  24.693  25.704  1.00  0.00     0.200 A 
ATOM     76  F   UNL A   1      44.733  26.541  24.857  1.00  0.00    -0.200 F 
ATOM     77  F   UNL A   1      43.934  23.940  24.672  1.00  0.00    -0.200 F 
ENDBRANCH  53  67
BRANCH  54  78
ATOM     78  C   UNL A   1      39.309  32.002  35.332  1.00  0.00     0.064 A 
ATOM     79  C   UNL A   1      39.635  33.361  35.445  1.00  0.00     0.173 A 
ATOM     80  C   UNL A   1      38.508  31.440  36.338  1.00  0.00     0.173 A 
ATOM     81  F   UNL A   1      40.421  33.940  34.526  1.00  0.00    -0.203 F 
ATOM     82  C   UNL A   1      39.199  34.119  36.531  1.00  0.00     0.198 A 
ATOM     83  C   UNL A   1      38.045  32.208  37.405  1.00  0.00     0.198 A 
ATOM     84  F   UNL A   1      38.168  30.145  36.282  1.00  0.00    -0.203 F 
ATOM     85  F   UNL A   1      39.572  35.402  36.642  1.00  0.00    -0.200 F 
ATOM     86  C   UNL A   1      38.399  33.545  37.506  1.00  0.00     0.200 A 
ATOM     87  F   UNL A   1      37.259  31.651  38.336  1.00  0.00    -0.200 F 
ATOM     88  F   UNL A   1      37.978  34.274  38.548  1.00  0.00    -0.200 F 
ENDBRANCH  54  78
BRANCH  66  89
ATOM     89  C   UNL A   1      44.895  27.892  34.561  1.00  0.00     0.064 A 
ATOM     90  C   UNL A   1      44.876  26.772  35.406  1.00  0.00     0.173 A 
ATOM     91  C   UNL A   1      46.057  28.682  34.549  1.00  0.00     0.173 A 
ATOM     92  F   UNL A   1      43.788  25.990  35.465  1.00  0.00    -0.203 F 
ATOM     93  C   UNL A   1      45.962  26.474  36.225  1.00  0.00     0.198 A 
ATOM     94  C   UNL A   1      47.154  28.360  35.342  1.00  0.00     0.198 A 
ATOM     95  F   UNL A   1      46.134  29.759  33.753  1.00  0.00    -0.203 F 
ATOM     96  F   UNL A   1      45.899  25.430  37.063  1.00  0.00    -0.200 F 
ATOM     97  C   UNL A   1      47.103  27.262  36.186  1.00  0.00     0.200 A 
ATOM     98  F   UNL A   1      48.262  29.112  35.288  1.00  0.00    -0.200 F 
ATOM     99  F   UNL A   1      48.150  26.967  36.967  1.00  0.00    -0.200 F 
ENDBRANCH  66  89
ENDBRANCH  40  41
ENDBRANCH  33  35
ENDBRANCH  32  33
ENDBRANCH  31  32
ENDBRANCH  30  31
ENDBRANCH  29  30
ENDBRANCH  28  29
ENDBRANCH  27  28
ENDBRANCH  26  27
ENDBRANCH   1  26
TORSDOF 24
ENDMDL
MODEL 3
REMARK VINA RESULT:     -10.3      4.346      9.215
REMARK SMILES O=C(CSc1ccccc1C(=O)OCCOCCOCCOCCOC(=O)c1ccc(-c2c3nc(c(-c4c(F)c(F)c(F)c(F)c4F)c4ccc([nH]4)c(-c4c(F)c(F)c(F)c(F)c4F)c4nc(c(-c5c(F)c(F)c(F)c(F)c5F)c5ccc2[nH]5)C=C4)C=C3)cc1)c1ccc(Cl)cc1
REMARK SMILES IDX 18 1 17 2 16 3 15 4 14 5 13 6 11 7 12 8 10 9 5 10 6 11 7 12
REMARK SMILES IDX 9 13 8 14 4 15 3 16 2 17 1 18 91 19 92 20 97 21 93 22 96 23
REMARK SMILES IDX 94 24 95 25 19 26 20 27 21 28 22 29 23 30 24 31 25 32 26 33
REMARK SMILES IDX 27 34 28 35 29 36 90 37 30 38 89 39 31 40 32 41 33 42 83 43
REMARK SMILES IDX 34 44 88 45 82 46 84 47 35 48 87 49 81 50 80 51 36 53 68 54
REMARK SMILES IDX 48 55 67 56 49 57 52 58 66 59 85 60 50 61 51 62 65 64 86 65
REMARK SMILES IDX 53 66 37 67 38 68 46 69 39 70 40 71 44 72 47 73 41 74 42 75
REMARK SMILES IDX 45 76 43 77 69 78 70 79 78 80 71 81 72 82 76 83 79 84 73 85
REMARK SMILES IDX 74 86 77 87 75 88 54 89 55 90 63 91 56 92 57 93 61 94 64 95
REMARK SMILES IDX 58 96 59 97 62 98 60 99
REMARK H PARENT 84 52 52 63
REMARK Flexibility Score: inf
ROOT
ATOM      1  C   UNL A   1      32.789  25.362  26.027  1.00  0.00     0.188 C 
ENDROOT
BRANCH   1   2
ATOM      2  C   UNL A   1      33.717  24.184  25.630  1.00  0.00     0.188 C 
BRANCH   2   3
ATOM      3  O   UNL A   1      34.285  24.278  24.338  1.00  0.00    -0.376 OA
BRANCH   3   4
ATOM      4  C   UNL A   1      33.686  23.607  23.250  1.00  0.00     0.202 C 
BRANCH   4   5
ATOM      5  C   UNL A   1      32.293  22.994  23.427  1.00  0.00     0.261 C 
BRANCH   5   6
ATOM      6  O   UNL A   1      32.225  21.578  23.232  1.00  0.00    -0.460 OA
BRANCH   6   7
ATOM      7  C   UNL A   1      32.196  20.803  24.334  1.00  0.00     0.339 C 
ATOM      8  O   UNL A   1      31.465  20.978  25.297  1.00  0.00    -0.246 OA
BRANCH   7   9
ATOM      9  C   UNL A   1      33.051  19.595  24.169  1.00  0.00     0.073 A 
ATOM     10  C   UNL A   1      34.359  19.419  24.677  1.00  0.00     0.022 A 
ATOM     11  C   UNL A   1      34.995  18.183  24.473  1.00  0.00     0.016 A 
ATOM     12  C   UNL A   1      34.384  17.169  23.729  1.00  0.00     0.001 A 
ATOM     13  C   UNL A   1      32.460  18.573  23.401  1.00  0.00     0.017 A 
ATOM     14  C   UNL A   1      33.131  17.376  23.164  1.00  0.00     0.001 A 
BRANCH  10  15
ATOM     15  S   UNL A   1      35.369  20.738  25.360  1.00  0.00    -0.117 SA
BRANCH  15  16
ATOM     16  C   UNL A   1      36.887  20.667  24.380  1.00  0.00     0.156 C 
BRANCH  16  17
ATOM     17  C   UNL A   1      38.169  20.714  25.176  1.00  0.00     0.173 C 
ATOM     18  O   UNL A   1      38.956  19.766  25.162  1.00  0.00    -0.293 OA
BRANCH  17  19
ATOM     19  C   UNL A   1      38.577  21.957  25.897  1.00  0.00     0.018 A 
ATOM     20  C   UNL A   1      37.852  23.149  25.834  1.00  0.00     0.013 A 
ATOM     21  C   UNL A   1      39.703  21.893  26.728  1.00  0.00     0.013 A 
ATOM     22  C   UNL A   1      38.203  24.243  26.627  1.00  0.00     0.021 A 
ATOM     23  C   UNL A   1      40.081  23.003  27.492  1.00  0.00     0.021 A 
ATOM     24  C   UNL A   1      39.318  24.168  27.451  1.00  0.00     0.041 A 
ATOM     25  Cl  UNL A   1      39.747  25.518  28.423  1.00  0.00    -0.084 Cl
ENDBRANCH  17  19
ENDBRANCH  16  17
ENDBRANCH  15  16
ENDBRANCH  10  15
ENDBRANCH   7   9
ENDBRANCH   6   7
ENDBRANCH   5   6
ENDBRANCH   4   5
ENDBRANCH   3   4
ENDBRANCH   2   3
ENDBRANCH   1   2
BRANCH   1  26
ATOM     26  O   UNL A   1      31.368  25.260  26.029  1.00  0.00    -0.377 OA
BRANCH  26  27
ATOM     27  C   UNL A   1      30.567  26.405  25.774  1.00  0.00     0.188 C 
BRANCH  27  28
ATOM     28  C   UNL A   1      30.465  26.931  24.327  1.00  0.00     0.188 C 
BRANCH  28  29
ATOM     29  O   UNL A   1      31.301  28.044  24.065  1.00  0.00    -0.376 OA
BRANCH  29  30
ATOM     30  C   UNL A   1      31.438  29.030  25.073  1.00  0.00     0.202 C 
BRANCH  30  31
ATOM     31  C   UNL A   1      32.812  29.668  25.338  1.00  0.00     0.261 C 
BRANCH  31  32
ATOM     32  O   UNL A   1      33.261  29.723  26.700  1.00  0.00    -0.460 OA
BRANCH  32  33
ATOM     33  C   UNL A   1      33.628  30.920  27.196  1.00  0.00     0.338 C 
ATOM     34  O   UNL A   1      32.935  31.919  27.318  1.00  0.00    -0.246 OA
BRANCH  33  35
ATOM     35  C   UNL A   1      34.990  30.767  27.749  1.00  0.00     0.060 A 
ATOM     36  C   UNL A   1      35.455  29.491  28.093  1.00  0.00     0.016 A 
ATOM     37  C   UNL A   1      35.808  31.888  27.913  1.00  0.00     0.016 A 
ATOM     38  C   UNL A   1      36.730  29.336  28.636  1.00  0.00     0.010 A 
ATOM     39  C   UNL A   1      37.075  31.734  28.480  1.00  0.00     0.010 A 
ATOM     40  C   UNL A   1      37.526  30.462  28.876  1.00  0.00    -0.014 A 
BRANCH  40  41
ATOM     41  C   UNL A   1      38.729  30.344  29.736  1.00  0.00     0.031 A 
ATOM     42  C   UNL A   1      39.904  29.572  29.205  1.00  0.00     0.074 A 
ATOM     43  C   UNL A   1      38.787  30.917  30.951  1.00  0.00     0.049 A 
ATOM     44  N   UNL A   1      41.035  29.268  29.786  1.00  0.00    -0.248 NA
ATOM     45  C   UNL A   1      39.781  29.070  27.826  1.00  0.00     0.031 C 
ATOM     46  C   UNL A   1      37.733  31.729  31.554  1.00  0.00     0.029 A 
ATOM     47  N   UNL A   1      39.778  30.889  31.900  1.00  0.00    -0.354 N 
ATOM     48  C   UNL A   1      41.752  28.532  28.850  1.00  0.00     0.074 A 
ATOM     49  C   UNL A   1      40.916  28.406  27.676  1.00  0.00     0.031 C 
ATOM     50  C   UNL A   1      38.129  32.112  32.780  1.00  0.00     0.029 A 
ATOM     51  C   UNL A   1      39.446  31.539  33.062  1.00  0.00     0.049 A 
ATOM     52  H   UNL A   1      40.646  30.444  31.760  1.00  0.00     0.167 HD
ATOM     53  C   UNL A   1      42.998  28.015  28.958  1.00  0.00     0.037 A 
ATOM     54  C   UNL A   1      40.118  31.632  34.226  1.00  0.00     0.037 A 
ATOM     55  C   UNL A   1      43.822  28.138  30.131  1.00  0.00     0.049 A 
ATOM     56  C   UNL A   1      41.470  30.972  34.353  1.00  0.00     0.074 A 
ATOM     57  C   UNL A   1      45.105  27.663  30.337  1.00  0.00     0.029 A 
ATOM     58  N   UNL A   1      43.438  28.775  31.302  1.00  0.00    -0.354 N 
ATOM     59  N   UNL A   1      42.152  30.298  33.459  1.00  0.00    -0.248 NA
ATOM     60  C   UNL A   1      42.145  31.090  35.654  1.00  0.00     0.031 C 
ATOM     61  C   UNL A   1      45.471  27.955  31.655  1.00  0.00     0.029 A 
ATOM     62  C   UNL A   1      44.446  28.676  32.247  1.00  0.00     0.049 A 
ATOM     63  H   UNL A   1      42.575  29.229  31.441  1.00  0.00     0.167 HD
ATOM     64  C   UNL A   1      43.348  29.944  34.074  1.00  0.00     0.074 A 
ATOM     65  C   UNL A   1      43.302  30.489  35.415  1.00  0.00     0.031 C 
ATOM     66  C   UNL A   1      44.390  29.234  33.574  1.00  0.00     0.037 A 
BRANCH  53  67
ATOM     67  C   UNL A   1      43.528  27.234  27.790  1.00  0.00     0.064 A 
ATOM     68  C   UNL A   1      44.205  27.856  26.728  1.00  0.00     0.173 A 
ATOM     69  C   UNL A   1      43.376  25.840  27.742  1.00  0.00     0.173 A 
ATOM     70  F   UNL A   1      44.363  29.188  26.715  1.00  0.00    -0.203 F 
ATOM     71  C   UNL A   1      44.680  27.114  25.649  1.00  0.00     0.198 A 
ATOM     72  C   UNL A   1      43.885  25.098  26.679  1.00  0.00     0.198 A 
ATOM     73  F   UNL A   1      42.740  25.195  28.731  1.00  0.00    -0.203 F 
ATOM     74  F   UNL A   1      45.273  27.736  24.620  1.00  0.00    -0.200 F 
ATOM     75  C   UNL A   1      44.528  25.736  25.629  1.00  0.00     0.200 A 
ATOM     76  F   UNL A   1      43.749  23.765  26.671  1.00  0.00    -0.200 F 
ATOM     77  F   UNL A   1      44.994  25.023  24.595  1.00  0.00    -0.200 F 
ENDBRANCH  53  67
BRANCH  54  78
ATOM     78  C   UNL A   1      39.520  32.363  35.376  1.00  0.00     0.064 A 
ATOM     79  C   UNL A   1      39.783  33.725  35.583  1.00  0.00     0.173 A 
ATOM     80  C   UNL A   1      38.699  31.710  36.307  1.00  0.00     0.173 A 
ATOM     81  F   UNL A   1      40.584  34.389  34.738  1.00  0.00    -0.203 F 
ATOM     82  C   UNL A   1      39.265  34.398  36.689  1.00  0.00     0.198 A 
ATOM     83  C   UNL A   1      38.154  32.393  37.394  1.00  0.00     0.198 A 
ATOM     84  F   UNL A   1      38.417  30.408  36.159  1.00  0.00    -0.203 F 
ATOM     85  F   UNL A   1      39.577  35.686  36.893  1.00  0.00    -0.200 F 
ATOM     86  C   UNL A   1      38.446  33.734  37.589  1.00  0.00     0.200 A 
ATOM     87  F   UNL A   1      37.351  31.750  38.251  1.00  0.00    -0.200 F 
ATOM     88  F   UNL A   1      37.947  34.382  38.650  1.00  0.00    -0.200 F 
ENDBRANCH  54  78
BRANCH  66  89
ATOM     89  C   UNL A   1      45.590  29.045  34.460  1.00  0.00     0.064 A 
ATOM     90  C   UNL A   1      46.635  29.981  34.506  1.00  0.00     0.173 A 
ATOM     91  C   UNL A   1      45.673  27.931  35.312  1.00  0.00     0.173 A 
ATOM     92  F   UNL A   1      46.612  31.057  33.705  1.00  0.00    -0.203 F 
ATOM     93  C   UNL A   1      47.730  29.793  35.347  1.00  0.00     0.198 A 
ATOM     94  C   UNL A   1      46.750  27.766  36.178  1.00  0.00     0.198 A 
ATOM     95  F   UNL A   1      44.698  27.010  35.317  1.00  0.00    -0.203 F 
ATOM     96  F   UNL A   1      48.740  30.673  35.333  1.00  0.00    -0.200 F 
ATOM     97  C   UNL A   1      47.781  28.691  36.188  1.00  0.00     0.200 A 
ATOM     98  F   UNL A   1      46.789  26.711  37.003  1.00  0.00    -0.200 F 
ATOM     99  F   UNL A   1      48.830  28.519  37.003  1.00  0.00    -0.200 F 
ENDBRANCH  66  89
ENDBRANCH  40  41
ENDBRANCH  33  35
ENDBRANCH  32  33
ENDBRANCH  31  32
ENDBRANCH  30  31
ENDBRANCH  29  30
ENDBRANCH  28  29
ENDBRANCH  27  28
ENDBRANCH  26  27
ENDBRANCH   1  26
TORSDOF 24
ENDMDL
