MODEL 1
REMARK VINA RESULT:      -9.9      0.000      0.000
REMARK SMILES C[C@@H](C(=O)OCCOCCOCCOCCOC(=O)c1ccc(-c2c3nc(c(-c4c(F)c(F)c(F)c(F)c4F)c4ccc([nH]4)c(-c4c(F)c(F)c(F)c(F)c4F)c4nc(c(-c5c(F)c(F)c(F)c(F)c5F)c5ccc2[nH]5)C=C4)C=C3)cc1)c1ccc(C[C@H]2CCC[C@@H]2O)cc1
REMARK SMILES IDX 10 1 9 2 8 3 7 4 6 5 5 6 3 7 4 8 2 9 1 10 83 11 84 12 95 13
REMARK SMILES IDX 85 14 94 15 86 16 87 17 88 18 89 19 92 20 90 21 91 22 93 23
REMARK SMILES IDX 11 25 12 26 13 27 14 28 15 29 16 30 17 31 18 32 19 33 20 34
REMARK SMILES IDX 21 35 82 36 22 37 81 38 23 39 24 40 25 41 75 42 26 43 80 44
REMARK SMILES IDX 74 45 76 46 27 47 79 48 73 49 72 50 28 52 60 53 40 54 59 55
REMARK SMILES IDX 41 56 44 57 58 58 77 59 42 60 43 61 57 63 78 64 45 65 29 66
REMARK SMILES IDX 30 67 38 68 31 69 32 70 36 71 39 72 33 73 34 74 37 75 35 76
REMARK SMILES IDX 61 77 62 78 70 79 63 80 64 81 68 82 71 83 65 84 66 85 69 86
REMARK SMILES IDX 67 87 46 88 47 89 55 90 48 91 49 92 53 93 56 94 50 95 51 96
REMARK SMILES IDX 54 97 52 98
REMARK H PARENT 93 24 76 51 44 62
REMARK Flexibility Score: inf
ROOT
ATOM      1  C   UNL A   1      34.519  24.211  26.357  1.00  0.00     0.188 C 
ENDROOT
BRANCH   1   2
ATOM      2  C   UNL A   1      32.996  24.422  26.343  1.00  0.00     0.188 C 
BRANCH   2   3
ATOM      3  O   UNL A   1      32.487  25.738  26.219  1.00  0.00    -0.376 OA
BRANCH   3   4
ATOM      4  C   UNL A   1      33.351  26.847  26.020  1.00  0.00     0.202 C 
BRANCH   4   5
ATOM      5  C   UNL A   1      32.986  28.131  25.245  1.00  0.00     0.261 C 
BRANCH   5   6
ATOM      6  O   UNL A   1      31.641  28.242  24.761  1.00  0.00    -0.463 OA
BRANCH   6   7
ATOM      7  C   UNL A   1      31.462  28.171  23.421  1.00  0.00     0.313 C 
ATOM      8  O   UNL A   1      32.079  28.863  22.616  1.00  0.00    -0.252 OA
BRANCH   7   9
ATOM      9  C   UNL A   1      30.456  27.084  22.991  1.00  0.00     0.126 C 
ATOM     10  C   UNL A   1      29.053  27.246  23.600  1.00  0.00     0.025 C 
BRANCH   9  11
ATOM     11  C   UNL A   1      31.083  25.684  23.024  1.00  0.00    -0.034 A 
ATOM     12  C   UNL A   1      30.420  24.516  23.430  1.00  0.00     0.005 A 
ATOM     13  C   UNL A   1      32.421  25.549  22.616  1.00  0.00     0.005 A 
ATOM     14  C   UNL A   1      31.084  23.275  23.460  1.00  0.00     0.004 A 
ATOM     15  C   UNL A   1      33.086  24.321  22.661  1.00  0.00     0.004 A 
ATOM     16  C   UNL A   1      32.430  23.167  23.096  1.00  0.00    -0.048 A 
BRANCH  16  17
ATOM     17  C   UNL A   1      33.173  21.850  23.107  1.00  0.00     0.041 C 
BRANCH  17  18
ATOM     18  C   UNL A   1      32.481  20.635  23.751  1.00  0.00     0.022 C 
ATOM     19  C   UNL A   1      32.304  19.402  22.850  1.00  0.00     0.007 C 
ATOM     20  C   UNL A   1      33.137  20.102  25.027  1.00  0.00     0.117 C 
ATOM     21  C   UNL A   1      32.538  18.183  23.745  1.00  0.00     0.003 C 
ATOM     22  C   UNL A   1      32.532  18.713  25.169  1.00  0.00     0.032 C 
BRANCH  20  23
ATOM     23  O   UNL A   1      32.816  20.888  26.162  1.00  0.00    -0.393 OA
ATOM     24  H   UNL A   1      32.577  21.784  25.876  1.00  0.00     0.210 HD
ENDBRANCH  20  23
ENDBRANCH  17  18
ENDBRANCH  16  17
ENDBRANCH   9  11
ENDBRANCH   7   9
ENDBRANCH   6   7
ENDBRANCH   5   6
ENDBRANCH   4   5
ENDBRANCH   3   4
ENDBRANCH   2   3
ENDBRANCH   1   2
BRANCH   1  25
ATOM     25  O   UNL A   1      34.957  22.962  25.856  1.00  0.00    -0.377 OA
BRANCH  25  26
ATOM     26  C   UNL A   1      36.234  22.901  25.237  1.00  0.00     0.188 C 
BRANCH  26  27
ATOM     27  C   UNL A   1      36.699  21.603  24.547  1.00  0.00     0.188 C 
BRANCH  27  28
ATOM     28  O   UNL A   1      38.005  21.176  24.904  1.00  0.00    -0.376 OA
BRANCH  28  29
ATOM     29  C   UNL A   1      38.284  19.784  24.938  1.00  0.00     0.202 C 
BRANCH  29  30
ATOM     30  C   UNL A   1      39.360  19.298  25.923  1.00  0.00     0.261 C 
BRANCH  30  31
ATOM     31  O   UNL A   1      40.697  19.778  25.696  1.00  0.00    -0.460 OA
BRANCH  31  32
ATOM     32  C   UNL A   1      41.510  19.911  26.763  1.00  0.00     0.338 C 
ATOM     33  O   UNL A   1      42.206  19.049  27.275  1.00  0.00    -0.246 OA
BRANCH  32  34
ATOM     34  C   UNL A   1      41.575  21.346  27.106  1.00  0.00     0.060 A 
ATOM     35  C   UNL A   1      41.094  22.285  26.183  1.00  0.00     0.016 A 
ATOM     36  C   UNL A   1      42.108  21.765  28.328  1.00  0.00     0.016 A 
ATOM     37  C   UNL A   1      41.184  23.649  26.462  1.00  0.00     0.010 A 
ATOM     38  C   UNL A   1      42.216  23.133  28.597  1.00  0.00     0.010 A 
ATOM     39  C   UNL A   1      41.789  24.081  27.650  1.00  0.00    -0.014 A 
BRANCH  39  40
ATOM     40  C   UNL A   1      42.165  25.508  27.806  1.00  0.00     0.031 A 
ATOM     41  C   UNL A   1      43.501  25.954  27.276  1.00  0.00     0.074 A 
ATOM     42  C   UNL A   1      41.336  26.396  28.382  1.00  0.00     0.049 A 
ATOM     43  N   UNL A   1      44.077  27.127  27.345  1.00  0.00    -0.248 NA
ATOM     44  C   UNL A   1      44.295  24.933  26.574  1.00  0.00     0.031 C 
ATOM     45  C   UNL A   1      40.000  26.099  28.890  1.00  0.00     0.029 A 
ATOM     46  N   UNL A   1      41.509  27.734  28.642  1.00  0.00    -0.354 N 
ATOM     47  C   UNL A   1      45.300  26.982  26.703  1.00  0.00     0.074 A 
ATOM     48  C   UNL A   1      45.400  25.601  26.284  1.00  0.00     0.031 C 
ATOM     49  C   UNL A   1      39.478  27.220  29.419  1.00  0.00     0.029 A 
ATOM     50  C   UNL A   1      40.457  28.302  29.319  1.00  0.00     0.049 A 
ATOM     51  H   UNL A   1      42.310  28.238  28.369  1.00  0.00     0.167 HD
ATOM     52  C   UNL A   1      46.250  27.919  26.474  1.00  0.00     0.037 A 
ATOM     53  C   UNL A   1      40.318  29.544  29.822  1.00  0.00     0.037 A 
ATOM     54  C   UNL A   1      46.151  29.290  26.898  1.00  0.00     0.049 A 
ATOM     55  C   UNL A   1      41.428  30.549  29.631  1.00  0.00     0.074 A 
ATOM     56  C   UNL A   1      47.056  30.320  26.709  1.00  0.00     0.029 A 
ATOM     57  N   UNL A   1      45.085  29.821  27.610  1.00  0.00    -0.354 N 
ATOM     58  N   UNL A   1      42.573  30.413  29.006  1.00  0.00    -0.248 NA
ATOM     59  C   UNL A   1      41.223  31.883  30.214  1.00  0.00     0.031 C 
ATOM     60  C   UNL A   1      46.567  31.457  27.361  1.00  0.00     0.029 A 
ATOM     61  C   UNL A   1      45.323  31.156  27.894  1.00  0.00     0.049 A 
ATOM     62  H   UNL A   1      44.279  29.322  27.875  1.00  0.00     0.167 HD
ATOM     63  C   UNL A   1      43.208  31.647  29.091  1.00  0.00     0.074 A 
ATOM     64  C   UNL A   1      42.313  32.524  29.816  1.00  0.00     0.031 C 
ATOM     65  C   UNL A   1      44.420  32.021  28.610  1.00  0.00     0.037 A 
BRANCH  52  66
ATOM     66  C   UNL A   1      47.497  27.481  25.758  1.00  0.00     0.064 A 
ATOM     67  C   UNL A   1      47.606  27.532  24.360  1.00  0.00     0.173 A 
ATOM     68  C   UNL A   1      48.608  27.024  26.485  1.00  0.00     0.173 A 
ATOM     69  F   UNL A   1      46.568  27.946  23.617  1.00  0.00    -0.203 F 
ATOM     70  C   UNL A   1      48.766  27.113  23.715  1.00  0.00     0.198 A 
ATOM     71  C   UNL A   1      49.779  26.640  25.838  1.00  0.00     0.198 A 
ATOM     72  F   UNL A   1      48.560  26.957  27.823  1.00  0.00    -0.203 F 
ATOM     73  F   UNL A   1      48.827  27.118  22.376  1.00  0.00    -0.200 F 
ATOM     74  C   UNL A   1      49.856  26.676  24.455  1.00  0.00     0.200 A 
ATOM     75  F   UNL A   1      50.835  26.231  26.557  1.00  0.00    -0.200 F 
ATOM     76  F   UNL A   1      50.974  26.280  23.833  1.00  0.00    -0.200 F 
ENDBRANCH  52  66
BRANCH  53  77
ATOM     77  C   UNL A   1      39.088  29.909  30.577  1.00  0.00     0.064 A 
ATOM     78  C   UNL A   1      38.005  30.534  29.945  1.00  0.00     0.173 A 
ATOM     79  C   UNL A   1      38.984  29.665  31.955  1.00  0.00     0.173 A 
ATOM     80  F   UNL A   1      38.065  30.814  28.635  1.00  0.00    -0.203 F 
ATOM     81  C   UNL A   1      36.875  30.919  30.664  1.00  0.00     0.198 A 
ATOM     82  C   UNL A   1      37.840  30.020  32.667  1.00  0.00     0.198 A 
ATOM     83  F   UNL A   1      39.994  29.074  32.612  1.00  0.00    -0.203 F 
ATOM     84  F   UNL A   1      35.876  31.563  30.044  1.00  0.00    -0.200 F 
ATOM     85  C   UNL A   1      36.790  30.656  32.023  1.00  0.00     0.200 A 
ATOM     86  F   UNL A   1      37.758  29.752  33.977  1.00  0.00    -0.200 F 
ATOM     87  F   UNL A   1      35.702  31.023  32.713  1.00  0.00    -0.200 F 
ENDBRANCH  53  77
BRANCH  65  88
ATOM     88  C   UNL A   1      44.835  33.453  28.807  1.00  0.00     0.064 A 
ATOM     89  C   UNL A   1      45.608  33.858  29.906  1.00  0.00     0.173 A 
ATOM     90  C   UNL A   1      44.491  34.427  27.856  1.00  0.00     0.173 A 
ATOM     91  F   UNL A   1      45.955  32.970  30.850  1.00  0.00    -0.203 F 
ATOM     92  C   UNL A   1      45.995  35.187  30.060  1.00  0.00     0.198 A 
ATOM     93  C   UNL A   1      44.911  35.747  27.994  1.00  0.00     0.198 A 
ATOM     94  F   UNL A   1      43.761  34.094  26.781  1.00  0.00    -0.203 F 
ATOM     95  F   UNL A   1      46.688  35.559  31.145  1.00  0.00    -0.200 F 
ATOM     96  C   UNL A   1      45.654  36.128  29.100  1.00  0.00     0.200 A 
ATOM     97  F   UNL A   1      44.595  36.651  27.055  1.00  0.00    -0.200 F 
ATOM     98  F   UNL A   1      46.036  37.404  29.245  1.00  0.00    -0.200 F 
ENDBRANCH  65  88
ENDBRANCH  39  40
ENDBRANCH  32  34
ENDBRANCH  31  32
ENDBRANCH  30  31
ENDBRANCH  29  30
ENDBRANCH  28  29
ENDBRANCH  27  28
ENDBRANCH  26  27
ENDBRANCH  25  26
ENDBRANCH   1  25
TORSDOF 24
ENDMDL
MODEL 2
REMARK VINA RESULT:      -9.5      2.972      8.361
REMARK SMILES C[C@@H](C(=O)OCCOCCOCCOCCOC(=O)c1ccc(-c2c3nc(c(-c4c(F)c(F)c(F)c(F)c4F)c4ccc([nH]4)c(-c4c(F)c(F)c(F)c(F)c4F)c4nc(c(-c5c(F)c(F)c(F)c(F)c5F)c5ccc2[nH]5)C=C4)C=C3)cc1)c1ccc(C[C@H]2CCC[C@@H]2O)cc1
REMARK SMILES IDX 10 1 9 2 8 3 7 4 6 5 5 6 3 7 4 8 2 9 1 10 83 11 84 12 95 13
REMARK SMILES IDX 85 14 94 15 86 16 87 17 88 18 89 19 92 20 90 21 91 22 93 23
REMARK SMILES IDX 11 25 12 26 13 27 14 28 15 29 16 30 17 31 18 32 19 33 20 34
REMARK SMILES IDX 21 35 82 36 22 37 81 38 23 39 24 40 25 41 75 42 26 43 80 44
REMARK SMILES IDX 74 45 76 46 27 47 79 48 73 49 72 50 28 52 60 53 40 54 59 55
REMARK SMILES IDX 41 56 44 57 58 58 77 59 42 60 43 61 57 63 78 64 45 65 29 66
REMARK SMILES IDX 30 67 38 68 31 69 32 70 36 71 39 72 33 73 34 74 37 75 35 76
REMARK SMILES IDX 61 77 62 78 70 79 63 80 64 81 68 82 71 83 65 84 66 85 69 86
REMARK SMILES IDX 67 87 46 88 47 89 55 90 48 91 49 92 53 93 56 94 50 95 51 96
REMARK SMILES IDX 54 97 52 98
REMARK H PARENT 93 24 76 51 44 62
REMARK Flexibility Score: inf
ROOT
ATOM      1  C   UNL A   1      33.293  30.727  27.391  1.00  0.00     0.188 C 
ENDROOT
BRANCH   1   2
ATOM      2  C   UNL A   1      32.208  29.747  26.919  1.00  0.00     0.188 C 
BRANCH   2   3
ATOM      3  O   UNL A   1      32.589  28.614  26.160  1.00  0.00    -0.376 OA
BRANCH   3   4
ATOM      4  C   UNL A   1      33.396  28.742  24.999  1.00  0.00     0.202 C 
BRANCH   4   5
ATOM      5  C   UNL A   1      33.642  27.628  23.959  1.00  0.00     0.261 C 
BRANCH   5   6
ATOM      6  O   UNL A   1      32.936  26.394  24.143  1.00  0.00    -0.463 OA
BRANCH   6   7
ATOM      7  C   UNL A   1      31.900  26.148  23.308  1.00  0.00     0.313 C 
ATOM      8  O   UNL A   1      31.868  26.518  22.138  1.00  0.00    -0.252 OA
BRANCH   7   9
ATOM      9  C   UNL A   1      30.785  25.293  23.945  1.00  0.00     0.126 C 
ATOM     10  C   UNL A   1      29.863  26.070  24.901  1.00  0.00     0.025 C 
BRANCH   9  11
ATOM     11  C   UNL A   1      31.312  23.934  24.421  1.00  0.00    -0.034 A 
ATOM     12  C   UNL A   1      31.231  23.458  25.738  1.00  0.00     0.005 A 
ATOM     13  C   UNL A   1      31.921  23.092  23.475  1.00  0.00     0.005 A 
ATOM     14  C   UNL A   1      31.773  22.207  26.095  1.00  0.00     0.004 A 
ATOM     15  C   UNL A   1      32.472  21.859  23.831  1.00  0.00     0.004 A 
ATOM     16  C   UNL A   1      32.417  21.403  25.149  1.00  0.00    -0.048 A 
BRANCH  16  17
ATOM     17  C   UNL A   1      33.001  20.052  25.494  1.00  0.00     0.041 C 
BRANCH  17  18
ATOM     18  C   UNL A   1      33.554  19.188  24.346  1.00  0.00     0.022 C 
ATOM     19  C   UNL A   1      34.847  18.412  24.646  1.00  0.00     0.007 C 
ATOM     20  C   UNL A   1      32.587  18.144  23.781  1.00  0.00     0.117 C 
ATOM     21  C   UNL A   1      34.705  17.060  23.943  1.00  0.00     0.003 C 
ATOM     22  C   UNL A   1      33.507  17.202  23.019  1.00  0.00     0.032 C 
BRANCH  20  23
ATOM     23  O   UNL A   1      31.639  18.716  22.897  1.00  0.00    -0.393 OA
ATOM     24  H   UNL A   1      31.888  18.512  21.981  1.00  0.00     0.210 HD
ENDBRANCH  20  23
ENDBRANCH  17  18
ENDBRANCH  16  17
ENDBRANCH   9  11
ENDBRANCH   7   9
ENDBRANCH   6   7
ENDBRANCH   5   6
ENDBRANCH   4   5
ENDBRANCH   3   4
ENDBRANCH   2   3
ENDBRANCH   1   2
BRANCH   1  25
ATOM     25  O   UNL A   1      33.033  32.090  27.116  1.00  0.00    -0.377 OA
BRANCH  25  26
ATOM     26  C   UNL A   1      33.621  33.068  27.963  1.00  0.00     0.188 C 
BRANCH  26  27
ATOM     27  C   UNL A   1      34.422  32.634  29.207  1.00  0.00     0.188 C 
BRANCH  27  28
ATOM     28  O   UNL A   1      33.986  33.217  30.426  1.00  0.00    -0.376 OA
BRANCH  28  29
ATOM     29  C   UNL A   1      34.953  33.788  31.295  1.00  0.00     0.202 C 
BRANCH  29  30
ATOM     30  C   UNL A   1      35.132  33.144  32.680  1.00  0.00     0.261 C 
BRANCH  30  31
ATOM     31  O   UNL A   1      35.712  31.829  32.703  1.00  0.00    -0.460 OA
BRANCH  31  32
ATOM     32  C   UNL A   1      36.872  31.662  33.370  1.00  0.00     0.338 C 
ATOM     33  O   UNL A   1      37.069  31.820  34.564  1.00  0.00    -0.246 OA
BRANCH  32  34
ATOM     34  C   UNL A   1      37.845  31.057  32.438  1.00  0.00     0.060 A 
ATOM     35  C   UNL A   1      38.964  30.396  32.962  1.00  0.00     0.016 A 
ATOM     36  C   UNL A   1      37.658  31.143  31.056  1.00  0.00     0.016 A 
ATOM     37  C   UNL A   1      39.922  29.854  32.104  1.00  0.00     0.010 A 
ATOM     38  C   UNL A   1      38.630  30.618  30.198  1.00  0.00     0.010 A 
ATOM     39  C   UNL A   1      39.783  30.004  30.718  1.00  0.00    -0.014 A 
BRANCH  39  40
ATOM     40  C   UNL A   1      40.935  29.712  29.829  1.00  0.00     0.031 A 
ATOM     41  C   UNL A   1      41.016  28.349  29.196  1.00  0.00     0.074 A 
ATOM     42  C   UNL A   1      41.875  30.636  29.566  1.00  0.00     0.049 A 
ATOM     43  N   UNL A   1      41.950  27.836  28.435  1.00  0.00    -0.248 NA
ATOM     44  C   UNL A   1      39.890  27.440  29.463  1.00  0.00     0.031 C 
ATOM     45  C   UNL A   1      41.882  32.004  30.078  1.00  0.00     0.029 A 
ATOM     46  N   UNL A   1      43.015  30.552  28.806  1.00  0.00    -0.354 N 
ATOM     47  C   UNL A   1      41.526  26.547  28.139  1.00  0.00     0.074 A 
ATOM     48  C   UNL A   1      40.273  26.341  28.832  1.00  0.00     0.031 C 
ATOM     49  C   UNL A   1      42.985  32.629  29.630  1.00  0.00     0.029 A 
ATOM     50  C   UNL A   1      43.778  31.694  28.832  1.00  0.00     0.049 A 
ATOM     51  H   UNL A   1      43.262  29.750  28.289  1.00  0.00     0.167 HD
ATOM     52  C   UNL A   1      42.124  25.621  27.353  1.00  0.00     0.037 A 
ATOM     53  C   UNL A   1      44.989  31.941  28.296  1.00  0.00     0.037 A 
ATOM     54  C   UNL A   1      43.375  25.827  26.671  1.00  0.00     0.049 A 
ATOM     55  C   UNL A   1      45.679  30.864  27.495  1.00  0.00     0.074 A 
ATOM     56  C   UNL A   1      44.060  24.954  25.845  1.00  0.00     0.029 A 
ATOM     57  N   UNL A   1      44.135  26.984  26.749  1.00  0.00    -0.354 N 
ATOM     58  N   UNL A   1      45.265  29.654  27.201  1.00  0.00    -0.248 NA
ATOM     59  C   UNL A   1      47.004  31.189  26.946  1.00  0.00     0.031 C 
ATOM     60  C   UNL A   1      45.265  25.560  25.473  1.00  0.00     0.029 A 
ATOM     61  C   UNL A   1      45.297  26.838  26.009  1.00  0.00     0.049 A 
ATOM     62  H   UNL A   1      43.885  27.791  27.255  1.00  0.00     0.167 HD
ATOM     63  C   UNL A   1      46.259  29.088  26.410  1.00  0.00     0.074 A 
ATOM     64  C   UNL A   1      47.290  30.093  26.258  1.00  0.00     0.031 C 
ATOM     65  C   UNL A   1      46.312  27.850  25.858  1.00  0.00     0.037 A 
BRANCH  52  66
ATOM     66  C   UNL A   1      41.446  24.288  27.214  1.00  0.00     0.064 A 
ATOM     67  C   UNL A   1      41.966  23.126  27.804  1.00  0.00     0.173 A 
ATOM     68  C   UNL A   1      40.244  24.175  26.498  1.00  0.00     0.173 A 
ATOM     69  F   UNL A   1      43.120  23.174  28.486  1.00  0.00    -0.203 F 
ATOM     70  C   UNL A   1      41.327  21.898  27.656  1.00  0.00     0.198 A 
ATOM     71  C   UNL A   1      39.588  22.953  26.383  1.00  0.00     0.198 A 
ATOM     72  F   UNL A   1      39.699  25.254  25.915  1.00  0.00    -0.203 F 
ATOM     73  F   UNL A   1      41.872  20.792  28.181  1.00  0.00    -0.200 F 
ATOM     74  C   UNL A   1      40.134  21.813  26.953  1.00  0.00     0.200 A 
ATOM     75  F   UNL A   1      38.428  22.877  25.714  1.00  0.00    -0.200 F 
ATOM     76  F   UNL A   1      39.516  20.632  26.818  1.00  0.00    -0.200 F 
ENDBRANCH  52  66
BRANCH  53  77
ATOM     77  C   UNL A   1      45.646  33.259  28.515  1.00  0.00     0.064 A 
ATOM     78  C   UNL A   1      46.370  33.526  29.685  1.00  0.00     0.173 A 
ATOM     79  C   UNL A   1      45.539  34.289  27.567  1.00  0.00     0.173 A 
ATOM     80  F   UNL A   1      46.479  32.586  30.634  1.00  0.00    -0.203 F 
ATOM     81  C   UNL A   1      46.942  34.778  29.908  1.00  0.00     0.198 A 
ATOM     82  C   UNL A   1      46.141  35.528  27.776  1.00  0.00     0.198 A 
ATOM     83  F   UNL A   1      44.854  34.088  26.431  1.00  0.00    -0.203 F 
ATOM     84  F   UNL A   1      47.583  35.023  31.059  1.00  0.00    -0.200 F 
ATOM     85  C   UNL A   1      46.833  35.775  28.951  1.00  0.00     0.200 A 
ATOM     86  F   UNL A   1      46.043  36.484  26.842  1.00  0.00    -0.200 F 
ATOM     87  F   UNL A   1      47.387  36.976  29.165  1.00  0.00    -0.200 F 
ENDBRANCH  53  77
BRANCH  65  88
ATOM     88  C   UNL A   1      47.500  27.523  24.997  1.00  0.00     0.064 A 
ATOM     89  C   UNL A   1      48.633  26.872  25.508  1.00  0.00     0.173 A 
ATOM     90  C   UNL A   1      47.485  27.826  23.625  1.00  0.00     0.173 A 
ATOM     91  F   UNL A   1      48.705  26.570  26.813  1.00  0.00    -0.203 F 
ATOM     92  C   UNL A   1      49.715  26.564  24.687  1.00  0.00     0.198 A 
ATOM     93  C   UNL A   1      48.553  27.484  22.801  1.00  0.00     0.198 A 
ATOM     94  F   UNL A   1      46.423  28.439  23.080  1.00  0.00    -0.203 F 
ATOM     95  F   UNL A   1      50.808  25.991  25.211  1.00  0.00    -0.200 F 
ATOM     96  C   UNL A   1      49.671  26.863  23.334  1.00  0.00     0.200 A 
ATOM     97  F   UNL A   1      48.499  27.756  21.489  1.00  0.00    -0.200 F 
ATOM     98  F   UNL A   1      50.709  26.556  22.544  1.00  0.00    -0.200 F 
ENDBRANCH  65  88
ENDBRANCH  39  40
ENDBRANCH  32  34
ENDBRANCH  31  32
ENDBRANCH  30  31
ENDBRANCH  29  30
ENDBRANCH  28  29
ENDBRANCH  27  28
ENDBRANCH  26  27
ENDBRANCH  25  26
ENDBRANCH   1  25
TORSDOF 24
ENDMDL
MODEL 3
REMARK VINA RESULT:      -9.3      0.778      7.195
REMARK SMILES C[C@@H](C(=O)OCCOCCOCCOCCOC(=O)c1ccc(-c2c3nc(c(-c4c(F)c(F)c(F)c(F)c4F)c4ccc([nH]4)c(-c4c(F)c(F)c(F)c(F)c4F)c4nc(c(-c5c(F)c(F)c(F)c(F)c5F)c5ccc2[nH]5)C=C4)C=C3)cc1)c1ccc(C[C@H]2CCC[C@@H]2O)cc1
REMARK SMILES IDX 10 1 9 2 8 3 7 4 6 5 5 6 3 7 4 8 2 9 1 10 83 11 84 12 95 13
REMARK SMILES IDX 85 14 94 15 86 16 87 17 88 18 89 19 92 20 90 21 91 22 93 23
REMARK SMILES IDX 11 25 12 26 13 27 14 28 15 29 16 30 17 31 18 32 19 33 20 34
REMARK SMILES IDX 21 35 82 36 22 37 81 38 23 39 24 40 25 41 75 42 26 43 80 44
REMARK SMILES IDX 74 45 76 46 27 47 79 48 73 49 72 50 28 52 60 53 40 54 59 55
REMARK SMILES IDX 41 56 44 57 58 58 77 59 42 60 43 61 57 63 78 64 45 65 29 66
REMARK SMILES IDX 30 67 38 68 31 69 32 70 36 71 39 72 33 73 34 74 37 75 35 76
REMARK SMILES IDX 61 77 62 78 70 79 63 80 64 81 68 82 71 83 65 84 66 85 69 86
REMARK SMILES IDX 67 87 46 88 47 89 55 90 48 91 49 92 53 93 56 94 50 95 51 96
REMARK SMILES IDX 54 97 52 98
REMARK H PARENT 93 24 76 51 44 62
REMARK Flexibility Score: inf
ROOT
ATOM      1  C   UNL A   1      34.697  24.396  26.308  1.00  0.00     0.188 C 
ENDROOT
BRANCH   1   2
ATOM      2  C   UNL A   1      33.187  24.623  26.134  1.00  0.00     0.188 C 
BRANCH   2   3
ATOM      3  O   UNL A   1      32.692  25.948  26.088  1.00  0.00    -0.376 OA
BRANCH   3   4
ATOM      4  C   UNL A   1      33.563  27.054  25.906  1.00  0.00     0.202 C 
BRANCH   4   5
ATOM      5  C   UNL A   1      33.301  28.247  24.963  1.00  0.00     0.261 C 
BRANCH   5   6
ATOM      6  O   UNL A   1      32.021  28.303  24.318  1.00  0.00    -0.463 OA
BRANCH   6   7
ATOM      7  C   UNL A   1      31.920  27.721  23.101  1.00  0.00     0.313 C 
ATOM      8  O   UNL A   1      32.686  27.956  22.171  1.00  0.00    -0.252 OA
BRANCH   7   9
ATOM      9  C   UNL A   1      30.790  26.676  23.008  1.00  0.00     0.126 C 
ATOM     10  C   UNL A   1      29.577  26.978  23.906  1.00  0.00     0.025 C 
BRANCH   9  11
ATOM     11  C   UNL A   1      31.337  25.243  23.020  1.00  0.00    -0.034 A 
ATOM     12  C   UNL A   1      30.577  24.095  23.290  1.00  0.00     0.005 A 
ATOM     13  C   UNL A   1      32.701  25.054  22.739  1.00  0.00     0.005 A 
ATOM     14  C   UNL A   1      31.171  22.818  23.312  1.00  0.00     0.004 A 
ATOM     15  C   UNL A   1      33.294  23.789  22.777  1.00  0.00     0.004 A 
ATOM     16  C   UNL A   1      32.539  22.653  23.076  1.00  0.00    -0.048 A 
BRANCH  16  17
ATOM     17  C   UNL A   1      33.208  21.297  23.083  1.00  0.00     0.041 C 
BRANCH  17  18
ATOM     18  C   UNL A   1      32.605  20.197  23.974  1.00  0.00     0.022 C 
ATOM     19  C   UNL A   1      32.521  18.793  23.353  1.00  0.00     0.007 C 
ATOM     20  C   UNL A   1      33.294  19.992  25.326  1.00  0.00     0.117 C 
ATOM     21  C   UNL A   1      32.841  17.809  24.481  1.00  0.00     0.003 C 
ATOM     22  C   UNL A   1      32.792  18.624  25.762  1.00  0.00     0.032 C 
BRANCH  20  23
ATOM     23  O   UNL A   1      32.913  20.973  26.275  1.00  0.00    -0.393 OA
ATOM     24  H   UNL A   1      33.442  21.775  26.140  1.00  0.00     0.210 HD
ENDBRANCH  20  23
ENDBRANCH  17  18
ENDBRANCH  16  17
ENDBRANCH   9  11
ENDBRANCH   7   9
ENDBRANCH   6   7
ENDBRANCH   5   6
ENDBRANCH   4   5
ENDBRANCH   3   4
ENDBRANCH   2   3
ENDBRANCH   1   2
BRANCH   1  25
ATOM     25  O   UNL A   1      35.142  23.078  26.047  1.00  0.00    -0.377 OA
BRANCH  25  26
ATOM     26  C   UNL A   1      36.309  22.910  25.256  1.00  0.00     0.188 C 
BRANCH  26  27
ATOM     27  C   UNL A   1      36.594  21.558  24.573  1.00  0.00     0.188 C 
BRANCH  27  28
ATOM     28  O   UNL A   1      37.922  21.081  24.732  1.00  0.00    -0.376 OA
BRANCH  28  29
ATOM     29  C   UNL A   1      38.130  19.693  24.942  1.00  0.00     0.202 C 
BRANCH  29  30
ATOM     30  C   UNL A   1      39.269  19.280  25.890  1.00  0.00     0.261 C 
BRANCH  30  31
ATOM     31  O   UNL A   1      40.604  19.590  25.456  1.00  0.00    -0.460 OA
BRANCH  31  32
ATOM     32  C   UNL A   1      41.575  19.648  26.390  1.00  0.00     0.338 C 
ATOM     33  O   UNL A   1      42.269  18.729  26.793  1.00  0.00    -0.246 OA
BRANCH  32  34
ATOM     34  C   UNL A   1      41.802  21.070  26.719  1.00  0.00     0.060 A 
ATOM     35  C   UNL A   1      41.700  22.026  25.699  1.00  0.00     0.016 A 
ATOM     36  C   UNL A   1      42.116  21.459  28.024  1.00  0.00     0.016 A 
ATOM     37  C   UNL A   1      41.953  23.370  25.973  1.00  0.00     0.010 A 
ATOM     38  C   UNL A   1      42.389  22.804  28.291  1.00  0.00     0.010 A 
ATOM     39  C   UNL A   1      42.345  23.759  27.260  1.00  0.00    -0.014 A 
BRANCH  39  40
ATOM     40  C   UNL A   1      42.911  25.114  27.477  1.00  0.00     0.031 A 
ATOM     41  C   UNL A   1      42.039  26.152  28.131  1.00  0.00     0.074 A 
ATOM     42  C   UNL A   1      44.173  25.415  27.128  1.00  0.00     0.049 A 
ATOM     43  N   UNL A   1      42.282  27.416  28.371  1.00  0.00    -0.248 NA
ATOM     44  C   UNL A   1      40.708  25.701  28.568  1.00  0.00     0.031 C 
ATOM     45  C   UNL A   1      45.130  24.487  26.533  1.00  0.00     0.029 A 
ATOM     46  N   UNL A   1      44.861  26.601  27.217  1.00  0.00    -0.354 N 
ATOM     47  C   UNL A   1      41.136  27.908  28.981  1.00  0.00     0.074 A 
ATOM     48  C   UNL A   1      40.183  26.821  29.040  1.00  0.00     0.031 C 
ATOM     49  C   UNL A   1      46.280  25.142  26.294  1.00  0.00     0.029 A 
ATOM     50  C   UNL A   1      46.126  26.544  26.684  1.00  0.00     0.049 A 
ATOM     51  H   UNL A   1      44.484  27.414  27.625  1.00  0.00     0.167 HD
ATOM     52  C   UNL A   1      40.902  29.154  29.459  1.00  0.00     0.037 A 
ATOM     53  C   UNL A   1      47.038  27.518  26.508  1.00  0.00     0.037 A 
ATOM     54  C   UNL A   1      41.849  30.235  29.393  1.00  0.00     0.049 A 
ATOM     55  C   UNL A   1      46.723  28.921  26.969  1.00  0.00     0.074 A 
ATOM     56  C   UNL A   1      41.711  31.532  29.854  1.00  0.00     0.029 A 
ATOM     57  N   UNL A   1      43.107  30.148  28.816  1.00  0.00    -0.354 N 
ATOM     58  N   UNL A   1      45.646  29.377  27.564  1.00  0.00    -0.248 NA
ATOM     59  C   UNL A   1      47.754  29.943  26.739  1.00  0.00     0.031 C 
ATOM     60  C   UNL A   1      42.861  32.246  29.501  1.00  0.00     0.029 A 
ATOM     61  C   UNL A   1      43.745  31.376  28.883  1.00  0.00     0.049 A 
ATOM     62  H   UNL A   1      43.490  29.333  28.417  1.00  0.00     0.167 HD
ATOM     63  C   UNL A   1      45.882  30.726  27.806  1.00  0.00     0.074 A 
ATOM     64  C   UNL A   1      47.211  31.010  27.307  1.00  0.00     0.031 C 
ATOM     65  C   UNL A   1      45.073  31.644  28.390  1.00  0.00     0.037 A 
BRANCH  52  66
ATOM     66  C   UNL A   1      39.554  29.421  30.066  1.00  0.00     0.064 A 
ATOM     67  C   UNL A   1      39.311  29.247  31.438  1.00  0.00     0.173 A 
ATOM     68  C   UNL A   1      38.494  29.878  29.267  1.00  0.00     0.173 A 
ATOM     69  F   UNL A   1      40.284  28.796  32.244  1.00  0.00    -0.203 F 
ATOM     70  C   UNL A   1      38.052  29.491  31.979  1.00  0.00     0.198 A 
ATOM     71  C   UNL A   1      37.247  30.156  29.819  1.00  0.00     0.198 A 
ATOM     72  F   UNL A   1      38.671  30.065  27.951  1.00  0.00    -0.203 F 
ATOM     73  F   UNL A   1      37.828  29.264  33.281  1.00  0.00    -0.200 F 
ATOM     74  C   UNL A   1      37.023  29.954  31.172  1.00  0.00     0.200 A 
ATOM     75  F   UNL A   1      36.259  30.617  29.039  1.00  0.00    -0.200 F 
ATOM     76  F   UNL A   1      35.815  30.195  31.697  1.00  0.00    -0.200 F 
ENDBRANCH  52  66
BRANCH  53  77
ATOM     77  C   UNL A   1      48.336  27.214  25.845  1.00  0.00     0.064 A 
ATOM     78  C   UNL A   1      48.480  27.303  24.454  1.00  0.00     0.173 A 
ATOM     79  C   UNL A   1      49.452  26.800  26.589  1.00  0.00     0.173 A 
ATOM     80  F   UNL A   1      47.437  27.666  23.694  1.00  0.00    -0.203 F 
ATOM     81  C   UNL A   1      49.682  26.970  23.831  1.00  0.00     0.198 A 
ATOM     82  C   UNL A   1      50.663  26.501  25.969  1.00  0.00     0.198 A 
ATOM     83  F   UNL A   1      49.368  26.694  27.924  1.00  0.00    -0.203 F 
ATOM     84  F   UNL A   1      49.775  27.012  22.495  1.00  0.00    -0.200 F 
ATOM     85  C   UNL A   1      50.774  26.576  24.589  1.00  0.00     0.200 A 
ATOM     86  F   UNL A   1      51.719  26.133  26.706  1.00  0.00    -0.200 F 
ATOM     87  F   UNL A   1      51.930  26.260  23.990  1.00  0.00    -0.200 F 
ENDBRANCH  53  77
BRANCH  65  88
ATOM     88  C   UNL A   1      45.615  33.035  28.569  1.00  0.00     0.064 A 
ATOM     89  C   UNL A   1      45.412  34.041  27.612  1.00  0.00     0.173 A 
ATOM     90  C   UNL A   1      46.310  33.379  29.741  1.00  0.00     0.173 A 
ATOM     91  F   UNL A   1      44.765  33.764  26.470  1.00  0.00    -0.203 F 
ATOM     92  C   UNL A   1      45.910  35.327  27.807  1.00  0.00     0.198 A 
ATOM     93  C   UNL A   1      46.774  34.675  29.948  1.00  0.00     0.198 A 
ATOM     94  F   UNL A   1      46.524  32.459  30.694  1.00  0.00    -0.203 F 
ATOM     95  F   UNL A   1      45.750  36.256  26.854  1.00  0.00    -0.200 F 
ATOM     96  C   UNL A   1      46.583  35.645  28.978  1.00  0.00     0.200 A 
ATOM     97  F   UNL A   1      47.406  34.984  31.089  1.00  0.00    -0.200 F 
ATOM     98  F   UNL A   1      47.051  36.886  29.168  1.00  0.00    -0.200 F 
ENDBRANCH  65  88
ENDBRANCH  39  40
ENDBRANCH  32  34
ENDBRANCH  31  32
ENDBRANCH  30  31
ENDBRANCH  29  30
ENDBRANCH  28  29
ENDBRANCH  27  28
ENDBRANCH  26  27
ENDBRANCH  25  26
ENDBRANCH   1  25
TORSDOF 24
ENDMDL
