MODEL 1
REMARK VINA RESULT:      -9.1      0.000      0.000
REMARK SMILES C[N@H+](CC(=O)OCCOCCOCCOCCOC(=O)c1ccc(-c2c3nc(c(-c4c(F)c(F)c(F)c(F)c4F)c4ccc([nH]4)c(-c4c(F)c(F)c(F)c(F)c4F)c4nc(c(-c5c(F)c(F)c(F)c(F)c5F)c5ccc2[nH]5)C=C4)C=C3)cc1)Cc1csc(-c2ccco2)n1
REMARK SMILES IDX 11 1 10 2 9 3 8 4 7 5 6 6 4 7 5 8 3 9 2 10 1 11 84 13 85 14
REMARK SMILES IDX 86 15 94 16 87 17 88 18 89 19 90 20 93 21 91 22 92 23 12 24
REMARK SMILES IDX 13 25 14 26 15 27 16 28 17 29 18 30 19 31 20 32 21 33 22 34
REMARK SMILES IDX 83 35 23 36 82 37 24 38 25 39 26 40 76 41 27 42 81 43 75 44
REMARK SMILES IDX 77 45 28 46 80 47 74 48 73 49 29 51 61 52 41 53 60 54 42 55
REMARK SMILES IDX 45 56 59 57 78 58 43 59 44 60 58 62 79 63 46 64 30 65 31 66
REMARK SMILES IDX 39 67 32 68 33 69 37 70 40 71 34 72 35 73 38 74 36 75 62 76
REMARK SMILES IDX 63 77 71 78 64 79 65 80 69 81 72 82 66 83 67 84 70 85 68 86
REMARK SMILES IDX 47 87 48 88 56 89 49 90 50 91 54 92 57 93 51 94 52 95 55 96
REMARK SMILES IDX 53 97
REMARK H PARENT 2 12 77 50 45 61
REMARK Flexibility Score: inf
ROOT
ATOM      1  C   UNL A   1      35.230  31.068  27.782  1.00  0.00     0.188 C 
ENDROOT
BRANCH   1   2
ATOM      2  C   UNL A   1      34.567  29.939  26.984  1.00  0.00     0.188 C 
BRANCH   2   3
ATOM      3  O   UNL A   1      33.627  29.092  27.627  1.00  0.00    -0.376 OA
BRANCH   3   4
ATOM      4  C   UNL A   1      32.298  29.105  27.127  1.00  0.00     0.202 C 
BRANCH   4   5
ATOM      5  C   UNL A   1      31.526  27.784  27.210  1.00  0.00     0.261 C 
BRANCH   5   6
ATOM      6  O   UNL A   1      30.974  27.377  25.940  1.00  0.00    -0.459 OA
BRANCH   6   7
ATOM      7  C   UNL A   1      31.054  26.048  25.657  1.00  0.00     0.361 C 
ATOM      8  O   UNL A   1      30.367  25.493  24.800  1.00  0.00    -0.245 OA
BRANCH   7   9
ATOM      9  C   UNL A   1      32.067  25.246  26.481  1.00  0.00     0.386 C 
BRANCH   9  10
ATOM     10  N   UNL A   1      33.034  24.424  25.726  1.00  0.00    -0.323 N 
ATOM     11  C   UNL A   1      34.255  25.159  25.390  1.00  0.00     0.333 C 
ATOM     12  H   UNL A   1      32.592  24.215  24.831  1.00  0.00     0.348 HD
BRANCH  10  13
ATOM     13  C   UNL A   1      33.276  23.108  26.334  1.00  0.00     0.320 C 
BRANCH  13  14
ATOM     14  C   UNL A   1      33.005  21.983  25.345  1.00  0.00     0.106 A 
ATOM     15  C   UNL A   1      32.129  22.083  24.279  1.00  0.00     0.097 A 
ATOM     16  N   UNL A   1      33.635  20.720  25.441  1.00  0.00    -0.232 NA
ATOM     17  S   UNL A   1      32.350  20.759  23.220  1.00  0.00    -0.119 S 
ATOM     18  C   UNL A   1      33.186  19.926  24.474  1.00  0.00     0.159 A 
BRANCH  18  19
ATOM     19  C   UNL A   1      33.140  18.476  24.528  1.00  0.00     0.162 A 
ATOM     20  C   UNL A   1      34.051  17.521  24.094  1.00  0.00     0.053 A 
ATOM     21  O   UNL A   1      32.163  17.812  25.249  1.00  0.00    -0.462 OA
ATOM     22  C   UNL A   1      33.689  16.278  24.688  1.00  0.00     0.043 A 
ATOM     23  C   UNL A   1      32.528  16.514  25.378  1.00  0.00     0.196 A 
ENDBRANCH  18  19
ENDBRANCH  13  14
ENDBRANCH  10  13
ENDBRANCH   9  10
ENDBRANCH   7   9
ENDBRANCH   6   7
ENDBRANCH   5   6
ENDBRANCH   4   5
ENDBRANCH   3   4
ENDBRANCH   2   3
ENDBRANCH   1   2
BRANCH   1  24
ATOM     24  O   UNL A   1      34.620  31.465  28.993  1.00  0.00    -0.377 OA
BRANCH  24  25
ATOM     25  C   UNL A   1      34.763  32.853  29.236  1.00  0.00     0.188 C 
BRANCH  25  26
ATOM     26  C   UNL A   1      33.808  33.699  28.390  1.00  0.00     0.188 C 
BRANCH  26  27
ATOM     27  O   UNL A   1      34.403  34.807  27.720  1.00  0.00    -0.376 OA
BRANCH  27  28
ATOM     28  C   UNL A   1      34.161  36.069  28.376  1.00  0.00     0.202 C 
BRANCH  28  29
ATOM     29  C   UNL A   1      32.978  36.058  29.364  1.00  0.00     0.261 C 
BRANCH  29  30
ATOM     30  O   UNL A   1      33.363  36.359  30.714  1.00  0.00    -0.460 OA
BRANCH  30  31
ATOM     31  C   UNL A   1      32.808  35.593  31.680  1.00  0.00     0.338 C 
ATOM     32  O   UNL A   1      31.628  35.335  31.848  1.00  0.00    -0.246 OA
BRANCH  31  33
ATOM     33  C   UNL A   1      33.924  34.868  32.305  1.00  0.00     0.060 A 
ATOM     34  C   UNL A   1      35.205  35.439  32.242  1.00  0.00     0.016 A 
ATOM     35  C   UNL A   1      33.686  33.704  33.038  1.00  0.00     0.016 A 
ATOM     36  C   UNL A   1      36.257  34.856  32.931  1.00  0.00     0.010 A 
ATOM     37  C   UNL A   1      34.752  33.082  33.674  1.00  0.00     0.010 A 
ATOM     38  C   UNL A   1      36.038  33.643  33.592  1.00  0.00    -0.014 A 
BRANCH  38  39
ATOM     39  C   UNL A   1      37.189  32.782  33.907  1.00  0.00     0.031 A 
ATOM     40  C   UNL A   1      37.913  33.083  35.185  1.00  0.00     0.074 A 
ATOM     41  C   UNL A   1      37.592  31.823  33.064  1.00  0.00     0.049 A 
ATOM     42  N   UNL A   1      39.046  32.616  35.630  1.00  0.00    -0.248 NA
ATOM     43  C   UNL A   1      37.272  34.064  36.080  1.00  0.00     0.031 C 
ATOM     44  C   UNL A   1      36.906  31.431  31.835  1.00  0.00     0.029 A 
ATOM     45  N   UNL A   1      38.702  31.024  33.108  1.00  0.00    -0.354 N 
ATOM     46  C   UNL A   1      39.255  33.252  36.846  1.00  0.00     0.074 A 
ATOM     47  C   UNL A   1      38.151  34.155  37.062  1.00  0.00     0.031 C 
ATOM     48  C   UNL A   1      37.634  30.484  31.219  1.00  0.00     0.029 A 
ATOM     49  C   UNL A   1      38.853  30.244  31.990  1.00  0.00     0.049 A 
ATOM     50  H   UNL A   1      39.329  31.010  33.867  1.00  0.00     0.167 HD
ATOM     51  C   UNL A   1      40.288  33.093  37.702  1.00  0.00     0.037 A 
ATOM     52  C   UNL A   1      39.890  29.467  31.627  1.00  0.00     0.037 A 
ATOM     53  C   UNL A   1      41.391  32.213  37.442  1.00  0.00     0.049 A 
ATOM     54  C   UNL A   1      41.087  29.393  32.543  1.00  0.00     0.074 A 
ATOM     55  C   UNL A   1      42.497  31.957  38.227  1.00  0.00     0.029 A 
ATOM     56  N   UNL A   1      41.530  31.461  36.282  1.00  0.00    -0.354 N 
ATOM     57  N   UNL A   1      41.278  29.969  33.707  1.00  0.00    -0.248 NA
ATOM     58  C   UNL A   1      42.217  28.571  32.090  1.00  0.00     0.031 C 
ATOM     59  C   UNL A   1      43.338  31.096  37.515  1.00  0.00     0.029 A 
ATOM     60  C   UNL A   1      42.727  30.768  36.312  1.00  0.00     0.049 A 
ATOM     61  H   UNL A   1      40.875  31.425  35.549  1.00  0.00     0.167 HD
ATOM     62  C   UNL A   1      42.536  29.567  34.135  1.00  0.00     0.074 A 
ATOM     63  C   UNL A   1      43.055  28.682  33.111  1.00  0.00     0.031 C 
ATOM     64  C   UNL A   1      43.208  29.898  35.266  1.00  0.00     0.037 A 
BRANCH  51  65
ATOM     65  C   UNL A   1      40.281  33.925  38.951  1.00  0.00     0.064 A 
ATOM     66  C   UNL A   1      39.631  33.501  40.121  1.00  0.00     0.173 A 
ATOM     67  C   UNL A   1      40.917  35.176  38.971  1.00  0.00     0.173 A 
ATOM     68  F   UNL A   1      38.982  32.327  40.146  1.00  0.00    -0.203 F 
ATOM     69  C   UNL A   1      39.591  34.311  41.253  1.00  0.00     0.198 A 
ATOM     70  C   UNL A   1      40.904  35.968  40.117  1.00  0.00     0.198 A 
ATOM     71  F   UNL A   1      41.543  35.634  37.878  1.00  0.00    -0.203 F 
ATOM     72  F   UNL A   1      38.910  33.913  42.336  1.00  0.00    -0.200 F 
ATOM     73  C   UNL A   1      40.234  35.540  41.252  1.00  0.00     0.200 A 
ATOM     74  F   UNL A   1      41.531  37.152  40.116  1.00  0.00    -0.200 F 
ATOM     75  F   UNL A   1      40.196  36.318  42.343  1.00  0.00    -0.200 F 
ENDBRANCH  51  65
BRANCH  52  76
ATOM     76  C   UNL A   1      39.854  28.731  30.337  1.00  0.00     0.064 A 
ATOM     77  C   UNL A   1      39.312  27.440  30.262  1.00  0.00     0.173 A 
ATOM     78  C   UNL A   1      40.350  29.298  29.153  1.00  0.00     0.173 A 
ATOM     79  F   UNL A   1      38.846  26.845  31.369  1.00  0.00    -0.203 F 
ATOM     80  C   UNL A   1      39.278  26.742  29.057  1.00  0.00     0.198 A 
ATOM     81  C   UNL A   1      40.289  28.610  27.943  1.00  0.00     0.198 A 
ATOM     82  F   UNL A   1      40.883  30.528  29.168  1.00  0.00    -0.203 F 
ATOM     83  F   UNL A   1      38.791  25.493  29.022  1.00  0.00    -0.200 F 
ATOM     84  C   UNL A   1      39.759  27.330  27.897  1.00  0.00     0.200 A 
ATOM     85  F   UNL A   1      40.744  29.187  26.822  1.00  0.00    -0.200 F 
ATOM     86  F   UNL A   1      39.719  26.660  26.736  1.00  0.00    -0.200 F 
ENDBRANCH  52  76
BRANCH  64  87
ATOM     87  C   UNL A   1      44.567  29.293  35.461  1.00  0.00     0.064 A 
ATOM     88  C   UNL A   1      44.730  28.045  36.080  1.00  0.00     0.173 A 
ATOM     89  C   UNL A   1      45.709  29.932  34.955  1.00  0.00     0.173 A 
ATOM     90  F   UNL A   1      43.669  27.401  36.592  1.00  0.00    -0.203 F 
ATOM     91  C   UNL A   1      45.989  27.468  36.201  1.00  0.00     0.198 A 
ATOM     92  C   UNL A   1      46.961  29.336  35.046  1.00  0.00     0.198 A 
ATOM     93  F   UNL A   1      45.603  31.122  34.344  1.00  0.00    -0.203 F 
ATOM     94  F   UNL A   1      46.129  26.295  36.832  1.00  0.00    -0.200 F 
ATOM     95  C   UNL A   1      47.102  28.107  35.675  1.00  0.00     0.200 A 
ATOM     96  F   UNL A   1      48.032  29.946  34.518  1.00  0.00    -0.200 F 
ATOM     97  F   UNL A   1      48.312  27.541  35.774  1.00  0.00    -0.200 F 
ENDBRANCH  64  87
ENDBRANCH  38  39
ENDBRANCH  31  33
ENDBRANCH  30  31
ENDBRANCH  29  30
ENDBRANCH  28  29
ENDBRANCH  27  28
ENDBRANCH  26  27
ENDBRANCH  25  26
ENDBRANCH  24  25
ENDBRANCH   1  24
TORSDOF 24
ENDMDL
MODEL 2
REMARK VINA RESULT:      -9.1      5.264      7.645
REMARK SMILES C[N@H+](CC(=O)OCCOCCOCCOCCOC(=O)c1ccc(-c2c3nc(c(-c4c(F)c(F)c(F)c(F)c4F)c4ccc([nH]4)c(-c4c(F)c(F)c(F)c(F)c4F)c4nc(c(-c5c(F)c(F)c(F)c(F)c5F)c5ccc2[nH]5)C=C4)C=C3)cc1)Cc1csc(-c2ccco2)n1
REMARK SMILES IDX 11 1 10 2 9 3 8 4 7 5 6 6 4 7 5 8 3 9 2 10 1 11 84 13 85 14
REMARK SMILES IDX 86 15 94 16 87 17 88 18 89 19 90 20 93 21 91 22 92 23 12 24
REMARK SMILES IDX 13 25 14 26 15 27 16 28 17 29 18 30 19 31 20 32 21 33 22 34
REMARK SMILES IDX 83 35 23 36 82 37 24 38 25 39 26 40 76 41 27 42 81 43 75 44
REMARK SMILES IDX 77 45 28 46 80 47 74 48 73 49 29 51 61 52 41 53 60 54 42 55
REMARK SMILES IDX 45 56 59 57 78 58 43 59 44 60 58 62 79 63 46 64 30 65 31 66
REMARK SMILES IDX 39 67 32 68 33 69 37 70 40 71 34 72 35 73 38 74 36 75 62 76
REMARK SMILES IDX 63 77 71 78 64 79 65 80 69 81 72 82 66 83 67 84 70 85 68 86
REMARK SMILES IDX 47 87 48 88 56 89 49 90 50 91 54 92 57 93 51 94 52 95 55 96
REMARK SMILES IDX 53 97
REMARK H PARENT 2 12 77 50 45 61
REMARK Flexibility Score: inf
ROOT
ATOM      1  C   UNL A   1      35.123  29.323  27.369  1.00  0.00     0.188 C 
ENDROOT
BRANCH   1   2
ATOM      2  C   UNL A   1      33.974  28.793  26.502  1.00  0.00     0.188 C 
BRANCH   2   3
ATOM      3  O   UNL A   1      32.697  29.404  26.593  1.00  0.00    -0.376 OA
BRANCH   3   4
ATOM      4  C   UNL A   1      31.999  29.627  25.376  1.00  0.00     0.202 C 
BRANCH   4   5
ATOM      5  C   UNL A   1      31.338  28.404  24.734  1.00  0.00     0.261 C 
BRANCH   5   6
ATOM      6  O   UNL A   1      32.100  27.867  23.632  1.00  0.00    -0.459 OA
BRANCH   6   7
ATOM      7  C   UNL A   1      32.587  26.608  23.803  1.00  0.00     0.361 C 
ATOM      8  O   UNL A   1      33.786  26.348  23.882  1.00  0.00    -0.245 OA
BRANCH   7   9
ATOM      9  C   UNL A   1      31.540  25.491  23.890  1.00  0.00     0.386 C 
BRANCH   9  10
ATOM     10  N   UNL A   1      31.767  24.448  24.910  1.00  0.00    -0.323 N 
ATOM     11  C   UNL A   1      31.440  24.903  26.263  1.00  0.00     0.333 C 
ATOM     12  H   UNL A   1      32.773  24.275  24.921  1.00  0.00     0.348 HD
BRANCH  10  13
ATOM     13  C   UNL A   1      31.175  23.151  24.556  1.00  0.00     0.320 C 
BRANCH  13  14
ATOM     14  C   UNL A   1      32.193  22.026  24.672  1.00  0.00     0.106 A 
ATOM     15  C   UNL A   1      33.547  22.178  24.431  1.00  0.00     0.097 A 
ATOM     16  N   UNL A   1      31.830  20.708  25.039  1.00  0.00    -0.232 NA
ATOM     17  S   UNL A   1      34.395  20.802  24.988  1.00  0.00    -0.119 S 
ATOM     18  C   UNL A   1      32.909  19.931  25.026  1.00  0.00     0.159 A 
BRANCH  18  19
ATOM     19  C   UNL A   1      32.912  18.497  24.803  1.00  0.00     0.162 A 
ATOM     20  C   UNL A   1      33.709  17.706  23.986  1.00  0.00     0.053 A 
ATOM     21  O   UNL A   1      32.159  17.644  25.591  1.00  0.00    -0.462 OA
ATOM     22  C   UNL A   1      33.535  16.352  24.393  1.00  0.00     0.043 A 
ATOM     23  C   UNL A   1      32.575  16.373  25.372  1.00  0.00     0.196 A 
ENDBRANCH  18  19
ENDBRANCH  13  14
ENDBRANCH  10  13
ENDBRANCH   9  10
ENDBRANCH   7   9
ENDBRANCH   6   7
ENDBRANCH   5   6
ENDBRANCH   4   5
ENDBRANCH   3   4
ENDBRANCH   2   3
ENDBRANCH   1   2
BRANCH   1  24
ATOM     24  O   UNL A   1      34.820  30.305  28.337  1.00  0.00    -0.377 OA
BRANCH  24  25
ATOM     25  C   UNL A   1      35.037  31.619  27.856  1.00  0.00     0.188 C 
BRANCH  25  26
ATOM     26  C   UNL A   1      33.934  32.591  28.284  1.00  0.00     0.188 C 
BRANCH  26  27
ATOM     27  O   UNL A   1      34.162  33.958  27.954  1.00  0.00    -0.376 OA
BRANCH  27  28
ATOM     28  C   UNL A   1      34.559  34.760  29.085  1.00  0.00     0.202 C 
BRANCH  28  29
ATOM     29  C   UNL A   1      34.418  34.057  30.449  1.00  0.00     0.261 C 
BRANCH  29  30
ATOM     30  O   UNL A   1      35.678  33.709  31.042  1.00  0.00    -0.460 OA
BRANCH  30  31
ATOM     31  C   UNL A   1      35.801  32.439  31.489  1.00  0.00     0.338 C 
ATOM     32  O   UNL A   1      34.920  31.695  31.886  1.00  0.00    -0.246 OA
BRANCH  31  33
ATOM     33  C   UNL A   1      37.154  32.010  31.107  1.00  0.00     0.060 A 
ATOM     34  C   UNL A   1      37.633  32.374  29.839  1.00  0.00     0.016 A 
ATOM     35  C   UNL A   1      37.974  31.359  32.031  1.00  0.00     0.016 A 
ATOM     36  C   UNL A   1      38.948  32.106  29.492  1.00  0.00     0.010 A 
ATOM     37  C   UNL A   1      39.271  31.030  31.660  1.00  0.00     0.010 A 
ATOM     38  C   UNL A   1      39.743  31.377  30.382  1.00  0.00    -0.014 A 
BRANCH  38  39
ATOM     39  C   UNL A   1      40.932  30.678  29.872  1.00  0.00     0.031 A 
ATOM     40  C   UNL A   1      42.168  31.510  29.702  1.00  0.00     0.074 A 
ATOM     41  C   UNL A   1      40.886  29.385  29.528  1.00  0.00     0.049 A 
ATOM     42  N   UNL A   1      43.297  31.215  29.118  1.00  0.00    -0.248 NA
ATOM     43  C   UNL A   1      42.115  32.874  30.258  1.00  0.00     0.031 C 
ATOM     44  C   UNL A   1      39.742  28.497  29.719  1.00  0.00     0.029 A 
ATOM     45  N   UNL A   1      41.828  28.605  28.914  1.00  0.00    -0.354 N 
ATOM     46  C   UNL A   1      44.078  32.358  29.229  1.00  0.00     0.074 A 
ATOM     47  C   UNL A   1      43.294  33.359  29.910  1.00  0.00     0.031 C 
ATOM     48  C   UNL A   1      40.038  27.294  29.197  1.00  0.00     0.029 A 
ATOM     49  C   UNL A   1      41.371  27.351  28.598  1.00  0.00     0.049 A 
ATOM     50  H   UNL A   1      42.743  28.913  28.719  1.00  0.00     0.167 HD
ATOM     51  C   UNL A   1      45.342  32.547  28.791  1.00  0.00     0.037 A 
ATOM     52  C   UNL A   1      41.961  26.389  27.864  1.00  0.00     0.037 A 
ATOM     53  C   UNL A   1      46.083  31.543  28.083  1.00  0.00     0.049 A 
ATOM     54  C   UNL A   1      43.327  26.663  27.285  1.00  0.00     0.074 A 
ATOM     55  C   UNL A   1      47.371  31.605  27.590  1.00  0.00     0.029 A 
ATOM     56  N   UNL A   1      45.579  30.292  27.750  1.00  0.00    -0.354 N 
ATOM     57  N   UNL A   1      44.082  27.730  27.410  1.00  0.00    -0.248 NA
ATOM     58  C   UNL A   1      43.917  25.607  26.453  1.00  0.00     0.031 C 
ATOM     59  C   UNL A   1      47.624  30.414  26.902  1.00  0.00     0.029 A 
ATOM     60  C   UNL A   1      46.517  29.586  27.020  1.00  0.00     0.049 A 
ATOM     61  H   UNL A   1      44.687  29.958  27.997  1.00  0.00     0.167 HD
ATOM     62  C   UNL A   1      45.241  27.469  26.692  1.00  0.00     0.074 A 
ATOM     63  C   UNL A   1      45.095  26.132  26.148  1.00  0.00     0.031 C 
ATOM     64  C   UNL A   1      46.328  28.256  26.493  1.00  0.00     0.037 A 
BRANCH  51  65
ATOM     65  C   UNL A   1      45.956  33.896  29.024  1.00  0.00     0.064 A 
ATOM     66  C   UNL A   1      46.687  34.188  30.187  1.00  0.00     0.173 A 
ATOM     67  C   UNL A   1      45.793  34.920  28.079  1.00  0.00     0.173 A 
ATOM     68  F   UNL A   1      46.847  33.254  31.136  1.00  0.00    -0.203 F 
ATOM     69  C   UNL A   1      47.204  35.462  30.408  1.00  0.00     0.198 A 
ATOM     70  C   UNL A   1      46.341  36.183  28.288  1.00  0.00     0.198 A 
ATOM     71  F   UNL A   1      45.095  34.700  26.956  1.00  0.00    -0.203 F 
ATOM     72  F   UNL A   1      47.842  35.734  31.555  1.00  0.00    -0.200 F 
ATOM     73  C   UNL A   1      47.037  36.456  29.456  1.00  0.00     0.200 A 
ATOM     74  F   UNL A   1      46.184  37.140  27.364  1.00  0.00    -0.200 F 
ATOM     75  F   UNL A   1      47.536  37.681  29.669  1.00  0.00    -0.200 F 
ENDBRANCH  51  65
BRANCH  52  76
ATOM     76  C   UNL A   1      41.256  25.104  27.615  1.00  0.00     0.064 A 
ATOM     77  C   UNL A   1      40.168  25.041  26.734  1.00  0.00     0.173 A 
ATOM     78  C   UNL A   1      41.656  23.914  28.242  1.00  0.00     0.173 A 
ATOM     79  F   UNL A   1      39.733  26.154  26.127  1.00  0.00    -0.203 F 
ATOM     80  C   UNL A   1      39.501  23.841  26.499  1.00  0.00     0.198 A 
ATOM     81  C   UNL A   1      41.006  22.709  27.984  1.00  0.00     0.198 A 
ATOM     82  F   UNL A   1      42.689  23.919  29.098  1.00  0.00    -0.203 F 
ATOM     83  F   UNL A   1      38.438  23.817  25.682  1.00  0.00    -0.200 F 
ATOM     84  C   UNL A   1      39.924  22.674  27.117  1.00  0.00     0.200 A 
ATOM     85  F   UNL A   1      41.427  21.582  28.575  1.00  0.00    -0.200 F 
ATOM     86  F   UNL A   1      39.286  21.519  26.884  1.00  0.00    -0.200 F 
ENDBRANCH  52  76
BRANCH  64  87
ATOM     87  C   UNL A   1      47.445  27.690  25.666  1.00  0.00     0.064 A 
ATOM     88  C   UNL A   1      47.447  27.800  24.268  1.00  0.00     0.173 A 
ATOM     89  C   UNL A   1      48.558  27.100  26.283  1.00  0.00     0.173 A 
ATOM     90  F   UNL A   1      46.399  28.344  23.631  1.00  0.00    -0.203 F 
ATOM     91  C   UNL A   1      48.517  27.324  23.517  1.00  0.00     0.198 A 
ATOM     92  C   UNL A   1      49.640  26.657  25.532  1.00  0.00     0.198 A 
ATOM     93  F   UNL A   1      48.607  26.983  27.620  1.00  0.00    -0.203 F 
ATOM     94  F   UNL A   1      48.482  27.402  22.180  1.00  0.00    -0.200 F 
ATOM     95  C   UNL A   1      49.617  26.764  24.150  1.00  0.00     0.200 A 
ATOM     96  F   UNL A   1      50.712  26.136  26.147  1.00  0.00    -0.200 F 
ATOM     97  F   UNL A   1      50.655  26.324  23.426  1.00  0.00    -0.200 F 
ENDBRANCH  64  87
ENDBRANCH  38  39
ENDBRANCH  31  33
ENDBRANCH  30  31
ENDBRANCH  29  30
ENDBRANCH  28  29
ENDBRANCH  27  28
ENDBRANCH  26  27
ENDBRANCH  25  26
ENDBRANCH  24  25
ENDBRANCH   1  24
TORSDOF 24
ENDMDL
MODEL 3
REMARK VINA RESULT:      -9.0      0.688      2.043
REMARK SMILES C[N@H+](CC(=O)OCCOCCOCCOCCOC(=O)c1ccc(-c2c3nc(c(-c4c(F)c(F)c(F)c(F)c4F)c4ccc([nH]4)c(-c4c(F)c(F)c(F)c(F)c4F)c4nc(c(-c5c(F)c(F)c(F)c(F)c5F)c5ccc2[nH]5)C=C4)C=C3)cc1)Cc1csc(-c2ccco2)n1
REMARK SMILES IDX 11 1 10 2 9 3 8 4 7 5 6 6 4 7 5 8 3 9 2 10 1 11 84 13 85 14
REMARK SMILES IDX 86 15 94 16 87 17 88 18 89 19 90 20 93 21 91 22 92 23 12 24
REMARK SMILES IDX 13 25 14 26 15 27 16 28 17 29 18 30 19 31 20 32 21 33 22 34
REMARK SMILES IDX 83 35 23 36 82 37 24 38 25 39 26 40 76 41 27 42 81 43 75 44
REMARK SMILES IDX 77 45 28 46 80 47 74 48 73 49 29 51 61 52 41 53 60 54 42 55
REMARK SMILES IDX 45 56 59 57 78 58 43 59 44 60 58 62 79 63 46 64 30 65 31 66
REMARK SMILES IDX 39 67 32 68 33 69 37 70 40 71 34 72 35 73 38 74 36 75 62 76
REMARK SMILES IDX 63 77 71 78 64 79 65 80 69 81 72 82 66 83 67 84 70 85 68 86
REMARK SMILES IDX 47 87 48 88 56 89 49 90 50 91 54 92 57 93 51 94 52 95 55 96
REMARK SMILES IDX 53 97
REMARK H PARENT 2 12 77 50 45 61
REMARK Flexibility Score: inf
ROOT
ATOM      1  C   UNL A   1      35.133  31.067  27.729  1.00  0.00     0.188 C 
ENDROOT
BRANCH   1   2
ATOM      2  C   UNL A   1      34.446  29.937  26.952  1.00  0.00     0.188 C 
BRANCH   2   3
ATOM      3  O   UNL A   1      33.590  29.040  27.641  1.00  0.00    -0.376 OA
BRANCH   3   4
ATOM      4  C   UNL A   1      32.233  28.992  27.224  1.00  0.00     0.202 C 
BRANCH   4   5
ATOM      5  C   UNL A   1      31.629  27.597  27.030  1.00  0.00     0.261 C 
BRANCH   5   6
ATOM      6  O   UNL A   1      31.039  27.419  25.724  1.00  0.00    -0.459 OA
BRANCH   6   7
ATOM      7  C   UNL A   1      31.637  26.496  24.923  1.00  0.00     0.361 C 
ATOM      8  O   UNL A   1      32.708  26.688  24.348  1.00  0.00    -0.245 OA
BRANCH   7   9
ATOM      9  C   UNL A   1      30.893  25.166  24.759  1.00  0.00     0.386 C 
BRANCH   9  10
ATOM     10  N   UNL A   1      31.553  23.965  25.306  1.00  0.00    -0.323 N 
ATOM     11  C   UNL A   1      31.389  23.842  26.755  1.00  0.00     0.333 C 
ATOM     12  H   UNL A   1      32.554  24.099  25.160  1.00  0.00     0.348 HD
BRANCH  10  13
ATOM     13  C   UNL A   1      31.235  22.738  24.562  1.00  0.00     0.320 C 
BRANCH  13  14
ATOM     14  C   UNL A   1      32.389  21.747  24.605  1.00  0.00     0.106 A 
ATOM     15  C   UNL A   1      33.698  22.068  24.291  1.00  0.00     0.097 A 
ATOM     16  N   UNL A   1      32.214  20.392  24.973  1.00  0.00    -0.232 NA
ATOM     17  S   UNL A   1      34.740  20.805  24.781  1.00  0.00    -0.119 S 
ATOM     18  C   UNL A   1      33.377  19.755  24.889  1.00  0.00     0.159 A 
BRANCH  18  19
ATOM     19  C   UNL A   1      33.545  18.334  24.646  1.00  0.00     0.162 A 
ATOM     20  C   UNL A   1      34.690  17.576  24.441  1.00  0.00     0.053 A 
ATOM     21  O   UNL A   1      32.488  17.451  24.779  1.00  0.00    -0.462 OA
ATOM     22  C   UNL A   1      34.335  16.206  24.596  1.00  0.00     0.043 A 
ATOM     23  C   UNL A   1      32.979  16.189  24.796  1.00  0.00     0.196 A 
ENDBRANCH  18  19
ENDBRANCH  13  14
ENDBRANCH  10  13
ENDBRANCH   9  10
ENDBRANCH   7   9
ENDBRANCH   6   7
ENDBRANCH   5   6
ENDBRANCH   4   5
ENDBRANCH   3   4
ENDBRANCH   2   3
ENDBRANCH   1   2
BRANCH   1  24
ATOM     24  O   UNL A   1      34.536  31.494  28.937  1.00  0.00    -0.377 OA
BRANCH  24  25
ATOM     25  C   UNL A   1      34.755  32.871  29.185  1.00  0.00     0.188 C 
BRANCH  25  26
ATOM     26  C   UNL A   1      33.807  33.770  28.386  1.00  0.00     0.188 C 
BRANCH  26  27
ATOM     27  O   UNL A   1      34.420  34.885  27.744  1.00  0.00    -0.376 OA
BRANCH  27  28
ATOM     28  C   UNL A   1      34.252  36.123  28.467  1.00  0.00     0.202 C 
BRANCH  28  29
ATOM     29  C   UNL A   1      33.084  36.123  29.471  1.00  0.00     0.261 C 
BRANCH  29  30
ATOM     30  O   UNL A   1      33.493  36.408  30.818  1.00  0.00    -0.460 OA
BRANCH  30  31
ATOM     31  C   UNL A   1      32.941  35.644  31.786  1.00  0.00     0.338 C 
ATOM     32  O   UNL A   1      31.761  35.388  31.960  1.00  0.00    -0.246 OA
BRANCH  31  33
ATOM     33  C   UNL A   1      34.058  34.916  32.406  1.00  0.00     0.060 A 
ATOM     34  C   UNL A   1      35.333  35.500  32.368  1.00  0.00     0.016 A 
ATOM     35  C   UNL A   1      33.824  33.734  33.111  1.00  0.00     0.016 A 
ATOM     36  C   UNL A   1      36.384  34.913  33.055  1.00  0.00     0.010 A 
ATOM     37  C   UNL A   1      34.890  33.109  33.743  1.00  0.00     0.010 A 
ATOM     38  C   UNL A   1      36.171  33.684  33.687  1.00  0.00    -0.014 A 
BRANCH  38  39
ATOM     39  C   UNL A   1      37.327  32.828  33.994  1.00  0.00     0.031 A 
ATOM     40  C   UNL A   1      38.045  33.117  35.278  1.00  0.00     0.074 A 
ATOM     41  C   UNL A   1      37.741  31.883  33.140  1.00  0.00     0.049 A 
ATOM     42  N   UNL A   1      39.181  32.653  35.721  1.00  0.00    -0.248 NA
ATOM     43  C   UNL A   1      37.393  34.081  36.184  1.00  0.00     0.031 C 
ATOM     44  C   UNL A   1      37.062  31.503  31.903  1.00  0.00     0.029 A 
ATOM     45  N   UNL A   1      38.857  31.092  33.177  1.00  0.00    -0.354 N 
ATOM     46  C   UNL A   1      39.380  33.275  36.947  1.00  0.00     0.074 A 
ATOM     47  C   UNL A   1      38.268  34.166  37.170  1.00  0.00     0.031 C 
ATOM     48  C   UNL A   1      37.799  30.569  31.277  1.00  0.00     0.029 A 
ATOM     49  C   UNL A   1      39.018  30.328  32.049  1.00  0.00     0.049 A 
ATOM     50  H   UNL A   1      39.482  31.072  33.938  1.00  0.00     0.167 HD
ATOM     51  C   UNL A   1      40.411  33.112  37.804  1.00  0.00     0.037 A 
ATOM     52  C   UNL A   1      40.062  29.564  31.679  1.00  0.00     0.037 A 
ATOM     53  C   UNL A   1      41.523  32.244  37.535  1.00  0.00     0.049 A 
ATOM     54  C   UNL A   1      41.256  29.487  32.599  1.00  0.00     0.074 A 
ATOM     55  C   UNL A   1      42.628  31.986  38.321  1.00  0.00     0.029 A 
ATOM     56  N   UNL A   1      41.671  31.508  36.367  1.00  0.00    -0.354 N 
ATOM     57  N   UNL A   1      41.439  30.049  33.771  1.00  0.00    -0.248 NA
ATOM     58  C   UNL A   1      42.394  28.680  32.139  1.00  0.00     0.031 C 
ATOM     59  C   UNL A   1      43.478  31.141  37.600  1.00  0.00     0.029 A 
ATOM     60  C   UNL A   1      42.873  30.824  36.391  1.00  0.00     0.049 A 
ATOM     61  H   UNL A   1      41.018  31.477  35.631  1.00  0.00     0.167 HD
ATOM     62  C   UNL A   1      42.699  29.652  34.198  1.00  0.00     0.074 A 
ATOM     63  C   UNL A   1      43.228  28.784  33.164  1.00  0.00     0.031 C 
ATOM     64  C   UNL A   1      43.364  29.972  35.336  1.00  0.00     0.037 A 
BRANCH  51  65
ATOM     65  C   UNL A   1      40.394  33.927  39.063  1.00  0.00     0.064 A 
ATOM     66  C   UNL A   1      40.824  35.264  39.088  1.00  0.00     0.173 A 
ATOM     67  C   UNL A   1      39.961  33.356  40.270  1.00  0.00     0.173 A 
ATOM     68  F   UNL A   1      41.275  35.849  37.969  1.00  0.00    -0.203 F 
ATOM     69  C   UNL A   1      40.849  35.987  40.277  1.00  0.00     0.198 A 
ATOM     70  C   UNL A   1      39.957  34.093  41.451  1.00  0.00     0.198 A 
ATOM     71  F   UNL A   1      39.551  32.080  40.306  1.00  0.00    -0.203 F 
ATOM     72  F   UNL A   1      41.324  37.241  40.288  1.00  0.00    -0.200 F 
ATOM     73  C   UNL A   1      40.409  35.404  41.456  1.00  0.00     0.200 A 
ATOM     74  F   UNL A   1      39.525  33.530  42.587  1.00  0.00    -0.200 F 
ATOM     75  F   UNL A   1      40.433  36.101  42.601  1.00  0.00    -0.200 F 
ENDBRANCH  51  65
BRANCH  52  76
ATOM     76  C   UNL A   1      40.036  28.845  30.380  1.00  0.00     0.064 A 
ATOM     77  C   UNL A   1      40.651  29.389  29.244  1.00  0.00     0.173 A 
ATOM     78  C   UNL A   1      39.406  27.598  30.243  1.00  0.00     0.173 A 
ATOM     79  F   UNL A   1      41.247  30.588  29.317  1.00  0.00    -0.203 F 
ATOM     80  C   UNL A   1      40.627  28.723  28.021  1.00  0.00     0.198 A 
ATOM     81  C   UNL A   1      39.407  26.919  29.026  1.00  0.00     0.198 A 
ATOM     82  F   UNL A   1      38.798  27.033  31.296  1.00  0.00    -0.203 F 
ATOM     83  F   UNL A   1      41.189  29.285  26.942  1.00  0.00    -0.200 F 
ATOM     84  C   UNL A   1      40.012  27.484  27.915  1.00  0.00     0.200 A 
ATOM     85  F   UNL A   1      38.822  25.716  28.931  1.00  0.00    -0.200 F 
ATOM     86  F   UNL A   1      39.997  26.840  26.740  1.00  0.00    -0.200 F 
ENDBRANCH  52  76
BRANCH  64  87
ATOM     87  C   UNL A   1      44.727  29.375  35.527  1.00  0.00     0.064 A 
ATOM     88  C   UNL A   1      45.876  29.996  35.016  1.00  0.00     0.173 A 
ATOM     89  C   UNL A   1      44.892  28.210  36.292  1.00  0.00     0.173 A 
ATOM     90  F   UNL A   1      45.768  31.104  34.267  1.00  0.00    -0.203 F 
ATOM     91  C   UNL A   1      47.139  29.463  35.251  1.00  0.00     0.198 A 
ATOM     92  C   UNL A   1      46.158  27.700  36.554  1.00  0.00     0.198 A 
ATOM     93  F   UNL A   1      43.823  27.585  36.811  1.00  0.00    -0.203 F 
ATOM     94  F   UNL A   1      48.220  30.049  34.721  1.00  0.00    -0.200 F 
ATOM     95  C   UNL A   1      47.280  28.323  36.028  1.00  0.00     0.200 A 
ATOM     96  F   UNL A   1      46.294  26.610  37.323  1.00  0.00    -0.200 F 
ATOM     97  F   UNL A   1      48.499  27.822  36.270  1.00  0.00    -0.200 F 
ENDBRANCH  64  87
ENDBRANCH  38  39
ENDBRANCH  31  33
ENDBRANCH  30  31
ENDBRANCH  29  30
ENDBRANCH  28  29
ENDBRANCH  27  28
ENDBRANCH  26  27
ENDBRANCH  25  26
ENDBRANCH  24  25
ENDBRANCH   1  24
TORSDOF 24
ENDMDL
