MODEL 1
REMARK VINA RESULT:     -11.1      0.000      0.000
REMARK SMILES O=C(OCCOCCOCCOCCOC(=O)c1ccc(-c2c3nc(c(-c4c(F)c(F)c(F)c(F)c4F)c4ccc([nH]4)c(-c4c(F)c(F)c(F)c(F)c4F)c4nc(c(-c5c(F)c(F)c(F)c(F)c5F)c5ccc2[nH]5)C=C4)C=C3)cc1)C1=Cc2c(ccc(Cl)c2Oc2ccccc2)O[C@H]1C(F)(F)F
REMARK SMILES IDX 9 1 8 2 7 3 6 4 5 5 4 6 3 7 2 8 1 9 81 10 82 11 98 12 83 13
REMARK SMILES IDX 97 14 84 15 89 16 85 17 87 18 86 19 88 20 99 21 100 22
REMARK SMILES IDX 101 23 102 24 90 25 91 26 92 27 96 28 93 29 95 30 94 31
REMARK SMILES IDX 10 32 11 33 12 34 13 35 14 36 15 37 16 38 17 39 18 40 19 41
REMARK SMILES IDX 80 42 20 43 79 44 21 45 22 46 23 47 73 48 24 49 78 50 72 51
REMARK SMILES IDX 74 52 25 53 77 54 71 55 70 56 26 58 58 59 38 60 57 61 39 62
REMARK SMILES IDX 42 63 56 64 75 65 40 66 41 67 55 69 76 70 43 71 27 72 28 73
REMARK SMILES IDX 36 74 29 75 30 76 34 77 37 78 31 79 32 80 35 81 33 82 59 83
REMARK SMILES IDX 60 84 68 85 61 86 62 87 66 88 69 89 63 90 64 91 67 92 65 93
REMARK SMILES IDX 44 94 45 95 53 96 46 97 47 98 51 99 54 100 48 101 49 102
REMARK SMILES IDX 52 103 50 104
REMARK H PARENT 74 57 42 68
REMARK Flexibility Score: inf
ROOT
ATOM      1  O   UNL A   1      39.220  22.584  26.334  1.00  0.00    -0.377 OA
ENDROOT
BRANCH   1   2
ATOM      2  C   UNL A   1      38.519  21.440  25.721  1.00  0.00     0.188 C 
BRANCH   2   3
ATOM      3  C   UNL A   1      36.594  21.250  24.699  1.00  0.00     0.188 C 
BRANCH   3   4
ATOM      4  O   UNL A   1      35.380  20.479  25.006  1.00  0.00    -0.376 OA
BRANCH   4   5
ATOM      5  C   UNL A   1      34.577  21.110  25.955  1.00  0.00     0.202 C 
BRANCH   5   6
ATOM      6  C   UNL A   1      34.986  22.433  26.648  1.00  0.00     0.261 C 
BRANCH   6   7
ATOM      7  O   UNL A   1      33.904  23.407  26.688  1.00  0.00    -0.460 OA
BRANCH   7   8
ATOM      8  C   UNL A   1      33.855  24.447  25.809  1.00  0.00     0.338 C 
ATOM      9  O   UNL A   1      34.820  25.163  25.589  1.00  0.00    -0.246 OA
BRANCH   8  10
ATOM     10  C   UNL A   1      32.519  24.736  25.245  1.00  0.00     0.088 C 
ATOM     11  C   UNL A   1      32.023  25.972  25.408  1.00  0.00     0.031 C 
ATOM     12  C   UNL A   1      31.858  23.721  24.334  1.00  0.00     0.316 C 
ATOM     13  C   UNL A   1      31.190  26.454  24.310  1.00  0.00     0.062 A 
ATOM     14  O   UNL A   1      30.460  24.139  24.059  1.00  0.00    -0.475 OA
ATOM     15  C   UNL A   1      30.233  25.497  23.944  1.00  0.00     0.131 A 
ATOM     16  C   UNL A   1      31.184  27.802  23.835  1.00  0.00     0.156 A 
ATOM     17  C   UNL A   1      28.986  25.958  23.585  1.00  0.00     0.049 A 
ATOM     18  C   UNL A   1      29.885  28.254  23.572  1.00  0.00     0.084 A 
ATOM     19  C   UNL A   1      28.793  27.345  23.497  1.00  0.00     0.028 A 
ATOM     20  Cl  UNL A   1      29.491  29.936  23.535  1.00  0.00    -0.080 Cl
BRANCH  12  21
ATOM     21  C   UNL A   1      32.606  23.275  23.037  1.00  0.00     0.430 C 
ATOM     22  F   UNL A   1      31.941  22.343  22.318  1.00  0.00    -0.167 F 
ATOM     23  F   UNL A   1      32.786  24.314  22.187  1.00  0.00    -0.167 F 
ATOM     24  F   UNL A   1      33.830  22.766  23.316  1.00  0.00    -0.167 F 
ENDBRANCH  12  21
BRANCH  16  25
ATOM     25  O   UNL A   1      32.274  28.705  23.960  1.00  0.00    -0.455 OA
BRANCH  25  26
ATOM     26  C   UNL A   1      32.660  29.403  25.172  1.00  0.00     0.127 A 
ATOM     27  C   UNL A   1      34.222  28.885  25.946  1.00  0.00     0.047 A 
ATOM     28  C   UNL A   1      31.776  30.797  25.884  1.00  0.00     0.047 A 
ATOM     29  C   UNL A   1      34.969  29.861  27.308  1.00  0.00     0.004 A 
ATOM     30  C   UNL A   1      32.480  31.772  27.250  1.00  0.00     0.004 A 
ATOM     31  C   UNL A   1      34.056  31.278  28.012  1.00  0.00     0.000 A 
ENDBRANCH  25  26
ENDBRANCH  16  25
ENDBRANCH   8  10
ENDBRANCH   7   8
ENDBRANCH   6   7
ENDBRANCH   5   6
ENDBRANCH   4   5
ENDBRANCH   3   4
ENDBRANCH   2   3
ENDBRANCH   1   2
BRANCH   1  32
ATOM     32  C   UNL A   1      40.315  22.555  27.219  1.00  0.00     0.188 C 
BRANCH  32  33
ATOM     33  C   UNL A   1      41.316  21.449  27.627  1.00  0.00     0.188 C 
BRANCH  33  34
ATOM     34  O   UNL A   1      41.191  20.042  27.570  1.00  0.00    -0.376 OA
BRANCH  34  35
ATOM     35  C   UNL A   1      42.277  19.158  27.497  1.00  0.00     0.202 C 
BRANCH  35  36
ATOM     36  C   UNL A   1      42.647  18.598  26.125  1.00  0.00     0.261 C 
BRANCH  36  37
ATOM     37  O   UNL A   1      42.846  19.585  25.111  1.00  0.00    -0.460 OA
BRANCH  37  38
ATOM     38  C   UNL A   1      44.110  19.659  24.621  1.00  0.00     0.338 C 
ATOM     39  O   UNL A   1      44.705  18.820  23.969  1.00  0.00    -0.246 OA
BRANCH  38  40
ATOM     40  C   UNL A   1      44.634  21.019  24.868  1.00  0.00     0.060 A 
ATOM     41  C   UNL A   1      45.191  21.300  26.126  1.00  0.00     0.016 A 
ATOM     42  C   UNL A   1      44.639  21.986  23.858  1.00  0.00     0.016 A 
ATOM     43  C   UNL A   1      45.703  22.566  26.398  1.00  0.00     0.010 A 
ATOM     44  C   UNL A   1      45.111  23.266  24.143  1.00  0.00     0.010 A 
ATOM     45  C   UNL A   1      45.588  23.571  25.431  1.00  0.00    -0.014 A 
BRANCH  45  46
ATOM     46  C   UNL A   1      45.619  24.984  25.872  1.00  0.00     0.031 A 
ATOM     47  C   UNL A   1      46.943  25.693  25.778  1.00  0.00     0.074 A 
ATOM     48  C   UNL A   1      44.522  25.627  26.303  1.00  0.00     0.049 A 
ATOM     49  N   UNL A   1      47.282  26.891  26.176  1.00  0.00    -0.248 NA
ATOM     50  C   UNL A   1      48.042  24.935  25.153  1.00  0.00     0.031 C 
ATOM     51  C   UNL A   1      43.177  25.065  26.367  1.00  0.00     0.029 A 
ATOM     52  N   UNL A   1      44.381  26.905  26.783  1.00  0.00    -0.354 N 
ATOM     53  C   UNL A   1      48.630  27.019  25.863  1.00  0.00     0.074 A 
ATOM     54  C   UNL A   1      49.058  25.772  25.275  1.00  0.00     0.031 C 
ATOM     55  C   UNL A   1      42.344  25.993  26.873  1.00  0.00     0.029 A 
ATOM     56  C   UNL A   1      43.109  27.195  27.206  1.00  0.00     0.049 A 
ATOM     57  H   UNL A   1      45.122  27.553  26.818  1.00  0.00     0.167 HD
ATOM     58  C   UNL A   1      49.438  28.089  26.043  1.00  0.00     0.037 A 
ATOM     59  C   UNL A   1      42.635  28.297  27.820  1.00  0.00     0.037 A 
ATOM     60  C   UNL A   1      49.004  29.323  26.636  1.00  0.00     0.049 A 
ATOM     61  C   UNL A   1      43.579  29.442  28.103  1.00  0.00     0.074 A 
ATOM     62  C   UNL A   1      49.736  30.470  26.875  1.00  0.00     0.029 A 
ATOM     63  N   UNL A   1      47.716  29.565  27.094  1.00  0.00    -0.354 N 
ATOM     64  N   UNL A   1      44.852  29.563  27.807  1.00  0.00    -0.248 NA
ATOM     65  C   UNL A   1      43.018  30.604  28.807  1.00  0.00     0.031 C 
ATOM     66  C   UNL A   1      48.909  31.382  27.536  1.00  0.00     0.029 A 
ATOM     67  C   UNL A   1      47.640  30.834  27.640  1.00  0.00     0.049 A 
ATOM     68  H   UNL A   1      46.968  28.927  27.038  1.00  0.00     0.167 HD
ATOM     69  C   UNL A   1      45.234  30.824  28.254  1.00  0.00     0.074 A 
ATOM     70  C   UNL A   1      44.052  31.432  28.830  1.00  0.00     0.031 C 
ATOM     71  C   UNL A   1      46.449  31.425  28.195  1.00  0.00     0.037 A 
BRANCH  58  72
ATOM     72  C   UNL A   1      50.875  27.947  25.634  1.00  0.00     0.064 A 
ATOM     73  C   UNL A   1      51.287  28.099  24.300  1.00  0.00     0.173 A 
ATOM     74  C   UNL A   1      51.859  27.666  26.594  1.00  0.00     0.173 A 
ATOM     75  F   UNL A   1      50.385  28.346  23.338  1.00  0.00    -0.203 F 
ATOM     76  C   UNL A   1      52.624  27.947  23.941  1.00  0.00     0.198 A 
ATOM     77  C   UNL A   1      53.199  27.551  26.237  1.00  0.00     0.198 A 
ATOM     78  F   UNL A   1      51.521  27.508  27.883  1.00  0.00    -0.203 F 
ATOM     79  F   UNL A   1      52.985  28.040  22.653  1.00  0.00    -0.200 F 
ATOM     80  C   UNL A   1      53.579  27.683  24.910  1.00  0.00     0.200 A 
ATOM     81  F   UNL A   1      54.123  27.310  27.176  1.00  0.00    -0.200 F 
ATOM     82  F   UNL A   1      54.867  27.546  24.564  1.00  0.00    -0.200 F 
ENDBRANCH  58  72
BRANCH  59  83
ATOM     83  C   UNL A   1      41.206  28.373  28.227  1.00  0.00     0.064 A 
ATOM     84  C   UNL A   1      40.233  28.892  27.360  1.00  0.00     0.173 A 
ATOM     85  C   UNL A   1      40.785  27.955  29.498  1.00  0.00     0.173 A 
ATOM     86  F   UNL A   1      40.586  29.330  26.143  1.00  0.00    -0.203 F 
ATOM     87  C   UNL A   1      38.902  29.011  27.756  1.00  0.00     0.198 A 
ATOM     88  C   UNL A   1      39.448  28.042  29.881  1.00  0.00     0.198 A 
ATOM     89  F   UNL A   1      41.673  27.458  30.372  1.00  0.00    -0.203 F 
ATOM     90  F   UNL A   1      38.005  29.561  26.928  1.00  0.00    -0.200 F 
ATOM     91  C   UNL A   1      38.509  28.578  29.014  1.00  0.00     0.200 A 
ATOM     92  F   UNL A   1      39.071  27.611  31.093  1.00  0.00    -0.200 F 
ATOM     93  F   UNL A   1      37.228  28.690  29.393  1.00  0.00    -0.200 F 
ENDBRANCH  59  83
BRANCH  71  94
ATOM     94  C   UNL A   1      46.554  32.832  28.714  1.00  0.00     0.064 A 
ATOM     95  C   UNL A   1      46.294  33.946  27.902  1.00  0.00     0.173 A 
ATOM     96  C   UNL A   1      46.872  33.063  30.063  1.00  0.00     0.173 A 
ATOM     97  F   UNL A   1      45.995  33.781  26.605  1.00  0.00    -0.203 F 
ATOM     98  C   UNL A   1      46.380  35.239  28.413  1.00  0.00     0.198 A 
ATOM     99  C   UNL A   1      46.918  34.355  30.578  1.00  0.00     0.198 A 
ATOM    100  F   UNL A   1      47.117  32.034  30.887  1.00  0.00    -0.203 F 
ATOM    101  F   UNL A   1      46.183  36.289  27.604  1.00  0.00    -0.200 F 
ATOM    102  C   UNL A   1      46.683  35.441  29.750  1.00  0.00     0.200 A 
ATOM    103  F   UNL A   1      47.189  34.547  31.876  1.00  0.00    -0.200 F 
ATOM    104  F   UNL A   1      46.754  36.687  30.241  1.00  0.00    -0.200 F 
ENDBRANCH  71  94
ENDBRANCH  45  46
ENDBRANCH  38  40
ENDBRANCH  37  38
ENDBRANCH  36  37
ENDBRANCH  35  36
ENDBRANCH  34  35
ENDBRANCH  33  34
ENDBRANCH  32  33
ENDBRANCH   1  32
TORSDOF 23
ENDMDL
MODEL 2
REMARK VINA RESULT:     -11.0      6.405     12.163
REMARK SMILES O=C(OCCOCCOCCOCCOC(=O)c1ccc(-c2c3nc(c(-c4c(F)c(F)c(F)c(F)c4F)c4ccc([nH]4)c(-c4c(F)c(F)c(F)c(F)c4F)c4nc(c(-c5c(F)c(F)c(F)c(F)c5F)c5ccc2[nH]5)C=C4)C=C3)cc1)C1=Cc2c(ccc(Cl)c2Oc2ccccc2)O[C@H]1C(F)(F)F
REMARK SMILES IDX 9 1 8 2 7 3 6 4 5 5 4 6 3 7 2 8 1 9 81 10 82 11 98 12 83 13
REMARK SMILES IDX 97 14 84 15 89 16 85 17 87 18 86 19 88 20 99 21 100 22
REMARK SMILES IDX 101 23 102 24 90 25 91 26 92 27 96 28 93 29 95 30 94 31
REMARK SMILES IDX 10 32 11 33 12 34 13 35 14 36 15 37 16 38 17 39 18 40 19 41
REMARK SMILES IDX 80 42 20 43 79 44 21 45 22 46 23 47 73 48 24 49 78 50 72 51
REMARK SMILES IDX 74 52 25 53 77 54 71 55 70 56 26 58 58 59 38 60 57 61 39 62
REMARK SMILES IDX 42 63 56 64 75 65 40 66 41 67 55 69 76 70 43 71 27 72 28 73
REMARK SMILES IDX 36 74 29 75 30 76 34 77 37 78 31 79 32 80 35 81 33 82 59 83
REMARK SMILES IDX 60 84 68 85 61 86 62 87 66 88 69 89 63 90 64 91 67 92 65 93
REMARK SMILES IDX 44 94 45 95 53 96 46 97 47 98 51 99 54 100 48 101 49 102
REMARK SMILES IDX 52 103 50 104
REMARK H PARENT 74 57 42 68
REMARK Flexibility Score: inf
ROOT
ATOM      1  O   UNL A   1      34.046  31.263  27.259  1.00  0.00    -0.377 OA
ENDROOT
BRANCH   1   2
ATOM      2  C   UNL A   1      33.564  29.890  27.019  1.00  0.00     0.188 C 
BRANCH   2   3
ATOM      3  C   UNL A   1      31.672  28.880  27.451  1.00  0.00     0.188 C 
BRANCH   3   4
ATOM      4  O   UNL A   1      31.322  27.463  27.628  1.00  0.00    -0.376 OA
BRANCH   4   5
ATOM      5  C   UNL A   1      31.671  26.689  26.523  1.00  0.00     0.202 C 
BRANCH   5   6
ATOM      6  C   UNL A   1      31.868  25.154  26.606  1.00  0.00     0.261 C 
BRANCH   6   7
ATOM      7  O   UNL A   1      32.762  24.644  25.576  1.00  0.00    -0.460 OA
BRANCH   7   8
ATOM      8  C   UNL A   1      34.063  24.346  25.852  1.00  0.00     0.338 C 
ATOM      9  O   UNL A   1      34.895  25.208  26.089  1.00  0.00    -0.246 OA
BRANCH   8  10
ATOM     10  C   UNL A   1      34.429  22.920  25.710  1.00  0.00     0.088 C 
ATOM     11  C   UNL A   1      33.453  22.048  25.410  1.00  0.00     0.031 C 
ATOM     12  C   UNL A   1      35.891  22.523  25.690  1.00  0.00     0.316 C 
ATOM     13  C   UNL A   1      33.862  20.925  24.574  1.00  0.00     0.062 A 
ATOM     14  O   UNL A   1      36.002  21.043  25.739  1.00  0.00    -0.475 OA
ATOM     15  C   UNL A   1      35.031  20.328  25.066  1.00  0.00     0.131 A 
ATOM     16  C   UNL A   1      33.056  20.355  23.539  1.00  0.00     0.156 A 
ATOM     17  C   UNL A   1      35.125  18.957  24.975  1.00  0.00     0.049 A 
ATOM     18  C   UNL A   1      33.113  18.956  23.548  1.00  0.00     0.084 A 
ATOM     19  C   UNL A   1      34.108  18.268  24.298  1.00  0.00     0.028 A 
ATOM     20  Cl  UNL A   1      31.873  17.985  22.838  1.00  0.00    -0.080 Cl
BRANCH  12  21
ATOM     21  C   UNL A   1      36.826  23.149  24.607  1.00  0.00     0.430 C 
ATOM     22  F   UNL A   1      37.654  24.104  25.086  1.00  0.00    -0.167 F 
ATOM     23  F   UNL A   1      37.643  22.217  24.060  1.00  0.00    -0.167 F 
ATOM     24  F   UNL A   1      36.118  23.706  23.596  1.00  0.00    -0.167 F 
ENDBRANCH  12  21
BRANCH  16  25
ATOM     25  O   UNL A   1      32.039  21.053  22.834  1.00  0.00    -0.455 OA
BRANCH  25  26
ATOM     26  C   UNL A   1      31.988  22.487  22.622  1.00  0.00     0.127 A 
ATOM     27  C   UNL A   1      30.516  23.351  23.250  1.00  0.00     0.047 A 
ATOM     28  C   UNL A   1      33.309  23.469  21.900  1.00  0.00     0.047 A 
ATOM     29  C   UNL A   1      30.449  25.183  23.306  1.00  0.00     0.004 A 
ATOM     30  C   UNL A   1      33.263  25.289  21.920  1.00  0.00     0.004 A 
ATOM     31  C   UNL A   1      31.806  26.161  22.571  1.00  0.00     0.000 A 
ENDBRANCH  25  26
ENDBRANCH  16  25
ENDBRANCH   8  10
ENDBRANCH   7   8
ENDBRANCH   6   7
ENDBRANCH   5   6
ENDBRANCH   4   5
ENDBRANCH   3   4
ENDBRANCH   2   3
ENDBRANCH   1   2
BRANCH   1  32
ATOM     32  C   UNL A   1      34.942  31.705  28.251  1.00  0.00     0.188 C 
BRANCH  32  33
ATOM     33  C   UNL A   1      35.721  33.024  28.462  1.00  0.00     0.188 C 
BRANCH  33  34
ATOM     34  O   UNL A   1      35.265  34.292  28.891  1.00  0.00    -0.376 OA
BRANCH  34  35
ATOM     35  C   UNL A   1      34.206  34.990  28.293  1.00  0.00     0.202 C 
BRANCH  35  36
ATOM     36  C   UNL A   1      33.263  35.769  29.207  1.00  0.00     0.261 C 
BRANCH  36  37
ATOM     37  O   UNL A   1      32.698  35.004  30.274  1.00  0.00    -0.460 OA
BRANCH  37  38
ATOM     38  C   UNL A   1      32.793  35.574  31.502  1.00  0.00     0.338 C 
ATOM     39  O   UNL A   1      32.044  36.392  32.002  1.00  0.00    -0.246 OA
BRANCH  38  40
ATOM     40  C   UNL A   1      33.895  34.922  32.241  1.00  0.00     0.060 A 
ATOM     41  C   UNL A   1      35.126  35.592  32.330  1.00  0.00     0.016 A 
ATOM     42  C   UNL A   1      33.704  33.700  32.894  1.00  0.00     0.016 A 
ATOM     43  C   UNL A   1      36.187  35.017  33.024  1.00  0.00     0.010 A 
ATOM     44  C   UNL A   1      34.779  33.103  33.551  1.00  0.00     0.010 A 
ATOM     45  C   UNL A   1      36.035  33.735  33.565  1.00  0.00    -0.014 A 
BRANCH  45  46
ATOM     46  C   UNL A   1      37.248  32.922  33.808  1.00  0.00     0.031 A 
ATOM     47  C   UNL A   1      37.982  33.172  35.097  1.00  0.00     0.074 A 
ATOM     48  C   UNL A   1      37.668  31.979  32.949  1.00  0.00     0.049 A 
ATOM     49  N   UNL A   1      39.113  32.678  35.528  1.00  0.00    -0.248 NA
ATOM     50  C   UNL A   1      37.351  34.124  36.030  1.00  0.00     0.031 C 
ATOM     51  C   UNL A   1      36.997  31.601  31.709  1.00  0.00     0.029 A 
ATOM     52  N   UNL A   1      38.778  31.174  32.996  1.00  0.00    -0.354 N 
ATOM     53  C   UNL A   1      39.331  33.269  36.766  1.00  0.00     0.074 A 
ATOM     54  C   UNL A   1      38.238  34.182  37.007  1.00  0.00     0.031 C 
ATOM     55  C   UNL A   1      37.721  30.643  31.101  1.00  0.00     0.029 A 
ATOM     56  C   UNL A   1      38.922  30.374  31.891  1.00  0.00     0.049 A 
ATOM     57  H   UNL A   1      39.409  31.170  33.751  1.00  0.00     0.167 HD
ATOM     58  C   UNL A   1      40.350  33.062  37.631  1.00  0.00     0.037 A 
ATOM     59  C   UNL A   1      39.930  29.547  31.552  1.00  0.00     0.037 A 
ATOM     60  C   UNL A   1      41.436  32.157  37.378  1.00  0.00     0.049 A 
ATOM     61  C   UNL A   1      41.109  29.406  32.488  1.00  0.00     0.074 A 
ATOM     62  C   UNL A   1      42.527  31.872  38.178  1.00  0.00     0.029 A 
ATOM     63  N   UNL A   1      41.572  31.394  36.226  1.00  0.00    -0.354 N 
ATOM     64  N   UNL A   1      41.314  29.964  33.657  1.00  0.00    -0.248 NA
ATOM     65  C   UNL A   1      42.197  28.519  32.052  1.00  0.00     0.031 C 
ATOM     66  C   UNL A   1      43.355  30.987  37.483  1.00  0.00     0.029 A 
ATOM     67  C   UNL A   1      42.743  30.659  36.282  1.00  0.00     0.049 A 
ATOM     68  H   UNL A   1      40.930  31.380  35.480  1.00  0.00     0.167 HD
ATOM     69  C   UNL A   1      42.532  29.470  34.112  1.00  0.00     0.074 A 
ATOM     70  C   UNL A   1      43.013  28.557  33.096  1.00  0.00     0.031 C 
ATOM     71  C   UNL A   1      43.195  29.745  35.264  1.00  0.00     0.037 A 
BRANCH  58  72
ATOM     72  C   UNL A   1      40.353  33.860  38.902  1.00  0.00     0.064 A 
ATOM     73  C   UNL A   1      41.049  35.074  39.016  1.00  0.00     0.173 A 
ATOM     74  C   UNL A   1      39.637  33.408  40.022  1.00  0.00     0.173 A 
ATOM     75  F   UNL A   1      41.768  35.541  37.984  1.00  0.00    -0.203 F 
ATOM     76  C   UNL A   1      41.051  35.790  40.212  1.00  0.00     0.198 A 
ATOM     77  C   UNL A   1      39.612  34.145  41.203  1.00  0.00     0.198 A 
ATOM     78  F   UNL A   1      38.958  32.253  39.970  1.00  0.00    -0.203 F 
ATOM     79  F   UNL A   1      41.769  36.916  40.315  1.00  0.00    -0.200 F 
ATOM     80  C   UNL A   1      40.325  35.329  41.300  1.00  0.00     0.200 A 
ATOM     81  F   UNL A   1      38.899  33.706  42.249  1.00  0.00    -0.200 F 
ATOM     82  F   UNL A   1      40.321  36.024  42.446  1.00  0.00    -0.200 F 
ENDBRANCH  58  72
BRANCH  59  83
ATOM     83  C   UNL A   1      39.887  28.798  30.268  1.00  0.00     0.064 A 
ATOM     84  C   UNL A   1      39.337  27.510  30.198  1.00  0.00     0.173 A 
ATOM     85  C   UNL A   1      40.418  29.340  29.087  1.00  0.00     0.173 A 
ATOM     86  F   UNL A   1      38.840  26.934  31.302  1.00  0.00    -0.203 F 
ATOM     87  C   UNL A   1      39.340  26.787  29.007  1.00  0.00     0.198 A 
ATOM     88  C   UNL A   1      40.390  28.630  27.889  1.00  0.00     0.198 A 
ATOM     89  F   UNL A   1      40.964  30.566  29.096  1.00  0.00    -0.203 F 
ATOM     90  F   UNL A   1      38.857  25.537  28.982  1.00  0.00    -0.200 F 
ATOM     91  C   UNL A   1      39.860  27.351  27.851  1.00  0.00     0.200 A 
ATOM     92  F   UNL A   1      40.882  29.185  26.772  1.00  0.00    -0.200 F 
ATOM     93  F   UNL A   1      39.858  26.655  26.705  1.00  0.00    -0.200 F 
ENDBRANCH  59  83
BRANCH  71  94
ATOM     94  C   UNL A   1      44.481  29.010  35.518  1.00  0.00     0.064 A 
ATOM     95  C   UNL A   1      45.721  29.514  35.096  1.00  0.00     0.173 A 
ATOM     96  C   UNL A   1      44.474  27.806  36.241  1.00  0.00     0.173 A 
ATOM     97  F   UNL A   1      45.782  30.655  34.394  1.00  0.00    -0.203 F 
ATOM     98  C   UNL A   1      46.901  28.823  35.360  1.00  0.00     0.198 A 
ATOM     99  C   UNL A   1      45.660  27.140  36.537  1.00  0.00     0.198 A 
ATOM    100  F   UNL A   1      43.319  27.286  36.680  1.00  0.00    -0.203 F 
ATOM    101  F   UNL A   1      48.067  29.295  34.897  1.00  0.00    -0.200 F 
ATOM    102  C   UNL A   1      46.870  27.643  36.087  1.00  0.00     0.200 A 
ATOM    103  F   UNL A   1      45.629  26.010  37.258  1.00  0.00    -0.200 F 
ATOM    104  F   UNL A   1      48.009  26.986  36.349  1.00  0.00    -0.200 F 
ENDBRANCH  71  94
ENDBRANCH  45  46
ENDBRANCH  38  40
ENDBRANCH  37  38
ENDBRANCH  36  37
ENDBRANCH  35  36
ENDBRANCH  34  35
ENDBRANCH  33  34
ENDBRANCH  32  33
ENDBRANCH   1  32
TORSDOF 23
ENDMDL
MODEL 3
REMARK VINA RESULT:     -10.5      3.845      9.490
REMARK SMILES O=C(OCCOCCOCCOCCOC(=O)c1ccc(-c2c3nc(c(-c4c(F)c(F)c(F)c(F)c4F)c4ccc([nH]4)c(-c4c(F)c(F)c(F)c(F)c4F)c4nc(c(-c5c(F)c(F)c(F)c(F)c5F)c5ccc2[nH]5)C=C4)C=C3)cc1)C1=Cc2c(ccc(Cl)c2Oc2ccccc2)O[C@H]1C(F)(F)F
REMARK SMILES IDX 9 1 8 2 7 3 6 4 5 5 4 6 3 7 2 8 1 9 81 10 82 11 98 12 83 13
REMARK SMILES IDX 97 14 84 15 89 16 85 17 87 18 86 19 88 20 99 21 100 22
REMARK SMILES IDX 101 23 102 24 90 25 91 26 92 27 96 28 93 29 95 30 94 31
REMARK SMILES IDX 10 32 11 33 12 34 13 35 14 36 15 37 16 38 17 39 18 40 19 41
REMARK SMILES IDX 80 42 20 43 79 44 21 45 22 46 23 47 73 48 24 49 78 50 72 51
REMARK SMILES IDX 74 52 25 53 77 54 71 55 70 56 26 58 58 59 38 60 57 61 39 62
REMARK SMILES IDX 42 63 56 64 75 65 40 66 41 67 55 69 76 70 43 71 27 72 28 73
REMARK SMILES IDX 36 74 29 75 30 76 34 77 37 78 31 79 32 80 35 81 33 82 59 83
REMARK SMILES IDX 60 84 68 85 61 86 62 87 66 88 69 89 63 90 64 91 67 92 65 93
REMARK SMILES IDX 44 94 45 95 53 96 46 97 47 98 51 99 54 100 48 101 49 102
REMARK SMILES IDX 52 103 50 104
REMARK H PARENT 74 57 42 68
REMARK Flexibility Score: inf
ROOT
ATOM      1  O   UNL A   1      29.073  33.446  23.489  1.00  0.00    -0.377 OA
ENDROOT
BRANCH   1   2
ATOM      2  C   UNL A   1      28.105  32.434  23.026  1.00  0.00     0.188 C 
BRANCH   2   3
ATOM      3  C   UNL A   1      28.274  30.723  21.674  1.00  0.00     0.188 C 
BRANCH   3   4
ATOM      4  O   UNL A   1      29.431  30.058  21.056  1.00  0.00    -0.376 OA
BRANCH   4   5
ATOM      5  C   UNL A   1      30.329  29.569  22.002  1.00  0.00     0.202 C 
BRANCH   5   6
ATOM      6  C   UNL A   1      30.306  28.101  22.496  1.00  0.00     0.261 C 
BRANCH   6   7
ATOM      7  O   UNL A   1      31.309  27.270  21.844  1.00  0.00    -0.460 OA
BRANCH   7   8
ATOM      8  C   UNL A   1      32.284  26.644  22.561  1.00  0.00     0.338 C 
ATOM      9  O   UNL A   1      33.467  26.922  22.437  1.00  0.00    -0.246 OA
BRANCH   8  10
ATOM     10  C   UNL A   1      31.827  25.512  23.395  1.00  0.00     0.088 C 
ATOM     11  C   UNL A   1      32.281  24.286  23.092  1.00  0.00     0.031 C 
ATOM     12  C   UNL A   1      31.055  25.788  24.669  1.00  0.00     0.316 C 
ATOM     13  C   UNL A   1      32.473  23.397  24.233  1.00  0.00     0.062 A 
ATOM     14  O   UNL A   1      30.539  24.509  25.221  1.00  0.00    -0.475 OA
ATOM     15  C   UNL A   1      31.349  23.400  25.071  1.00  0.00     0.131 A 
ATOM     16  C   UNL A   1      33.551  22.467  24.358  1.00  0.00     0.156 A 
ATOM     17  C   UNL A   1      30.990  22.203  25.649  1.00  0.00     0.049 A 
ATOM     18  C   UNL A   1      33.118  21.235  24.863  1.00  0.00     0.084 A 
ATOM     19  C   UNL A   1      31.832  21.097  25.457  1.00  0.00     0.028 A 
ATOM     20  Cl  UNL A   1      34.010  19.776  24.611  1.00  0.00    -0.080 Cl
BRANCH  12  21
ATOM     21  C   UNL A   1      31.710  26.683  25.768  1.00  0.00     0.430 C 
ATOM     22  F   UNL A   1      32.055  27.916  25.334  1.00  0.00    -0.167 F 
ATOM     23  F   UNL A   1      30.861  26.898  26.802  1.00  0.00    -0.167 F 
ATOM     24  F   UNL A   1      32.828  26.112  26.277  1.00  0.00    -0.167 F 
ENDBRANCH  12  21
BRANCH  16  25
ATOM     25  O   UNL A   1      34.813  22.606  23.719  1.00  0.00    -0.455 OA
BRANCH  25  26
ATOM     26  C   UNL A   1      36.102  22.612  24.385  1.00  0.00     0.127 A 
ATOM     27  C   UNL A   1      36.482  24.066  25.408  1.00  0.00     0.047 A 
ATOM     28  C   UNL A   1      37.279  21.252  24.363  1.00  0.00     0.047 A 
ATOM     29  C   UNL A   1      37.939  24.080  26.523  1.00  0.00     0.004 A 
ATOM     30  C   UNL A   1      38.745  21.246  25.442  1.00  0.00     0.004 A 
ATOM     31  C   UNL A   1      39.118  22.685  26.489  1.00  0.00     0.000 A 
ENDBRANCH  25  26
ENDBRANCH  16  25
ENDBRANCH   8  10
ENDBRANCH   7   8
ENDBRANCH   6   7
ENDBRANCH   5   6
ENDBRANCH   4   5
ENDBRANCH   3   4
ENDBRANCH   2   3
ENDBRANCH   1   2
BRANCH   1  32
ATOM     32  C   UNL A   1      30.124  33.280  24.411  1.00  0.00     0.188 C 
BRANCH  32  33
ATOM     33  C   UNL A   1      30.551  32.112  25.330  1.00  0.00     0.188 C 
BRANCH  33  34
ATOM     34  O   UNL A   1      31.330  32.119  26.510  1.00  0.00    -0.376 OA
BRANCH  34  35
ATOM     35  C   UNL A   1      32.222  31.099  26.869  1.00  0.00     0.202 C 
BRANCH  35  36
ATOM     36  C   UNL A   1      33.646  31.500  27.248  1.00  0.00     0.261 C 
BRANCH  36  37
ATOM     37  O   UNL A   1      34.277  30.638  28.197  1.00  0.00    -0.460 OA
BRANCH  37  38
ATOM     38  C   UNL A   1      34.909  29.562  27.663  1.00  0.00     0.338 C 
ATOM     39  O   UNL A   1      34.483  28.789  26.824  1.00  0.00    -0.246 OA
BRANCH  38  40
ATOM     40  C   UNL A   1      36.305  29.544  28.150  1.00  0.00     0.060 A 
ATOM     41  C   UNL A   1      37.330  29.865  27.245  1.00  0.00     0.016 A 
ATOM     42  C   UNL A   1      36.600  29.280  29.491  1.00  0.00     0.016 A 
ATOM     43  C   UNL A   1      38.658  29.867  27.664  1.00  0.00     0.010 A 
ATOM     44  C   UNL A   1      37.932  29.239  29.901  1.00  0.00     0.010 A 
ATOM     45  C   UNL A   1      38.962  29.475  28.972  1.00  0.00    -0.014 A 
BRANCH  45  46
ATOM     46  C   UNL A   1      40.321  28.964  29.260  1.00  0.00     0.031 A 
ATOM     47  C   UNL A   1      41.222  29.857  30.069  1.00  0.00     0.074 A 
ATOM     48  C   UNL A   1      40.735  27.752  28.857  1.00  0.00     0.049 A 
ATOM     49  N   UNL A   1      42.481  29.709  30.390  1.00  0.00    -0.248 NA
ATOM     50  C   UNL A   1      40.615  31.099  30.583  1.00  0.00     0.031 C 
ATOM     51  C   UNL A   1      39.927  26.775  28.133  1.00  0.00     0.029 A 
ATOM     52  N   UNL A   1      41.958  27.146  28.998  1.00  0.00    -0.354 N 
ATOM     53  C   UNL A   1      42.813  30.841  31.124  1.00  0.00     0.074 A 
ATOM     54  C   UNL A   1      41.641  31.682  31.176  1.00  0.00     0.031 C 
ATOM     55  C   UNL A   1      40.684  25.692  27.878  1.00  0.00     0.029 A 
ATOM     56  C   UNL A   1      42.036  25.921  28.385  1.00  0.00     0.049 A 
ATOM     57  H   UNL A   1      42.706  27.550  29.492  1.00  0.00     0.167 HD
ATOM     58  C   UNL A   1      43.992  31.148  31.712  1.00  0.00     0.037 A 
ATOM     59  C   UNL A   1      43.094  25.101  28.231  1.00  0.00     0.037 A 
ATOM     60  C   UNL A   1      45.155  30.307  31.648  1.00  0.00     0.049 A 
ATOM     61  C   UNL A   1      44.429  25.510  28.809  1.00  0.00     0.074 A 
ATOM     62  C   UNL A   1      46.405  30.518  32.198  1.00  0.00     0.029 A 
ATOM     63  N   UNL A   1      45.210  29.090  30.980  1.00  0.00    -0.354 N 
ATOM     64  N   UNL A   1      44.743  26.578  29.503  1.00  0.00    -0.248 NA
ATOM     65  C   UNL A   1      45.557  24.596  28.581  1.00  0.00     0.031 C 
ATOM     66  C   UNL A   1      47.234  29.463  31.809  1.00  0.00     0.029 A 
ATOM     67  C   UNL A   1      46.481  28.554  31.082  1.00  0.00     0.049 A 
ATOM     68  H   UNL A   1      44.455  28.673  30.504  1.00  0.00     0.167 HD
ATOM     69  C   UNL A   1      46.090  26.448  29.823  1.00  0.00     0.074 A 
ATOM     70  C   UNL A   1      46.529  25.190  29.258  1.00  0.00     0.031 C 
ATOM     71  C   UNL A   1      46.893  27.291  30.522  1.00  0.00     0.037 A 
BRANCH  58  72
ATOM     72  C   UNL A   1      44.087  32.462  32.431  1.00  0.00     0.064 A 
ATOM     73  C   UNL A   1      43.788  32.585  33.797  1.00  0.00     0.173 A 
ATOM     74  C   UNL A   1      44.494  33.615  31.743  1.00  0.00     0.173 A 
ATOM     75  F   UNL A   1      43.373  31.518  34.497  1.00  0.00    -0.203 F 
ATOM     76  C   UNL A   1      43.867  33.818  34.440  1.00  0.00     0.198 A 
ATOM     77  C   UNL A   1      44.607  34.839  32.397  1.00  0.00     0.198 A 
ATOM     78  F   UNL A   1      44.787  33.556  30.435  1.00  0.00    -0.203 F 
ATOM     79  F   UNL A   1      43.523  33.922  35.731  1.00  0.00    -0.200 F 
ATOM     80  C   UNL A   1      44.285  34.941  33.742  1.00  0.00     0.200 A 
ATOM     81  F   UNL A   1      45.023  35.920  31.726  1.00  0.00    -0.200 F 
ATOM     82  F   UNL A   1      44.369  36.125  34.364  1.00  0.00    -0.200 F 
ENDBRANCH  58  72
BRANCH  59  83
ATOM     83  C   UNL A   1      42.950  23.821  27.487  1.00  0.00     0.064 A 
ATOM     84  C   UNL A   1      43.251  23.739  26.120  1.00  0.00     0.173 A 
ATOM     85  C   UNL A   1      42.482  22.658  28.118  1.00  0.00     0.173 A 
ATOM     86  F   UNL A   1      43.677  24.828  25.462  1.00  0.00    -0.203 F 
ATOM     87  C   UNL A   1      43.069  22.555  25.409  1.00  0.00     0.198 A 
ATOM     88  C   UNL A   1      42.333  21.464  27.414  1.00  0.00     0.198 A 
ATOM     89  F   UNL A   1      42.171  22.679  29.423  1.00  0.00    -0.203 F 
ATOM     90  F   UNL A   1      43.313  22.521  24.092  1.00  0.00    -0.200 F 
ATOM     91  C   UNL A   1      42.617  21.415  26.059  1.00  0.00     0.200 A 
ATOM     92  F   UNL A   1      41.908  20.363  28.050  1.00  0.00    -0.200 F 
ATOM     93  F   UNL A   1      42.447  20.275  25.376  1.00  0.00    -0.200 F 
ENDBRANCH  59  83
BRANCH  71  94
ATOM     94  C   UNL A   1      48.311  26.858  30.764  1.00  0.00     0.064 A 
ATOM     95  C   UNL A   1      48.657  25.999  31.818  1.00  0.00     0.173 A 
ATOM     96  C   UNL A   1      49.333  27.273  29.894  1.00  0.00     0.173 A 
ATOM     97  F   UNL A   1      47.722  25.581  32.683  1.00  0.00    -0.203 F 
ATOM     98  C   UNL A   1      49.977  25.597  32.009  1.00  0.00     0.198 A 
ATOM     99  C   UNL A   1      50.643  26.838  30.066  1.00  0.00     0.198 A 
ATOM    100  F   UNL A   1      49.056  28.085  28.863  1.00  0.00    -0.203 F 
ATOM    101  F   UNL A   1      50.292  24.822  33.056  1.00  0.00    -0.200 F 
ATOM    102  C   UNL A   1      50.966  26.010  31.130  1.00  0.00     0.200 A 
ATOM    103  F   UNL A   1      51.594  27.221  29.202  1.00  0.00    -0.200 F 
ATOM    104  F   UNL A   1      52.234  25.613  31.310  1.00  0.00    -0.200 F 
ENDBRANCH  71  94
ENDBRANCH  45  46
ENDBRANCH  38  40
ENDBRANCH  37  38
ENDBRANCH  36  37
ENDBRANCH  35  36
ENDBRANCH  34  35
ENDBRANCH  33  34
ENDBRANCH  32  33
ENDBRANCH   1  32
TORSDOF 23
ENDMDL
