MODEL 1
REMARK VINA RESULT:     -10.7      0.000      0.000
REMARK SMILES C[C@@H](C(=O)OCCOCCOCCOCCOC(=O)c1ccc(-c2c3nc(c(-c4c(F)c(F)c(F)c(F)c4F)c4ccc([nH]4)c(-c4c(F)c(F)c(F)c(F)c4F)c4nc(c(-c5c(F)c(F)c(F)c(F)c5F)c5ccc2[nH]5)C=C4)C=C3)cc1)c1ccc(-c2ccccc2)c(F)c1
REMARK SMILES IDX 11 1 10 2 9 3 8 4 7 5 6 6 5 7 3 8 4 9 2 10 1 11 83 12 84 13
REMARK SMILES IDX 95 14 85 15 93 16 86 17 94 18 87 19 88 20 92 21 89 22 91 23
REMARK SMILES IDX 90 24 12 25 13 26 14 27 15 28 16 29 17 30 18 31 19 32 20 33
REMARK SMILES IDX 21 34 82 35 22 36 81 37 23 38 24 39 25 40 75 41 26 42 80 43
REMARK SMILES IDX 74 44 76 45 27 46 79 47 73 48 72 49 28 51 60 52 40 53 59 54
REMARK SMILES IDX 41 55 44 56 58 57 77 58 42 59 43 60 57 62 78 63 45 64 29 65
REMARK SMILES IDX 30 66 38 67 31 68 32 69 36 70 39 71 33 72 34 73 37 74 35 75
REMARK SMILES IDX 61 76 62 77 70 78 63 79 64 80 68 81 71 82 65 83 66 84 69 85
REMARK SMILES IDX 67 86 46 87 47 88 55 89 48 90 49 91 53 92 56 93 50 94 51 95
REMARK SMILES IDX 54 96 52 97
REMARK H PARENT 76 50 44 61
REMARK Flexibility Score: inf
ROOT
ATOM      1  O   UNL A   1      41.411  19.838  25.471  1.00  0.00    -0.377 OA
ENDROOT
BRANCH   1   2
ATOM      2  C   UNL A   1      41.266  21.035  26.208  1.00  0.00     0.188 C 
BRANCH   2   3
ATOM      3  C   UNL A   1      39.810  21.426  26.531  1.00  0.00     0.188 C 
BRANCH   3   4
ATOM      4  O   UNL A   1      38.878  21.631  25.480  1.00  0.00    -0.376 OA
BRANCH   4   5
ATOM      5  C   UNL A   1      37.629  22.249  25.748  1.00  0.00     0.202 C 
BRANCH   5   6
ATOM      6  C   UNL A   1      37.301  23.675  25.260  1.00  0.00     0.261 C 
BRANCH   6   7
ATOM      7  O   UNL A   1      35.912  24.061  25.216  1.00  0.00    -0.463 OA
BRANCH   7   8
ATOM      8  C   UNL A   1      35.204  23.664  24.127  1.00  0.00     0.313 C 
ATOM      9  O   UNL A   1      35.691  23.555  23.006  1.00  0.00    -0.252 OA
BRANCH   8  10
ATOM     10  C   UNL A   1      33.718  23.358  24.414  1.00  0.00     0.126 C 
ATOM     11  C   UNL A   1      33.121  22.031  23.927  1.00  0.00     0.025 C 
BRANCH  10  12
ATOM     12  C   UNL A   1      32.841  24.567  24.081  1.00  0.00    -0.031 A 
ATOM     13  C   UNL A   1      32.167  24.590  22.855  1.00  0.00     0.005 A 
ATOM     14  C   UNL A   1      32.598  25.623  24.972  1.00  0.00     0.044 A 
ATOM     15  C   UNL A   1      31.269  25.616  22.544  1.00  0.00     0.012 A 
ATOM     16  C   UNL A   1      31.676  26.630  24.667  1.00  0.00     0.131 A 
ATOM     17  C   UNL A   1      30.986  26.651  23.451  1.00  0.00     0.017 A 
ATOM     18  F   UNL A   1      31.453  27.577  25.595  1.00  0.00    -0.206 F 
BRANCH  17  19
ATOM     19  C   UNL A   1      30.008  27.697  23.102  1.00  0.00    -0.015 A 
ATOM     20  C   UNL A   1      30.429  28.905  22.516  1.00  0.00     0.009 A 
ATOM     21  C   UNL A   1      28.641  27.550  23.383  1.00  0.00     0.009 A 
ATOM     22  C   UNL A   1      29.528  29.941  22.261  1.00  0.00     0.001 A 
ATOM     23  C   UNL A   1      27.736  28.584  23.126  1.00  0.00     0.001 A 
ATOM     24  C   UNL A   1      28.182  29.783  22.575  1.00  0.00     0.000 A 
ENDBRANCH  17  19
ENDBRANCH  10  12
ENDBRANCH   8  10
ENDBRANCH   7   8
ENDBRANCH   6   7
ENDBRANCH   5   6
ENDBRANCH   4   5
ENDBRANCH   3   4
ENDBRANCH   2   3
ENDBRANCH   1   2
BRANCH   1  25
ATOM     25  C   UNL A   1      42.308  18.883  26.010  1.00  0.00     0.188 C 
BRANCH  25  26
ATOM     26  C   UNL A   1      43.812  19.073  25.736  1.00  0.00     0.188 C 
BRANCH  26  27
ATOM     27  O   UNL A   1      44.110  19.438  24.392  1.00  0.00    -0.376 OA
BRANCH  27  28
ATOM     28  C   UNL A   1      44.530  20.765  24.115  1.00  0.00     0.202 C 
BRANCH  28  29
ATOM     29  C   UNL A   1      44.916  21.648  25.313  1.00  0.00     0.261 C 
BRANCH  29  30
ATOM     30  O   UNL A   1      43.986  22.682  25.671  1.00  0.00    -0.460 OA
BRANCH  30  31
ATOM     31  C   UNL A   1      44.282  23.949  25.317  1.00  0.00     0.338 C 
ATOM     32  O   UNL A   1      44.912  24.314  24.338  1.00  0.00    -0.246 OA
BRANCH  31  33
ATOM     33  C   UNL A   1      43.529  24.855  26.211  1.00  0.00     0.060 A 
ATOM     34  C   UNL A   1      43.813  26.227  26.178  1.00  0.00     0.016 A 
ATOM     35  C   UNL A   1      42.533  24.360  27.057  1.00  0.00     0.016 A 
ATOM     36  C   UNL A   1      43.127  27.104  27.017  1.00  0.00     0.010 A 
ATOM     37  C   UNL A   1      41.867  25.236  27.918  1.00  0.00     0.010 A 
ATOM     38  C   UNL A   1      42.186  26.606  27.926  1.00  0.00    -0.014 A 
BRANCH  38  39
ATOM     39  C   UNL A   1      41.705  27.474  29.029  1.00  0.00     0.031 A 
ATOM     40  C   UNL A   1      42.467  27.452  30.326  1.00  0.00     0.074 A 
ATOM     41  C   UNL A   1      40.641  28.280  28.881  1.00  0.00     0.049 A 
ATOM     42  N   UNL A   1      42.222  28.076  31.449  1.00  0.00    -0.248 NA
ATOM     43  C   UNL A   1      43.671  26.606  30.358  1.00  0.00     0.031 C 
ATOM     44  C   UNL A   1      39.854  28.428  27.659  1.00  0.00     0.029 A 
ATOM     45  N   UNL A   1      40.034  29.124  29.780  1.00  0.00    -0.354 N 
ATOM     46  C   UNL A   1      43.231  27.690  32.321  1.00  0.00     0.074 A 
ATOM     47  C   UNL A   1      44.075  26.755  31.610  1.00  0.00     0.031 C 
ATOM     48  C   UNL A   1      38.859  29.304  27.888  1.00  0.00     0.029 A 
ATOM     49  C   UNL A   1      38.918  29.747  29.280  1.00  0.00     0.049 A 
ATOM     50  H   UNL A   1      40.369  29.267  30.694  1.00  0.00     0.167 HD
ATOM     51  C   UNL A   1      43.440  28.084  33.599  1.00  0.00     0.037 A 
ATOM     52  C   UNL A   1      38.034  30.562  29.891  1.00  0.00     0.037 A 
ATOM     53  C   UNL A   1      42.597  29.013  34.303  1.00  0.00     0.049 A 
ATOM     54  C   UNL A   1      38.240  30.919  31.343  1.00  0.00     0.074 A 
ATOM     55  C   UNL A   1      42.731  29.494  35.593  1.00  0.00     0.029 A 
ATOM     56  N   UNL A   1      41.451  29.593  33.777  1.00  0.00    -0.354 N 
ATOM     57  N   UNL A   1      39.209  30.573  32.155  1.00  0.00    -0.248 NA
ATOM     58  C   UNL A   1      37.225  31.784  31.963  1.00  0.00     0.031 C 
ATOM     59  C   UNL A   1      41.632  30.311  35.871  1.00  0.00     0.029 A 
ATOM     60  C   UNL A   1      40.851  30.400  34.731  1.00  0.00     0.049 A 
ATOM     61  H   UNL A   1      41.115  29.452  32.863  1.00  0.00     0.167 HD
ATOM     62  C   UNL A   1      38.943  31.204  33.364  1.00  0.00     0.074 A 
ATOM     63  C   UNL A   1      37.726  31.965  33.176  1.00  0.00     0.031 C 
ATOM     64  C   UNL A   1      39.644  31.161  34.525  1.00  0.00     0.037 A 
BRANCH  51  65
ATOM     65  C   UNL A   1      44.604  27.481  34.331  1.00  0.00     0.064 A 
ATOM     66  C   UNL A   1      44.533  26.209  34.920  1.00  0.00     0.173 A 
ATOM     67  C   UNL A   1      45.818  28.178  34.422  1.00  0.00     0.173 A 
ATOM     68  F   UNL A   1      43.390  25.507  34.878  1.00  0.00    -0.203 F 
ATOM     69  C   UNL A   1      45.625  25.670  35.596  1.00  0.00     0.198 A 
ATOM     70  C   UNL A   1      46.918  27.622  35.068  1.00  0.00     0.198 A 
ATOM     71  F   UNL A   1      45.942  29.397  33.876  1.00  0.00    -0.203 F 
ATOM     72  F   UNL A   1      45.517  24.478  36.198  1.00  0.00    -0.200 F 
ATOM     73  C   UNL A   1      46.819  26.373  35.663  1.00  0.00     0.200 A 
ATOM     74  F   UNL A   1      48.076  28.297  35.119  1.00  0.00    -0.200 F 
ATOM     75  F   UNL A   1      47.871  25.850  36.307  1.00  0.00    -0.200 F 
ENDBRANCH  51  65
BRANCH  52  76
ATOM     76  C   UNL A   1      36.861  31.089  29.142  1.00  0.00     0.064 A 
ATOM     77  C   UNL A   1      35.795  30.252  28.782  1.00  0.00     0.173 A 
ATOM     78  C   UNL A   1      36.796  32.431  28.739  1.00  0.00     0.173 A 
ATOM     79  F   UNL A   1      35.821  28.953  29.117  1.00  0.00    -0.203 F 
ATOM     80  C   UNL A   1      34.723  30.731  28.030  1.00  0.00     0.198 A 
ATOM     81  C   UNL A   1      35.708  32.916  28.017  1.00  0.00     0.198 A 
ATOM     82  F   UNL A   1      37.791  33.275  29.051  1.00  0.00    -0.203 F 
ATOM     83  F   UNL A   1      33.746  29.895  27.652  1.00  0.00    -0.200 F 
ATOM     84  C   UNL A   1      34.677  32.064  27.654  1.00  0.00     0.200 A 
ATOM     85  F   UNL A   1      35.663  34.209  27.666  1.00  0.00    -0.200 F 
ATOM     86  F   UNL A   1      33.646  32.524  26.932  1.00  0.00    -0.200 F 
ENDBRANCH  52  76
BRANCH  64  87
ATOM     87  C   UNL A   1      39.145  31.997  35.671  1.00  0.00     0.064 A 
ATOM     88  C   UNL A   1      38.256  31.490  36.630  1.00  0.00     0.173 A 
ATOM     89  C   UNL A   1      39.603  33.315  35.837  1.00  0.00     0.173 A 
ATOM     90  F   UNL A   1      37.778  30.241  36.513  1.00  0.00    -0.203 F 
ATOM     91  C   UNL A   1      37.821  32.278  37.692  1.00  0.00     0.198 A 
ATOM     92  C   UNL A   1      39.195  34.087  36.920  1.00  0.00     0.198 A 
ATOM     93  F   UNL A   1      40.462  33.848  34.955  1.00  0.00    -0.203 F 
ATOM     94  F   UNL A   1      36.929  31.789  38.565  1.00  0.00    -0.200 F 
ATOM     95  C   UNL A   1      38.297  33.573  37.842  1.00  0.00     0.200 A 
ATOM     96  F   UNL A   1      39.673  35.330  37.073  1.00  0.00    -0.200 F 
ATOM     97  F   UNL A   1      37.886  34.326  38.871  1.00  0.00    -0.200 F 
ENDBRANCH  64  87
ENDBRANCH  38  39
ENDBRANCH  31  33
ENDBRANCH  30  31
ENDBRANCH  29  30
ENDBRANCH  28  29
ENDBRANCH  27  28
ENDBRANCH  26  27
ENDBRANCH  25  26
ENDBRANCH   1  25
TORSDOF 22
ENDMDL
MODEL 2
REMARK VINA RESULT:     -10.4      5.252     10.810
REMARK SMILES C[C@@H](C(=O)OCCOCCOCCOCCOC(=O)c1ccc(-c2c3nc(c(-c4c(F)c(F)c(F)c(F)c4F)c4ccc([nH]4)c(-c4c(F)c(F)c(F)c(F)c4F)c4nc(c(-c5c(F)c(F)c(F)c(F)c5F)c5ccc2[nH]5)C=C4)C=C3)cc1)c1ccc(-c2ccccc2)c(F)c1
REMARK SMILES IDX 11 1 10 2 9 3 8 4 7 5 6 6 5 7 3 8 4 9 2 10 1 11 83 12 84 13
REMARK SMILES IDX 95 14 85 15 93 16 86 17 94 18 87 19 88 20 92 21 89 22 91 23
REMARK SMILES IDX 90 24 12 25 13 26 14 27 15 28 16 29 17 30 18 31 19 32 20 33
REMARK SMILES IDX 21 34 82 35 22 36 81 37 23 38 24 39 25 40 75 41 26 42 80 43
REMARK SMILES IDX 74 44 76 45 27 46 79 47 73 48 72 49 28 51 60 52 40 53 59 54
REMARK SMILES IDX 41 55 44 56 58 57 77 58 42 59 43 60 57 62 78 63 45 64 29 65
REMARK SMILES IDX 30 66 38 67 31 68 32 69 36 70 39 71 33 72 34 73 37 74 35 75
REMARK SMILES IDX 61 76 62 77 70 78 63 79 64 80 68 81 71 82 65 83 66 84 69 85
REMARK SMILES IDX 67 86 46 87 47 88 55 89 48 90 49 91 53 92 56 93 50 94 51 95
REMARK SMILES IDX 54 96 52 97
REMARK H PARENT 76 50 44 61
REMARK Flexibility Score: inf
ROOT
ATOM      1  O   UNL A   1      33.263  30.514  27.531  1.00  0.00    -0.377 OA
ENDROOT
BRANCH   1   2
ATOM      2  C   UNL A   1      33.758  29.727  26.467  1.00  0.00     0.188 C 
BRANCH   2   3
ATOM      3  C   UNL A   1      32.676  29.122  25.549  1.00  0.00     0.188 C 
BRANCH   3   4
ATOM      4  O   UNL A   1      32.842  29.151  24.140  1.00  0.00    -0.376 OA
BRANCH   4   5
ATOM      5  C   UNL A   1      33.645  28.171  23.499  1.00  0.00     0.202 C 
BRANCH   5   6
ATOM      6  C   UNL A   1      33.031  27.040  22.649  1.00  0.00     0.261 C 
BRANCH   6   7
ATOM      7  O   UNL A   1      33.409  25.685  22.969  1.00  0.00    -0.463 OA
BRANCH   7   8
ATOM      8  C   UNL A   1      32.555  24.986  23.760  1.00  0.00     0.313 C 
ATOM      9  O   UNL A   1      31.363  24.841  23.508  1.00  0.00    -0.252 OA
BRANCH   8  10
ATOM     10  C   UNL A   1      33.210  24.381  25.021  1.00  0.00     0.126 C 
ATOM     11  C   UNL A   1      34.466  25.044  25.601  1.00  0.00     0.025 C 
BRANCH  10  12
ATOM     12  C   UNL A   1      33.340  22.863  24.889  1.00  0.00    -0.031 A 
ATOM     13  C   UNL A   1      33.901  22.143  25.949  1.00  0.00     0.005 A 
ATOM     14  C   UNL A   1      32.849  22.129  23.798  1.00  0.00     0.044 A 
ATOM     15  C   UNL A   1      33.947  20.745  25.929  1.00  0.00     0.012 A 
ATOM     16  C   UNL A   1      32.870  20.730  23.797  1.00  0.00     0.131 A 
ATOM     17  C   UNL A   1      33.414  20.003  24.861  1.00  0.00     0.017 A 
ATOM     18  F   UNL A   1      32.329  20.096  22.744  1.00  0.00    -0.206 F 
BRANCH  17  19
ATOM     19  C   UNL A   1      33.450  18.530  24.890  1.00  0.00    -0.015 A 
ATOM     20  C   UNL A   1      34.370  17.820  24.097  1.00  0.00     0.009 A 
ATOM     21  C   UNL A   1      32.544  17.787  25.663  1.00  0.00     0.009 A 
ATOM     22  C   UNL A   1      34.359  16.424  24.045  1.00  0.00     0.001 A 
ATOM     23  C   UNL A   1      32.532  16.389  25.615  1.00  0.00     0.001 A 
ATOM     24  C   UNL A   1      33.432  15.710  24.798  1.00  0.00     0.000 A 
ENDBRANCH  17  19
ENDBRANCH  10  12
ENDBRANCH   8  10
ENDBRANCH   7   8
ENDBRANCH   6   7
ENDBRANCH   5   6
ENDBRANCH   4   5
ENDBRANCH   3   4
ENDBRANCH   2   3
ENDBRANCH   1   2
BRANCH   1  25
ATOM     25  C   UNL A   1      32.988  31.870  27.225  1.00  0.00     0.188 C 
BRANCH  25  26
ATOM     26  C   UNL A   1      33.870  32.949  27.881  1.00  0.00     0.188 C 
BRANCH  26  27
ATOM     27  O   UNL A   1      33.147  33.863  28.700  1.00  0.00    -0.376 OA
BRANCH  27  28
ATOM     28  C   UNL A   1      33.867  34.781  29.509  1.00  0.00     0.202 C 
BRANCH  28  29
ATOM     29  C   UNL A   1      34.279  34.311  30.915  1.00  0.00     0.261 C 
BRANCH  29  30
ATOM     30  O   UNL A   1      34.457  32.897  31.089  1.00  0.00    -0.460 OA
BRANCH  30  31
ATOM     31  C   UNL A   1      35.251  32.479  32.096  1.00  0.00     0.338 C 
ATOM     32  O   UNL A   1      35.031  32.566  33.293  1.00  0.00    -0.246 OA
BRANCH  31  33
ATOM     33  C   UNL A   1      36.356  31.696  31.504  1.00  0.00     0.060 A 
ATOM     34  C   UNL A   1      37.315  31.130  32.356  1.00  0.00     0.016 A 
ATOM     35  C   UNL A   1      36.435  31.500  30.123  1.00  0.00     0.016 A 
ATOM     36  C   UNL A   1      38.375  30.396  31.827  1.00  0.00     0.010 A 
ATOM     37  C   UNL A   1      37.514  30.789  29.591  1.00  0.00     0.010 A 
ATOM     38  C   UNL A   1      38.507  30.264  30.438  1.00  0.00    -0.014 A 
BRANCH  38  39
ATOM     39  C   UNL A   1      39.787  29.778  29.869  1.00  0.00     0.031 A 
ATOM     40  C   UNL A   1      40.942  30.740  29.810  1.00  0.00     0.074 A 
ATOM     41  C   UNL A   1      39.936  28.513  29.440  1.00  0.00     0.049 A 
ATOM     42  N   UNL A   1      42.142  30.576  29.316  1.00  0.00    -0.248 NA
ATOM     43  C   UNL A   1      40.708  32.073  30.387  1.00  0.00     0.031 C 
ATOM     44  C   UNL A   1      38.910  27.475  29.493  1.00  0.00     0.029 A 
ATOM     45  N   UNL A   1      41.018  27.892  28.865  1.00  0.00    -0.354 N 
ATOM     46  C   UNL A   1      42.798  31.783  29.512  1.00  0.00     0.074 A 
ATOM     47  C   UNL A   1      41.857  32.682  30.142  1.00  0.00     0.031 C 
ATOM     48  C   UNL A   1      39.408  26.345  28.961  1.00  0.00     0.029 A 
ATOM     49  C   UNL A   1      40.772  26.592  28.497  1.00  0.00     0.049 A 
ATOM     50  H   UNL A   1      41.885  28.337  28.729  1.00  0.00     0.167 HD
ATOM     51  C   UNL A   1      44.074  32.112  29.200  1.00  0.00     0.037 A 
ATOM     52  C   UNL A   1      41.556  25.716  27.837  1.00  0.00     0.037 A 
ATOM     53  C   UNL A   1      45.006  31.215  28.572  1.00  0.00     0.049 A 
ATOM     54  C   UNL A   1      42.946  26.134  27.423  1.00  0.00     0.074 A 
ATOM     55  C   UNL A   1      46.328  31.443  28.231  1.00  0.00     0.029 A 
ATOM     56  N   UNL A   1      44.709  29.919  28.177  1.00  0.00    -0.354 N 
ATOM     57  N   UNL A   1      43.571  27.268  27.634  1.00  0.00    -0.248 NA
ATOM     58  C   UNL A   1      43.741  25.147  26.677  1.00  0.00     0.031 C 
ATOM     59  C   UNL A   1      46.809  30.310  27.570  1.00  0.00     0.029 A 
ATOM     60  C   UNL A   1      45.813  29.348  27.564  1.00  0.00     0.049 A 
ATOM     61  H   UNL A   1      43.843  29.471  28.311  1.00  0.00     0.167 HD
ATOM     62  C   UNL A   1      44.838  27.118  27.084  1.00  0.00     0.074 A 
ATOM     63  C   UNL A   1      44.898  25.778  26.539  1.00  0.00     0.031 C 
ATOM     64  C   UNL A   1      45.861  28.007  27.036  1.00  0.00     0.037 A 
BRANCH  51  65
ATOM     65  C   UNL A   1      44.523  33.514  29.498  1.00  0.00     0.064 A 
ATOM     66  C   UNL A   1      44.323  34.567  28.593  1.00  0.00     0.173 A 
ATOM     67  C   UNL A   1      45.140  33.811  30.723  1.00  0.00     0.173 A 
ATOM     68  F   UNL A   1      43.753  34.335  27.400  1.00  0.00    -0.203 F 
ATOM     69  C   UNL A   1      44.750  35.859  28.890  1.00  0.00     0.198 A 
ATOM     70  C   UNL A   1      45.534  35.110  31.031  1.00  0.00     0.198 A 
ATOM     71  F   UNL A   1      45.355  32.842  31.626  1.00  0.00    -0.203 F 
ATOM     72  F   UNL A   1      44.598  36.838  27.988  1.00  0.00    -0.200 F 
ATOM     73  C   UNL A   1      45.347  36.131  30.112  1.00  0.00     0.200 A 
ATOM     74  F   UNL A   1      46.099  35.374  32.219  1.00  0.00    -0.200 F 
ATOM     75  F   UNL A   1      45.750  37.376  30.400  1.00  0.00    -0.200 F 
ENDBRANCH  51  65
BRANCH  52  76
ATOM     76  C   UNL A   1      41.048  24.356  27.510  1.00  0.00     0.064 A 
ATOM     77  C   UNL A   1      40.023  24.172  26.569  1.00  0.00     0.173 A 
ATOM     78  C   UNL A   1      41.548  23.215  28.155  1.00  0.00     0.173 A 
ATOM     79  F   UNL A   1      39.490  25.233  25.945  1.00  0.00    -0.203 F 
ATOM     80  C   UNL A   1      39.506  22.906  26.304  1.00  0.00     0.198 A 
ATOM     81  C   UNL A   1      41.053  21.946  27.864  1.00  0.00     0.198 A 
ATOM     82  F   UNL A   1      42.523  23.334  29.067  1.00  0.00    -0.203 F 
ATOM     83  F   UNL A   1      38.489  22.767  25.442  1.00  0.00    -0.200 F 
ATOM     84  C   UNL A   1      40.025  21.792  26.947  1.00  0.00     0.200 A 
ATOM     85  F   UNL A   1      41.567  20.872  28.480  1.00  0.00    -0.200 F 
ATOM     86  F   UNL A   1      39.528  20.575  26.691  1.00  0.00    -0.200 F 
ENDBRANCH  52  76
BRANCH  64  87
ATOM     87  C   UNL A   1      47.154  27.549  26.419  1.00  0.00     0.064 A 
ATOM     88  C   UNL A   1      47.446  27.760  25.063  1.00  0.00     0.173 A 
ATOM     89  C   UNL A   1      48.135  26.930  27.211  1.00  0.00     0.173 A 
ATOM     90  F   UNL A   1      46.540  28.335  24.259  1.00  0.00    -0.203 F 
ATOM     91  C   UNL A   1      48.657  27.341  24.518  1.00  0.00     0.198 A 
ATOM     92  C   UNL A   1      49.359  26.547  26.670  1.00  0.00     0.198 A 
ATOM     93  F   UNL A   1      47.914  26.713  28.516  1.00  0.00    -0.203 F 
ATOM     94  F   UNL A   1      48.891  27.504  23.209  1.00  0.00    -0.200 F 
ATOM     95  C   UNL A   1      49.616  26.744  25.323  1.00  0.00     0.200 A 
ATOM     96  F   UNL A   1      50.291  25.989  27.455  1.00  0.00    -0.200 F 
ATOM     97  F   UNL A   1      50.785  26.352  24.798  1.00  0.00    -0.200 F 
ENDBRANCH  64  87
ENDBRANCH  38  39
ENDBRANCH  31  33
ENDBRANCH  30  31
ENDBRANCH  29  30
ENDBRANCH  28  29
ENDBRANCH  27  28
ENDBRANCH  26  27
ENDBRANCH  25  26
ENDBRANCH   1  25
TORSDOF 22
ENDMDL
MODEL 3
REMARK VINA RESULT:     -10.3      0.972      7.084
REMARK SMILES C[C@@H](C(=O)OCCOCCOCCOCCOC(=O)c1ccc(-c2c3nc(c(-c4c(F)c(F)c(F)c(F)c4F)c4ccc([nH]4)c(-c4c(F)c(F)c(F)c(F)c4F)c4nc(c(-c5c(F)c(F)c(F)c(F)c5F)c5ccc2[nH]5)C=C4)C=C3)cc1)c1ccc(-c2ccccc2)c(F)c1
REMARK SMILES IDX 11 1 10 2 9 3 8 4 7 5 6 6 5 7 3 8 4 9 2 10 1 11 83 12 84 13
REMARK SMILES IDX 95 14 85 15 93 16 86 17 94 18 87 19 88 20 92 21 89 22 91 23
REMARK SMILES IDX 90 24 12 25 13 26 14 27 15 28 16 29 17 30 18 31 19 32 20 33
REMARK SMILES IDX 21 34 82 35 22 36 81 37 23 38 24 39 25 40 75 41 26 42 80 43
REMARK SMILES IDX 74 44 76 45 27 46 79 47 73 48 72 49 28 51 60 52 40 53 59 54
REMARK SMILES IDX 41 55 44 56 58 57 77 58 42 59 43 60 57 62 78 63 45 64 29 65
REMARK SMILES IDX 30 66 38 67 31 68 32 69 36 70 39 71 33 72 34 73 37 74 35 75
REMARK SMILES IDX 61 76 62 77 70 78 63 79 64 80 68 81 71 82 65 83 66 84 69 85
REMARK SMILES IDX 67 86 46 87 47 88 55 89 48 90 49 91 53 92 56 93 50 94 51 95
REMARK SMILES IDX 54 96 52 97
REMARK H PARENT 76 50 44 61
REMARK Flexibility Score: inf
ROOT
ATOM      1  O   UNL A   1      41.799  21.047  25.866  1.00  0.00    -0.377 OA
ENDROOT
BRANCH   1   2
ATOM      2  C   UNL A   1      40.974  21.503  26.918  1.00  0.00     0.188 C 
BRANCH   2   3
ATOM      3  C   UNL A   1      39.678  22.207  26.469  1.00  0.00     0.188 C 
BRANCH   3   4
ATOM      4  O   UNL A   1      38.694  21.487  25.740  1.00  0.00    -0.376 OA
BRANCH   4   5
ATOM      5  C   UNL A   1      37.404  22.045  25.547  1.00  0.00     0.202 C 
BRANCH   5   6
ATOM      6  C   UNL A   1      36.147  21.165  25.393  1.00  0.00     0.261 C 
BRANCH   6   7
ATOM      7  O   UNL A   1      34.947  21.797  24.901  1.00  0.00    -0.463 OA
BRANCH   7   8
ATOM      8  C   UNL A   1      33.816  21.604  25.629  1.00  0.00     0.313 C 
ATOM      9  O   UNL A   1      33.817  21.386  26.836  1.00  0.00    -0.252 OA
BRANCH   8  10
ATOM     10  C   UNL A   1      32.512  21.680  24.806  1.00  0.00     0.126 C 
ATOM     11  C   UNL A   1      32.372  20.815  23.546  1.00  0.00     0.025 C 
BRANCH  10  12
ATOM     12  C   UNL A   1      32.096  23.135  24.581  1.00  0.00    -0.031 A 
ATOM     13  C   UNL A   1      31.166  23.420  23.575  1.00  0.00     0.005 A 
ATOM     14  C   UNL A   1      32.525  24.202  25.386  1.00  0.00     0.044 A 
ATOM     15  C   UNL A   1      30.669  24.715  23.397  1.00  0.00     0.012 A 
ATOM     16  C   UNL A   1      32.001  25.489  25.222  1.00  0.00     0.131 A 
ATOM     17  C   UNL A   1      31.059  25.777  24.229  1.00  0.00     0.017 A 
ATOM     18  F   UNL A   1      32.416  26.447  26.067  1.00  0.00    -0.206 F 
BRANCH  17  19
ATOM     19  C   UNL A   1      30.488  27.122  24.032  1.00  0.00    -0.015 A 
ATOM     20  C   UNL A   1      29.242  27.287  23.401  1.00  0.00     0.009 A 
ATOM     21  C   UNL A   1      31.183  28.279  24.418  1.00  0.00     0.009 A 
ATOM     22  C   UNL A   1      28.729  28.556  23.127  1.00  0.00     0.001 A 
ATOM     23  C   UNL A   1      30.671  29.552  24.147  1.00  0.00     0.001 A 
ATOM     24  C   UNL A   1      29.449  29.689  23.492  1.00  0.00     0.000 A 
ENDBRANCH  17  19
ENDBRANCH  10  12
ENDBRANCH   8  10
ENDBRANCH   7   8
ENDBRANCH   6   7
ENDBRANCH   5   6
ENDBRANCH   4   5
ENDBRANCH   3   4
ENDBRANCH   2   3
ENDBRANCH   1   2
BRANCH   1  25
ATOM     25  C   UNL A   1      42.363  19.757  26.034  1.00  0.00     0.188 C 
BRANCH  25  26
ATOM     26  C   UNL A   1      43.782  19.516  25.486  1.00  0.00     0.188 C 
BRANCH  26  27
ATOM     27  O   UNL A   1      44.048  20.189  24.260  1.00  0.00    -0.376 OA
BRANCH  27  28
ATOM     28  C   UNL A   1      45.007  21.236  24.242  1.00  0.00     0.202 C 
BRANCH  28  29
ATOM     29  C   UNL A   1      45.079  22.149  25.477  1.00  0.00     0.261 C 
BRANCH  29  30
ATOM     30  O   UNL A   1      44.102  23.199  25.553  1.00  0.00    -0.460 OA
BRANCH  30  31
ATOM     31  C   UNL A   1      44.535  24.473  25.464  1.00  0.00     0.338 C 
ATOM     32  O   UNL A   1      45.273  24.944  24.614  1.00  0.00    -0.246 OA
BRANCH  31  33
ATOM     33  C   UNL A   1      43.793  25.272  26.462  1.00  0.00     0.060 A 
ATOM     34  C   UNL A   1      44.170  26.605  26.676  1.00  0.00     0.016 A 
ATOM     35  C   UNL A   1      42.718  24.721  27.164  1.00  0.00     0.016 A 
ATOM     36  C   UNL A   1      43.497  27.381  27.619  1.00  0.00     0.010 A 
ATOM     37  C   UNL A   1      42.063  25.491  28.130  1.00  0.00     0.010 A 
ATOM     38  C   UNL A   1      42.472  26.811  28.385  1.00  0.00    -0.014 A 
BRANCH  38  39
ATOM     39  C   UNL A   1      41.986  27.519  29.595  1.00  0.00     0.031 A 
ATOM     40  C   UNL A   1      40.712  28.310  29.484  1.00  0.00     0.074 A 
ATOM     41  C   UNL A   1      42.637  27.442  30.768  1.00  0.00     0.049 A 
ATOM     42  N   UNL A   1      40.110  29.053  30.377  1.00  0.00    -0.248 NA
ATOM     43  C   UNL A   1      40.025  28.258  28.184  1.00  0.00     0.031 C 
ATOM     44  C   UNL A   1      43.850  26.666  31.014  1.00  0.00     0.029 A 
ATOM     45  N   UNL A   1      42.365  28.039  31.975  1.00  0.00    -0.354 N 
ATOM     46  C   UNL A   1      38.984  29.562  29.744  1.00  0.00     0.074 A 
ATOM     47  C   UNL A   1      39.000  29.071  28.384  1.00  0.00     0.031 C 
ATOM     48  C   UNL A   1      44.225  26.843  32.294  1.00  0.00     0.029 A 
ATOM     49  C   UNL A   1      43.302  27.772  32.943  1.00  0.00     0.049 A 
ATOM     50  H   UNL A   1      41.574  28.604  32.131  1.00  0.00     0.167 HD
ATOM     51  C   UNL A   1      38.018  30.363  30.253  1.00  0.00     0.037 A 
ATOM     52  C   UNL A   1      43.409  28.248  34.200  1.00  0.00     0.037 A 
ATOM     53  C   UNL A   1      38.007  30.851  31.606  1.00  0.00     0.049 A 
ATOM     54  C   UNL A   1      42.366  29.209  34.717  1.00  0.00     0.074 A 
ATOM     55  C   UNL A   1      37.065  31.652  32.227  1.00  0.00     0.029 A 
ATOM     56  N   UNL A   1      38.994  30.592  32.546  1.00  0.00    -0.354 N 
ATOM     57  N   UNL A   1      41.290  29.667  34.124  1.00  0.00    -0.248 NA
ATOM     58  C   UNL A   1      42.555  29.719  36.084  1.00  0.00     0.031 C 
ATOM     59  C   UNL A   1      37.516  31.933  33.520  1.00  0.00     0.029 A 
ATOM     60  C   UNL A   1      38.701  31.248  33.731  1.00  0.00     0.049 A 
ATOM     61  H   UNL A   1      39.786  30.027  32.393  1.00  0.00     0.167 HD
ATOM     62  C   UNL A   1      40.656  30.484  35.052  1.00  0.00     0.074 A 
ATOM     63  C   UNL A   1      41.463  30.451  36.254  1.00  0.00     0.031 C 
ATOM     64  C   UNL A   1      39.509  31.196  34.924  1.00  0.00     0.037 A 
BRANCH  51  65
ATOM     65  C   UNL A   1      36.915  30.795  29.329  1.00  0.00     0.064 A 
ATOM     66  C   UNL A   1      35.891  29.921  28.935  1.00  0.00     0.173 A 
ATOM     67  C   UNL A   1      36.871  32.114  28.853  1.00  0.00     0.173 A 
ATOM     68  F   UNL A   1      35.895  28.644  29.349  1.00  0.00    -0.203 F 
ATOM     69  C   UNL A   1      34.879  30.343  28.076  1.00  0.00     0.198 A 
ATOM     70  C   UNL A   1      35.839  32.542  28.022  1.00  0.00     0.198 A 
ATOM     71  F   UNL A   1      37.825  32.992  29.199  1.00  0.00    -0.203 F 
ATOM     72  F   UNL A   1      33.942  29.476  27.670  1.00  0.00    -0.200 F 
ATOM     73  C   UNL A   1      34.850  31.655  27.627  1.00  0.00     0.200 A 
ATOM     74  F   UNL A   1      35.805  33.814  27.600  1.00  0.00    -0.200 F 
ATOM     75  F   UNL A   1      33.872  32.062  26.807  1.00  0.00    -0.200 F 
ENDBRANCH  51  65
BRANCH  52  76
ATOM     76  C   UNL A   1      44.553  27.839  35.060  1.00  0.00     0.064 A 
ATOM     77  C   UNL A   1      44.502  26.663  35.822  1.00  0.00     0.173 A 
ATOM     78  C   UNL A   1      45.705  28.632  35.167  1.00  0.00     0.173 A 
ATOM     79  F   UNL A   1      43.411  25.884  35.778  1.00  0.00    -0.203 F 
ATOM     80  C   UNL A   1      45.548  26.308  36.672  1.00  0.00     0.198 A 
ATOM     81  C   UNL A   1      46.764  28.259  35.992  1.00  0.00     0.198 A 
ATOM     82  F   UNL A   1      45.803  29.771  34.465  1.00  0.00    -0.203 F 
ATOM     83  F   UNL A   1      45.448  25.208  37.431  1.00  0.00    -0.200 F 
ATOM     84  C   UNL A   1      46.681  27.104  36.752  1.00  0.00     0.200 A 
ATOM     85  F   UNL A   1      47.861  29.026  36.056  1.00  0.00    -0.200 F 
ATOM     86  F   UNL A   1      47.687  26.762  37.569  1.00  0.00    -0.200 F 
ENDBRANCH  52  76
BRANCH  64  87
ATOM     87  C   UNL A   1      39.024  31.959  36.125  1.00  0.00     0.064 A 
ATOM     88  C   UNL A   1      38.179  31.378  37.083  1.00  0.00     0.173 A 
ATOM     89  C   UNL A   1      39.452  33.279  36.346  1.00  0.00     0.173 A 
ATOM     90  F   UNL A   1      37.731  30.125  36.916  1.00  0.00    -0.203 F 
ATOM     91  C   UNL A   1      37.756  32.099  38.197  1.00  0.00     0.198 A 
ATOM     92  C   UNL A   1      39.057  33.983  37.479  1.00  0.00     0.198 A 
ATOM     93  F   UNL A   1      40.269  33.880  35.468  1.00  0.00    -0.203 F 
ATOM     94  F   UNL A   1      36.905  31.542  39.069  1.00  0.00    -0.200 F 
ATOM     95  C   UNL A   1      38.202  33.397  38.399  1.00  0.00     0.200 A 
ATOM     96  F   UNL A   1      39.506  35.229  37.682  1.00  0.00    -0.200 F 
ATOM     97  F   UNL A   1      37.803  34.085  39.478  1.00  0.00    -0.200 F 
ENDBRANCH  64  87
ENDBRANCH  38  39
ENDBRANCH  31  33
ENDBRANCH  30  31
ENDBRANCH  29  30
ENDBRANCH  28  29
ENDBRANCH  27  28
ENDBRANCH  26  27
ENDBRANCH  25  26
ENDBRANCH   1  25
TORSDOF 22
ENDMDL
