MODEL 1
REMARK VINA RESULT:     -10.2      0.000      0.000
REMARK SMILES CCC1(C(=O)OCCOCCOCCOCCOC(=O)c2ccc(-c3c4nc(c(-c5c(F)c(F)c(F)c(F)c5F)c5ccc([nH]5)c(-c5c(F)c(F)c(F)c(F)c5F)c5nc(c(-c6c(F)c(F)c(F)c(F)c6F)c6ccc3[nH]6)C=C5)C=C4)cc2)CCN(c2ncnc3c2CCCC3)CC1
REMARK SMILES IDX 13 1 12 2 11 3 10 4 9 5 8 6 7 7 6 8 4 9 5 10 3 11 84 12
REMARK SMILES IDX 98 13 85 14 97 15 86 16 2 17 1 18 87 19 88 20 92 21 89 22
REMARK SMILES IDX 91 23 93 24 90 25 96 26 94 27 95 28 14 29 15 30 16 31 17 32
REMARK SMILES IDX 18 33 19 34 20 35 21 36 22 37 83 38 23 39 82 40 24 41 25 42
REMARK SMILES IDX 26 43 76 44 27 45 81 46 75 47 77 48 28 49 80 50 74 51 73 52
REMARK SMILES IDX 29 54 61 55 41 56 60 57 42 58 45 59 59 60 78 61 43 62 44 63
REMARK SMILES IDX 58 65 79 66 46 67 30 68 31 69 39 70 32 71 33 72 37 73 40 74
REMARK SMILES IDX 34 75 35 76 38 77 36 78 62 79 63 80 71 81 64 82 65 83 69 84
REMARK SMILES IDX 72 85 66 86 67 87 70 88 68 89 47 90 48 91 56 92 49 93 50 94
REMARK SMILES IDX 54 95 57 96 51 97 52 98 55 99 53 100
REMARK H PARENT 77 53 45 64
REMARK Flexibility Score: inf
ROOT
ATOM      1  C   UNL A   1      41.340  21.286  27.447  1.00  0.00     0.188 C 
ENDROOT
BRANCH   1   2
ATOM      2  O   UNL A   1      41.146  22.465  26.680  1.00  0.00    -0.377 OA
BRANCH   2   3
ATOM      3  C   UNL A   1      39.882  23.094  26.738  1.00  0.00     0.188 C 
BRANCH   3   4
ATOM      4  C   UNL A   1      38.714  22.346  26.093  1.00  0.00     0.188 C 
BRANCH   4   5
ATOM      5  O   UNL A   1      37.641  23.068  25.528  1.00  0.00    -0.376 OA
BRANCH   5   6
ATOM      6  C   UNL A   1      36.300  22.816  25.912  1.00  0.00     0.202 C 
BRANCH   6   7
ATOM      7  C   UNL A   1      35.337  21.856  25.179  1.00  0.00     0.261 C 
BRANCH   7   8
ATOM      8  O   UNL A   1      34.117  22.395  24.641  1.00  0.00    -0.463 OA
BRANCH   8   9
ATOM      9  C   UNL A   1      34.214  22.987  23.429  1.00  0.00     0.312 C 
ATOM     10  O   UNL A   1      35.282  23.135  22.838  1.00  0.00    -0.252 OA
BRANCH   9  11
ATOM     11  C   UNL A   1      32.875  23.492  22.824  1.00  0.00     0.071 C 
ATOM     12  C   UNL A   1      31.755  23.873  23.840  1.00  0.00     0.040 C 
ATOM     13  C   UNL A   1      33.358  24.763  22.053  1.00  0.00     0.040 C 
ATOM     14  C   UNL A   1      30.732  24.873  23.311  1.00  0.00     0.119 C 
ATOM     15  C   UNL A   1      32.253  25.715  21.609  1.00  0.00     0.119 C 
ATOM     16  N   UNL A   1      31.466  26.000  22.793  1.00  0.00    -0.356 N 
BRANCH  11  17
ATOM     17  C   UNL A   1      32.447  22.326  21.865  1.00  0.00     0.015 C 
ATOM     18  C   UNL A   1      32.056  20.974  22.440  1.00  0.00     0.005 C 
ENDBRANCH  11  17
BRANCH  16  19
ATOM     19  C   UNL A   1      31.076  27.279  23.110  1.00  0.00     0.135 A 
ATOM     20  N   UNL A   1      30.170  27.864  22.309  1.00  0.00    -0.219 NA
ATOM     21  C   UNL A   1      31.616  27.947  24.217  1.00  0.00     0.016 A 
ATOM     22  C   UNL A   1      29.759  29.088  22.655  1.00  0.00     0.224 A 
ATOM     23  C   UNL A   1      31.100  29.207  24.493  1.00  0.00     0.049 A 
ATOM     24  C   UNL A   1      32.709  27.352  25.070  1.00  0.00     0.041 C 
ATOM     25  N   UNL A   1      30.167  29.794  23.716  1.00  0.00    -0.241 NA
ATOM     26  C   UNL A   1      31.613  30.032  25.645  1.00  0.00     0.057 C 
ATOM     27  C   UNL A   1      33.394  28.334  26.014  1.00  0.00     0.005 C 
ATOM     28  C   UNL A   1      32.355  29.209  26.695  1.00  0.00     0.007 C 
ENDBRANCH  16  19
ENDBRANCH   9  11
ENDBRANCH   8   9
ENDBRANCH   7   8
ENDBRANCH   6   7
ENDBRANCH   5   6
ENDBRANCH   4   5
ENDBRANCH   3   4
ENDBRANCH   2   3
ENDBRANCH   1   2
BRANCH   1  29
ATOM     29  C   UNL A   1      41.623  19.956  26.723  1.00  0.00     0.188 C 
BRANCH  29  30
ATOM     30  O   UNL A   1      42.268  18.977  27.521  1.00  0.00    -0.376 OA
BRANCH  30  31
ATOM     31  C   UNL A   1      43.185  18.075  26.919  1.00  0.00     0.202 C 
BRANCH  31  32
ATOM     32  C   UNL A   1      43.569  18.289  25.445  1.00  0.00     0.261 C 
BRANCH  32  33
ATOM     33  O   UNL A   1      44.766  19.042  25.191  1.00  0.00    -0.460 OA
BRANCH  33  34
ATOM     34  C   UNL A   1      44.751  19.945  24.191  1.00  0.00     0.338 C 
ATOM     35  O   UNL A   1      44.605  19.728  22.999  1.00  0.00    -0.246 OA
BRANCH  34  36
ATOM     36  C   UNL A   1      44.740  21.291  24.799  1.00  0.00     0.060 A 
ATOM     37  C   UNL A   1      44.437  22.395  23.992  1.00  0.00     0.016 A 
ATOM     38  C   UNL A   1      45.030  21.463  26.155  1.00  0.00     0.016 A 
ATOM     39  C   UNL A   1      44.467  23.682  24.528  1.00  0.00     0.010 A 
ATOM     40  C   UNL A   1      45.085  22.755  26.685  1.00  0.00     0.010 A 
ATOM     41  C   UNL A   1      44.842  23.871  25.863  1.00  0.00    -0.014 A 
BRANCH  41  42
ATOM     42  C   UNL A   1      45.195  25.232  26.334  1.00  0.00     0.031 A 
ATOM     43  C   UNL A   1      44.106  26.081  26.932  1.00  0.00     0.074 A 
ATOM     44  C   UNL A   1      46.454  25.695  26.267  1.00  0.00     0.049 A 
ATOM     45  N   UNL A   1      44.152  27.313  27.369  1.00  0.00    -0.248 NA
ATOM     46  C   UNL A   1      42.781  25.449  27.052  1.00  0.00     0.031 C 
ATOM     47  C   UNL A   1      47.603  24.950  25.759  1.00  0.00     0.029 A 
ATOM     48  N   UNL A   1      46.973  26.915  26.625  1.00  0.00    -0.354 N 
ATOM     49  C   UNL A   1      42.865  27.605  27.804  1.00  0.00     0.074 A 
ATOM     50  C   UNL A   1      42.053  26.436  27.550  1.00  0.00     0.031 C 
ATOM     51  C   UNL A   1      48.693  25.736  25.824  1.00  0.00     0.029 A 
ATOM     52  C   UNL A   1      48.310  27.048  26.345  1.00  0.00     0.049 A 
ATOM     53  H   UNL A   1      46.436  27.628  27.043  1.00  0.00     0.167 HD
ATOM     54  C   UNL A   1      42.404  28.745  28.371  1.00  0.00     0.037 A 
ATOM     55  C   UNL A   1      49.120  28.118  26.469  1.00  0.00     0.037 A 
ATOM     56  C   UNL A   1      43.217  29.907  28.620  1.00  0.00     0.049 A 
ATOM     57  C   UNL A   1      48.563  29.405  27.026  1.00  0.00     0.074 A 
ATOM     58  C   UNL A   1      42.850  31.107  29.202  1.00  0.00     0.029 A 
ATOM     59  N   UNL A   1      44.558  30.017  28.286  1.00  0.00    -0.354 N 
ATOM     60  N   UNL A   1      47.352  29.669  27.455  1.00  0.00    -0.248 NA
ATOM     61  C   UNL A   1      49.489  30.543  27.118  1.00  0.00     0.031 C 
ATOM     62  C   UNL A   1      43.951  31.966  29.162  1.00  0.00     0.029 A 
ATOM     63  C   UNL A   1      45.026  31.277  28.622  1.00  0.00     0.049 A 
ATOM     64  H   UNL A   1      45.099  29.305  27.873  1.00  0.00     0.167 HD
ATOM     65  C   UNL A   1      47.381  30.988  27.899  1.00  0.00     0.074 A 
ATOM     66  C   UNL A   1      48.733  31.463  27.699  1.00  0.00     0.031 C 
ATOM     67  C   UNL A   1      46.379  31.735  28.427  1.00  0.00     0.037 A 
BRANCH  54  68
ATOM     68  C   UNL A   1      40.947  28.803  28.729  1.00  0.00     0.064 A 
ATOM     69  C   UNL A   1      39.965  29.150  27.791  1.00  0.00     0.173 A 
ATOM     70  C   UNL A   1      40.526  28.477  30.028  1.00  0.00     0.173 A 
ATOM     71  F   UNL A   1      40.313  29.486  26.539  1.00  0.00    -0.203 F 
ATOM     72  C   UNL A   1      38.618  29.196  28.146  1.00  0.00     0.198 A 
ATOM     73  C   UNL A   1      39.177  28.491  30.371  1.00  0.00     0.198 A 
ATOM     74  F   UNL A   1      41.424  28.138  30.965  1.00  0.00    -0.203 F 
ATOM     75  F   UNL A   1      37.702  29.584  27.247  1.00  0.00    -0.200 F 
ATOM     76  C   UNL A   1      38.224  28.860  29.432  1.00  0.00     0.200 A 
ATOM     77  F   UNL A   1      38.799  28.152  31.611  1.00  0.00    -0.200 F 
ATOM     78  F   UNL A   1      36.929  28.898  29.770  1.00  0.00    -0.200 F 
ENDBRANCH  54  68
BRANCH  55  79
ATOM     79  C   UNL A   1      50.543  28.030  26.041  1.00  0.00     0.064 A 
ATOM     80  C   UNL A   1      50.899  28.095  24.686  1.00  0.00     0.173 A 
ATOM     81  C   UNL A   1      51.573  27.849  26.975  1.00  0.00     0.173 A 
ATOM     82  F   UNL A   1      49.949  28.239  23.751  1.00  0.00    -0.203 F 
ATOM     83  C   UNL A   1      52.226  27.958  24.282  1.00  0.00     0.198 A 
ATOM     84  C   UNL A   1      52.903  27.747  26.574  1.00  0.00     0.198 A 
ATOM     85  F   UNL A   1      51.288  27.778  28.284  1.00  0.00    -0.203 F 
ATOM     86  F   UNL A   1      52.530  27.967  22.977  1.00  0.00    -0.200 F 
ATOM     87  C   UNL A   1      53.228  27.791  25.227  1.00  0.00     0.200 A 
ATOM     88  F   UNL A   1      53.868  27.600  27.491  1.00  0.00    -0.200 F 
ATOM     89  F   UNL A   1      54.503  27.662  24.838  1.00  0.00    -0.200 F 
ENDBRANCH  55  79
BRANCH  67  90
ATOM     90  C   UNL A   1      46.714  33.131  28.873  1.00  0.00     0.064 A 
ATOM     91  C   UNL A   1      47.201  33.403  30.160  1.00  0.00     0.173 A 
ATOM     92  C   UNL A   1      46.586  34.208  27.981  1.00  0.00     0.173 A 
ATOM     93  F   UNL A   1      47.332  32.414  31.055  1.00  0.00    -0.203 F 
ATOM     94  C   UNL A   1      47.518  34.704  30.546  1.00  0.00     0.198 A 
ATOM     95  C   UNL A   1      46.939  35.500  28.358  1.00  0.00     0.198 A 
ATOM     96  F   UNL A   1      46.136  34.004  26.733  1.00  0.00    -0.203 F 
ATOM     97  F   UNL A   1      47.929  34.947  31.799  1.00  0.00    -0.200 F 
ATOM     98  C   UNL A   1      47.395  35.749  29.643  1.00  0.00     0.200 A 
ATOM     99  F   UNL A   1      46.838  36.505  27.476  1.00  0.00    -0.200 F 
ATOM    100  F   UNL A   1      47.709  36.998  30.014  1.00  0.00    -0.200 F 
ENDBRANCH  67  90
ENDBRANCH  41  42
ENDBRANCH  34  36
ENDBRANCH  33  34
ENDBRANCH  32  33
ENDBRANCH  31  32
ENDBRANCH  30  31
ENDBRANCH  29  30
ENDBRANCH   1  29
TORSDOF 22
ENDMDL
MODEL 2
REMARK VINA RESULT:     -10.0      1.082      7.183
REMARK SMILES CCC1(C(=O)OCCOCCOCCOCCOC(=O)c2ccc(-c3c4nc(c(-c5c(F)c(F)c(F)c(F)c5F)c5ccc([nH]5)c(-c5c(F)c(F)c(F)c(F)c5F)c5nc(c(-c6c(F)c(F)c(F)c(F)c6F)c6ccc3[nH]6)C=C5)C=C4)cc2)CCN(c2ncnc3c2CCCC3)CC1
REMARK SMILES IDX 13 1 12 2 11 3 10 4 9 5 8 6 7 7 6 8 4 9 5 10 3 11 84 12
REMARK SMILES IDX 98 13 85 14 97 15 86 16 2 17 1 18 87 19 88 20 92 21 89 22
REMARK SMILES IDX 91 23 93 24 90 25 96 26 94 27 95 28 14 29 15 30 16 31 17 32
REMARK SMILES IDX 18 33 19 34 20 35 21 36 22 37 83 38 23 39 82 40 24 41 25 42
REMARK SMILES IDX 26 43 76 44 27 45 81 46 75 47 77 48 28 49 80 50 74 51 73 52
REMARK SMILES IDX 29 54 61 55 41 56 60 57 42 58 45 59 59 60 78 61 43 62 44 63
REMARK SMILES IDX 58 65 79 66 46 67 30 68 31 69 39 70 32 71 33 72 37 73 40 74
REMARK SMILES IDX 34 75 35 76 38 77 36 78 62 79 63 80 71 81 64 82 65 83 69 84
REMARK SMILES IDX 72 85 66 86 67 87 70 88 68 89 47 90 48 91 56 92 49 93 50 94
REMARK SMILES IDX 54 95 57 96 51 97 52 98 55 99 53 100
REMARK H PARENT 77 53 45 64
REMARK Flexibility Score: inf
ROOT
ATOM      1  C   UNL A   1      38.494  23.570  26.167  1.00  0.00     0.188 C 
ENDROOT
BRANCH   1   2
ATOM      2  O   UNL A   1      37.413  23.929  25.319  1.00  0.00    -0.377 OA
BRANCH   2   3
ATOM      3  C   UNL A   1      37.286  23.253  24.085  1.00  0.00     0.188 C 
BRANCH   3   4
ATOM      4  C   UNL A   1      35.871  22.847  23.667  1.00  0.00     0.188 C 
BRANCH   4   5
ATOM      5  O   UNL A   1      35.331  21.621  24.113  1.00  0.00    -0.376 OA
BRANCH   5   6
ATOM      6  C   UNL A   1      35.616  21.118  25.407  1.00  0.00     0.202 C 
BRANCH   6   7
ATOM      7  C   UNL A   1      34.893  21.550  26.702  1.00  0.00     0.261 C 
BRANCH   7   8
ATOM      8  O   UNL A   1      34.254  22.839  26.727  1.00  0.00    -0.463 OA
BRANCH   8   9
ATOM      9  C   UNL A   1      32.968  22.855  27.143  1.00  0.00     0.312 C 
ATOM     10  O   UNL A   1      32.625  22.524  28.277  1.00  0.00    -0.252 OA
BRANCH   9  11
ATOM     11  C   UNL A   1      31.929  23.309  26.082  1.00  0.00     0.071 C 
ATOM     12  C   UNL A   1      30.761  24.206  26.597  1.00  0.00     0.040 C 
ATOM     13  C   UNL A   1      32.839  24.120  25.103  1.00  0.00     0.040 C 
ATOM     14  C   UNL A   1      30.125  25.094  25.531  1.00  0.00     0.119 C 
ATOM     15  C   UNL A   1      32.097  25.008  24.109  1.00  0.00     0.119 C 
ATOM     16  N   UNL A   1      31.192  25.823  24.894  1.00  0.00    -0.356 N 
BRANCH  11  17
ATOM     17  C   UNL A   1      31.424  21.958  25.465  1.00  0.00     0.015 C 
ATOM     18  C   UNL A   1      32.101  21.387  24.229  1.00  0.00     0.005 C 
ENDBRANCH  11  17
BRANCH  16  19
ATOM     19  C   UNL A   1      31.066  27.175  24.677  1.00  0.00     0.135 A 
ATOM     20  N   UNL A   1      30.301  27.565  23.644  1.00  0.00    -0.219 NA
ATOM     21  C   UNL A   1      31.724  28.104  25.493  1.00  0.00     0.016 A 
ATOM     22  C   UNL A   1      30.143  28.882  23.472  1.00  0.00     0.224 A 
ATOM     23  C   UNL A   1      31.472  29.445  25.235  1.00  0.00     0.049 A 
ATOM     24  C   UNL A   1      32.671  27.690  26.593  1.00  0.00     0.041 C 
ATOM     25  N   UNL A   1      30.680  29.852  24.222  1.00  0.00    -0.241 NA
ATOM     26  C   UNL A   1      32.134  30.538  26.033  1.00  0.00     0.057 C 
ATOM     27  C   UNL A   1      33.535  28.814  27.154  1.00  0.00     0.005 C 
ATOM     28  C   UNL A   1      32.691  30.058  27.371  1.00  0.00     0.007 C 
ENDBRANCH  16  19
ENDBRANCH   9  11
ENDBRANCH   8   9
ENDBRANCH   7   8
ENDBRANCH   6   7
ENDBRANCH   5   6
ENDBRANCH   4   5
ENDBRANCH   3   4
ENDBRANCH   2   3
ENDBRANCH   1   2
BRANCH   1  29
ATOM     29  C   UNL A   1      38.885  22.087  26.301  1.00  0.00     0.188 C 
BRANCH  29  30
ATOM     30  O   UNL A   1      40.264  21.821  26.100  1.00  0.00    -0.376 OA
BRANCH  30  31
ATOM     31  C   UNL A   1      40.720  20.477  26.063  1.00  0.00     0.202 C 
BRANCH  31  32
ATOM     32  C   UNL A   1      42.236  20.212  26.071  1.00  0.00     0.261 C 
BRANCH  32  33
ATOM     33  O   UNL A   1      42.802  19.660  24.871  1.00  0.00    -0.460 OA
BRANCH  33  34
ATOM     34  C   UNL A   1      44.138  19.709  24.716  1.00  0.00     0.338 C 
ATOM     35  O   UNL A   1      44.866  18.834  24.274  1.00  0.00    -0.246 OA
BRANCH  34  36
ATOM     36  C   UNL A   1      44.574  21.094  24.985  1.00  0.00     0.060 A 
ATOM     37  C   UNL A   1      45.238  21.373  26.186  1.00  0.00     0.016 A 
ATOM     38  C   UNL A   1      44.324  22.112  24.061  1.00  0.00     0.016 A 
ATOM     39  C   UNL A   1      45.617  22.681  26.488  1.00  0.00     0.010 A 
ATOM     40  C   UNL A   1      44.682  23.426  24.376  1.00  0.00     0.010 A 
ATOM     41  C   UNL A   1      45.293  23.720  25.608  1.00  0.00    -0.014 A 
BRANCH  41  42
ATOM     42  C   UNL A   1      45.393  25.124  26.073  1.00  0.00     0.031 A 
ATOM     43  C   UNL A   1      46.729  25.811  25.979  1.00  0.00     0.074 A 
ATOM     44  C   UNL A   1      44.321  25.790  26.535  1.00  0.00     0.049 A 
ATOM     45  N   UNL A   1      47.080  27.010  26.363  1.00  0.00    -0.248 NA
ATOM     46  C   UNL A   1      47.818  25.031  25.368  1.00  0.00     0.031 C 
ATOM     47  C   UNL A   1      42.965  25.253  26.624  1.00  0.00     0.029 A 
ATOM     48  N   UNL A   1      44.212  27.068  27.025  1.00  0.00    -0.354 N 
ATOM     49  C   UNL A   1      48.429  27.124  26.050  1.00  0.00     0.074 A 
ATOM     50  C   UNL A   1      48.842  25.863  25.475  1.00  0.00     0.031 C 
ATOM     51  C   UNL A   1      42.160  26.192  27.152  1.00  0.00     0.029 A 
ATOM     52  C   UNL A   1      42.952  27.381  27.470  1.00  0.00     0.049 A 
ATOM     53  H   UNL A   1      44.966  27.701  27.053  1.00  0.00     0.167 HD
ATOM     54  C   UNL A   1      49.248  28.190  26.220  1.00  0.00     0.037 A 
ATOM     55  C   UNL A   1      42.500  28.489  28.089  1.00  0.00     0.037 A 
ATOM     56  C   UNL A   1      48.832  29.442  26.793  1.00  0.00     0.049 A 
ATOM     57  C   UNL A   1      43.453  29.632  28.344  1.00  0.00     0.074 A 
ATOM     58  C   UNL A   1      49.580  30.588  26.997  1.00  0.00     0.029 A 
ATOM     59  N   UNL A   1      47.556  29.707  27.269  1.00  0.00    -0.354 N 
ATOM     60  N   UNL A   1      44.720  29.743  28.027  1.00  0.00    -0.248 NA
ATOM     61  C   UNL A   1      42.908  30.806  29.041  1.00  0.00     0.031 C 
ATOM     62  C   UNL A   1      48.776  31.523  27.654  1.00  0.00     0.029 A 
ATOM     63  C   UNL A   1      47.505  30.988  27.794  1.00  0.00     0.049 A 
ATOM     64  H   UNL A   1      46.799  29.079  27.237  1.00  0.00     0.167 HD
ATOM     65  C   UNL A   1      45.114  31.008  28.453  1.00  0.00     0.074 A 
ATOM     66  C   UNL A   1      43.946  31.630  29.039  1.00  0.00     0.031 C 
ATOM     67  C   UNL A   1      46.331  31.600  28.365  1.00  0.00     0.037 A 
BRANCH  54  68
ATOM     68  C   UNL A   1      50.684  28.033  25.811  1.00  0.00     0.064 A 
ATOM     69  C   UNL A   1      51.087  28.097  24.470  1.00  0.00     0.173 A 
ATOM     70  C   UNL A   1      51.678  27.842  26.785  1.00  0.00     0.173 A 
ATOM     71  F   UNL A   1      50.177  28.262  23.497  1.00  0.00    -0.203 F 
ATOM     72  C   UNL A   1      52.426  27.948  24.115  1.00  0.00     0.198 A 
ATOM     73  C   UNL A   1      53.019  27.728  26.430  1.00  0.00     0.198 A 
ATOM     74  F   UNL A   1      51.348  27.773  28.083  1.00  0.00    -0.203 F 
ATOM     75  F   UNL A   1      52.780  27.958  22.822  1.00  0.00    -0.200 F 
ATOM     76  C   UNL A   1      53.391  27.771  25.095  1.00  0.00     0.200 A 
ATOM     77  F   UNL A   1      53.951  27.571  27.380  1.00  0.00    -0.200 F 
ATOM     78  F   UNL A   1      54.680  27.636  24.752  1.00  0.00    -0.200 F 
ENDBRANCH  54  68
BRANCH  55  79
ATOM     79  C   UNL A   1      41.081  28.572  28.532  1.00  0.00     0.064 A 
ATOM     80  C   UNL A   1      40.698  28.171  29.819  1.00  0.00     0.173 A 
ATOM     81  C   UNL A   1      40.075  29.025  27.666  1.00  0.00     0.173 A 
ATOM     82  F   UNL A   1      41.618  27.704  30.676  1.00  0.00    -0.203 F 
ATOM     83  C   UNL A   1      39.362  28.197  30.215  1.00  0.00     0.198 A 
ATOM     84  C   UNL A   1      38.745  29.084  28.073  1.00  0.00     0.198 A 
ATOM     85  F   UNL A   1      40.386  29.419  26.422  1.00  0.00    -0.203 F 
ATOM     86  F   UNL A   1      39.018  27.755  31.432  1.00  0.00    -0.200 F 
ATOM     87  C   UNL A   1      38.387  28.660  29.344  1.00  0.00     0.200 A 
ATOM     88  F   UNL A   1      37.808  29.545  27.232  1.00  0.00    -0.200 F 
ATOM     89  F   UNL A   1      37.103  28.688  29.726  1.00  0.00    -0.200 F 
ENDBRANCH  55  79
BRANCH  67  90
ATOM     90  C   UNL A   1      46.455  33.012  28.869  1.00  0.00     0.064 A 
ATOM     91  C   UNL A   1      46.839  33.299  30.187  1.00  0.00     0.173 A 
ATOM     92  C   UNL A   1      46.228  34.094  28.003  1.00  0.00     0.173 A 
ATOM     93  F   UNL A   1      47.057  32.304  31.059  1.00  0.00    -0.203 F 
ATOM     94  C   UNL A   1      46.960  34.615  30.627  1.00  0.00     0.198 A 
ATOM     95  C   UNL A   1      46.386  35.406  28.435  1.00  0.00     0.198 A 
ATOM     96  F   UNL A   1      45.869  33.876  26.728  1.00  0.00    -0.203 F 
ATOM     97  F   UNL A   1      47.274  34.866  31.906  1.00  0.00    -0.200 F 
ATOM     98  C   UNL A   1      46.742  35.667  29.749  1.00  0.00     0.200 A 
ATOM     99  F   UNL A   1      46.195  36.420  27.579  1.00  0.00    -0.200 F 
ATOM    100  F   UNL A   1      46.869  36.933  30.172  1.00  0.00    -0.200 F 
ENDBRANCH  67  90
ENDBRANCH  41  42
ENDBRANCH  34  36
ENDBRANCH  33  34
ENDBRANCH  32  33
ENDBRANCH  31  32
ENDBRANCH  30  31
ENDBRANCH  29  30
ENDBRANCH   1  29
TORSDOF 22
ENDMDL
MODEL 3
REMARK VINA RESULT:      -9.8      4.013     10.087
REMARK SMILES CCC1(C(=O)OCCOCCOCCOCCOC(=O)c2ccc(-c3c4nc(c(-c5c(F)c(F)c(F)c(F)c5F)c5ccc([nH]5)c(-c5c(F)c(F)c(F)c(F)c5F)c5nc(c(-c6c(F)c(F)c(F)c(F)c6F)c6ccc3[nH]6)C=C5)C=C4)cc2)CCN(c2ncnc3c2CCCC3)CC1
REMARK SMILES IDX 13 1 12 2 11 3 10 4 9 5 8 6 7 7 6 8 4 9 5 10 3 11 84 12
REMARK SMILES IDX 98 13 85 14 97 15 86 16 2 17 1 18 87 19 88 20 92 21 89 22
REMARK SMILES IDX 91 23 93 24 90 25 96 26 94 27 95 28 14 29 15 30 16 31 17 32
REMARK SMILES IDX 18 33 19 34 20 35 21 36 22 37 83 38 23 39 82 40 24 41 25 42
REMARK SMILES IDX 26 43 76 44 27 45 81 46 75 47 77 48 28 49 80 50 74 51 73 52
REMARK SMILES IDX 29 54 61 55 41 56 60 57 42 58 45 59 59 60 78 61 43 62 44 63
REMARK SMILES IDX 58 65 79 66 46 67 30 68 31 69 39 70 32 71 33 72 37 73 40 74
REMARK SMILES IDX 34 75 35 76 38 77 36 78 62 79 63 80 71 81 64 82 65 83 69 84
REMARK SMILES IDX 72 85 66 86 67 87 70 88 68 89 47 90 48 91 56 92 49 93 50 94
REMARK SMILES IDX 54 95 57 96 51 97 52 98 55 99 53 100
REMARK H PARENT 77 53 45 64
REMARK Flexibility Score: inf
ROOT
ATOM      1  C   UNL A   1      35.136  33.862  28.265  1.00  0.00     0.188 C 
ENDROOT
BRANCH   1   2
ATOM      2  O   UNL A   1      35.080  32.786  27.340  1.00  0.00    -0.377 OA
BRANCH   2   3
ATOM      3  C   UNL A   1      34.769  31.500  27.836  1.00  0.00     0.188 C 
BRANCH   3   4
ATOM      4  C   UNL A   1      33.448  30.885  27.368  1.00  0.00     0.188 C 
BRANCH   4   5
ATOM      5  O   UNL A   1      33.433  30.009  26.261  1.00  0.00    -0.376 OA
BRANCH   5   6
ATOM      6  C   UNL A   1      32.234  29.737  25.554  1.00  0.00     0.202 C 
BRANCH   6   7
ATOM      7  C   UNL A   1      32.069  28.629  24.491  1.00  0.00     0.261 C 
BRANCH   7   8
ATOM      8  O   UNL A   1      33.232  27.879  24.101  1.00  0.00    -0.463 OA
BRANCH   8   9
ATOM      9  C   UNL A   1      33.473  26.750  24.805  1.00  0.00     0.312 C 
ATOM     10  O   UNL A   1      34.059  26.745  25.887  1.00  0.00    -0.252 OA
BRANCH   9  11
ATOM     11  C   UNL A   1      32.970  25.435  24.151  1.00  0.00     0.071 C 
ATOM     12  C   UNL A   1      33.924  24.769  23.111  1.00  0.00     0.040 C 
ATOM     13  C   UNL A   1      32.818  24.516  25.407  1.00  0.00     0.040 C 
ATOM     14  C   UNL A   1      33.719  23.268  22.933  1.00  0.00     0.119 C 
ATOM     15  C   UNL A   1      32.664  23.029  25.111  1.00  0.00     0.119 C 
ATOM     16  N   UNL A   1      33.769  22.673  24.244  1.00  0.00    -0.356 N 
BRANCH  11  17
ATOM     17  C   UNL A   1      31.590  25.843  23.526  1.00  0.00     0.015 C 
ATOM     18  C   UNL A   1      31.422  25.884  22.015  1.00  0.00     0.005 C 
ENDBRANCH  11  17
BRANCH  16  19
ATOM     19  C   UNL A   1      34.518  21.539  24.456  1.00  0.00     0.135 A 
ATOM     20  N   UNL A   1      35.811  21.706  24.778  1.00  0.00    -0.219 NA
ATOM     21  C   UNL A   1      33.953  20.264  24.325  1.00  0.00     0.016 A 
ATOM     22  C   UNL A   1      36.518  20.599  25.031  1.00  0.00     0.224 A 
ATOM     23  C   UNL A   1      34.775  19.187  24.632  1.00  0.00     0.049 A 
ATOM     24  C   UNL A   1      32.533  20.049  23.864  1.00  0.00     0.041 C 
ATOM     25  N   UNL A   1      36.066  19.340  24.987  1.00  0.00    -0.241 NA
ATOM     26  C   UNL A   1      34.288  17.766  24.511  1.00  0.00     0.057 C 
ATOM     27  C   UNL A   1      32.194  18.616  23.468  1.00  0.00     0.005 C 
ATOM     28  C   UNL A   1      32.765  17.648  24.491  1.00  0.00     0.007 C 
ENDBRANCH  16  19
ENDBRANCH   9  11
ENDBRANCH   8   9
ENDBRANCH   7   8
ENDBRANCH   6   7
ENDBRANCH   5   6
ENDBRANCH   4   5
ENDBRANCH   3   4
ENDBRANCH   2   3
ENDBRANCH   1   2
BRANCH   1  29
ATOM     29  C   UNL A   1      33.869  34.242  29.054  1.00  0.00     0.188 C 
BRANCH  29  30
ATOM     30  O   UNL A   1      33.910  33.906  30.431  1.00  0.00    -0.376 OA
BRANCH  30  31
ATOM     31  C   UNL A   1      34.775  34.620  31.302  1.00  0.00     0.202 C 
BRANCH  31  32
ATOM     32  C   UNL A   1      35.173  33.974  32.640  1.00  0.00     0.261 C 
BRANCH  32  33
ATOM     33  O   UNL A   1      36.579  33.877  32.918  1.00  0.00    -0.460 OA
BRANCH  33  34
ATOM     34  C   UNL A   1      37.026  32.791  33.578  1.00  0.00     0.338 C 
ATOM     35  O   UNL A   1      36.675  32.397  34.679  1.00  0.00    -0.246 OA
BRANCH  34  36
ATOM     36  C   UNL A   1      37.883  32.022  32.653  1.00  0.00     0.060 A 
ATOM     37  C   UNL A   1      38.710  31.020  33.174  1.00  0.00     0.016 A 
ATOM     38  C   UNL A   1      37.874  32.292  31.282  1.00  0.00     0.016 A 
ATOM     39  C   UNL A   1      39.565  30.311  32.330  1.00  0.00     0.010 A 
ATOM     40  C   UNL A   1      38.749  31.599  30.442  1.00  0.00     0.010 A 
ATOM     41  C   UNL A   1      39.627  30.634  30.970  1.00  0.00    -0.014 A 
BRANCH  41  42
ATOM     42  C   UNL A   1      40.752  30.125  30.151  1.00  0.00     0.031 A 
ATOM     43  C   UNL A   1      41.899  31.056  29.863  1.00  0.00     0.074 A 
ATOM     44  C   UNL A   1      40.778  28.860  29.699  1.00  0.00     0.049 A 
ATOM     45  N   UNL A   1      42.969  30.864  29.136  1.00  0.00    -0.248 NA
ATOM     46  C   UNL A   1      41.824  32.389  30.483  1.00  0.00     0.031 C 
ATOM     47  C   UNL A   1      39.755  27.849  29.955  1.00  0.00     0.029 A 
ATOM     48  N   UNL A   1      41.705  28.213  28.919  1.00  0.00    -0.354 N 
ATOM     49  C   UNL A   1      43.687  32.052  29.203  1.00  0.00     0.074 A 
ATOM     50  C   UNL A   1      42.918  32.969  30.013  1.00  0.00     0.031 C 
ATOM     51  C   UNL A   1      40.104  26.710  29.331  1.00  0.00     0.029 A 
ATOM     52  C   UNL A   1      41.355  26.924  28.603  1.00  0.00     0.049 A 
ATOM     53  H   UNL A   1      42.543  28.634  28.616  1.00  0.00     0.167 HD
ATOM     54  C   UNL A   1      44.885  32.346  28.644  1.00  0.00     0.037 A 
ATOM     55  C   UNL A   1      41.962  26.033  27.795  1.00  0.00     0.037 A 
ATOM     56  C   UNL A   1      45.645  31.429  27.836  1.00  0.00     0.049 A 
ATOM     57  C   UNL A   1      43.255  26.415  27.114  1.00  0.00     0.074 A 
ATOM     58  C   UNL A   1      46.875  31.626  27.235  1.00  0.00     0.029 A 
ATOM     59  N   UNL A   1      45.238  30.146  27.506  1.00  0.00    -0.354 N 
ATOM     60  N   UNL A   1      43.939  27.531  27.198  1.00  0.00    -0.248 NA
ATOM     61  C   UNL A   1      43.859  25.410  26.229  1.00  0.00     0.031 C 
ATOM     62  C   UNL A   1      47.183  30.486  26.488  1.00  0.00     0.029 A 
ATOM     63  C   UNL A   1      46.179  29.549  26.683  1.00  0.00     0.049 A 
ATOM     64  H   UNL A   1      44.404  29.720  27.812  1.00  0.00     0.167 HD
ATOM     65  C   UNL A   1      45.069  27.348  26.407  1.00  0.00     0.074 A 
ATOM     66  C   UNL A   1      44.983  26.010  25.863  1.00  0.00     0.031 C 
ATOM     67  C   UNL A   1      46.087  28.210  26.156  1.00  0.00     0.037 A 
BRANCH  54  68
ATOM     68  C   UNL A   1      45.428  33.730  28.858  1.00  0.00     0.064 A 
ATOM     69  C   UNL A   1      45.068  34.806  28.034  1.00  0.00     0.173 A 
ATOM     70  C   UNL A   1      46.304  33.986  29.925  1.00  0.00     0.173 A 
ATOM     71  F   UNL A   1      44.247  34.614  26.990  1.00  0.00    -0.203 F 
ATOM     72  C   UNL A   1      45.586  36.081  28.253  1.00  0.00     0.198 A 
ATOM     73  C   UNL A   1      46.793  35.268  30.161  1.00  0.00     0.198 A 
ATOM     74  F   UNL A   1      46.681  32.993  30.744  1.00  0.00    -0.203 F 
ATOM     75  F   UNL A   1      45.271  37.082  27.420  1.00  0.00    -0.200 F 
ATOM     76  C   UNL A   1      46.441  36.313  29.320  1.00  0.00     0.200 A 
ATOM     77  F   UNL A   1      47.607  35.492  31.202  1.00  0.00    -0.200 F 
ATOM     78  F   UNL A   1      46.932  37.541  29.533  1.00  0.00    -0.200 F 
ENDBRANCH  54  68
BRANCH  55  79
ATOM     79  C   UNL A   1      41.351  24.696  27.564  1.00  0.00     0.064 A 
ATOM     80  C   UNL A   1      41.893  23.540  28.143  1.00  0.00     0.173 A 
ATOM     81  C   UNL A   1      40.230  24.543  26.735  1.00  0.00     0.173 A 
ATOM     82  F   UNL A   1      42.981  23.629  28.922  1.00  0.00    -0.203 F 
ATOM     83  C   UNL A   1      41.352  22.282  27.883  1.00  0.00     0.198 A 
ATOM     84  C   UNL A   1      39.669  23.290  26.502  1.00  0.00     0.198 A 
ATOM     85  F   UNL A   1      39.673  25.616  26.153  1.00  0.00    -0.203 F 
ATOM     86  F   UNL A   1      41.925  21.189  28.405  1.00  0.00    -0.200 F 
ATOM     87  C   UNL A   1      40.237  22.158  27.067  1.00  0.00     0.200 A 
ATOM     88  F   UNL A   1      38.584  23.177  25.724  1.00  0.00    -0.200 F 
ATOM     89  F   UNL A   1      39.716  20.949  26.820  1.00  0.00    -0.200 F 
ENDBRANCH  55  79
BRANCH  67  90
ATOM     90  C   UNL A   1      47.217  27.720  25.294  1.00  0.00     0.064 A 
ATOM     91  C   UNL A   1      48.286  26.980  25.821  1.00  0.00     0.173 A 
ATOM     92  C   UNL A   1      47.205  27.957  23.910  1.00  0.00     0.173 A 
ATOM     93  F   UNL A   1      48.353  26.735  27.137  1.00  0.00    -0.203 F 
ATOM     94  C   UNL A   1      49.315  26.525  25.000  1.00  0.00     0.198 A 
ATOM     95  C   UNL A   1      48.215  27.469  23.088  1.00  0.00     0.198 A 
ATOM     96  F   UNL A   1      46.200  28.650  23.351  1.00  0.00    -0.203 F 
ATOM     97  F   UNL A   1      50.355  25.869  25.534  1.00  0.00    -0.200 F 
ATOM     98  C   UNL A   1      49.274  26.762  23.634  1.00  0.00     0.200 A 
ATOM     99  F   UNL A   1      48.162  27.682  21.765  1.00  0.00    -0.200 F 
ATOM    100  F   UNL A   1      50.261  26.314  22.845  1.00  0.00    -0.200 F 
ENDBRANCH  67  90
ENDBRANCH  41  42
ENDBRANCH  34  36
ENDBRANCH  33  34
ENDBRANCH  32  33
ENDBRANCH  31  32
ENDBRANCH  30  31
ENDBRANCH  29  30
ENDBRANCH   1  29
TORSDOF 22
ENDMDL
