MODEL 1
REMARK VINA RESULT:      -9.2      0.000      0.000
REMARK SMILES Cc1ccc(C)c(CC(=O)N(CC(=O)OCCOCCOCCOCCOC(=O)c2ccc(-c3c4nc(c(-c5c(F)c(F)c(F)c(F)c5F)c5ccc([nH]5)c(-c5c(F)c(F)c(F)c(F)c5F)c5nc(c(-c6c(F)c(F)c(F)c(F)c6F)c6ccc3[nH]6)C=C5)C=C4)cc2)CC(F)(F)F)c1
REMARK SMILES IDX 20 1 19 2 18 3 17 4 16 5 15 6 13 7 14 8 12 9 11 10 9 11
REMARK SMILES IDX 10 12 8 13 7 14 1 15 2 16 3 17 98 18 4 19 5 20 6 21 93 22
REMARK SMILES IDX 94 23 95 24 96 25 97 26 21 27 22 28 23 29 24 30 25 31 26 32
REMARK SMILES IDX 27 33 28 34 29 35 30 36 31 37 92 38 32 39 91 40 33 41 34 42
REMARK SMILES IDX 35 43 85 44 36 45 90 46 84 47 86 48 37 49 89 50 83 51 82 52
REMARK SMILES IDX 38 54 70 55 50 56 69 57 51 58 54 59 68 60 87 61 52 62 53 63
REMARK SMILES IDX 67 65 88 66 55 67 39 68 40 69 48 70 41 71 42 72 46 73 49 74
REMARK SMILES IDX 43 75 44 76 47 77 45 78 71 79 72 80 80 81 73 82 74 83 78 84
REMARK SMILES IDX 81 85 75 86 76 87 79 88 77 89 56 90 57 91 65 92 58 93 59 94
REMARK SMILES IDX 63 95 66 96 60 97 61 98 64 99 62 100
REMARK H PARENT 86 53 54 64
REMARK Flexibility Score: inf
ROOT
ATOM      1  C   UNL A   1      42.666  19.814  25.890  1.00  0.00     0.188 C 
ENDROOT
BRANCH   1   2
ATOM      2  C   UNL A   1      41.935  19.728  27.215  1.00  0.00     0.188 C 
BRANCH   2   3
ATOM      3  O   UNL A   1      40.775  20.500  27.406  1.00  0.00    -0.376 OA
BRANCH   3   4
ATOM      4  C   UNL A   1      40.034  20.883  26.264  1.00  0.00     0.202 C 
BRANCH   4   5
ATOM      5  C   UNL A   1      39.487  22.310  26.146  1.00  0.00     0.261 C 
BRANCH   5   6
ATOM      6  O   UNL A   1      38.070  22.432  26.432  1.00  0.00    -0.462 OA
BRANCH   6   7
ATOM      7  C   UNL A   1      37.238  22.319  25.362  1.00  0.00     0.325 C 
ATOM      8  O   UNL A   1      37.455  22.888  24.294  1.00  0.00    -0.250 OA
BRANCH   7   9
ATOM      9  C   UNL A   1      36.029  21.333  25.500  1.00  0.00     0.242 C 
BRANCH   9  10
ATOM     10  N   UNL A   1      34.557  21.590  25.525  1.00  0.00    -0.322 N 
BRANCH  10  11
ATOM     11  C   UNL A   1      33.972  22.593  26.287  1.00  0.00     0.227 C 
ATOM     12  O   UNL A   1      34.526  22.984  27.321  1.00  0.00    -0.275 OA
BRANCH  11  13
ATOM     13  C   UNL A   1      32.612  23.144  25.927  1.00  0.00     0.136 C 
BRANCH  13  14
ATOM     14  C   UNL A   1      32.566  24.525  25.318  1.00  0.00    -0.035 A 
ATOM     15  C   UNL A   1      33.929  27.933  26.345  1.00  0.00     0.044 C 
ATOM     16  C   UNL A   1      33.333  26.848  25.499  1.00  0.00    -0.051 A 
ATOM     17  C   UNL A   1      32.659  27.156  24.321  1.00  0.00     0.004 A 
ATOM     18  C   UNL A   1      33.356  25.519  25.929  1.00  0.00     0.008 A 
ATOM     19  C   UNL A   1      31.883  26.184  23.689  1.00  0.00     0.004 A 
ATOM     20  C   UNL A   1      31.792  24.875  24.196  1.00  0.00    -0.047 A 
ATOM     21  C   UNL A   1      30.800  23.962  23.527  1.00  0.00     0.044 C 
ENDBRANCH  13  14
ENDBRANCH  11  13
ENDBRANCH  10  11
BRANCH  10  22
ATOM     22  C   UNL A   1      33.723  21.140  24.370  1.00  0.00     0.235 C 
BRANCH  22  23
ATOM     23  C   UNL A   1      32.907  19.819  24.501  1.00  0.00     0.406 C 
ATOM     24  F   UNL A   1      32.669  19.251  23.297  1.00  0.00    -0.169 F 
ATOM     25  F   UNL A   1      33.636  18.904  25.199  1.00  0.00    -0.169 F 
ATOM     26  F   UNL A   1      31.733  19.957  25.147  1.00  0.00    -0.169 F 
ENDBRANCH  22  23
ENDBRANCH  10  22
ENDBRANCH   9  10
ENDBRANCH   7   9
ENDBRANCH   6   7
ENDBRANCH   5   6
ENDBRANCH   4   5
ENDBRANCH   3   4
ENDBRANCH   2   3
ENDBRANCH   1   2
BRANCH   1  27
ATOM     27  O   UNL A   1      43.826  19.057  25.636  1.00  0.00    -0.377 OA
BRANCH  27  28
ATOM     28  C   UNL A   1      44.744  19.575  24.687  1.00  0.00     0.188 C 
BRANCH  28  29
ATOM     29  C   UNL A   1      46.050  20.127  25.261  1.00  0.00     0.188 C 
BRANCH  29  30
ATOM     30  O   UNL A   1      45.904  21.491  25.637  1.00  0.00    -0.376 OA
BRANCH  30  31
ATOM     31  C   UNL A   1      45.330  22.329  24.649  1.00  0.00     0.202 C 
BRANCH  31  32
ATOM     32  C   UNL A   1      45.707  23.796  24.850  1.00  0.00     0.261 C 
BRANCH  32  33
ATOM     33  O   UNL A   1      45.060  24.545  25.911  1.00  0.00    -0.460 OA
BRANCH  33  34
ATOM     34  C   UNL A   1      43.831  25.095  25.713  1.00  0.00     0.338 C 
ATOM     35  O   UNL A   1      42.864  24.492  25.313  1.00  0.00    -0.246 OA
BRANCH  34  36
ATOM     36  C   UNL A   1      43.826  26.532  26.112  1.00  0.00     0.060 A 
ATOM     37  C   UNL A   1      44.630  26.906  27.178  1.00  0.00     0.016 A 
ATOM     38  C   UNL A   1      42.874  27.428  25.594  1.00  0.00     0.016 A 
ATOM     39  C   UNL A   1      44.325  28.085  27.841  1.00  0.00     0.010 A 
ATOM     40  C   UNL A   1      42.522  28.574  26.306  1.00  0.00     0.010 A 
ATOM     41  C   UNL A   1      43.181  28.851  27.494  1.00  0.00    -0.014 A 
BRANCH  41  42
ATOM     42  C   UNL A   1      42.858  30.010  28.361  1.00  0.00     0.031 A 
ATOM     43  C   UNL A   1      43.982  30.970  28.306  1.00  0.00     0.074 A 
ATOM     44  C   UNL A   1      41.744  30.224  29.114  1.00  0.00     0.049 A 
ATOM     45  N   UNL A   1      44.695  31.397  29.295  1.00  0.00    -0.248 NA
ATOM     46  C   UNL A   1      44.524  31.305  26.966  1.00  0.00     0.031 C 
ATOM     47  C   UNL A   1      40.568  29.354  29.156  1.00  0.00     0.029 A 
ATOM     48  N   UNL A   1      41.369  31.258  29.967  1.00  0.00    -0.354 N 
ATOM     49  C   UNL A   1      45.582  32.286  28.708  1.00  0.00     0.074 A 
ATOM     50  C   UNL A   1      45.595  32.024  27.290  1.00  0.00     0.031 C 
ATOM     51  C   UNL A   1      39.564  29.971  29.816  1.00  0.00     0.029 A 
ATOM     52  C   UNL A   1      39.997  31.284  30.270  1.00  0.00     0.049 A 
ATOM     53  H   UNL A   1      42.009  31.914  30.327  1.00  0.00     0.167 HD
ATOM     54  C   UNL A   1      45.757  33.487  29.311  1.00  0.00     0.037 A 
ATOM     55  C   UNL A   1      39.230  32.295  30.783  1.00  0.00     0.037 A 
ATOM     56  C   UNL A   1      45.603  33.421  30.731  1.00  0.00     0.049 A 
ATOM     57  C   UNL A   1      40.118  33.318  31.382  1.00  0.00     0.074 A 
ATOM     58  C   UNL A   1      46.318  32.891  31.779  1.00  0.00     0.029 A 
ATOM     59  N   UNL A   1      44.329  33.620  31.177  1.00  0.00    -0.354 N 
ATOM     60  N   UNL A   1      40.600  33.259  32.588  1.00  0.00    -0.248 NA
ATOM     61  C   UNL A   1      40.680  34.367  30.537  1.00  0.00     0.031 C 
ATOM     62  C   UNL A   1      45.427  32.818  32.886  1.00  0.00     0.029 A 
ATOM     63  C   UNL A   1      44.196  33.350  32.511  1.00  0.00     0.049 A 
ATOM     64  H   UNL A   1      43.589  33.924  30.604  1.00  0.00     0.167 HD
ATOM     65  C   UNL A   1      41.807  33.913  32.497  1.00  0.00     0.074 A 
ATOM     66  C   UNL A   1      41.722  34.721  31.289  1.00  0.00     0.031 C 
ATOM     67  C   UNL A   1      42.896  33.420  33.150  1.00  0.00     0.037 A 
BRANCH  54  68
ATOM     68  C   UNL A   1      45.411  34.718  28.520  1.00  0.00     0.064 A 
ATOM     69  C   UNL A   1      46.308  35.778  28.412  1.00  0.00     0.173 A 
ATOM     70  C   UNL A   1      44.099  34.951  28.034  1.00  0.00     0.173 A 
ATOM     71  F   UNL A   1      47.528  35.687  28.959  1.00  0.00    -0.203 F 
ATOM     72  C   UNL A   1      45.937  36.972  27.785  1.00  0.00     0.198 A 
ATOM     73  C   UNL A   1      43.757  36.101  27.338  1.00  0.00     0.198 A 
ATOM     74  F   UNL A   1      43.090  34.114  28.313  1.00  0.00    -0.203 F 
ATOM     75  F   UNL A   1      46.792  38.001  27.758  1.00  0.00    -0.200 F 
ATOM     76  C   UNL A   1      44.676  37.117  27.220  1.00  0.00     0.200 A 
ATOM     77  F   UNL A   1      42.518  36.231  26.842  1.00  0.00    -0.200 F 
ATOM     78  F   UNL A   1      44.328  38.260  26.613  1.00  0.00    -0.200 F 
ENDBRANCH  54  68
BRANCH  55  79
ATOM     79  C   UNL A   1      37.750  32.572  30.717  1.00  0.00     0.064 A 
ATOM     80  C   UNL A   1      36.955  32.609  31.889  1.00  0.00     0.173 A 
ATOM     81  C   UNL A   1      37.114  33.058  29.559  1.00  0.00     0.173 A 
ATOM     82  F   UNL A   1      37.441  32.178  33.063  1.00  0.00    -0.203 F 
ATOM     83  C   UNL A   1      35.664  33.159  31.908  1.00  0.00     0.198 A 
ATOM     84  C   UNL A   1      35.817  33.583  29.574  1.00  0.00     0.198 A 
ATOM     85  F   UNL A   1      37.753  33.124  28.387  1.00  0.00    -0.203 F 
ATOM     86  F   UNL A   1      34.991  33.253  33.064  1.00  0.00    -0.200 F 
ATOM     87  C   UNL A   1      35.103  33.662  30.752  1.00  0.00     0.200 A 
ATOM     88  F   UNL A   1      35.294  34.073  28.441  1.00  0.00    -0.200 F 
ATOM     89  F   UNL A   1      33.902  34.255  30.775  1.00  0.00    -0.200 F 
ENDBRANCH  55  79
BRANCH  67  90
ATOM     90  C   UNL A   1      42.709  32.862  34.531  1.00  0.00     0.064 A 
ATOM     91  C   UNL A   1      42.577  31.506  34.870  1.00  0.00     0.173 A 
ATOM     92  C   UNL A   1      42.677  33.785  35.597  1.00  0.00     0.173 A 
ATOM     93  F   UNL A   1      42.683  30.527  33.959  1.00  0.00    -0.203 F 
ATOM     94  C   UNL A   1      42.390  31.108  36.193  1.00  0.00     0.198 A 
ATOM     95  C   UNL A   1      42.567  33.376  36.921  1.00  0.00     0.198 A 
ATOM     96  F   UNL A   1      42.773  35.103  35.358  1.00  0.00    -0.203 F 
ATOM     97  F   UNL A   1      42.252  29.804  36.478  1.00  0.00    -0.200 F 
ATOM     98  C   UNL A   1      42.411  32.036  37.218  1.00  0.00     0.200 A 
ATOM     99  F   UNL A   1      42.636  34.282  37.906  1.00  0.00    -0.200 F 
ATOM    100  F   UNL A   1      42.324  31.635  38.493  1.00  0.00    -0.200 F 
ENDBRANCH  67  90
ENDBRANCH  41  42
ENDBRANCH  34  36
ENDBRANCH  33  34
ENDBRANCH  32  33
ENDBRANCH  31  32
ENDBRANCH  30  31
ENDBRANCH  29  30
ENDBRANCH  28  29
ENDBRANCH  27  28
ENDBRANCH   1  27
TORSDOF 26
ENDMDL
MODEL 2
REMARK VINA RESULT:      -9.1      4.782      9.871
REMARK SMILES Cc1ccc(C)c(CC(=O)N(CC(=O)OCCOCCOCCOCCOC(=O)c2ccc(-c3c4nc(c(-c5c(F)c(F)c(F)c(F)c5F)c5ccc([nH]5)c(-c5c(F)c(F)c(F)c(F)c5F)c5nc(c(-c6c(F)c(F)c(F)c(F)c6F)c6ccc3[nH]6)C=C5)C=C4)cc2)CC(F)(F)F)c1
REMARK SMILES IDX 20 1 19 2 18 3 17 4 16 5 15 6 13 7 14 8 12 9 11 10 9 11
REMARK SMILES IDX 10 12 8 13 7 14 1 15 2 16 3 17 98 18 4 19 5 20 6 21 93 22
REMARK SMILES IDX 94 23 95 24 96 25 97 26 21 27 22 28 23 29 24 30 25 31 26 32
REMARK SMILES IDX 27 33 28 34 29 35 30 36 31 37 92 38 32 39 91 40 33 41 34 42
REMARK SMILES IDX 35 43 85 44 36 45 90 46 84 47 86 48 37 49 89 50 83 51 82 52
REMARK SMILES IDX 38 54 70 55 50 56 69 57 51 58 54 59 68 60 87 61 52 62 53 63
REMARK SMILES IDX 67 65 88 66 55 67 39 68 40 69 48 70 41 71 42 72 46 73 49 74
REMARK SMILES IDX 43 75 44 76 47 77 45 78 71 79 72 80 80 81 73 82 74 83 78 84
REMARK SMILES IDX 81 85 75 86 76 87 79 88 77 89 56 90 57 91 65 92 58 93 59 94
REMARK SMILES IDX 63 95 66 96 60 97 61 98 64 99 62 100
REMARK H PARENT 86 53 54 64
REMARK Flexibility Score: inf
ROOT
ATOM      1  C   UNL A   1      34.853  32.254  28.572  1.00  0.00     0.188 C 
ENDROOT
BRANCH   1   2
ATOM      2  C   UNL A   1      34.990  30.759  28.367  1.00  0.00     0.188 C 
BRANCH   2   3
ATOM      3  O   UNL A   1      34.369  30.164  27.254  1.00  0.00    -0.376 OA
BRANCH   3   4
ATOM      4  C   UNL A   1      34.417  28.755  27.137  1.00  0.00     0.202 C 
BRANCH   4   5
ATOM      5  C   UNL A   1      33.490  28.034  26.151  1.00  0.00     0.261 C 
BRANCH   5   6
ATOM      6  O   UNL A   1      33.980  26.744  25.705  1.00  0.00    -0.462 OA
BRANCH   6   7
ATOM      7  C   UNL A   1      33.258  25.665  26.108  1.00  0.00     0.325 C 
ATOM      8  O   UNL A   1      32.055  25.729  26.350  1.00  0.00    -0.250 OA
BRANCH   7   9
ATOM      9  C   UNL A   1      33.999  24.285  26.147  1.00  0.00     0.242 C 
BRANCH   9  10
ATOM     10  N   UNL A   1      34.002  23.150  25.176  1.00  0.00    -0.322 N 
BRANCH  10  11
ATOM     11  C   UNL A   1      34.543  23.242  23.900  1.00  0.00     0.227 C 
ATOM     12  O   UNL A   1      35.768  23.186  23.744  1.00  0.00    -0.275 OA
BRANCH  11  13
ATOM     13  C   UNL A   1      33.660  23.516  22.703  1.00  0.00     0.136 C 
BRANCH  13  14
ATOM     14  C   UNL A   1      32.915  24.830  22.684  1.00  0.00    -0.035 A 
ATOM     15  C   UNL A   1      33.964  28.481  22.380  1.00  0.00     0.044 C 
ATOM     16  C   UNL A   1      33.094  27.259  22.403  1.00  0.00    -0.051 A 
ATOM     17  C   UNL A   1      31.715  27.372  22.554  1.00  0.00     0.004 A 
ATOM     18  C   UNL A   1      33.662  25.983  22.375  1.00  0.00     0.008 A 
ATOM     19  C   UNL A   1      30.952  26.241  22.844  1.00  0.00     0.004 A 
ATOM     20  C   UNL A   1      31.541  24.968  22.953  1.00  0.00    -0.047 A 
ATOM     21  C   UNL A   1      30.649  23.854  23.429  1.00  0.00     0.044 C 
ENDBRANCH  13  14
ENDBRANCH  11  13
ENDBRANCH  10  11
BRANCH  10  22
ATOM     22  C   UNL A   1      33.902  21.752  25.694  1.00  0.00     0.235 C 
BRANCH  22  23
ATOM     23  C   UNL A   1      32.759  20.835  25.167  1.00  0.00     0.406 C 
ATOM     24  F   UNL A   1      31.548  21.430  25.264  1.00  0.00    -0.169 F 
ATOM     25  F   UNL A   1      32.944  20.600  23.837  1.00  0.00    -0.169 F 
ATOM     26  F   UNL A   1      32.693  19.632  25.769  1.00  0.00    -0.169 F 
ENDBRANCH  22  23
ENDBRANCH  10  22
ENDBRANCH   9  10
ENDBRANCH   7   9
ENDBRANCH   6   7
ENDBRANCH   5   6
ENDBRANCH   4   5
ENDBRANCH   3   4
ENDBRANCH   2   3
ENDBRANCH   1   2
BRANCH   1  27
ATOM     27  O   UNL A   1      35.143  32.860  29.810  1.00  0.00    -0.377 OA
BRANCH  27  28
ATOM     28  C   UNL A   1      36.509  32.965  30.177  1.00  0.00     0.188 C 
BRANCH  28  29
ATOM     29  C   UNL A   1      36.804  33.860  31.382  1.00  0.00     0.188 C 
BRANCH  29  30
ATOM     30  O   UNL A   1      35.608  34.431  31.898  1.00  0.00    -0.376 OA
BRANCH  30  31
ATOM     31  C   UNL A   1      35.246  33.995  33.197  1.00  0.00     0.202 C 
BRANCH  31  32
ATOM     32  C   UNL A   1      36.464  33.586  34.026  1.00  0.00     0.261 C 
BRANCH  32  33
ATOM     33  O   UNL A   1      36.654  32.182  34.341  1.00  0.00    -0.460 OA
BRANCH  33  34
ATOM     34  C   UNL A   1      37.784  31.769  34.978  1.00  0.00     0.338 C 
ATOM     35  O   UNL A   1      37.871  31.573  36.166  1.00  0.00    -0.246 OA
BRANCH  34  36
ATOM     36  C   UNL A   1      38.884  31.534  33.999  1.00  0.00     0.060 A 
ATOM     37  C   UNL A   1      38.563  30.893  32.812  1.00  0.00     0.016 A 
ATOM     38  C   UNL A   1      40.230  31.733  34.355  1.00  0.00     0.016 A 
ATOM     39  C   UNL A   1      39.587  30.278  32.107  1.00  0.00     0.010 A 
ATOM     40  C   UNL A   1      41.246  31.052  33.686  1.00  0.00     0.010 A 
ATOM     41  C   UNL A   1      40.911  30.235  32.617  1.00  0.00    -0.014 A 
BRANCH  41  42
ATOM     42  C   UNL A   1      41.896  29.423  31.863  1.00  0.00     0.031 A 
ATOM     43  C   UNL A   1      42.280  30.160  30.640  1.00  0.00     0.074 A 
ATOM     44  C   UNL A   1      42.407  28.200  32.176  1.00  0.00     0.049 A 
ATOM     45  N   UNL A   1      42.156  29.762  29.417  1.00  0.00    -0.248 NA
ATOM     46  C   UNL A   1      42.616  31.597  30.789  1.00  0.00     0.031 C 
ATOM     47  C   UNL A   1      42.127  27.452  33.402  1.00  0.00     0.029 A 
ATOM     48  N   UNL A   1      43.307  27.361  31.525  1.00  0.00    -0.354 N 
ATOM     49  C   UNL A   1      42.684  30.805  28.671  1.00  0.00     0.074 A 
ATOM     50  C   UNL A   1      42.732  31.971  29.518  1.00  0.00     0.031 C 
ATOM     51  C   UNL A   1      42.964  26.397  33.497  1.00  0.00     0.029 A 
ATOM     52  C   UNL A   1      43.849  26.355  32.343  1.00  0.00     0.049 A 
ATOM     53  H   UNL A   1      43.543  27.464  30.574  1.00  0.00     0.167 HD
ATOM     54  C   UNL A   1      43.549  30.490  27.677  1.00  0.00     0.037 A 
ATOM     55  C   UNL A   1      44.964  25.582  32.161  1.00  0.00     0.037 A 
ATOM     56  C   UNL A   1      43.270  29.220  27.083  1.00  0.00     0.049 A 
ATOM     57  C   UNL A   1      45.372  25.650  30.738  1.00  0.00     0.074 A 
ATOM     58  C   UNL A   1      42.288  28.703  26.270  1.00  0.00     0.029 A 
ATOM     59  N   UNL A   1      43.896  28.162  27.675  1.00  0.00    -0.354 N 
ATOM     60  N   UNL A   1      44.873  24.909  29.793  1.00  0.00    -0.248 NA
ATOM     61  C   UNL A   1      46.230  26.740  30.286  1.00  0.00     0.031 C 
ATOM     62  C   UNL A   1      42.378  27.287  26.371  1.00  0.00     0.029 A 
ATOM     63  C   UNL A   1      43.445  26.959  27.205  1.00  0.00     0.049 A 
ATOM     64  H   UNL A   1      44.593  28.254  28.364  1.00  0.00     0.167 HD
ATOM     65  C   UNL A   1      44.957  25.698  28.670  1.00  0.00     0.074 A 
ATOM     66  C   UNL A   1      45.950  26.716  28.982  1.00  0.00     0.031 C 
ATOM     67  C   UNL A   1      43.929  25.718  27.776  1.00  0.00     0.037 A 
BRANCH  54  68
ATOM     68  C   UNL A   1      44.942  31.048  27.766  1.00  0.00     0.064 A 
ATOM     69  C   UNL A   1      45.781  30.720  28.829  1.00  0.00     0.173 A 
ATOM     70  C   UNL A   1      45.390  32.085  26.908  1.00  0.00     0.173 A 
ATOM     71  F   UNL A   1      45.379  29.841  29.758  1.00  0.00    -0.203 F 
ATOM     72  C   UNL A   1      47.027  31.337  28.978  1.00  0.00     0.198 A 
ATOM     73  C   UNL A   1      46.659  32.636  27.006  1.00  0.00     0.198 A 
ATOM     74  F   UNL A   1      44.569  32.661  26.018  1.00  0.00    -0.203 F 
ATOM     75  F   UNL A   1      47.783  31.057  30.046  1.00  0.00    -0.200 F 
ATOM     76  C   UNL A   1      47.477  32.267  28.049  1.00  0.00     0.200 A 
ATOM     77  F   UNL A   1      47.048  33.564  26.120  1.00  0.00    -0.200 F 
ATOM     78  F   UNL A   1      48.674  32.850  28.191  1.00  0.00    -0.200 F 
ENDBRANCH  54  68
BRANCH  55  79
ATOM     79  C   UNL A   1      45.849  24.843  33.131  1.00  0.00     0.064 A 
ATOM     80  C   UNL A   1      46.920  25.493  33.793  1.00  0.00     0.173 A 
ATOM     81  C   UNL A   1      45.531  23.569  33.637  1.00  0.00     0.173 A 
ATOM     82  F   UNL A   1      47.323  26.714  33.412  1.00  0.00    -0.203 F 
ATOM     83  C   UNL A   1      47.561  24.942  34.913  1.00  0.00     0.198 A 
ATOM     84  C   UNL A   1      46.187  23.008  34.739  1.00  0.00     0.198 A 
ATOM     85  F   UNL A   1      44.517  22.853  33.141  1.00  0.00    -0.203 F 
ATOM     86  F   UNL A   1      48.506  25.640  35.557  1.00  0.00    -0.200 F 
ATOM     87  C   UNL A   1      47.180  23.705  35.395  1.00  0.00     0.200 A 
ATOM     88  F   UNL A   1      45.798  21.810  35.195  1.00  0.00    -0.200 F 
ATOM     89  F   UNL A   1      47.736  23.204  36.507  1.00  0.00    -0.200 F 
ENDBRANCH  55  79
BRANCH  67  90
ATOM     90  C   UNL A   1      43.238  24.425  27.453  1.00  0.00     0.064 A 
ATOM     91  C   UNL A   1      41.988  24.007  27.936  1.00  0.00     0.173 A 
ATOM     92  C   UNL A   1      43.898  23.548  26.568  1.00  0.00     0.173 A 
ATOM     93  F   UNL A   1      41.220  24.789  28.710  1.00  0.00    -0.203 F 
ATOM     94  C   UNL A   1      41.452  22.770  27.577  1.00  0.00     0.198 A 
ATOM     95  C   UNL A   1      43.324  22.352  26.154  1.00  0.00     0.198 A 
ATOM     96  F   UNL A   1      45.109  23.860  26.078  1.00  0.00    -0.203 F 
ATOM     97  F   UNL A   1      40.261  22.397  28.070  1.00  0.00    -0.200 F 
ATOM     98  C   UNL A   1      42.105  21.956  26.669  1.00  0.00     0.200 A 
ATOM     99  F   UNL A   1      43.947  21.595  25.239  1.00  0.00    -0.200 F 
ATOM    100  F   UNL A   1      41.539  20.813  26.260  1.00  0.00    -0.200 F 
ENDBRANCH  67  90
ENDBRANCH  41  42
ENDBRANCH  34  36
ENDBRANCH  33  34
ENDBRANCH  32  33
ENDBRANCH  31  32
ENDBRANCH  30  31
ENDBRANCH  29  30
ENDBRANCH  28  29
ENDBRANCH  27  28
ENDBRANCH   1  27
TORSDOF 26
ENDMDL
MODEL 3
REMARK VINA RESULT:      -9.1      4.417      9.223
REMARK SMILES Cc1ccc(C)c(CC(=O)N(CC(=O)OCCOCCOCCOCCOC(=O)c2ccc(-c3c4nc(c(-c5c(F)c(F)c(F)c(F)c5F)c5ccc([nH]5)c(-c5c(F)c(F)c(F)c(F)c5F)c5nc(c(-c6c(F)c(F)c(F)c(F)c6F)c6ccc3[nH]6)C=C5)C=C4)cc2)CC(F)(F)F)c1
REMARK SMILES IDX 20 1 19 2 18 3 17 4 16 5 15 6 13 7 14 8 12 9 11 10 9 11
REMARK SMILES IDX 10 12 8 13 7 14 1 15 2 16 3 17 98 18 4 19 5 20 6 21 93 22
REMARK SMILES IDX 94 23 95 24 96 25 97 26 21 27 22 28 23 29 24 30 25 31 26 32
REMARK SMILES IDX 27 33 28 34 29 35 30 36 31 37 92 38 32 39 91 40 33 41 34 42
REMARK SMILES IDX 35 43 85 44 36 45 90 46 84 47 86 48 37 49 89 50 83 51 82 52
REMARK SMILES IDX 38 54 70 55 50 56 69 57 51 58 54 59 68 60 87 61 52 62 53 63
REMARK SMILES IDX 67 65 88 66 55 67 39 68 40 69 48 70 41 71 42 72 46 73 49 74
REMARK SMILES IDX 43 75 44 76 47 77 45 78 71 79 72 80 80 81 73 82 74 83 78 84
REMARK SMILES IDX 81 85 75 86 76 87 79 88 77 89 56 90 57 91 65 92 58 93 59 94
REMARK SMILES IDX 63 95 66 96 60 97 61 98 64 99 62 100
REMARK H PARENT 86 53 54 64
REMARK Flexibility Score: inf
ROOT
ATOM      1  C   UNL A   1      33.606  30.440  27.041  1.00  0.00     0.188 C 
ENDROOT
BRANCH   1   2
ATOM      2  C   UNL A   1      32.346  29.620  27.231  1.00  0.00     0.188 C 
BRANCH   2   3
ATOM      3  O   UNL A   1      32.443  28.217  27.269  1.00  0.00    -0.376 OA
BRANCH   3   4
ATOM      4  C   UNL A   1      33.317  27.584  26.354  1.00  0.00     0.202 C 
BRANCH   4   5
ATOM      5  C   UNL A   1      33.241  26.068  26.144  1.00  0.00     0.261 C 
BRANCH   5   6
ATOM      6  O   UNL A   1      31.904  25.517  26.246  1.00  0.00    -0.462 OA
BRANCH   6   7
ATOM      7  C   UNL A   1      31.830  24.175  26.456  1.00  0.00     0.325 C 
ATOM      8  O   UNL A   1      31.685  23.689  27.576  1.00  0.00    -0.250 OA
BRANCH   7   9
ATOM      9  C   UNL A   1      31.823  23.255  25.188  1.00  0.00     0.242 C 
BRANCH   9  10
ATOM     10  N   UNL A   1      32.881  22.991  24.167  1.00  0.00    -0.322 N 
BRANCH  10  11
ATOM     11  C   UNL A   1      33.378  23.969  23.315  1.00  0.00     0.227 C 
ATOM     12  O   UNL A   1      34.550  24.348  23.429  1.00  0.00    -0.275 OA
BRANCH  11  13
ATOM     13  C   UNL A   1      32.476  24.656  22.316  1.00  0.00     0.136 C 
BRANCH  13  14
ATOM     14  C   UNL A   1      31.770  25.910  22.773  1.00  0.00    -0.035 A 
ATOM     15  C   UNL A   1      28.212  26.710  23.878  1.00  0.00     0.044 C 
ATOM     16  C   UNL A   1      29.687  26.860  23.651  1.00  0.00    -0.051 A 
ATOM     17  C   UNL A   1      30.291  28.112  23.714  1.00  0.00     0.004 A 
ATOM     18  C   UNL A   1      30.462  25.761  23.272  1.00  0.00     0.008 A 
ATOM     19  C   UNL A   1      31.593  28.281  23.241  1.00  0.00     0.004 A 
ATOM     20  C   UNL A   1      32.333  27.200  22.729  1.00  0.00    -0.047 A 
ATOM     21  C   UNL A   1      33.658  27.531  22.099  1.00  0.00     0.044 C 
ENDBRANCH  13  14
ENDBRANCH  11  13
ENDBRANCH  10  11
BRANCH  10  22
ATOM     22  C   UNL A   1      33.802  21.830  24.361  1.00  0.00     0.235 C 
BRANCH  22  23
ATOM     23  C   UNL A   1      34.505  21.649  25.739  1.00  0.00     0.406 C 
ATOM     24  F   UNL A   1      35.621  20.891  25.642  1.00  0.00    -0.169 F 
ATOM     25  F   UNL A   1      34.927  22.863  26.195  1.00  0.00    -0.169 F 
ATOM     26  F   UNL A   1      33.716  21.126  26.697  1.00  0.00    -0.169 F 
ENDBRANCH  22  23
ENDBRANCH  10  22
ENDBRANCH   9  10
ENDBRANCH   7   9
ENDBRANCH   6   7
ENDBRANCH   5   6
ENDBRANCH   4   5
ENDBRANCH   3   4
ENDBRANCH   2   3
ENDBRANCH   1   2
BRANCH   1  27
ATOM     27  O   UNL A   1      34.780  30.169  27.770  1.00  0.00    -0.377 OA
BRANCH  27  28
ATOM     28  C   UNL A   1      35.602  31.273  28.109  1.00  0.00     0.188 C 
BRANCH  28  29
ATOM     29  C   UNL A   1      36.402  31.130  29.406  1.00  0.00     0.188 C 
BRANCH  29  30
ATOM     30  O   UNL A   1      35.632  31.546  30.527  1.00  0.00    -0.376 OA
BRANCH  30  31
ATOM     31  C   UNL A   1      35.967  30.919  31.753  1.00  0.00     0.202 C 
BRANCH  31  32
ATOM     32  C   UNL A   1      36.173  31.931  32.879  1.00  0.00     0.261 C 
BRANCH  32  33
ATOM     33  O   UNL A   1      36.361  33.329  32.537  1.00  0.00    -0.460 OA
BRANCH  33  34
ATOM     34  C   UNL A   1      37.374  34.043  33.099  1.00  0.00     0.338 C 
ATOM     35  O   UNL A   1      37.224  34.955  33.877  1.00  0.00    -0.246 OA
BRANCH  34  36
ATOM     36  C   UNL A   1      38.698  33.508  32.670  1.00  0.00     0.060 A 
ATOM     37  C   UNL A   1      38.849  33.161  31.335  1.00  0.00     0.016 A 
ATOM     38  C   UNL A   1      39.676  33.143  33.612  1.00  0.00     0.016 A 
ATOM     39  C   UNL A   1      39.866  32.278  31.004  1.00  0.00     0.010 A 
ATOM     40  C   UNL A   1      40.649  32.198  33.290  1.00  0.00     0.010 A 
ATOM     41  C   UNL A   1      40.680  31.683  32.003  1.00  0.00    -0.014 A 
BRANCH  41  42
ATOM     42  C   UNL A   1      41.634  30.638  31.559  1.00  0.00     0.031 A 
ATOM     43  C   UNL A   1      42.392  31.152  30.398  1.00  0.00     0.074 A 
ATOM     44  C   UNL A   1      41.834  29.395  32.076  1.00  0.00     0.049 A 
ATOM     45  N   UNL A   1      42.454  30.637  29.215  1.00  0.00    -0.248 NA
ATOM     46  C   UNL A   1      42.949  32.523  30.502  1.00  0.00     0.031 C 
ATOM     47  C   UNL A   1      41.173  28.853  33.264  1.00  0.00     0.029 A 
ATOM     48  N   UNL A   1      42.680  28.350  31.715  1.00  0.00    -0.354 N 
ATOM     49  C   UNL A   1      43.309  31.484  28.526  1.00  0.00     0.074 A 
ATOM     50  C   UNL A   1      43.393  32.720  29.264  1.00  0.00     0.031 C 
ATOM     51  C   UNL A   1      41.763  27.695  33.630  1.00  0.00     0.029 A 
ATOM     52  C   UNL A   1      42.846  27.374  32.713  1.00  0.00     0.049 A 
ATOM     53  H   UNL A   1      43.123  28.299  30.837  1.00  0.00     0.167 HD
ATOM     54  C   UNL A   1      44.289  30.917  27.781  1.00  0.00     0.037 A 
ATOM     55  C   UNL A   1      43.812  26.414  32.850  1.00  0.00     0.037 A 
ATOM     56  C   UNL A   1      43.910  29.647  27.244  1.00  0.00     0.049 A 
ATOM     57  C   UNL A   1      44.512  26.245  31.555  1.00  0.00     0.074 A 
ATOM     58  C   UNL A   1      43.041  29.203  26.275  1.00  0.00     0.029 A 
ATOM     59  N   UNL A   1      44.194  28.580  28.046  1.00  0.00    -0.354 N 
ATOM     60  N   UNL A   1      44.093  25.487  30.585  1.00  0.00    -0.248 NA
ATOM     61  C   UNL A   1      45.632  27.121  31.222  1.00  0.00     0.031 C 
ATOM     62  C   UNL A   1      42.845  27.813  26.508  1.00  0.00     0.029 A 
ATOM     63  C   UNL A   1      43.637  27.419  27.585  1.00  0.00     0.049 A 
ATOM     64  H   UNL A   1      44.737  28.639  28.864  1.00  0.00     0.167 HD
ATOM     65  C   UNL A   1      44.553  26.113  29.449  1.00  0.00     0.074 A 
ATOM     66  C   UNL A   1      45.629  26.986  29.895  1.00  0.00     0.031 C 
ATOM     67  C   UNL A   1      43.754  26.193  28.349  1.00  0.00     0.037 A 
BRANCH  54  68
ATOM     68  C   UNL A   1      45.710  31.249  28.136  1.00  0.00     0.064 A 
ATOM     69  C   UNL A   1      46.606  31.701  27.169  1.00  0.00     0.173 A 
ATOM     70  C   UNL A   1      46.263  30.922  29.401  1.00  0.00     0.173 A 
ATOM     71  F   UNL A   1      46.191  31.913  25.912  1.00  0.00    -0.203 F 
ATOM     72  C   UNL A   1      47.958  31.887  27.473  1.00  0.00     0.198 A 
ATOM     73  C   UNL A   1      47.584  31.186  29.727  1.00  0.00     0.198 A 
ATOM     74  F   UNL A   1      45.559  30.242  30.317  1.00  0.00    -0.203 F 
ATOM     75  F   UNL A   1      48.812  32.253  26.509  1.00  0.00    -0.200 F 
ATOM     76  C   UNL A   1      48.436  31.664  28.758  1.00  0.00     0.200 A 
ATOM     77  F   UNL A   1      48.028  30.918  30.963  1.00  0.00    -0.200 F 
ATOM     78  F   UNL A   1      49.731  31.851  29.048  1.00  0.00    -0.200 F 
ENDBRANCH  54  68
BRANCH  55  79
ATOM     79  C   UNL A   1      44.324  25.663  34.051  1.00  0.00     0.064 A 
ATOM     80  C   UNL A   1      44.758  26.343  35.216  1.00  0.00     0.173 A 
ATOM     81  C   UNL A   1      44.171  24.272  34.205  1.00  0.00     0.173 A 
ATOM     82  F   UNL A   1      44.941  27.672  35.207  1.00  0.00    -0.203 F 
ATOM     83  C   UNL A   1      44.943  25.692  36.445  1.00  0.00     0.198 A 
ATOM     84  C   UNL A   1      44.381  23.619  35.425  1.00  0.00     0.198 A 
ATOM     85  F   UNL A   1      43.729  23.503  33.205  1.00  0.00    -0.203 F 
ATOM     86  F   UNL A   1      45.265  26.400  37.537  1.00  0.00    -0.200 F 
ATOM     87  C   UNL A   1      44.737  24.331  36.552  1.00  0.00     0.200 A 
ATOM     88  F   UNL A   1      44.169  22.299  35.509  1.00  0.00    -0.200 F 
ATOM     89  F   UNL A   1      44.842  23.714  37.736  1.00  0.00    -0.200 F 
ENDBRANCH  55  79
BRANCH  67  90
ATOM     90  C   UNL A   1      42.920  24.999  27.984  1.00  0.00     0.064 A 
ATOM     91  C   UNL A   1      43.388  23.792  27.442  1.00  0.00     0.173 A 
ATOM     92  C   UNL A   1      41.533  25.090  28.220  1.00  0.00     0.173 A 
ATOM     93  F   UNL A   1      44.694  23.547  27.257  1.00  0.00    -0.203 F 
ATOM     94  C   UNL A   1      42.510  22.755  27.126  1.00  0.00     0.198 A 
ATOM     95  C   UNL A   1      40.674  24.025  27.975  1.00  0.00     0.198 A 
ATOM     96  F   UNL A   1      40.999  26.219  28.714  1.00  0.00    -0.203 F 
ATOM     97  F   UNL A   1      42.991  21.620  26.596  1.00  0.00    -0.200 F 
ATOM     98  C   UNL A   1      41.161  22.860  27.416  1.00  0.00     0.200 A 
ATOM     99  F   UNL A   1      39.378  24.124  28.302  1.00  0.00    -0.200 F 
ATOM    100  F   UNL A   1      40.342  21.823  27.195  1.00  0.00    -0.200 F 
ENDBRANCH  67  90
ENDBRANCH  41  42
ENDBRANCH  34  36
ENDBRANCH  33  34
ENDBRANCH  32  33
ENDBRANCH  31  32
ENDBRANCH  30  31
ENDBRANCH  29  30
ENDBRANCH  28  29
ENDBRANCH  27  28
ENDBRANCH   1  27
TORSDOF 26
ENDMDL
