MODEL 1
REMARK VINA RESULT:     -12.0      0.000      0.000
REMARK SMILES Cc1nccn1C1(C(=O)OCCOCCOCCOCCOC(=O)c2ccc(-c3c4nc(c(-c5c(F)c(F)c(F)c(F)c5F)c5ccc([nH]5)c(-c5c(F)c(F)c(F)c(F)c5F)c5nc(c(-c6c(F)c(F)c(F)c(F)c6F)c6ccc3[nH]6)C=C5)C=C4)cc2)CCN(c2nccc3occc23)CC1
REMARK SMILES IDX 17 1 16 2 15 3 14 4 13 5 12 6 11 7 10 8 8 9 9 10 7 11 88 12
REMARK SMILES IDX 101 13 89 14 100 15 90 16 6 17 1 18 2 19 3 20 4 21 5 22
REMARK SMILES IDX 91 23 92 24 99 25 93 26 95 27 98 28 94 29 96 30 97 31 18 32
REMARK SMILES IDX 19 33 20 34 21 35 22 36 23 37 24 38 25 39 26 40 87 41 27 42
REMARK SMILES IDX 86 43 28 44 29 45 30 46 80 47 31 48 85 49 79 50 81 51 32 52
REMARK SMILES IDX 84 53 78 54 77 55 33 57 65 58 45 59 64 60 46 61 49 62 63 63
REMARK SMILES IDX 82 64 47 65 48 66 62 68 83 69 50 70 34 71 35 72 43 73 36 74
REMARK SMILES IDX 37 75 41 76 44 77 38 78 39 79 42 80 40 81 66 82 67 83 75 84
REMARK SMILES IDX 68 85 69 86 73 87 76 88 70 89 71 90 74 91 72 92 51 93 52 94
REMARK SMILES IDX 60 95 53 96 54 97 58 98 61 99 55 100 56 101 59 102 57 103
REMARK H PARENT 81 56 49 67
REMARK Flexibility Score: inf
ROOT
ATOM      1  C   UNL A   1      42.020  19.828  27.192  1.00  0.00     0.188 C 
ENDROOT
BRANCH   1   2
ATOM      2  O   UNL A   1      40.667  20.270  27.248  1.00  0.00    -0.377 OA
BRANCH   2   3
ATOM      3  C   UNL A   1      40.193  21.132  26.231  1.00  0.00     0.188 C 
BRANCH   3   4
ATOM      4  C   UNL A   1      39.502  22.422  26.699  1.00  0.00     0.188 C 
BRANCH   4   5
ATOM      5  O   UNL A   1      38.329  22.811  26.017  1.00  0.00    -0.376 OA
BRANCH   5   6
ATOM      6  C   UNL A   1      37.724  21.937  25.085  1.00  0.00     0.202 C 
BRANCH   6   7
ATOM      7  C   UNL A   1      36.473  22.252  24.231  1.00  0.00     0.261 C 
BRANCH   7   8
ATOM      8  O   UNL A   1      35.697  23.438  24.512  1.00  0.00    -0.461 OA
BRANCH   8   9
ATOM      9  C   UNL A   1      34.542  23.583  23.813  1.00  0.00     0.332 C 
ATOM     10  O   UNL A   1      34.541  23.781  22.597  1.00  0.00    -0.249 OA
BRANCH   9  11
ATOM     11  C   UNL A   1      33.191  23.445  24.640  1.00  0.00     0.146 C 
ATOM     12  C   UNL A   1      33.193  24.271  25.959  1.00  0.00     0.062 C 
ATOM     13  C   UNL A   1      32.230  24.104  23.620  1.00  0.00     0.062 C 
ATOM     14  C   UNL A   1      31.882  24.950  26.417  1.00  0.00     0.121 C 
ATOM     15  C   UNL A   1      30.894  24.609  24.110  1.00  0.00     0.121 C 
ATOM     16  N   UNL A   1      30.977  25.367  25.344  1.00  0.00    -0.356 N 
BRANCH  11  17
ATOM     17  N   UNL A   1      32.953  21.985  24.877  1.00  0.00    -0.318 N 
ATOM     18  C   UNL A   1      33.923  21.454  27.226  1.00  0.00     0.087 C 
ATOM     19  C   UNL A   1      33.381  21.132  25.891  1.00  0.00     0.106 A 
ATOM     20  N   UNL A   1      33.196  19.864  25.563  1.00  0.00    -0.242 NA
ATOM     21  C   UNL A   1      32.505  19.859  24.403  1.00  0.00     0.131 A 
ATOM     22  C   UNL A   1      32.287  21.145  23.994  1.00  0.00     0.108 A 
ENDBRANCH  11  17
BRANCH  16  23
ATOM     23  C   UNL A   1      30.715  26.731  25.253  1.00  0.00     0.139 A 
ATOM     24  N   UNL A   1      29.911  27.144  24.241  1.00  0.00    -0.238 NA
ATOM     25  C   UNL A   1      31.424  27.774  25.899  1.00  0.00     0.063 A 
ATOM     26  C   UNL A   1      30.251  28.264  23.581  1.00  0.00     0.117 A 
ATOM     27  C   UNL A   1      31.842  28.813  25.080  1.00  0.00     0.139 A 
ATOM     28  C   UNL A   1      31.641  28.255  27.223  1.00  0.00     0.054 A 
ATOM     29  C   UNL A   1      31.454  28.913  23.764  1.00  0.00     0.068 A 
ATOM     30  O   UNL A   1      32.496  29.770  25.788  1.00  0.00    -0.464 OA
ATOM     31  C   UNL A   1      32.257  29.487  27.099  1.00  0.00     0.196 A 
ENDBRANCH  16  23
ENDBRANCH   9  11
ENDBRANCH   8   9
ENDBRANCH   7   8
ENDBRANCH   6   7
ENDBRANCH   5   6
ENDBRANCH   4   5
ENDBRANCH   3   4
ENDBRANCH   2   3
ENDBRANCH   1   2
BRANCH   1  32
ATOM     32  C   UNL A   1      42.601  19.042  25.986  1.00  0.00     0.188 C 
BRANCH  32  33
ATOM     33  O   UNL A   1      43.248  19.815  24.986  1.00  0.00    -0.376 OA
BRANCH  33  34
ATOM     34  C   UNL A   1      44.138  20.870  25.304  1.00  0.00     0.202 C 
BRANCH  34  35
ATOM     35  C   UNL A   1      43.814  22.263  24.766  1.00  0.00     0.261 C 
BRANCH  35  36
ATOM     36  O   UNL A   1      42.871  22.967  25.551  1.00  0.00    -0.460 OA
BRANCH  36  37
ATOM     37  C   UNL A   1      43.016  24.296  25.536  1.00  0.00     0.338 C 
ATOM     38  O   UNL A   1      43.836  24.950  24.882  1.00  0.00    -0.246 OA
BRANCH  37  39
ATOM     39  C   UNL A   1      42.127  24.874  26.536  1.00  0.00     0.060 A 
ATOM     40  C   UNL A   1      41.064  25.616  26.030  1.00  0.00     0.016 A 
ATOM     41  C   UNL A   1      42.596  25.015  27.854  1.00  0.00     0.016 A 
ATOM     42  C   UNL A   1      40.719  26.745  26.719  1.00  0.00     0.010 A 
ATOM     43  C   UNL A   1      42.249  26.147  28.542  1.00  0.00     0.010 A 
ATOM     44  C   UNL A   1      41.417  27.049  27.898  1.00  0.00    -0.014 A 
BRANCH  44  45
ATOM     45  C   UNL A   1      41.211  28.360  28.452  1.00  0.00     0.031 A 
ATOM     46  C   UNL A   1      42.309  29.275  28.116  1.00  0.00     0.074 A 
ATOM     47  C   UNL A   1      40.149  28.678  29.210  1.00  0.00     0.049 A 
ATOM     48  N   UNL A   1      43.256  29.661  28.901  1.00  0.00    -0.248 NA
ATOM     49  C   UNL A   1      42.500  29.621  26.702  1.00  0.00     0.031 C 
ATOM     50  C   UNL A   1      38.903  27.941  29.430  1.00  0.00     0.029 A 
ATOM     51  N   UNL A   1      39.961  29.817  29.924  1.00  0.00    -0.354 N 
ATOM     52  C   UNL A   1      44.076  30.459  28.121  1.00  0.00     0.074 A 
ATOM     53  C   UNL A   1      43.673  30.254  26.753  1.00  0.00     0.031 C 
ATOM     54  C   UNL A   1      38.008  28.758  30.039  1.00  0.00     0.029 A 
ATOM     55  C   UNL A   1      38.668  30.007  30.378  1.00  0.00     0.049 A 
ATOM     56  H   UNL A   1      40.689  30.455  30.105  1.00  0.00     0.167 HD
ATOM     57  C   UNL A   1      44.847  31.417  28.695  1.00  0.00     0.037 A 
ATOM     58  C   UNL A   1      38.193  31.156  30.921  1.00  0.00     0.037 A 
ATOM     59  C   UNL A   1      45.016  31.180  30.108  1.00  0.00     0.049 A 
ATOM     60  C   UNL A   1      39.367  31.924  31.420  1.00  0.00     0.074 A 
ATOM     61  C   UNL A   1      45.596  30.176  30.859  1.00  0.00     0.029 A 
ATOM     62  N   UNL A   1      44.206  31.873  30.973  1.00  0.00    -0.354 N 
ATOM     63  N   UNL A   1      40.096  31.543  32.432  1.00  0.00    -0.248 NA
ATOM     64  C   UNL A   1      40.014  32.852  30.503  1.00  0.00     0.031 C 
ATOM     65  C   UNL A   1      44.758  30.034  32.005  1.00  0.00     0.029 A 
ATOM     66  C   UNL A   1      43.745  30.990  31.915  1.00  0.00     0.049 A 
ATOM     67  H   UNL A   1      43.993  32.833  30.925  1.00  0.00     0.167 HD
ATOM     68  C   UNL A   1      41.403  31.826  32.056  1.00  0.00     0.074 A 
ATOM     69  C   UNL A   1      41.283  32.704  30.894  1.00  0.00     0.031 C 
ATOM     70  C   UNL A   1      42.447  31.092  32.541  1.00  0.00     0.037 A 
BRANCH  57  71
ATOM     71  C   UNL A   1      45.096  32.755  28.061  1.00  0.00     0.064 A 
ATOM     72  C   UNL A   1      46.412  33.110  27.715  1.00  0.00     0.173 A 
ATOM     73  C   UNL A   1      44.155  33.809  28.064  1.00  0.00     0.173 A 
ATOM     74  F   UNL A   1      47.386  32.187  27.704  1.00  0.00    -0.203 F 
ATOM     75  C   UNL A   1      46.771  34.436  27.468  1.00  0.00     0.198 A 
ATOM     76  C   UNL A   1      44.506  35.120  27.761  1.00  0.00     0.198 A 
ATOM     77  F   UNL A   1      42.892  33.642  28.474  1.00  0.00    -0.203 F 
ATOM     78  F   UNL A   1      48.058  34.747  27.271  1.00  0.00    -0.200 F 
ATOM     79  C   UNL A   1      45.820  35.439  27.496  1.00  0.00     0.200 A 
ATOM     80  F   UNL A   1      43.572  36.079  27.815  1.00  0.00    -0.200 F 
ATOM     81  F   UNL A   1      46.173  36.719  27.324  1.00  0.00    -0.200 F 
ENDBRANCH  57  71
BRANCH  58  82
ATOM     82  C   UNL A   1      36.873  31.787  30.687  1.00  0.00     0.064 A 
ATOM     83  C   UNL A   1      35.943  31.925  31.729  1.00  0.00     0.173 A 
ATOM     84  C   UNL A   1      36.612  32.525  29.514  1.00  0.00     0.173 A 
ATOM     85  F   UNL A   1      36.141  31.296  32.897  1.00  0.00    -0.203 F 
ATOM     86  C   UNL A   1      34.833  32.771  31.616  1.00  0.00     0.198 A 
ATOM     87  C   UNL A   1      35.504  33.363  29.401  1.00  0.00     0.198 A 
ATOM     88  F   UNL A   1      37.482  32.525  28.494  1.00  0.00    -0.203 F 
ATOM     89  F   UNL A   1      34.001  32.926  32.656  1.00  0.00    -0.200 F 
ATOM     90  C   UNL A   1      34.621  33.498  30.456  1.00  0.00     0.200 A 
ATOM     91  F   UNL A   1      35.333  34.092  28.288  1.00  0.00    -0.200 F 
ATOM     92  F   UNL A   1      33.596  34.356  30.371  1.00  0.00    -0.200 F 
ENDBRANCH  58  82
BRANCH  70  93
ATOM     93  C   UNL A   1      42.161  30.149  33.676  1.00  0.00     0.064 A 
ATOM     94  C   UNL A   1      41.744  28.817  33.506  1.00  0.00     0.173 A 
ATOM     95  C   UNL A   1      42.446  30.571  34.981  1.00  0.00     0.173 A 
ATOM     96  F   UNL A   1      41.548  28.307  32.283  1.00  0.00    -0.203 F 
ATOM     97  C   UNL A   1      41.574  27.966  34.598  1.00  0.00     0.198 A 
ATOM     98  C   UNL A   1      42.312  29.710  36.065  1.00  0.00     0.198 A 
ATOM     99  F   UNL A   1      42.903  31.815  35.198  1.00  0.00    -0.203 F 
ATOM    100  F   UNL A   1      41.160  26.704  34.411  1.00  0.00    -0.200 F 
ATOM    101  C   UNL A   1      41.865  28.412  35.875  1.00  0.00     0.200 A 
ATOM    102  F   UNL A   1      42.642  30.131  37.294  1.00  0.00    -0.200 F 
ATOM    103  F   UNL A   1      41.740  27.585  36.923  1.00  0.00    -0.200 F 
ENDBRANCH  70  93
ENDBRANCH  44  45
ENDBRANCH  37  39
ENDBRANCH  36  37
ENDBRANCH  35  36
ENDBRANCH  34  35
ENDBRANCH  33  34
ENDBRANCH  32  33
ENDBRANCH   1  32
TORSDOF 22
ENDMDL
MODEL 2
REMARK VINA RESULT:     -11.8      2.595      3.989
REMARK SMILES Cc1nccn1C1(C(=O)OCCOCCOCCOCCOC(=O)c2ccc(-c3c4nc(c(-c5c(F)c(F)c(F)c(F)c5F)c5ccc([nH]5)c(-c5c(F)c(F)c(F)c(F)c5F)c5nc(c(-c6c(F)c(F)c(F)c(F)c6F)c6ccc3[nH]6)C=C5)C=C4)cc2)CCN(c2nccc3occc23)CC1
REMARK SMILES IDX 17 1 16 2 15 3 14 4 13 5 12 6 11 7 10 8 8 9 9 10 7 11 88 12
REMARK SMILES IDX 101 13 89 14 100 15 90 16 6 17 1 18 2 19 3 20 4 21 5 22
REMARK SMILES IDX 91 23 92 24 99 25 93 26 95 27 98 28 94 29 96 30 97 31 18 32
REMARK SMILES IDX 19 33 20 34 21 35 22 36 23 37 24 38 25 39 26 40 87 41 27 42
REMARK SMILES IDX 86 43 28 44 29 45 30 46 80 47 31 48 85 49 79 50 81 51 32 52
REMARK SMILES IDX 84 53 78 54 77 55 33 57 65 58 45 59 64 60 46 61 49 62 63 63
REMARK SMILES IDX 82 64 47 65 48 66 62 68 83 69 50 70 34 71 35 72 43 73 36 74
REMARK SMILES IDX 37 75 41 76 44 77 38 78 39 79 42 80 40 81 66 82 67 83 75 84
REMARK SMILES IDX 68 85 69 86 73 87 76 88 70 89 71 90 74 91 72 92 51 93 52 94
REMARK SMILES IDX 60 95 53 96 54 97 58 98 61 99 55 100 56 101 59 102 57 103
REMARK H PARENT 81 56 49 67
REMARK Flexibility Score: inf
ROOT
ATOM      1  C   UNL A   1      40.051  22.123  26.172  1.00  0.00     0.188 C 
ENDROOT
BRANCH   1   2
ATOM      2  O   UNL A   1      38.779  21.810  25.611  1.00  0.00    -0.377 OA
BRANCH   2   3
ATOM      3  C   UNL A   1      37.718  22.731  25.782  1.00  0.00     0.188 C 
BRANCH   3   4
ATOM      4  C   UNL A   1      36.537  22.599  24.808  1.00  0.00     0.188 C 
BRANCH   4   5
ATOM      5  O   UNL A   1      35.414  21.867  25.249  1.00  0.00    -0.376 OA
BRANCH   5   6
ATOM      6  C   UNL A   1      35.173  21.698  26.632  1.00  0.00     0.202 C 
BRANCH   6   7
ATOM      7  C   UNL A   1      34.151  22.497  27.476  1.00  0.00     0.261 C 
BRANCH   7   8
ATOM      8  O   UNL A   1      33.682  23.778  27.003  1.00  0.00    -0.461 OA
BRANCH   8   9
ATOM      9  C   UNL A   1      32.404  23.823  26.547  1.00  0.00     0.332 C 
ATOM     10  O   UNL A   1      31.441  23.708  27.307  1.00  0.00    -0.249 OA
BRANCH   9  11
ATOM     11  C   UNL A   1      32.215  24.069  24.988  1.00  0.00     0.146 C 
ATOM     12  C   UNL A   1      30.889  24.807  24.640  1.00  0.00     0.062 C 
ATOM     13  C   UNL A   1      33.412  25.023  24.760  1.00  0.00     0.062 C 
ATOM     14  C   UNL A   1      30.887  25.833  23.485  1.00  0.00     0.121 C 
ATOM     15  C   UNL A   1      33.418  25.890  23.524  1.00  0.00     0.121 C 
ATOM     16  N   UNL A   1      32.149  26.542  23.265  1.00  0.00    -0.356 N 
BRANCH  11  17
ATOM     17  N   UNL A   1      32.329  22.741  24.303  1.00  0.00    -0.318 N 
ATOM     18  C   UNL A   1      33.170  23.224  21.895  1.00  0.00     0.087 C 
ATOM     19  C   UNL A   1      32.591  22.404  22.978  1.00  0.00     0.106 A 
ATOM     20  N   UNL A   1      32.308  21.135  22.739  1.00  0.00    -0.242 NA
ATOM     21  C   UNL A   1      32.004  20.573  23.928  1.00  0.00     0.131 A 
ATOM     22  C   UNL A   1      32.071  21.520  24.912  1.00  0.00     0.108 A 
ENDBRANCH  11  17
BRANCH  16  23
ATOM     23  C   UNL A   1      32.116  27.924  23.430  1.00  0.00     0.139 A 
ATOM     24  N   UNL A   1      33.112  28.487  24.160  1.00  0.00    -0.238 NA
ATOM     25  C   UNL A   1      31.014  28.780  23.187  1.00  0.00     0.063 A 
ATOM     26  C   UNL A   1      32.787  29.461  25.027  1.00  0.00     0.117 A 
ATOM     27  C   UNL A   1      30.691  29.650  24.219  1.00  0.00     0.139 A 
ATOM     28  C   UNL A   1      30.244  29.241  22.080  1.00  0.00     0.054 A 
ATOM     29  C   UNL A   1      31.485  29.795  25.334  1.00  0.00     0.068 A 
ATOM     30  O   UNL A   1      29.635  30.439  23.890  1.00  0.00    -0.464 OA
ATOM     31  C   UNL A   1      29.454  30.273  22.551  1.00  0.00     0.196 A 
ENDBRANCH  16  23
ENDBRANCH   9  11
ENDBRANCH   8   9
ENDBRANCH   7   8
ENDBRANCH   6   7
ENDBRANCH   5   6
ENDBRANCH   4   5
ENDBRANCH   3   4
ENDBRANCH   2   3
ENDBRANCH   1   2
BRANCH   1  32
ATOM     32  C   UNL A   1      40.540  21.543  27.527  1.00  0.00     0.188 C 
BRANCH  32  33
ATOM     33  O   UNL A   1      40.962  20.188  27.514  1.00  0.00    -0.376 OA
BRANCH  33  34
ATOM     34  C   UNL A   1      41.323  19.520  26.318  1.00  0.00     0.202 C 
BRANCH  34  35
ATOM     35  C   UNL A   1      42.791  19.556  25.895  1.00  0.00     0.261 C 
BRANCH  35  36
ATOM     36  O   UNL A   1      43.192  20.798  25.350  1.00  0.00    -0.460 OA
BRANCH  36  37
ATOM     37  C   UNL A   1      44.493  20.882  25.055  1.00  0.00     0.338 C 
ATOM     38  O   UNL A   1      45.275  19.946  24.855  1.00  0.00    -0.246 OA
BRANCH  37  39
ATOM     39  C   UNL A   1      44.901  22.279  25.136  1.00  0.00     0.060 A 
ATOM     40  C   UNL A   1      45.673  22.612  26.245  1.00  0.00     0.016 A 
ATOM     41  C   UNL A   1      44.184  23.233  24.392  1.00  0.00     0.016 A 
ATOM     42  C   UNL A   1      45.432  23.828  26.820  1.00  0.00     0.010 A 
ATOM     43  C   UNL A   1      43.944  24.451  24.970  1.00  0.00     0.010 A 
ATOM     44  C   UNL A   1      44.471  24.667  26.234  1.00  0.00    -0.014 A 
BRANCH  44  45
ATOM     45  C   UNL A   1      44.058  25.812  26.999  1.00  0.00     0.031 A 
ATOM     46  C   UNL A   1      45.040  26.902  26.927  1.00  0.00     0.074 A 
ATOM     47  C   UNL A   1      42.920  25.847  27.712  1.00  0.00     0.049 A 
ATOM     48  N   UNL A   1      45.879  27.243  27.845  1.00  0.00    -0.248 NA
ATOM     49  C   UNL A   1      45.264  27.532  25.621  1.00  0.00     0.031 C 
ATOM     50  C   UNL A   1      41.775  24.935  27.690  1.00  0.00     0.029 A 
ATOM     51  N   UNL A   1      42.540  26.796  28.604  1.00  0.00    -0.354 N 
ATOM     52  C   UNL A   1      46.627  28.269  27.294  1.00  0.00     0.074 A 
ATOM     53  C   UNL A   1      46.336  28.282  25.883  1.00  0.00     0.031 C 
ATOM     54  C   UNL A   1      40.744  25.505  28.362  1.00  0.00     0.029 A 
ATOM     55  C   UNL A   1      41.208  26.737  28.977  1.00  0.00     0.049 A 
ATOM     56  H   UNL A   1      43.162  27.472  28.957  1.00  0.00     0.167 HD
ATOM     57  C   UNL A   1      47.227  29.186  28.095  1.00  0.00     0.037 A 
ATOM     58  C   UNL A   1      40.551  27.694  29.679  1.00  0.00     0.037 A 
ATOM     59  C   UNL A   1      47.344  28.705  29.449  1.00  0.00     0.049 A 
ATOM     60  C   UNL A   1      41.579  28.489  30.405  1.00  0.00     0.074 A 
ATOM     61  C   UNL A   1      48.010  27.654  30.050  1.00  0.00     0.029 A 
ATOM     62  N   UNL A   1      46.399  29.116  30.357  1.00  0.00    -0.354 N 
ATOM     63  N   UNL A   1      42.294  28.014  31.387  1.00  0.00    -0.248 NA
ATOM     64  C   UNL A   1      42.147  29.648  29.729  1.00  0.00     0.031 C 
ATOM     65  C   UNL A   1      47.133  27.194  31.077  1.00  0.00     0.029 A 
ATOM     66  C   UNL A   1      46.008  28.019  31.081  1.00  0.00     0.049 A 
ATOM     67  H   UNL A   1      46.061  30.034  30.467  1.00  0.00     0.167 HD
ATOM     68  C   UNL A   1      43.569  28.520  31.178  1.00  0.00     0.074 A 
ATOM     69  C   UNL A   1      43.399  29.584  30.190  1.00  0.00     0.031 C 
ATOM     70  C   UNL A   1      44.674  27.841  31.605  1.00  0.00     0.037 A 
BRANCH  57  71
ATOM     71  C   UNL A   1      47.329  30.641  27.738  1.00  0.00     0.064 A 
ATOM     72  C   UNL A   1      46.156  31.347  27.416  1.00  0.00     0.173 A 
ATOM     73  C   UNL A   1      48.545  31.280  27.404  1.00  0.00     0.173 A 
ATOM     74  F   UNL A   1      44.950  30.817  27.670  1.00  0.00    -0.203 F 
ATOM     75  C   UNL A   1      46.200  32.566  26.738  1.00  0.00     0.198 A 
ATOM     76  C   UNL A   1      48.584  32.523  26.781  1.00  0.00     0.198 A 
ATOM     77  F   UNL A   1      49.733  30.686  27.555  1.00  0.00    -0.203 F 
ATOM     78  F   UNL A   1      45.060  33.140  26.334  1.00  0.00    -0.200 F 
ATOM     79  C   UNL A   1      47.412  33.150  26.417  1.00  0.00     0.200 A 
ATOM     80  F   UNL A   1      49.769  33.060  26.460  1.00  0.00    -0.200 F 
ATOM     81  F   UNL A   1      47.456  34.286  25.711  1.00  0.00    -0.200 F 
ENDBRANCH  57  71
BRANCH  58  82
ATOM     82  C   UNL A   1      39.173  28.192  29.456  1.00  0.00     0.064 A 
ATOM     83  C   UNL A   1      38.291  28.384  30.531  1.00  0.00     0.173 A 
ATOM     84  C   UNL A   1      38.793  28.764  28.224  1.00  0.00     0.173 A 
ATOM     85  F   UNL A   1      38.601  27.915  31.748  1.00  0.00    -0.203 F 
ATOM     86  C   UNL A   1      37.112  29.125  30.390  1.00  0.00     0.198 A 
ATOM     87  C   UNL A   1      37.616  29.498  28.084  1.00  0.00     0.198 A 
ATOM     88  F   UNL A   1      39.605  28.707  27.159  1.00  0.00    -0.203 F 
ATOM     89  F   UNL A   1      36.326  29.341  31.454  1.00  0.00    -0.200 F 
ATOM     90  C   UNL A   1      36.781  29.691  29.169  1.00  0.00     0.200 A 
ATOM     91  F   UNL A   1      37.329  30.075  26.907  1.00  0.00    -0.200 F 
ATOM     92  F   UNL A   1      35.687  30.454  29.049  1.00  0.00    -0.200 F 
ENDBRANCH  58  82
BRANCH  70  93
ATOM     93  C   UNL A   1      44.452  26.669  32.522  1.00  0.00     0.064 A 
ATOM     94  C   UNL A   1      44.346  25.337  32.084  1.00  0.00     0.173 A 
ATOM     95  C   UNL A   1      44.479  26.892  33.905  1.00  0.00     0.173 A 
ATOM     96  F   UNL A   1      44.414  25.032  30.783  1.00  0.00    -0.203 F 
ATOM     97  C   UNL A   1      44.224  24.285  32.991  1.00  0.00     0.198 A 
ATOM     98  C   UNL A   1      44.394  25.837  34.808  1.00  0.00     0.198 A 
ATOM     99  F   UNL A   1      44.636  28.137  34.380  1.00  0.00    -0.203 F 
ATOM    100  F   UNL A   1      44.109  23.024  32.549  1.00  0.00    -0.200 F 
ATOM    101  C   UNL A   1      44.255  24.536  34.353  1.00  0.00     0.200 A 
ATOM    102  F   UNL A   1      44.475  26.081  36.124  1.00  0.00    -0.200 F 
ATOM    103  F   UNL A   1      44.176  23.523  35.227  1.00  0.00    -0.200 F 
ENDBRANCH  70  93
ENDBRANCH  44  45
ENDBRANCH  37  39
ENDBRANCH  36  37
ENDBRANCH  35  36
ENDBRANCH  34  35
ENDBRANCH  33  34
ENDBRANCH  32  33
ENDBRANCH   1  32
TORSDOF 22
ENDMDL
MODEL 3
REMARK VINA RESULT:     -11.6      3.099      9.689
REMARK SMILES Cc1nccn1C1(C(=O)OCCOCCOCCOCCOC(=O)c2ccc(-c3c4nc(c(-c5c(F)c(F)c(F)c(F)c5F)c5ccc([nH]5)c(-c5c(F)c(F)c(F)c(F)c5F)c5nc(c(-c6c(F)c(F)c(F)c(F)c6F)c6ccc3[nH]6)C=C5)C=C4)cc2)CCN(c2nccc3occc23)CC1
REMARK SMILES IDX 17 1 16 2 15 3 14 4 13 5 12 6 11 7 10 8 8 9 9 10 7 11 88 12
REMARK SMILES IDX 101 13 89 14 100 15 90 16 6 17 1 18 2 19 3 20 4 21 5 22
REMARK SMILES IDX 91 23 92 24 99 25 93 26 95 27 98 28 94 29 96 30 97 31 18 32
REMARK SMILES IDX 19 33 20 34 21 35 22 36 23 37 24 38 25 39 26 40 87 41 27 42
REMARK SMILES IDX 86 43 28 44 29 45 30 46 80 47 31 48 85 49 79 50 81 51 32 52
REMARK SMILES IDX 84 53 78 54 77 55 33 57 65 58 45 59 64 60 46 61 49 62 63 63
REMARK SMILES IDX 82 64 47 65 48 66 62 68 83 69 50 70 34 71 35 72 43 73 36 74
REMARK SMILES IDX 37 75 41 76 44 77 38 78 39 79 42 80 40 81 66 82 67 83 75 84
REMARK SMILES IDX 68 85 69 86 73 87 76 88 70 89 71 90 74 91 72 92 51 93 52 94
REMARK SMILES IDX 60 95 53 96 54 97 58 98 61 99 55 100 56 101 59 102 57 103
REMARK H PARENT 81 56 49 67
REMARK Flexibility Score: inf
ROOT
ATOM      1  C   UNL A   1      33.235  35.390  28.664  1.00  0.00     0.188 C 
ENDROOT
BRANCH   1   2
ATOM      2  O   UNL A   1      34.114  34.327  28.308  1.00  0.00    -0.377 OA
BRANCH   2   3
ATOM      3  C   UNL A   1      33.561  33.048  28.057  1.00  0.00     0.188 C 
BRANCH   3   4
ATOM      4  C   UNL A   1      34.557  31.881  27.971  1.00  0.00     0.188 C 
BRANCH   4   5
ATOM      5  O   UNL A   1      34.088  30.669  27.421  1.00  0.00    -0.376 OA
BRANCH   5   6
ATOM      6  C   UNL A   1      32.727  30.530  27.062  1.00  0.00     0.202 C 
BRANCH   6   7
ATOM      7  C   UNL A   1      31.991  29.192  26.812  1.00  0.00     0.261 C 
BRANCH   7   8
ATOM      8  O   UNL A   1      32.713  28.075  26.249  1.00  0.00    -0.461 OA
BRANCH   8   9
ATOM      9  C   UNL A   1      31.974  26.985  25.918  1.00  0.00     0.332 C 
ATOM     10  O   UNL A   1      31.339  26.352  26.762  1.00  0.00    -0.249 OA
BRANCH   9  11
ATOM     11  C   UNL A   1      31.941  26.592  24.378  1.00  0.00     0.146 C 
ATOM     12  C   UNL A   1      33.359  26.414  23.760  1.00  0.00     0.062 C 
ATOM     13  C   UNL A   1      31.258  25.210  24.508  1.00  0.00     0.062 C 
ATOM     14  C   UNL A   1      33.580  25.309  22.702  1.00  0.00     0.121 C 
ATOM     15  C   UNL A   1      31.386  24.231  23.365  1.00  0.00     0.121 C 
ATOM     16  N   UNL A   1      32.734  24.122  22.842  1.00  0.00    -0.356 N 
BRANCH  11  17
ATOM     17  N   UNL A   1      31.131  27.631  23.663  1.00  0.00    -0.318 N 
ATOM     18  C   UNL A   1      28.661  26.839  23.769  1.00  0.00     0.087 C 
ATOM     19  C   UNL A   1      29.790  27.662  23.290  1.00  0.00     0.106 A 
ATOM     20  N   UNL A   1      29.554  28.629  22.420  1.00  0.00    -0.242 NA
ATOM     21  C   UNL A   1      30.693  29.348  22.320  1.00  0.00     0.131 A 
ATOM     22  C   UNL A   1      31.654  28.796  23.118  1.00  0.00     0.108 A 
ENDBRANCH  11  17
BRANCH  16  23
ATOM     23  C   UNL A   1      33.395  22.918  23.076  1.00  0.00     0.139 A 
ATOM     24  N   UNL A   1      32.652  21.783  23.036  1.00  0.00    -0.238 NA
ATOM     25  C   UNL A   1      34.680  22.756  23.648  1.00  0.00     0.063 A 
ATOM     26  C   UNL A   1      32.882  20.844  23.969  1.00  0.00     0.117 A 
ATOM     27  C   UNL A   1      34.759  21.855  24.700  1.00  0.00     0.139 A 
ATOM     28  C   UNL A   1      36.038  23.039  23.320  1.00  0.00     0.054 A 
ATOM     29  C   UNL A   1      33.704  21.047  25.058  1.00  0.00     0.068 A 
ATOM     30  O   UNL A   1      36.029  21.754  25.173  1.00  0.00    -0.464 OA
ATOM     31  C   UNL A   1      36.816  22.374  24.251  1.00  0.00     0.196 A 
ENDBRANCH  16  23
ENDBRANCH   9  11
ENDBRANCH   8   9
ENDBRANCH   7   8
ENDBRANCH   6   7
ENDBRANCH   5   6
ENDBRANCH   4   5
ENDBRANCH   3   4
ENDBRANCH   2   3
ENDBRANCH   1   2
BRANCH   1  32
ATOM     32  C   UNL A   1      33.091  35.916  30.118  1.00  0.00     0.188 C 
BRANCH  32  33
ATOM     33  O   UNL A   1      32.898  34.933  31.124  1.00  0.00    -0.376 OA
BRANCH  33  34
ATOM     34  C   UNL A   1      33.935  34.543  32.007  1.00  0.00     0.202 C 
BRANCH  34  35
ATOM     35  C   UNL A   1      35.123  33.783  31.421  1.00  0.00     0.261 C 
BRANCH  35  36
ATOM     36  O   UNL A   1      35.006  32.378  31.530  1.00  0.00    -0.460 OA
BRANCH  36  37
ATOM     37  C   UNL A   1      36.066  31.772  32.075  1.00  0.00     0.338 C 
ATOM     38  O   UNL A   1      36.340  31.687  33.277  1.00  0.00    -0.246 OA
BRANCH  37  39
ATOM     39  C   UNL A   1      36.949  31.323  31.006  1.00  0.00     0.060 A 
ATOM     40  C   UNL A   1      36.706  30.037  30.533  1.00  0.00     0.016 A 
ATOM     41  C   UNL A   1      38.177  31.982  30.826  1.00  0.00     0.016 A 
ATOM     42  C   UNL A   1      37.800  29.283  30.211  1.00  0.00     0.010 A 
ATOM     43  C   UNL A   1      39.272  31.226  30.503  1.00  0.00     0.010 A 
ATOM     44  C   UNL A   1      39.072  29.864  30.332  1.00  0.00    -0.014 A 
BRANCH  44  45
ATOM     45  C   UNL A   1      40.201  28.978  30.238  1.00  0.00     0.031 A 
ATOM     46  C   UNL A   1      40.858  28.789  31.537  1.00  0.00     0.074 A 
ATOM     47  C   UNL A   1      40.605  28.425  29.083  1.00  0.00     0.049 A 
ATOM     48  N   UNL A   1      41.968  29.320  31.921  1.00  0.00    -0.248 NA
ATOM     49  C   UNL A   1      40.094  28.121  32.598  1.00  0.00     0.031 C 
ATOM     50  C   UNL A   1      39.922  28.356  27.789  1.00  0.00     0.029 A 
ATOM     51  N   UNL A   1      41.753  27.735  28.861  1.00  0.00    -0.354 N 
ATOM     52  C   UNL A   1      42.142  28.900  33.229  1.00  0.00     0.074 A 
ATOM     53  C   UNL A   1      40.889  28.325  33.649  1.00  0.00     0.031 C 
ATOM     54  C   UNL A   1      40.572  27.471  26.993  1.00  0.00     0.029 A 
ATOM     55  C   UNL A   1      41.784  27.036  27.666  1.00  0.00     0.049 A 
ATOM     56  H   UNL A   1      42.503  27.734  29.499  1.00  0.00     0.167 HD
ATOM     57  C   UNL A   1      43.386  28.830  33.767  1.00  0.00     0.037 A 
ATOM     58  C   UNL A   1      42.720  26.115  27.326  1.00  0.00     0.037 A 
ATOM     59  C   UNL A   1      44.330  29.618  33.014  1.00  0.00     0.049 A 
ATOM     60  C   UNL A   1      43.924  26.384  28.159  1.00  0.00     0.074 A 
ATOM     61  C   UNL A   1      44.460  30.964  32.733  1.00  0.00     0.029 A 
ATOM     62  N   UNL A   1      45.120  28.966  32.100  1.00  0.00    -0.354 N 
ATOM     63  N   UNL A   1      44.669  27.447  28.023  1.00  0.00    -0.248 NA
ATOM     64  C   UNL A   1      44.020  25.720  29.453  1.00  0.00     0.031 C 
ATOM     65  C   UNL A   1      44.944  31.020  31.391  1.00  0.00     0.029 A 
ATOM     66  C   UNL A   1      45.129  29.710  30.948  1.00  0.00     0.049 A 
ATOM     67  H   UNL A   1      45.595  28.116  32.244  1.00  0.00     0.167 HD
ATOM     68  C   UNL A   1      44.983  27.829  29.321  1.00  0.00     0.074 A 
ATOM     69  C   UNL A   1      44.624  26.684  30.154  1.00  0.00     0.031 C 
ATOM     70  C   UNL A   1      45.231  29.137  29.626  1.00  0.00     0.037 A 
BRANCH  57  71
ATOM     71  C   UNL A   1      43.808  27.742  34.713  1.00  0.00     0.064 A 
ATOM     72  C   UNL A   1      43.717  26.403  34.293  1.00  0.00     0.173 A 
ATOM     73  C   UNL A   1      44.000  27.942  36.098  1.00  0.00     0.173 A 
ATOM     74  F   UNL A   1      43.511  26.105  33.002  1.00  0.00    -0.203 F 
ATOM     75  C   UNL A   1      43.740  25.348  35.207  1.00  0.00     0.198 A 
ATOM     76  C   UNL A   1      44.080  26.884  36.998  1.00  0.00     0.198 A 
ATOM     77  F   UNL A   1      44.000  29.159  36.654  1.00  0.00    -0.203 F 
ATOM     78  F   UNL A   1      43.519  24.098  34.780  1.00  0.00    -0.200 F 
ATOM     79  C   UNL A   1      43.915  25.589  36.557  1.00  0.00     0.200 A 
ATOM     80  F   UNL A   1      44.229  27.143  38.304  1.00  0.00    -0.200 F 
ATOM     81  F   UNL A   1      43.872  24.585  37.441  1.00  0.00    -0.200 F 
ENDBRANCH  57  71
BRANCH  58  82
ATOM     82  C   UNL A   1      42.505  24.822  26.636  1.00  0.00     0.064 A 
ATOM     83  C   UNL A   1      43.287  24.454  25.530  1.00  0.00     0.173 A 
ATOM     84  C   UNL A   1      41.731  23.800  27.222  1.00  0.00     0.173 A 
ATOM     85  F   UNL A   1      44.090  25.353  24.943  1.00  0.00    -0.203 F 
ATOM     86  C   UNL A   1      43.314  23.137  25.054  1.00  0.00     0.198 A 
ATOM     87  C   UNL A   1      41.755  22.490  26.745  1.00  0.00     0.198 A 
ATOM     88  F   UNL A   1      41.014  24.030  28.332  1.00  0.00    -0.203 F 
ATOM     89  F   UNL A   1      44.121  22.810  24.035  1.00  0.00    -0.200 F 
ATOM     90  C   UNL A   1      42.555  22.154  25.670  1.00  0.00     0.200 A 
ATOM     91  F   UNL A   1      41.047  21.540  27.375  1.00  0.00    -0.200 F 
ATOM     92  F   UNL A   1      42.630  20.882  25.256  1.00  0.00    -0.200 F 
ENDBRANCH  58  82
BRANCH  70  93
ATOM     93  C   UNL A   1      45.401  30.094  28.479  1.00  0.00     0.064 A 
ATOM     94  C   UNL A   1      44.335  30.739  27.828  1.00  0.00     0.173 A 
ATOM     95  C   UNL A   1      46.700  30.470  28.113  1.00  0.00     0.173 A 
ATOM     96  F   UNL A   1      43.067  30.509  28.190  1.00  0.00    -0.203 F 
ATOM     97  C   UNL A   1      44.563  31.680  26.824  1.00  0.00     0.198 A 
ATOM     98  C   UNL A   1      46.925  31.437  27.137  1.00  0.00     0.198 A 
ATOM     99  F   UNL A   1      47.757  29.930  28.740  1.00  0.00    -0.203 F 
ATOM    100  F   UNL A   1      43.528  32.270  26.207  1.00  0.00    -0.200 F 
ATOM    101  C   UNL A   1      45.858  32.032  26.485  1.00  0.00     0.200 A 
ATOM    102  F   UNL A   1      48.180  31.810  26.847  1.00  0.00    -0.200 F 
ATOM    103  F   UNL A   1      46.079  32.965  25.547  1.00  0.00    -0.200 F 
ENDBRANCH  70  93
ENDBRANCH  44  45
ENDBRANCH  37  39
ENDBRANCH  36  37
ENDBRANCH  35  36
ENDBRANCH  34  35
ENDBRANCH  33  34
ENDBRANCH  32  33
ENDBRANCH   1  32
TORSDOF 22
ENDMDL
