MODEL 1
REMARK VINA RESULT:      -8.1      0.000      0.000
REMARK SMILES Cc1cc(N2CCOC[C@H]2C(=O)OCCOCCOCCOCCOC(=O)c2ccc(-c3c4nc(c(-c5c(F)c(F)c(F)c(F)c5F)c5ccc([nH]5)c(-c5c(F)c(F)c(F)c(F)c5F)c5nc(c(-c6c(F)c(F)c(F)c(F)c6F)c6ccc3[nH]6)C=C5)C=C4)cc2)ncc1[N+](=O)[O-]
REMARK SMILES IDX 19 1 18 2 17 3 16 4 15 5 14 6 13 7 11 8 12 9 10 10 5 11 6 12
REMARK SMILES IDX 7 13 9 14 8 15 4 16 1 17 2 18 3 19 93 20 92 21 91 22 94 23
REMARK SMILES IDX 95 24 96 25 20 26 21 27 22 28 23 29 24 30 25 31 26 32 27 33
REMARK SMILES IDX 28 34 29 35 90 36 30 37 89 38 31 39 32 40 33 41 83 42 34 43
REMARK SMILES IDX 88 44 82 45 84 46 35 47 87 48 81 49 80 50 36 52 68 53 48 54
REMARK SMILES IDX 67 55 49 56 52 57 66 58 85 59 50 60 51 61 65 63 86 64 53 65
REMARK SMILES IDX 37 66 38 67 46 68 39 69 40 70 44 71 47 72 41 73 42 74 45 75
REMARK SMILES IDX 43 76 69 77 70 78 78 79 71 80 72 81 76 82 79 83 73 84 74 85
REMARK SMILES IDX 77 86 75 87 54 88 55 89 63 90 56 91 57 92 61 93 64 94 58 95
REMARK SMILES IDX 59 96 62 97 60 98
REMARK H PARENT 84 51 52 62
REMARK Flexibility Score: inf
ROOT
ATOM      1  O   UNL A   1      37.008  33.563  32.999  1.00  0.00    -0.377 OA
ENDROOT
BRANCH   1   2
ATOM      2  C   UNL A   1      36.606  32.341  33.584  1.00  0.00     0.188 C 
BRANCH   2   3
ATOM      3  C   UNL A   1      37.741  31.569  34.267  1.00  0.00     0.188 C 
BRANCH   3   4
ATOM      4  O   UNL A   1      38.057  30.363  33.601  1.00  0.00    -0.376 OA
BRANCH   4   5
ATOM      5  C   UNL A   1      39.374  29.843  33.704  1.00  0.00     0.202 C 
BRANCH   5   6
ATOM      6  C   UNL A   1      39.851  28.501  33.102  1.00  0.00     0.261 C 
BRANCH   6   7
ATOM      7  O   UNL A   1      40.509  27.541  33.943  1.00  0.00    -0.462 OA
BRANCH   7   8
ATOM      8  C   UNL A   1      41.854  27.589  34.071  1.00  0.00     0.331 C 
ATOM      9  O   UNL A   1      42.583  28.220  33.311  1.00  0.00    -0.250 OA
BRANCH   8  10
ATOM     10  C   UNL A   1      42.399  26.742  35.240  1.00  0.00     0.220 C 
ATOM     11  N   UNL A   1      43.860  26.473  35.271  1.00  0.00    -0.339 N 
ATOM     12  C   UNL A   1      44.739  27.570  35.717  1.00  0.00     0.147 C 
ATOM     13  C   UNL A   1      44.174  28.271  36.953  1.00  0.00     0.181 C 
ATOM     14  C   UNL A   1      41.990  27.467  36.532  1.00  0.00     0.197 C 
ATOM     15  O   UNL A   1      42.795  28.634  36.783  1.00  0.00    -0.377 OA
BRANCH  11  16
ATOM     16  C   UNL A   1      44.418  25.225  35.089  1.00  0.00     0.130 A 
ATOM     17  C   UNL A   1      47.797  23.577  35.633  1.00  0.00     0.052 C 
ATOM     18  C   UNL A   1      46.347  23.716  35.257  1.00  0.00     0.032 A 
ATOM     19  C   UNL A   1      45.795  25.016  35.205  1.00  0.00     0.057 A 
ATOM     20  C   UNL A   1      45.470  22.642  35.067  1.00  0.00     0.290 A 
ATOM     21  C   UNL A   1      44.122  22.920  34.884  1.00  0.00     0.199 A 
ATOM     22  N   UNL A   1      43.593  24.171  34.924  1.00  0.00    -0.232 NA
BRANCH  20  23
ATOM     23  N   UNL A   1      45.874  21.238  35.069  1.00  0.00     0.064 N 
ATOM     24  O   UNL A   1      45.618  20.574  36.084  1.00  0.00    -0.258 OA
ATOM     25  O   UNL A   1      46.464  20.790  34.078  1.00  0.00    -0.258 OA
ENDBRANCH  20  23
ENDBRANCH  11  16
ENDBRANCH   8  10
ENDBRANCH   7   8
ENDBRANCH   6   7
ENDBRANCH   5   6
ENDBRANCH   4   5
ENDBRANCH   3   4
ENDBRANCH   2   3
ENDBRANCH   1   2
BRANCH   1  26
ATOM     26  C   UNL A   1      37.862  33.504  31.869  1.00  0.00     0.188 C 
BRANCH  26  27
ATOM     27  C   UNL A   1      37.333  33.610  30.420  1.00  0.00     0.188 C 
BRANCH  27  28
ATOM     28  O   UNL A   1      35.989  34.050  30.279  1.00  0.00    -0.376 OA
BRANCH  28  29
ATOM     29  C   UNL A   1      35.451  34.191  28.975  1.00  0.00     0.202 C 
BRANCH  29  30
ATOM     30  C   UNL A   1      34.310  33.227  28.618  1.00  0.00     0.261 C 
BRANCH  30  31
ATOM     31  O   UNL A   1      34.506  31.870  29.031  1.00  0.00    -0.460 OA
BRANCH  31  32
ATOM     32  C   UNL A   1      34.689  30.959  28.053  1.00  0.00     0.338 C 
ATOM     33  O   UNL A   1      33.999  30.783  27.064  1.00  0.00    -0.246 OA
BRANCH  32  34
ATOM     34  C   UNL A   1      35.989  30.309  28.292  1.00  0.00     0.060 A 
ATOM     35  C   UNL A   1      36.222  29.696  29.532  1.00  0.00     0.016 A 
ATOM     36  C   UNL A   1      36.953  30.268  27.283  1.00  0.00     0.016 A 
ATOM     37  C   UNL A   1      37.432  29.046  29.768  1.00  0.00     0.010 A 
ATOM     38  C   UNL A   1      38.178  29.653  27.534  1.00  0.00     0.010 A 
ATOM     39  C   UNL A   1      38.432  29.066  28.788  1.00  0.00    -0.014 A 
BRANCH  39  40
ATOM     40  C   UNL A   1      39.820  28.700  29.147  1.00  0.00     0.031 A 
ATOM     41  C   UNL A   1      40.627  29.714  29.908  1.00  0.00     0.074 A 
ATOM     42  C   UNL A   1      40.355  27.517  28.801  1.00  0.00     0.049 A 
ATOM     43  N   UNL A   1      41.890  29.693  30.243  1.00  0.00    -0.248 NA
ATOM     44  C   UNL A   1      39.907  30.924  30.343  1.00  0.00     0.031 C 
ATOM     45  C   UNL A   1      39.653  26.439  28.106  1.00  0.00     0.029 A 
ATOM     46  N   UNL A   1      41.629  27.035  28.973  1.00  0.00    -0.354 N 
ATOM     47  C   UNL A   1      42.117  30.889  30.912  1.00  0.00     0.074 A 
ATOM     48  C   UNL A   1      40.872  31.621  30.923  1.00  0.00     0.031 C 
ATOM     49  C   UNL A   1      40.517  25.431  27.885  1.00  0.00     0.029 A 
ATOM     50  C   UNL A   1      41.838  25.811  28.386  1.00  0.00     0.049 A 
ATOM     51  H   UNL A   1      42.326  27.521  29.470  1.00  0.00     0.167 HD
ATOM     52  C   UNL A   1      43.268  31.333  31.467  1.00  0.00     0.037 A 
ATOM     53  C   UNL A   1      42.976  25.104  28.240  1.00  0.00     0.037 A 
ATOM     54  C   UNL A   1      44.501  30.599  31.452  1.00  0.00     0.049 A 
ATOM     55  C   UNL A   1      44.263  25.659  28.806  1.00  0.00     0.074 A 
ATOM     56  C   UNL A   1      45.719  30.950  32.006  1.00  0.00     0.029 A 
ATOM     57  N   UNL A   1      44.676  29.367  30.840  1.00  0.00    -0.354 N 
ATOM     58  N   UNL A   1      44.468  26.774  29.466  1.00  0.00    -0.248 NA
ATOM     59  C   UNL A   1      45.479  24.856  28.606  1.00  0.00     0.031 C 
ATOM     60  C   UNL A   1      46.648  29.960  31.676  1.00  0.00     0.029 A 
ATOM     61  C   UNL A   1      45.993  28.958  30.978  1.00  0.00     0.049 A 
ATOM     62  H   UNL A   1      43.972  28.859  30.377  1.00  0.00     0.167 HD
ATOM     63  C   UNL A   1      45.819  26.785  29.793  1.00  0.00     0.074 A 
ATOM     64  C   UNL A   1      46.386  25.563  29.266  1.00  0.00     0.031 C 
ATOM     65  C   UNL A   1      46.528  27.722  30.469  1.00  0.00     0.037 A 
BRANCH  52  66
ATOM     66  C   UNL A   1      43.256  32.688  32.107  1.00  0.00     0.064 A 
ATOM     67  C   UNL A   1      43.102  32.853  33.491  1.00  0.00     0.173 A 
ATOM     68  C   UNL A   1      43.459  33.837  31.326  1.00  0.00     0.173 A 
ATOM     69  F   UNL A   1      42.884  31.789  34.278  1.00  0.00    -0.203 F 
ATOM     70  C   UNL A   1      43.139  34.121  34.067  1.00  0.00     0.198 A 
ATOM     71  C   UNL A   1      43.527  35.097  31.910  1.00  0.00     0.198 A 
ATOM     72  F   UNL A   1      43.610  33.732  29.996  1.00  0.00    -0.203 F 
ATOM     73  F   UNL A   1      42.952  34.260  35.388  1.00  0.00    -0.200 F 
ATOM     74  C   UNL A   1      43.363  35.239  33.279  1.00  0.00     0.200 A 
ATOM     75  F   UNL A   1      43.755  36.176  31.146  1.00  0.00    -0.200 F 
ATOM     76  F   UNL A   1      43.416  36.455  33.838  1.00  0.00    -0.200 F 
ENDBRANCH  52  66
BRANCH  53  77
ATOM     77  C   UNL A   1      42.975  23.814  27.497  1.00  0.00     0.064 A 
ATOM     78  C   UNL A   1      43.327  23.755  26.141  1.00  0.00     0.173 A 
ATOM     79  C   UNL A   1      42.562  22.621  28.113  1.00  0.00     0.173 A 
ATOM     80  F   UNL A   1      43.703  24.871  25.498  1.00  0.00    -0.203 F 
ATOM     81  C   UNL A   1      43.234  22.564  25.422  1.00  0.00     0.198 A 
ATOM     82  C   UNL A   1      42.502  21.424  27.401  1.00  0.00     0.198 A 
ATOM     83  F   UNL A   1      42.209  22.619  29.406  1.00  0.00    -0.203 F 
ATOM     84  F   UNL A   1      43.510  22.553  24.110  1.00  0.00    -0.200 F 
ATOM     85  C   UNL A   1      42.825  21.399  26.053  1.00  0.00     0.200 A 
ATOM     86  F   UNL A   1      42.117  20.300  28.018  1.00  0.00    -0.200 F 
ATOM     87  F   UNL A   1      42.726  20.258  25.359  1.00  0.00    -0.200 F 
ENDBRANCH  53  77
BRANCH  65  88
ATOM     88  C   UNL A   1      47.980  27.441  30.741  1.00  0.00     0.064 A 
ATOM     89  C   UNL A   1      48.997  27.919  29.902  1.00  0.00     0.173 A 
ATOM     90  C   UNL A   1      48.356  26.745  31.901  1.00  0.00     0.173 A 
ATOM     91  F   UNL A   1      48.690  28.580  28.776  1.00  0.00    -0.203 F 
ATOM     92  C   UNL A   1      50.337  27.693  30.205  1.00  0.00     0.198 A 
ATOM     93  C   UNL A   1      49.697  26.551  32.217  1.00  0.00     0.198 A 
ATOM     94  F   UNL A   1      47.422  26.277  32.742  1.00  0.00    -0.203 F 
ATOM     95  F   UNL A   1      51.292  28.122  29.369  1.00  0.00    -0.200 F 
ATOM     96  C   UNL A   1      50.686  27.019  31.366  1.00  0.00     0.200 A 
ATOM     97  F   UNL A   1      50.031  25.919  33.351  1.00  0.00    -0.200 F 
ATOM     98  F   UNL A   1      51.977  26.818  31.665  1.00  0.00    -0.200 F 
ENDBRANCH  65  88
ENDBRANCH  39  40
ENDBRANCH  32  34
ENDBRANCH  31  32
ENDBRANCH  30  31
ENDBRANCH  29  30
ENDBRANCH  28  29
ENDBRANCH  27  28
ENDBRANCH  26  27
ENDBRANCH   1  26
TORSDOF 22
ENDMDL
MODEL 2
REMARK VINA RESULT:      -7.7      4.279      6.788
REMARK SMILES Cc1cc(N2CCOC[C@H]2C(=O)OCCOCCOCCOCCOC(=O)c2ccc(-c3c4nc(c(-c5c(F)c(F)c(F)c(F)c5F)c5ccc([nH]5)c(-c5c(F)c(F)c(F)c(F)c5F)c5nc(c(-c6c(F)c(F)c(F)c(F)c6F)c6ccc3[nH]6)C=C5)C=C4)cc2)ncc1[N+](=O)[O-]
REMARK SMILES IDX 19 1 18 2 17 3 16 4 15 5 14 6 13 7 11 8 12 9 10 10 5 11 6 12
REMARK SMILES IDX 7 13 9 14 8 15 4 16 1 17 2 18 3 19 93 20 92 21 91 22 94 23
REMARK SMILES IDX 95 24 96 25 20 26 21 27 22 28 23 29 24 30 25 31 26 32 27 33
REMARK SMILES IDX 28 34 29 35 90 36 30 37 89 38 31 39 32 40 33 41 83 42 34 43
REMARK SMILES IDX 88 44 82 45 84 46 35 47 87 48 81 49 80 50 36 52 68 53 48 54
REMARK SMILES IDX 67 55 49 56 52 57 66 58 85 59 50 60 51 61 65 63 86 64 53 65
REMARK SMILES IDX 37 66 38 67 46 68 39 69 40 70 44 71 47 72 41 73 42 74 45 75
REMARK SMILES IDX 43 76 69 77 70 78 78 79 71 80 72 81 76 82 79 83 73 84 74 85
REMARK SMILES IDX 77 86 75 87 54 88 55 89 63 90 56 91 57 92 61 93 64 94 58 95
REMARK SMILES IDX 59 96 62 97 60 98
REMARK H PARENT 84 51 52 62
REMARK Flexibility Score: inf
ROOT
ATOM      1  O   UNL A   1      35.592  35.061  32.530  1.00  0.00    -0.377 OA
ENDROOT
BRANCH   1   2
ATOM      2  C   UNL A   1      34.809  34.304  33.430  1.00  0.00     0.188 C 
BRANCH   2   3
ATOM      3  C   UNL A   1      35.401  34.201  34.842  1.00  0.00     0.188 C 
BRANCH   3   4
ATOM      4  O   UNL A   1      36.299  33.118  34.978  1.00  0.00    -0.376 OA
BRANCH   4   5
ATOM      5  C   UNL A   1      37.301  33.175  35.982  1.00  0.00     0.202 C 
BRANCH   5   6
ATOM      6  C   UNL A   1      38.304  32.043  36.304  1.00  0.00     0.261 C 
BRANCH   6   7
ATOM      7  O   UNL A   1      38.566  31.697  37.672  1.00  0.00    -0.462 OA
BRANCH   7   8
ATOM      8  C   UNL A   1      37.530  31.415  38.492  1.00  0.00     0.331 C 
ATOM      9  O   UNL A   1      36.817  30.423  38.364  1.00  0.00    -0.250 OA
BRANCH   8  10
ATOM     10  C   UNL A   1      37.293  32.476  39.587  1.00  0.00     0.220 C 
ATOM     11  N   UNL A   1      36.472  32.081  40.762  1.00  0.00    -0.339 N 
ATOM     12  C   UNL A   1      37.120  31.238  41.784  1.00  0.00     0.147 C 
ATOM     13  C   UNL A   1      38.530  31.732  42.105  1.00  0.00     0.181 C 
ATOM     14  C   UNL A   1      38.683  32.924  40.068  1.00  0.00     0.197 C 
ATOM     15  O   UNL A   1      39.309  31.945  40.917  1.00  0.00    -0.377 OA
BRANCH  11  16
ATOM     16  C   UNL A   1      35.226  32.599  41.039  1.00  0.00     0.130 A 
ATOM     17  C   UNL A   1      33.474  34.213  43.999  1.00  0.00     0.052 C 
ATOM     18  C   UNL A   1      33.676  33.681  42.606  1.00  0.00     0.032 A 
ATOM     19  C   UNL A   1      34.846  32.935  42.342  1.00  0.00     0.057 A 
ATOM     20  C   UNL A   1      32.843  33.968  41.519  1.00  0.00     0.290 A 
ATOM     21  C   UNL A   1      33.240  33.543  40.258  1.00  0.00     0.199 A 
ATOM     22  N   UNL A   1      34.412  32.904  40.007  1.00  0.00    -0.232 NA
BRANCH  20  23
ATOM     23  N   UNL A   1      31.587  34.708  41.616  1.00  0.00     0.064 N 
ATOM     24  O   UNL A   1      30.566  34.063  41.895  1.00  0.00    -0.258 OA
ATOM     25  O   UNL A   1      31.600  35.926  41.396  1.00  0.00    -0.258 OA
ENDBRANCH  20  23
ENDBRANCH  11  16
ENDBRANCH   8  10
ENDBRANCH   7   8
ENDBRANCH   6   7
ENDBRANCH   5   6
ENDBRANCH   4   5
ENDBRANCH   3   4
ENDBRANCH   2   3
ENDBRANCH   1   2
BRANCH   1  26
ATOM     26  C   UNL A   1      36.604  34.383  31.805  1.00  0.00     0.188 C 
BRANCH  26  27
ATOM     27  C   UNL A   1      36.339  33.707  30.439  1.00  0.00     0.188 C 
BRANCH  27  28
ATOM     28  O   UNL A   1      35.256  34.236  29.685  1.00  0.00    -0.376 OA
BRANCH  28  29
ATOM     29  C   UNL A   1      35.155  33.900  28.311  1.00  0.00     0.202 C 
BRANCH  29  30
ATOM     30  C   UNL A   1      34.052  32.894  27.951  1.00  0.00     0.261 C 
BRANCH  30  31
ATOM     31  O   UNL A   1      34.137  31.631  28.621  1.00  0.00    -0.460 OA
BRANCH  31  32
ATOM     32  C   UNL A   1      34.719  30.622  27.941  1.00  0.00     0.338 C 
ATOM     33  O   UNL A   1      34.358  30.133  26.884  1.00  0.00    -0.246 OA
BRANCH  32  34
ATOM     34  C   UNL A   1      35.992  30.311  28.614  1.00  0.00     0.060 A 
ATOM     35  C   UNL A   1      37.186  30.798  28.063  1.00  0.00     0.016 A 
ATOM     36  C   UNL A   1      35.999  29.581  29.804  1.00  0.00     0.016 A 
ATOM     37  C   UNL A   1      38.399  30.544  28.701  1.00  0.00     0.010 A 
ATOM     38  C   UNL A   1      37.217  29.294  30.420  1.00  0.00     0.010 A 
ATOM     39  C   UNL A   1      38.422  29.750  29.854  1.00  0.00    -0.014 A 
BRANCH  39  40
ATOM     40  C   UNL A   1      39.704  29.185  30.331  1.00  0.00     0.031 A 
ATOM     41  C   UNL A   1      40.374  29.871  31.487  1.00  0.00     0.074 A 
ATOM     42  C   UNL A   1      40.264  28.108  29.753  1.00  0.00     0.049 A 
ATOM     43  N   UNL A   1      41.546  29.653  32.021  1.00  0.00    -0.248 NA
ATOM     44  C   UNL A   1      39.616  30.963  32.124  1.00  0.00     0.031 C 
ATOM     45  C   UNL A   1      39.682  27.334  28.659  1.00  0.00     0.029 A 
ATOM     46  N   UNL A   1      41.467  27.495  30.000  1.00  0.00    -0.354 N 
ATOM     47  C   UNL A   1      41.671  30.586  33.042  1.00  0.00     0.074 A 
ATOM     48  C   UNL A   1      40.467  31.384  33.046  1.00  0.00     0.031 C 
ATOM     49  C   UNL A   1      40.546  26.363  28.308  1.00  0.00     0.029 A 
ATOM     50  C   UNL A   1      41.754  26.475  29.125  1.00  0.00     0.049 A 
ATOM     51  H   UNL A   1      42.067  27.761  30.733  1.00  0.00     0.167 HD
ATOM     52  C   UNL A   1      42.703  30.759  33.899  1.00  0.00     0.037 A 
ATOM     53  C   UNL A   1      42.879  25.748  28.984  1.00  0.00     0.037 A 
ATOM     54  C   UNL A   1      43.896  29.960  33.888  1.00  0.00     0.049 A 
ATOM     55  C   UNL A   1      44.046  26.012  29.908  1.00  0.00     0.074 A 
ATOM     56  C   UNL A   1      44.992  30.038  34.728  1.00  0.00     0.029 A 
ATOM     57  N   UNL A   1      44.154  28.943  32.982  1.00  0.00    -0.354 N 
ATOM     58  N   UNL A   1      44.148  26.873  30.891  1.00  0.00    -0.248 NA
ATOM     59  C   UNL A   1      45.256  25.201  29.700  1.00  0.00     0.031 C 
ATOM     60  C   UNL A   1      45.941  29.110  34.292  1.00  0.00     0.029 A 
ATOM     61  C   UNL A   1      45.407  28.405  33.225  1.00  0.00     0.049 A 
ATOM     62  H   UNL A   1      43.540  28.647  32.272  1.00  0.00     0.167 HD
ATOM     63  C   UNL A   1      45.410  26.680  31.443  1.00  0.00     0.074 A 
ATOM     64  C   UNL A   1      46.036  25.616  30.689  1.00  0.00     0.031 C 
ATOM     65  C   UNL A   1      45.999  27.325  32.479  1.00  0.00     0.037 A 
BRANCH  52  66
ATOM     66  C   UNL A   1      42.603  31.873  34.896  1.00  0.00     0.064 A 
ATOM     67  C   UNL A   1      42.089  31.670  36.185  1.00  0.00     0.173 A 
ATOM     68  C   UNL A   1      43.083  33.152  34.573  1.00  0.00     0.173 A 
ATOM     69  F   UNL A   1      41.599  30.472  36.536  1.00  0.00    -0.203 F 
ATOM     70  C   UNL A   1      42.047  32.711  37.109  1.00  0.00     0.198 A 
ATOM     71  C   UNL A   1      43.068  34.180  35.509  1.00  0.00     0.198 A 
ATOM     72  F   UNL A   1      43.583  33.397  33.352  1.00  0.00    -0.203 F 
ATOM     73  F   UNL A   1      41.518  32.506  38.323  1.00  0.00    -0.200 F 
ATOM     74  C   UNL A   1      42.547  33.961  36.775  1.00  0.00     0.200 A 
ATOM     75  F   UNL A   1      43.563  35.384  35.187  1.00  0.00    -0.200 F 
ATOM     76  F   UNL A   1      42.523  34.955  37.672  1.00  0.00    -0.200 F 
ENDBRANCH  52  66
BRANCH  53  77
ATOM     77  C   UNL A   1      42.989  24.726  27.906  1.00  0.00     0.064 A 
ATOM     78  C   UNL A   1      42.649  23.385  28.138  1.00  0.00     0.173 A 
ATOM     79  C   UNL A   1      43.496  25.057  26.640  1.00  0.00     0.173 A 
ATOM     80  F   UNL A   1      42.186  23.010  29.340  1.00  0.00    -0.203 F 
ATOM     81  C   UNL A   1      42.842  22.412  27.159  1.00  0.00     0.198 A 
ATOM     82  C   UNL A   1      43.657  24.089  25.650  1.00  0.00     0.198 A 
ATOM     83  F   UNL A   1      43.842  26.323  26.364  1.00  0.00    -0.203 F 
ATOM     84  F   UNL A   1      42.574  21.127  27.432  1.00  0.00    -0.200 F 
ATOM     85  C   UNL A   1      43.343  22.765  25.915  1.00  0.00     0.200 A 
ATOM     86  F   UNL A   1      44.130  24.437  24.447  1.00  0.00    -0.200 F 
ATOM     87  F   UNL A   1      43.538  21.828  24.978  1.00  0.00    -0.200 F 
ENDBRANCH  53  77
BRANCH  65  88
ATOM     88  C   UNL A   1      47.362  26.861  32.910  1.00  0.00     0.064 A 
ATOM     89  C   UNL A   1      48.535  27.474  32.448  1.00  0.00     0.173 A 
ATOM     90  C   UNL A   1      47.487  25.832  33.859  1.00  0.00     0.173 A 
ATOM     91  F   UNL A   1      48.470  28.453  31.534  1.00  0.00    -0.203 F 
ATOM     92  C   UNL A   1      49.784  27.062  32.905  1.00  0.00     0.198 A 
ATOM     93  C   UNL A   1      48.735  25.447  34.338  1.00  0.00     0.198 A 
ATOM     94  F   UNL A   1      46.395  25.220  34.341  1.00  0.00    -0.203 F 
ATOM     95  F   UNL A   1      50.894  27.634  32.419  1.00  0.00    -0.200 F 
ATOM     96  C   UNL A   1      49.882  26.057  33.856  1.00  0.00     0.200 A 
ATOM     97  F   UNL A   1      48.826  24.491  35.273  1.00  0.00    -0.200 F 
ATOM     98  F   UNL A   1      51.085  25.674  34.307  1.00  0.00    -0.200 F 
ENDBRANCH  65  88
ENDBRANCH  39  40
ENDBRANCH  32  34
ENDBRANCH  31  32
ENDBRANCH  30  31
ENDBRANCH  29  30
ENDBRANCH  28  29
ENDBRANCH  27  28
ENDBRANCH  26  27
ENDBRANCH   1  26
TORSDOF 22
ENDMDL
MODEL 3
REMARK VINA RESULT:      -7.6      5.793     11.379
REMARK SMILES Cc1cc(N2CCOC[C@H]2C(=O)OCCOCCOCCOCCOC(=O)c2ccc(-c3c4nc(c(-c5c(F)c(F)c(F)c(F)c5F)c5ccc([nH]5)c(-c5c(F)c(F)c(F)c(F)c5F)c5nc(c(-c6c(F)c(F)c(F)c(F)c6F)c6ccc3[nH]6)C=C5)C=C4)cc2)ncc1[N+](=O)[O-]
REMARK SMILES IDX 19 1 18 2 17 3 16 4 15 5 14 6 13 7 11 8 12 9 10 10 5 11 6 12
REMARK SMILES IDX 7 13 9 14 8 15 4 16 1 17 2 18 3 19 93 20 92 21 91 22 94 23
REMARK SMILES IDX 95 24 96 25 20 26 21 27 22 28 23 29 24 30 25 31 26 32 27 33
REMARK SMILES IDX 28 34 29 35 90 36 30 37 89 38 31 39 32 40 33 41 83 42 34 43
REMARK SMILES IDX 88 44 82 45 84 46 35 47 87 48 81 49 80 50 36 52 68 53 48 54
REMARK SMILES IDX 67 55 49 56 52 57 66 58 85 59 50 60 51 61 65 63 86 64 53 65
REMARK SMILES IDX 37 66 38 67 46 68 39 69 40 70 44 71 47 72 41 73 42 74 45 75
REMARK SMILES IDX 43 76 69 77 70 78 78 79 71 80 72 81 76 82 79 83 73 84 74 85
REMARK SMILES IDX 77 86 75 87 54 88 55 89 63 90 56 91 57 92 61 93 64 94 58 95
REMARK SMILES IDX 59 96 62 97 60 98
REMARK H PARENT 84 51 52 62
REMARK Flexibility Score: inf
ROOT
ATOM      1  O   UNL A   1      49.760  22.316  37.106  1.00  0.00    -0.377 OA
ENDROOT
BRANCH   1   2
ATOM      2  C   UNL A   1      49.006  21.486  36.246  1.00  0.00     0.188 C 
BRANCH   2   3
ATOM      3  C   UNL A   1      48.340  20.296  36.949  1.00  0.00     0.188 C 
BRANCH   3   4
ATOM      4  O   UNL A   1      46.964  20.508  37.191  1.00  0.00    -0.376 OA
BRANCH   4   5
ATOM      5  C   UNL A   1      46.169  19.425  37.649  1.00  0.00     0.202 C 
BRANCH   5   6
ATOM      6  C   UNL A   1      46.542  18.475  38.810  1.00  0.00     0.261 C 
BRANCH   6   7
ATOM      7  O   UNL A   1      45.789  18.519  40.031  1.00  0.00    -0.462 OA
BRANCH   7   8
ATOM      8  C   UNL A   1      45.687  17.401  40.785  1.00  0.00     0.331 C 
ATOM      9  O   UNL A   1      46.542  16.520  40.805  1.00  0.00    -0.250 OA
BRANCH   8  10
ATOM     10  C   UNL A   1      44.376  17.311  41.592  1.00  0.00     0.220 C 
ATOM     11  N   UNL A   1      44.367  16.436  42.794  1.00  0.00    -0.339 N 
ATOM     12  C   UNL A   1      45.025  16.952  44.008  1.00  0.00     0.147 C 
ATOM     13  C   UNL A   1      44.664  18.417  44.259  1.00  0.00     0.181 C 
ATOM     14  C   UNL A   1      44.019  18.747  42.008  1.00  0.00     0.197 C 
ATOM     15  O   UNL A   1      44.845  19.225  43.086  1.00  0.00    -0.377 OA
BRANCH  11  16
ATOM     16  C   UNL A   1      43.634  15.273  42.895  1.00  0.00     0.130 A 
ATOM     17  C   UNL A   1      41.185  13.328  40.737  1.00  0.00     0.052 C 
ATOM     18  C   UNL A   1      42.054  13.667  41.917  1.00  0.00     0.032 A 
ATOM     19  C   UNL A   1      42.641  14.951  41.964  1.00  0.00     0.057 A 
ATOM     20  C   UNL A   1      42.420  12.762  42.920  1.00  0.00     0.290 A 
ATOM     21  C   UNL A   1      43.359  13.166  43.860  1.00  0.00     0.199 A 
ATOM     22  N   UNL A   1      43.980  14.375  43.840  1.00  0.00    -0.232 NA
BRANCH  20  23
ATOM     23  N   UNL A   1      41.895  11.402  43.035  1.00  0.00     0.064 N 
ATOM     24  O   UNL A   1      42.711  10.471  42.974  1.00  0.00    -0.258 OA
ATOM     25  O   UNL A   1      40.675  11.249  43.164  1.00  0.00    -0.258 OA
ENDBRANCH  20  23
ENDBRANCH  11  16
ENDBRANCH   8  10
ENDBRANCH   7   8
ENDBRANCH   6   7
ENDBRANCH   5   6
ENDBRANCH   4   5
ENDBRANCH   3   4
ENDBRANCH   2   3
ENDBRANCH   1   2
BRANCH   1  26
ATOM     26  C   UNL A   1      49.808  21.972  38.480  1.00  0.00     0.188 C 
BRANCH  26  27
ATOM     27  C   UNL A   1      49.596  23.011  39.606  1.00  0.00     0.188 C 
BRANCH  27  28
ATOM     28  O   UNL A   1      48.266  23.138  40.091  1.00  0.00    -0.376 OA
BRANCH  28  29
ATOM     29  C   UNL A   1      47.210  23.282  39.156  1.00  0.00     0.202 C 
BRANCH  29  30
ATOM     30  C   UNL A   1      46.527  24.657  39.128  1.00  0.00     0.261 C 
BRANCH  30  31
ATOM     31  O   UNL A   1      46.256  25.176  37.821  1.00  0.00    -0.460 OA
BRANCH  31  32
ATOM     32  C   UNL A   1      46.515  26.486  37.624  1.00  0.00     0.338 C 
ATOM     33  O   UNL A   1      47.414  27.147  38.115  1.00  0.00    -0.246 OA
BRANCH  32  34
ATOM     34  C   UNL A   1      45.615  26.959  36.559  1.00  0.00     0.060 A 
ATOM     35  C   UNL A   1      45.974  28.097  35.824  1.00  0.00     0.016 A 
ATOM     36  C   UNL A   1      44.446  26.255  36.261  1.00  0.00     0.016 A 
ATOM     37  C   UNL A   1      45.153  28.543  34.790  1.00  0.00     0.010 A 
ATOM     38  C   UNL A   1      43.606  26.726  35.253  1.00  0.00     0.010 A 
ATOM     39  C   UNL A   1      43.943  27.887  34.534  1.00  0.00    -0.014 A 
BRANCH  39  40
ATOM     40  C   UNL A   1      42.913  28.545  33.698  1.00  0.00     0.031 A 
ATOM     41  C   UNL A   1      41.989  29.515  34.377  1.00  0.00     0.074 A 
ATOM     42  C   UNL A   1      42.791  28.283  32.386  1.00  0.00     0.049 A 
ATOM     43  N   UNL A   1      40.939  30.135  33.907  1.00  0.00    -0.248 NA
ATOM     44  C   UNL A   1      42.288  29.822  35.787  1.00  0.00     0.031 C 
ATOM     45  C   UNL A   1      43.660  27.398  31.613  1.00  0.00     0.029 A 
ATOM     46  N   UNL A   1      41.864  28.727  31.476  1.00  0.00    -0.354 N 
ATOM     47  C   UNL A   1      40.447  30.889  34.964  1.00  0.00     0.074 A 
ATOM     48  C   UNL A   1      41.298  30.641  36.104  1.00  0.00     0.031 C 
ATOM     49  C   UNL A   1      43.205  27.341  30.347  1.00  0.00     0.029 A 
ATOM     50  C   UNL A   1      41.993  28.152  30.235  1.00  0.00     0.049 A 
ATOM     51  H   UNL A   1      41.172  29.393  31.692  1.00  0.00     0.167 HD
ATOM     52  C   UNL A   1      39.377  31.716  34.977  1.00  0.00     0.037 A 
ATOM     53  C   UNL A   1      41.198  28.247  29.151  1.00  0.00     0.037 A 
ATOM     54  C   UNL A   1      38.536  31.958  33.838  1.00  0.00     0.049 A 
ATOM     55  C   UNL A   1      39.966  29.121  29.217  1.00  0.00     0.074 A 
ATOM     56  C   UNL A   1      37.439  32.795  33.740  1.00  0.00     0.029 A 
ATOM     57  N   UNL A   1      38.693  31.351  32.601  1.00  0.00    -0.354 N 
ATOM     58  N   UNL A   1      39.522  29.857  30.207  1.00  0.00    -0.248 NA
ATOM     59  C   UNL A   1      39.124  29.175  28.012  1.00  0.00     0.031 C 
ATOM     60  C   UNL A   1      36.894  32.649  32.462  1.00  0.00     0.029 A 
ATOM     61  C   UNL A   1      37.692  31.775  31.742  1.00  0.00     0.049 A 
ATOM     62  H   UNL A   1      39.406  30.715  32.369  1.00  0.00     0.167 HD
ATOM     63  C   UNL A   1      38.379  30.491  29.733  1.00  0.00     0.074 A 
ATOM     64  C   UNL A   1      38.199  30.058  28.364  1.00  0.00     0.031 C 
ATOM     65  C   UNL A   1      37.551  31.353  30.372  1.00  0.00     0.037 A 
BRANCH  52  66
ATOM     66  C   UNL A   1      39.033  32.393  36.269  1.00  0.00     0.064 A 
ATOM     67  C   UNL A   1      39.495  33.681  36.577  1.00  0.00     0.173 A 
ATOM     68  C   UNL A   1      38.181  31.762  37.189  1.00  0.00     0.173 A 
ATOM     69  F   UNL A   1      40.329  34.317  35.741  1.00  0.00    -0.203 F 
ATOM     70  C   UNL A   1      39.126  34.306  37.766  1.00  0.00     0.198 A 
ATOM     71  C   UNL A   1      37.790  32.403  38.360  1.00  0.00     0.198 A 
ATOM     72  F   UNL A   1      37.713  30.529  36.942  1.00  0.00    -0.203 F 
ATOM     73  F   UNL A   1      39.609  35.522  38.058  1.00  0.00    -0.200 F 
ATOM     74  C   UNL A   1      38.266  33.673  38.650  1.00  0.00     0.200 A 
ATOM     75  F   UNL A   1      36.949  31.793  39.207  1.00  0.00    -0.200 F 
ATOM     76  F   UNL A   1      37.898  34.285  39.783  1.00  0.00    -0.200 F 
ENDBRANCH  52  66
BRANCH  53  77
ATOM     77  C   UNL A   1      41.504  27.470  27.918  1.00  0.00     0.064 A 
ATOM     78  C   UNL A   1      41.042  26.156  27.753  1.00  0.00     0.173 A 
ATOM     79  C   UNL A   1      42.319  28.003  26.907  1.00  0.00     0.173 A 
ATOM     80  F   UNL A   1      40.282  25.589  28.703  1.00  0.00    -0.203 F 
ATOM     81  C   UNL A   1      41.408  25.396  26.643  1.00  0.00     0.198 A 
ATOM     82  C   UNL A   1      42.657  27.253  25.781  1.00  0.00     0.198 A 
ATOM     83  F   UNL A   1      42.793  29.252  27.015  1.00  0.00    -0.203 F 
ATOM     84  F   UNL A   1      41.009  24.120  26.546  1.00  0.00    -0.200 F 
ATOM     85  C   UNL A   1      42.213  25.946  25.657  1.00  0.00     0.200 A 
ATOM     86  F   UNL A   1      43.425  27.793  24.827  1.00  0.00    -0.200 F 
ATOM     87  F   UNL A   1      42.573  25.212  24.596  1.00  0.00    -0.200 F 
ENDBRANCH  53  77
BRANCH  65  88
ATOM     88  C   UNL A   1      36.413  31.943  29.588  1.00  0.00     0.064 A 
ATOM     89  C   UNL A   1      36.396  33.292  29.207  1.00  0.00     0.173 A 
ATOM     90  C   UNL A   1      35.360  31.123  29.150  1.00  0.00     0.173 A 
ATOM     91  F   UNL A   1      37.372  34.120  29.609  1.00  0.00    -0.203 F 
ATOM     92  C   UNL A   1      35.357  33.803  28.434  1.00  0.00     0.198 A 
ATOM     93  C   UNL A   1      34.342  31.629  28.349  1.00  0.00     0.198 A 
ATOM     94  F   UNL A   1      35.335  29.822  29.478  1.00  0.00    -0.203 F 
ATOM     95  F   UNL A   1      35.339  35.105  28.116  1.00  0.00    -0.200 F 
ATOM     96  C   UNL A   1      34.337  32.970  27.997  1.00  0.00     0.200 A 
ATOM     97  F   UNL A   1      33.370  30.818  27.911  1.00  0.00    -0.200 F 
ATOM     98  F   UNL A   1      33.347  33.460  27.238  1.00  0.00    -0.200 F 
ENDBRANCH  65  88
ENDBRANCH  39  40
ENDBRANCH  32  34
ENDBRANCH  31  32
ENDBRANCH  30  31
ENDBRANCH  29  30
ENDBRANCH  28  29
ENDBRANCH  27  28
ENDBRANCH  26  27
ENDBRANCH   1  26
TORSDOF 22
ENDMDL
