MODEL 1
REMARK VINA RESULT:     -10.2      0.000      0.000
REMARK SMILES Cc1nc2n(n1)[C@@H](c1ccc([N+](=O)[O-])o1)CC(C(=O)OCCOCCOCCOCCOC(=O)c1ccc(-c3c4nc(c(-c5c(F)c(F)c(F)c(F)c5F)c5ccc([nH]5)c(-c5c(F)c(F)c(F)c(F)c5F)c5nc(c(-c6c(F)c(F)c(F)c(F)c6F)c6ccc3[nH]6)C=C5)C=C4)cc1)=N2
REMARK SMILES IDX 26 1 25 2 24 3 23 4 22 5 21 6 20 7 18 8 19 9 17 10 1 11 2 12
REMARK SMILES IDX 3 13 6 14 4 15 5 16 98 17 7 18 16 19 8 20 9 21 15 22 10 23
REMARK SMILES IDX 11 24 12 25 13 26 14 27 27 28 28 29 29 30 30 31 31 32 32 33
REMARK SMILES IDX 33 34 34 35 35 36 36 37 97 38 37 39 96 40 38 41 39 42 40 43
REMARK SMILES IDX 90 44 41 45 95 46 89 47 91 48 42 49 94 50 88 51 87 52 43 54
REMARK SMILES IDX 75 55 55 56 74 57 56 58 59 59 73 60 92 61 57 62 58 63 72 65
REMARK SMILES IDX 93 66 60 67 44 68 45 69 53 70 46 71 47 72 51 73 54 74 48 75
REMARK SMILES IDX 49 76 52 77 50 78 76 79 77 80 85 81 78 82 79 83 83 84 86 85
REMARK SMILES IDX 80 86 81 87 84 88 82 89 61 90 62 91 70 92 63 93 64 94 68 95
REMARK SMILES IDX 71 96 65 97 66 98 69 99 67 100
REMARK H PARENT 91 53 59 64
REMARK Flexibility Score: inf
ROOT
ATOM      1  O   UNL A   1      42.854  20.690  25.274  1.00  0.00    -0.377 OA
ENDROOT
BRANCH   1   2
ATOM      2  C   UNL A   1      42.459  21.772  26.109  1.00  0.00     0.188 C 
BRANCH   2   3
ATOM      3  C   UNL A   1      42.193  21.352  27.568  1.00  0.00     0.188 C 
BRANCH   3   4
ATOM      4  O   UNL A   1      41.144  22.103  28.164  1.00  0.00    -0.376 OA
BRANCH   4   5
ATOM      5  C   UNL A   1      40.699  23.292  27.529  1.00  0.00     0.202 C 
BRANCH   5   6
ATOM      6  C   UNL A   1      39.201  23.530  27.264  1.00  0.00     0.261 C 
BRANCH   6   7
ATOM      7  O   UNL A   1      38.773  23.239  25.930  1.00  0.00    -0.459 OA
BRANCH   7   8
ATOM      8  C   UNL A   1      38.399  21.985  25.629  1.00  0.00     0.352 C 
ATOM      9  O   UNL A   1      38.998  20.958  25.818  1.00  0.00    -0.245 OA
BRANCH   8  10
ATOM     10  C   UNL A   1      36.962  22.060  25.103  1.00  0.00     0.132 C 
ATOM     11  C   UNL A   1      32.754  24.466  21.963  1.00  0.00     0.092 C 
ATOM     12  C   UNL A   1      33.673  23.647  22.778  1.00  0.00     0.149 A 
ATOM     13  N   UNL A   1      35.034  23.775  22.700  1.00  0.00    -0.195 NA
ATOM     14  N   UNL A   1      33.246  22.765  23.689  1.00  0.00    -0.154 NA
ATOM     15  C   UNL A   1      35.489  22.976  23.640  1.00  0.00     0.249 A 
ATOM     16  N   UNL A   1      34.420  22.305  24.172  1.00  0.00    -0.219 N 
ATOM     17  N   UNL A   1      36.750  22.857  24.103  1.00  0.00    -0.209 NA
ATOM     18  C   UNL A   1      34.503  21.357  25.267  1.00  0.00     0.184 C 
ATOM     19  C   UNL A   1      35.948  21.133  25.734  1.00  0.00     0.100 C 
BRANCH  18  20
ATOM     20  C   UNL A   1      33.800  20.060  24.925  1.00  0.00     0.136 A 
ATOM     21  C   UNL A   1      32.477  19.639  24.929  1.00  0.00     0.056 A 
ATOM     22  O   UNL A   1      34.607  19.001  24.583  1.00  0.00    -0.404 OA
ATOM     23  C   UNL A   1      32.467  18.265  24.580  1.00  0.00     0.134 A 
ATOM     24  C   UNL A   1      33.784  17.937  24.373  1.00  0.00     0.433 A 
BRANCH  24  25
ATOM     25  N   UNL A   1      34.404  16.702  24.006  1.00  0.00     0.102 N 
ATOM     26  O   UNL A   1      35.116  16.168  24.867  1.00  0.00    -0.256 OA
ATOM     27  O   UNL A   1      34.184  16.262  22.870  1.00  0.00    -0.256 OA
ENDBRANCH  24  25
ENDBRANCH  18  20
ENDBRANCH   8  10
ENDBRANCH   7   8
ENDBRANCH   6   7
ENDBRANCH   5   6
ENDBRANCH   4   5
ENDBRANCH   3   4
ENDBRANCH   2   3
ENDBRANCH   1   2
BRANCH   1  28
ATOM     28  C   UNL A   1      42.710  19.363  25.786  1.00  0.00     0.188 C 
BRANCH  28  29
ATOM     29  C   UNL A   1      43.919  18.404  25.891  1.00  0.00     0.188 C 
BRANCH  29  30
ATOM     30  O   UNL A   1      44.958  18.667  24.956  1.00  0.00    -0.376 OA
BRANCH  30  31
ATOM     31  C   UNL A   1      46.097  19.384  25.412  1.00  0.00     0.202 C 
BRANCH  31  32
ATOM     32  C   UNL A   1      46.357  20.721  24.705  1.00  0.00     0.261 C 
BRANCH  32  33
ATOM     33  O   UNL A   1      46.047  21.874  25.501  1.00  0.00    -0.460 OA
BRANCH  33  34
ATOM     34  C   UNL A   1      46.083  23.047  24.842  1.00  0.00     0.338 C 
ATOM     35  O   UNL A   1      46.544  23.277  23.739  1.00  0.00    -0.246 OA
BRANCH  34  36
ATOM     36  C   UNL A   1      45.413  24.064  25.642  1.00  0.00     0.060 A 
ATOM     37  C   UNL A   1      44.517  24.943  25.028  1.00  0.00     0.016 A 
ATOM     38  C   UNL A   1      45.861  24.258  26.945  1.00  0.00     0.016 A 
ATOM     39  C   UNL A   1      44.122  26.082  25.710  1.00  0.00     0.010 A 
ATOM     40  C   UNL A   1      45.485  25.413  27.613  1.00  0.00     0.010 A 
ATOM     41  C   UNL A   1      44.648  26.347  26.982  1.00  0.00    -0.014 A 
BRANCH  41  42
ATOM     42  C   UNL A   1      44.364  27.669  27.569  1.00  0.00     0.031 A 
ATOM     43  C   UNL A   1      43.960  27.649  29.010  1.00  0.00     0.074 A 
ATOM     44  C   UNL A   1      45.095  28.718  27.130  1.00  0.00     0.049 A 
ATOM     45  N   UNL A   1      44.808  27.508  29.988  1.00  0.00    -0.248 NA
ATOM     46  C   UNL A   1      42.564  27.486  29.413  1.00  0.00     0.031 C 
ATOM     47  C   UNL A   1      46.495  28.614  26.690  1.00  0.00     0.029 A 
ATOM     48  N   UNL A   1      44.849  30.072  27.162  1.00  0.00    -0.354 N 
ATOM     49  C   UNL A   1      44.083  27.155  31.110  1.00  0.00     0.074 A 
ATOM     50  C   UNL A   1      42.692  27.183  30.714  1.00  0.00     0.031 C 
ATOM     51  C   UNL A   1      47.035  29.847  26.671  1.00  0.00     0.029 A 
ATOM     52  C   UNL A   1      46.003  30.832  26.983  1.00  0.00     0.049 A 
ATOM     53  H   UNL A   1      43.954  30.461  27.296  1.00  0.00     0.167 HD
ATOM     54  C   UNL A   1      44.665  26.820  32.292  1.00  0.00     0.037 A 
ATOM     55  C   UNL A   1      46.244  32.010  27.620  1.00  0.00     0.037 A 
ATOM     56  C   UNL A   1      46.094  26.864  32.327  1.00  0.00     0.049 A 
ATOM     57  C   UNL A   1      46.584  31.525  29.008  1.00  0.00     0.074 A 
ATOM     58  C   UNL A   1      47.136  25.967  32.233  1.00  0.00     0.029 A 
ATOM     59  N   UNL A   1      46.700  28.091  32.455  1.00  0.00    -0.354 N 
ATOM     60  N   UNL A   1      47.735  31.033  29.392  1.00  0.00    -0.248 NA
ATOM     61  C   UNL A   1      45.475  31.251  29.923  1.00  0.00     0.031 C 
ATOM     62  C   UNL A   1      48.273  26.745  31.845  1.00  0.00     0.029 A 
ATOM     63  C   UNL A   1      47.831  28.057  31.679  1.00  0.00     0.049 A 
ATOM     64  H   UNL A   1      46.385  28.848  32.999  1.00  0.00     0.167 HD
ATOM     65  C   UNL A   1      47.436  30.173  30.454  1.00  0.00     0.074 A 
ATOM     66  C   UNL A   1      46.042  30.400  30.765  1.00  0.00     0.031 C 
ATOM     67  C   UNL A   1      48.269  29.181  30.883  1.00  0.00     0.037 A 
BRANCH  54  68
ATOM     68  C   UNL A   1      43.935  26.529  33.538  1.00  0.00     0.064 A 
ATOM     69  C   UNL A   1      43.685  27.595  34.413  1.00  0.00     0.173 A 
ATOM     70  C   UNL A   1      43.685  25.229  33.982  1.00  0.00     0.173 A 
ATOM     71  F   UNL A   1      43.930  28.856  34.019  1.00  0.00    -0.203 F 
ATOM     72  C   UNL A   1      43.238  27.368  35.709  1.00  0.00     0.198 A 
ATOM     73  C   UNL A   1      43.229  25.003  35.281  1.00  0.00     0.198 A 
ATOM     74  F   UNL A   1      43.927  24.181  33.182  1.00  0.00    -0.203 F 
ATOM     75  F   UNL A   1      43.055  28.402  36.541  1.00  0.00    -0.200 F 
ATOM     76  C   UNL A   1      43.021  26.071  36.146  1.00  0.00     0.200 A 
ATOM     77  F   UNL A   1      43.023  23.750  35.710  1.00  0.00    -0.200 F 
ATOM     78  F   UNL A   1      42.626  25.849  37.407  1.00  0.00    -0.200 F 
ENDBRANCH  54  68
BRANCH  55  79
ATOM     79  C   UNL A   1      45.279  33.105  27.294  1.00  0.00     0.064 A 
ATOM     80  C   UNL A   1      45.275  34.240  28.138  1.00  0.00     0.173 A 
ATOM     81  C   UNL A   1      44.384  33.140  26.218  1.00  0.00     0.173 A 
ATOM     82  F   UNL A   1      46.018  34.249  29.256  1.00  0.00    -0.203 F 
ATOM     83  C   UNL A   1      44.529  35.381  27.844  1.00  0.00     0.198 A 
ATOM     84  C   UNL A   1      43.660  34.295  25.906  1.00  0.00     0.198 A 
ATOM     85  F   UNL A   1      44.195  32.074  25.433  1.00  0.00    -0.203 F 
ATOM     86  F   UNL A   1      44.593  36.448  28.652  1.00  0.00    -0.200 F 
ATOM     87  C   UNL A   1      43.746  35.420  26.707  1.00  0.00     0.200 A 
ATOM     88  F   UNL A   1      42.894  34.318  24.806  1.00  0.00    -0.200 F 
ATOM     89  F   UNL A   1      43.077  36.534  26.383  1.00  0.00    -0.200 F 
ENDBRANCH  55  79
BRANCH  67  90
ATOM     90  C   UNL A   1      49.615  29.149  30.248  1.00  0.00     0.064 A 
ATOM     91  C   UNL A   1      50.679  29.873  30.799  1.00  0.00     0.173 A 
ATOM     92  C   UNL A   1      49.871  28.357  29.117  1.00  0.00     0.173 A 
ATOM     93  F   UNL A   1      50.487  30.636  31.886  1.00  0.00    -0.203 F 
ATOM     94  C   UNL A   1      51.956  29.788  30.252  1.00  0.00     0.198 A 
ATOM     95  C   UNL A   1      51.155  28.251  28.592  1.00  0.00     0.198 A 
ATOM     96  F   UNL A   1      48.885  27.657  28.531  1.00  0.00    -0.203 F 
ATOM     97  F   UNL A   1      52.964  30.482  30.800  1.00  0.00    -0.200 F 
ATOM     98  C   UNL A   1      52.196  28.966  29.162  1.00  0.00     0.200 A 
ATOM     99  F   UNL A   1      51.388  27.439  27.551  1.00  0.00    -0.200 F 
ATOM    100  F   UNL A   1      53.436  28.851  28.666  1.00  0.00    -0.200 F 
ENDBRANCH  67  90
ENDBRANCH  41  42
ENDBRANCH  34  36
ENDBRANCH  33  34
ENDBRANCH  32  33
ENDBRANCH  31  32
ENDBRANCH  30  31
ENDBRANCH  29  30
ENDBRANCH  28  29
ENDBRANCH   1  28
TORSDOF 22
ENDMDL
MODEL 2
REMARK VINA RESULT:     -10.2      4.633     10.365
REMARK SMILES Cc1nc2n(n1)[C@@H](c1ccc([N+](=O)[O-])o1)CC(C(=O)OCCOCCOCCOCCOC(=O)c1ccc(-c3c4nc(c(-c5c(F)c(F)c(F)c(F)c5F)c5ccc([nH]5)c(-c5c(F)c(F)c(F)c(F)c5F)c5nc(c(-c6c(F)c(F)c(F)c(F)c6F)c6ccc3[nH]6)C=C5)C=C4)cc1)=N2
REMARK SMILES IDX 26 1 25 2 24 3 23 4 22 5 21 6 20 7 18 8 19 9 17 10 1 11 2 12
REMARK SMILES IDX 3 13 6 14 4 15 5 16 98 17 7 18 16 19 8 20 9 21 15 22 10 23
REMARK SMILES IDX 11 24 12 25 13 26 14 27 27 28 28 29 29 30 30 31 31 32 32 33
REMARK SMILES IDX 33 34 34 35 35 36 36 37 97 38 37 39 96 40 38 41 39 42 40 43
REMARK SMILES IDX 90 44 41 45 95 46 89 47 91 48 42 49 94 50 88 51 87 52 43 54
REMARK SMILES IDX 75 55 55 56 74 57 56 58 59 59 73 60 92 61 57 62 58 63 72 65
REMARK SMILES IDX 93 66 60 67 44 68 45 69 53 70 46 71 47 72 51 73 54 74 48 75
REMARK SMILES IDX 49 76 52 77 50 78 76 79 77 80 85 81 78 82 79 83 83 84 86 85
REMARK SMILES IDX 80 86 81 87 84 88 82 89 61 90 62 91 70 92 63 93 64 94 68 95
REMARK SMILES IDX 71 96 65 97 66 98 69 99 67 100
REMARK H PARENT 91 53 59 64
REMARK Flexibility Score: inf
ROOT
ATOM      1  O   UNL A   1      32.413  28.289  22.855  1.00  0.00    -0.377 OA
ENDROOT
BRANCH   1   2
ATOM      2  C   UNL A   1      31.027  28.429  23.143  1.00  0.00     0.188 C 
BRANCH   2   3
ATOM      3  C   UNL A   1      30.250  27.099  23.070  1.00  0.00     0.188 C 
BRANCH   3   4
ATOM      4  O   UNL A   1      31.095  25.970  23.253  1.00  0.00    -0.376 OA
BRANCH   4   5
ATOM      5  C   UNL A   1      31.614  25.698  24.546  1.00  0.00     0.202 C 
BRANCH   5   6
ATOM      6  C   UNL A   1      30.673  25.358  25.716  1.00  0.00     0.261 C 
BRANCH   6   7
ATOM      7  O   UNL A   1      31.260  24.560  26.749  1.00  0.00    -0.459 OA
BRANCH   7   8
ATOM      8  C   UNL A   1      30.792  23.318  26.953  1.00  0.00     0.352 C 
ATOM      9  O   UNL A   1      29.735  22.982  27.420  1.00  0.00    -0.245 OA
BRANCH   8  10
ATOM     10  C   UNL A   1      31.812  22.349  26.344  1.00  0.00     0.132 C 
ATOM     11  C   UNL A   1      33.274  17.595  23.412  1.00  0.00     0.092 C 
ATOM     12  C   UNL A   1      33.144  18.881  24.122  1.00  0.00     0.149 A 
ATOM     13  N   UNL A   1      31.966  19.576  24.173  1.00  0.00    -0.195 NA
ATOM     14  N   UNL A   1      34.148  19.433  24.816  1.00  0.00    -0.154 NA
ATOM     15  C   UNL A   1      32.219  20.586  24.976  1.00  0.00     0.249 A 
ATOM     16  N   UNL A   1      33.551  20.548  25.289  1.00  0.00    -0.219 N 
ATOM     17  N   UNL A   1      31.355  21.478  25.501  1.00  0.00    -0.209 NA
ATOM     18  C   UNL A   1      34.215  21.474  26.187  1.00  0.00     0.184 C 
ATOM     19  C   UNL A   1      33.264  22.559  26.711  1.00  0.00     0.100 C 
BRANCH  18  20
ATOM     20  C   UNL A   1      35.460  22.056  25.554  1.00  0.00     0.136 A 
ATOM     21  C   UNL A   1      35.772  22.551  24.294  1.00  0.00     0.056 A 
ATOM     22  O   UNL A   1      36.593  22.068  26.333  1.00  0.00    -0.404 OA
ATOM     23  C   UNL A   1      37.152  22.878  24.295  1.00  0.00     0.134 A 
ATOM     24  C   UNL A   1      37.593  22.573  25.559  1.00  0.00     0.433 A 
BRANCH  24  25
ATOM     25  N   UNL A   1      38.885  22.678  26.160  1.00  0.00     0.102 N 
ATOM     26  O   UNL A   1      39.080  23.671  26.873  1.00  0.00    -0.256 OA
ATOM     27  O   UNL A   1      39.704  21.779  25.930  1.00  0.00    -0.256 OA
ENDBRANCH  24  25
ENDBRANCH  18  20
ENDBRANCH   8  10
ENDBRANCH   7   8
ENDBRANCH   6   7
ENDBRANCH   5   6
ENDBRANCH   4   5
ENDBRANCH   3   4
ENDBRANCH   2   3
ENDBRANCH   1   2
BRANCH   1  28
ATOM     28  C   UNL A   1      33.345  28.963  23.706  1.00  0.00     0.188 C 
BRANCH  28  29
ATOM     29  C   UNL A   1      33.434  28.643  25.216  1.00  0.00     0.188 C 
BRANCH  29  30
ATOM     30  O   UNL A   1      33.985  29.691  26.004  1.00  0.00    -0.376 OA
BRANCH  30  31
ATOM     31  C   UNL A   1      33.248  30.127  27.139  1.00  0.00     0.202 C 
BRANCH  31  32
ATOM     32  C   UNL A   1      33.424  31.607  27.505  1.00  0.00     0.261 C 
BRANCH  32  33
ATOM     33  O   UNL A   1      34.787  31.999  27.722  1.00  0.00    -0.460 OA
BRANCH  33  34
ATOM     34  C   UNL A   1      35.192  31.957  29.005  1.00  0.00     0.338 C 
ATOM     35  O   UNL A   1      34.595  32.335  29.996  1.00  0.00    -0.246 OA
BRANCH  34  36
ATOM     36  C   UNL A   1      36.499  31.315  29.070  1.00  0.00     0.060 A 
ATOM     37  C   UNL A   1      36.578  29.933  29.258  1.00  0.00     0.016 A 
ATOM     38  C   UNL A   1      37.618  32.137  29.164  1.00  0.00     0.016 A 
ATOM     39  C   UNL A   1      37.792  29.373  29.622  1.00  0.00     0.010 A 
ATOM     40  C   UNL A   1      38.823  31.578  29.555  1.00  0.00     0.010 A 
ATOM     41  C   UNL A   1      38.904  30.202  29.825  1.00  0.00    -0.014 A 
BRANCH  41  42
ATOM     42  C   UNL A   1      40.106  29.587  30.416  1.00  0.00     0.031 A 
ATOM     43  C   UNL A   1      41.402  30.003  29.793  1.00  0.00     0.074 A 
ATOM     44  C   UNL A   1      40.093  29.337  31.744  1.00  0.00     0.049 A 
ATOM     45  N   UNL A   1      41.984  31.141  30.044  1.00  0.00    -0.248 NA
ATOM     46  C   UNL A   1      41.958  29.301  28.637  1.00  0.00     0.031 C 
ATOM     47  C   UNL A   1      39.374  30.165  32.726  1.00  0.00     0.029 A 
ATOM     48  N   UNL A   1      40.832  28.466  32.512  1.00  0.00    -0.354 N 
ATOM     49  C   UNL A   1      42.914  31.354  29.045  1.00  0.00     0.074 A 
ATOM     50  C   UNL A   1      42.886  30.172  28.211  1.00  0.00     0.031 C 
ATOM     51  C   UNL A   1      39.846  29.887  33.955  1.00  0.00     0.029 A 
ATOM     52  C   UNL A   1      40.808  28.792  33.866  1.00  0.00     0.049 A 
ATOM     53  H   UNL A   1      41.324  27.697  32.143  1.00  0.00     0.167 HD
ATOM     54  C   UNL A   1      43.629  32.504  28.934  1.00  0.00     0.037 A 
ATOM     55  C   UNL A   1      41.873  28.645  34.702  1.00  0.00     0.037 A 
ATOM     56  C   UNL A   1      43.380  33.502  29.928  1.00  0.00     0.049 A 
ATOM     57  C   UNL A   1      42.740  29.804  34.274  1.00  0.00     0.074 A 
ATOM     58  C   UNL A   1      42.643  34.661  30.034  1.00  0.00     0.029 A 
ATOM     59  N   UNL A   1      43.959  33.343  31.164  1.00  0.00    -0.354 N 
ATOM     60  N   UNL A   1      42.582  31.055  34.624  1.00  0.00    -0.248 NA
ATOM     61  C   UNL A   1      43.614  29.605  33.117  1.00  0.00     0.031 C 
ATOM     62  C   UNL A   1      42.454  34.865  31.438  1.00  0.00     0.029 A 
ATOM     63  C   UNL A   1      43.047  33.784  32.089  1.00  0.00     0.049 A 
ATOM     64  H   UNL A   1      44.856  32.982  31.350  1.00  0.00     0.167 HD
ATOM     65  C   UNL A   1      43.125  31.805  33.577  1.00  0.00     0.074 A 
ATOM     66  C   UNL A   1      43.793  30.855  32.715  1.00  0.00     0.031 C 
ATOM     67  C   UNL A   1      42.829  33.119  33.353  1.00  0.00     0.037 A 
BRANCH  54  68
ATOM     68  C   UNL A   1      44.696  32.740  27.947  1.00  0.00     0.064 A 
ATOM     69  C   UNL A   1      45.990  32.307  28.266  1.00  0.00     0.173 A 
ATOM     70  C   UNL A   1      44.525  33.561  26.829  1.00  0.00     0.173 A 
ATOM     71  F   UNL A   1      46.189  31.529  29.343  1.00  0.00    -0.203 F 
ATOM     72  C   UNL A   1      47.088  32.714  27.517  1.00  0.00     0.198 A 
ATOM     73  C   UNL A   1      45.627  33.962  26.073  1.00  0.00     0.198 A 
ATOM     74  F   UNL A   1      43.306  34.011  26.499  1.00  0.00    -0.203 F 
ATOM     75  F   UNL A   1      48.319  32.324  27.874  1.00  0.00    -0.200 F 
ATOM     76  C   UNL A   1      46.906  33.550  26.427  1.00  0.00     0.200 A 
ATOM     77  F   UNL A   1      45.457  34.776  25.022  1.00  0.00    -0.200 F 
ATOM     78  F   UNL A   1      47.967  33.973  25.726  1.00  0.00    -0.200 F 
ENDBRANCH  54  68
BRANCH  55  79
ATOM     79  C   UNL A   1      42.334  27.234  34.884  1.00  0.00     0.064 A 
ATOM     80  C   UNL A   1      41.826  26.523  35.996  1.00  0.00     0.173 A 
ATOM     81  C   UNL A   1      43.205  26.523  34.049  1.00  0.00     0.173 A 
ATOM     82  F   UNL A   1      41.074  27.154  36.911  1.00  0.00    -0.203 F 
ATOM     83  C   UNL A   1      42.067  25.162  36.179  1.00  0.00     0.198 A 
ATOM     84  C   UNL A   1      43.421  25.152  34.215  1.00  0.00     0.198 A 
ATOM     85  F   UNL A   1      43.858  27.125  33.048  1.00  0.00    -0.203 F 
ATOM     86  F   UNL A   1      41.528  24.522  37.226  1.00  0.00    -0.200 F 
ATOM     87  C   UNL A   1      42.838  24.468  35.267  1.00  0.00     0.200 A 
ATOM     88  F   UNL A   1      44.181  24.491  33.331  1.00  0.00    -0.200 F 
ATOM     89  F   UNL A   1      43.021  23.148  35.400  1.00  0.00    -0.200 F 
ENDBRANCH  55  79
BRANCH  67  90
ATOM     90  C   UNL A   1      41.992  33.778  34.393  1.00  0.00     0.064 A 
ATOM     91  C   UNL A   1      40.597  33.800  34.274  1.00  0.00     0.173 A 
ATOM     92  C   UNL A   1      42.567  34.347  35.541  1.00  0.00     0.173 A 
ATOM     93  F   UNL A   1      40.001  33.260  33.201  1.00  0.00    -0.203 F 
ATOM     94  C   UNL A   1      39.806  34.349  35.279  1.00  0.00     0.198 A 
ATOM     95  C   UNL A   1      41.771  34.868  36.557  1.00  0.00     0.198 A 
ATOM     96  F   UNL A   1      43.900  34.375  35.700  1.00  0.00    -0.203 F 
ATOM     97  F   UNL A   1      38.472  34.353  35.152  1.00  0.00    -0.200 F 
ATOM     98  C   UNL A   1      40.392  34.867  36.425  1.00  0.00     0.200 A 
ATOM     99  F   UNL A   1      42.339  35.347  37.672  1.00  0.00    -0.200 F 
ATOM    100  F   UNL A   1      39.625  35.353  37.411  1.00  0.00    -0.200 F 
ENDBRANCH  67  90
ENDBRANCH  41  42
ENDBRANCH  34  36
ENDBRANCH  33  34
ENDBRANCH  32  33
ENDBRANCH  31  32
ENDBRANCH  30  31
ENDBRANCH  29  30
ENDBRANCH  28  29
ENDBRANCH   1  28
TORSDOF 22
ENDMDL
MODEL 3
REMARK VINA RESULT:     -10.1      1.286      2.456
REMARK SMILES Cc1nc2n(n1)[C@@H](c1ccc([N+](=O)[O-])o1)CC(C(=O)OCCOCCOCCOCCOC(=O)c1ccc(-c3c4nc(c(-c5c(F)c(F)c(F)c(F)c5F)c5ccc([nH]5)c(-c5c(F)c(F)c(F)c(F)c5F)c5nc(c(-c6c(F)c(F)c(F)c(F)c6F)c6ccc3[nH]6)C=C5)C=C4)cc1)=N2
REMARK SMILES IDX 26 1 25 2 24 3 23 4 22 5 21 6 20 7 18 8 19 9 17 10 1 11 2 12
REMARK SMILES IDX 3 13 6 14 4 15 5 16 98 17 7 18 16 19 8 20 9 21 15 22 10 23
REMARK SMILES IDX 11 24 12 25 13 26 14 27 27 28 28 29 29 30 30 31 31 32 32 33
REMARK SMILES IDX 33 34 34 35 35 36 36 37 97 38 37 39 96 40 38 41 39 42 40 43
REMARK SMILES IDX 90 44 41 45 95 46 89 47 91 48 42 49 94 50 88 51 87 52 43 54
REMARK SMILES IDX 75 55 55 56 74 57 56 58 59 59 73 60 92 61 57 62 58 63 72 65
REMARK SMILES IDX 93 66 60 67 44 68 45 69 53 70 46 71 47 72 51 73 54 74 48 75
REMARK SMILES IDX 49 76 52 77 50 78 76 79 77 80 85 81 78 82 79 83 83 84 86 85
REMARK SMILES IDX 80 86 81 87 84 88 82 89 61 90 62 91 70 92 63 93 64 94 68 95
REMARK SMILES IDX 71 96 65 97 66 98 69 99 67 100
REMARK H PARENT 91 53 59 64
REMARK Flexibility Score: inf
ROOT
ATOM      1  O   UNL A   1      43.095  18.519  25.213  1.00  0.00    -0.377 OA
ENDROOT
BRANCH   1   2
ATOM      2  C   UNL A   1      42.611  19.350  26.261  1.00  0.00     0.188 C 
BRANCH   2   3
ATOM      3  C   UNL A   1      41.089  19.230  26.482  1.00  0.00     0.188 C 
BRANCH   3   4
ATOM      4  O   UNL A   1      40.386  20.375  26.019  1.00  0.00    -0.376 OA
BRANCH   4   5
ATOM      5  C   UNL A   1      40.281  21.510  26.865  1.00  0.00     0.202 C 
BRANCH   5   6
ATOM      6  C   UNL A   1      39.343  22.677  26.505  1.00  0.00     0.261 C 
BRANCH   6   7
ATOM      7  O   UNL A   1      38.023  22.289  26.110  1.00  0.00    -0.459 OA
BRANCH   7   8
ATOM      8  C   UNL A   1      37.268  23.162  25.424  1.00  0.00     0.352 C 
ATOM      9  O   UNL A   1      37.625  24.077  24.728  1.00  0.00    -0.245 OA
BRANCH   8  10
ATOM     10  C   UNL A   1      35.812  22.705  25.568  1.00  0.00     0.132 C 
ATOM     11  C   UNL A   1      30.241  23.592  26.801  1.00  0.00     0.092 C 
ATOM     12  C   UNL A   1      31.583  23.149  26.374  1.00  0.00     0.149 A 
ATOM     13  N   UNL A   1      32.584  24.031  26.070  1.00  0.00    -0.195 NA
ATOM     14  N   UNL A   1      31.935  21.859  26.310  1.00  0.00    -0.154 NA
ATOM     15  C   UNL A   1      33.633  23.268  25.853  1.00  0.00     0.249 A 
ATOM     16  N   UNL A   1      33.220  21.964  25.910  1.00  0.00    -0.219 N 
ATOM     17  N   UNL A   1      34.919  23.636  25.686  1.00  0.00    -0.209 NA
ATOM     18  C   UNL A   1      34.094  20.815  25.762  1.00  0.00     0.184 C 
ATOM     19  C   UNL A   1      35.544  21.220  25.466  1.00  0.00     0.100 C 
BRANCH  18  20
ATOM     20  C   UNL A   1      33.548  19.839  24.740  1.00  0.00     0.136 A 
ATOM     21  C   UNL A   1      32.530  19.884  23.797  1.00  0.00     0.056 A 
ATOM     22  O   UNL A   1      34.106  18.582  24.738  1.00  0.00    -0.404 OA
ATOM     23  C   UNL A   1      32.455  18.604  23.191  1.00  0.00     0.134 A 
ATOM     24  C   UNL A   1      33.439  17.862  23.795  1.00  0.00     0.433 A 
BRANCH  24  25
ATOM     25  N   UNL A   1      33.845  16.504  23.612  1.00  0.00     0.102 N 
ATOM     26  O   UNL A   1      33.601  15.727  24.545  1.00  0.00    -0.256 OA
ATOM     27  O   UNL A   1      34.401  16.207  22.547  1.00  0.00    -0.256 OA
ENDBRANCH  24  25
ENDBRANCH  18  20
ENDBRANCH   8  10
ENDBRANCH   7   8
ENDBRANCH   6   7
ENDBRANCH   5   6
ENDBRANCH   4   5
ENDBRANCH   3   4
ENDBRANCH   2   3
ENDBRANCH   1   2
BRANCH   1  28
ATOM     28  C   UNL A   1      44.397  18.794  24.689  1.00  0.00     0.188 C 
BRANCH  28  29
ATOM     29  C   UNL A   1      45.663  18.668  25.569  1.00  0.00     0.188 C 
BRANCH  29  30
ATOM     30  O   UNL A   1      46.678  19.619  25.273  1.00  0.00    -0.376 OA
BRANCH  30  31
ATOM     31  C   UNL A   1      46.421  20.571  24.250  1.00  0.00     0.202 C 
BRANCH  31  32
ATOM     32  C   UNL A   1      46.147  22.000  24.739  1.00  0.00     0.261 C 
BRANCH  32  33
ATOM     33  O   UNL A   1      45.061  22.102  25.671  1.00  0.00    -0.460 OA
BRANCH  33  34
ATOM     34  C   UNL A   1      43.985  22.773  25.219  1.00  0.00     0.338 C 
ATOM     35  O   UNL A   1      42.991  22.325  24.679  1.00  0.00    -0.246 OA
BRANCH  34  36
ATOM     36  C   UNL A   1      44.146  24.190  25.521  1.00  0.00     0.060 A 
ATOM     37  C   UNL A   1      45.076  24.586  26.486  1.00  0.00     0.016 A 
ATOM     38  C   UNL A   1      43.208  25.072  24.995  1.00  0.00     0.016 A 
ATOM     39  C   UNL A   1      45.014  25.876  26.986  1.00  0.00     0.010 A 
ATOM     40  C   UNL A   1      43.132  26.353  25.518  1.00  0.00     0.010 A 
ATOM     41  C   UNL A   1      44.007  26.745  26.544  1.00  0.00    -0.014 A 
BRANCH  41  42
ATOM     42  C   UNL A   1      43.854  28.024  27.260  1.00  0.00     0.031 A 
ATOM     43  C   UNL A   1      43.611  27.902  28.731  1.00  0.00     0.074 A 
ATOM     44  C   UNL A   1      44.582  29.076  26.822  1.00  0.00     0.049 A 
ATOM     45  N   UNL A   1      44.553  27.648  29.593  1.00  0.00    -0.248 NA
ATOM     46  C   UNL A   1      42.261  27.762  29.276  1.00  0.00     0.031 C 
ATOM     47  C   UNL A   1      45.918  28.953  26.219  1.00  0.00     0.029 A 
ATOM     48  N   UNL A   1      44.406  30.431  26.986  1.00  0.00    -0.354 N 
ATOM     49  C   UNL A   1      43.940  27.233  30.760  1.00  0.00     0.074 A 
ATOM     50  C   UNL A   1      42.517  27.349  30.528  1.00  0.00     0.031 C 
ATOM     51  C   UNL A   1      46.512  30.161  26.234  1.00  0.00     0.029 A 
ATOM     52  C   UNL A   1      45.569  31.157  26.737  1.00  0.00     0.049 A 
ATOM     53  H   UNL A   1      43.552  30.843  27.251  1.00  0.00     0.167 HD
ATOM     54  C   UNL A   1      44.631  26.780  31.838  1.00  0.00     0.037 A 
ATOM     55  C   UNL A   1      45.936  32.269  27.431  1.00  0.00     0.037 A 
ATOM     56  C   UNL A   1      46.056  26.765  31.714  1.00  0.00     0.049 A 
ATOM     57  C   UNL A   1      46.403  31.658  28.730  1.00  0.00     0.074 A 
ATOM     58  C   UNL A   1      47.037  25.838  31.433  1.00  0.00     0.029 A 
ATOM     59  N   UNL A   1      46.732  27.952  31.867  1.00  0.00    -0.354 N 
ATOM     60  N   UNL A   1      47.564  31.091  28.942  1.00  0.00    -0.248 NA
ATOM     61  C   UNL A   1      45.389  31.355  29.740  1.00  0.00     0.031 C 
ATOM     62  C   UNL A   1      48.160  26.599  30.979  1.00  0.00     0.029 A 
ATOM     63  C   UNL A   1      47.767  27.937  30.966  1.00  0.00     0.049 A 
ATOM     64  H   UNL A   1      46.515  28.674  32.499  1.00  0.00     0.167 HD
ATOM     65  C   UNL A   1      47.342  30.160  29.961  1.00  0.00     0.074 A 
ATOM     66  C   UNL A   1      46.004  30.416  30.445  1.00  0.00     0.031 C 
ATOM     67  C   UNL A   1      48.168  29.104  30.215  1.00  0.00     0.037 A 
BRANCH  54  68
ATOM     68  C   UNL A   1      44.030  26.417  33.133  1.00  0.00     0.064 A 
ATOM     69  C   UNL A   1      43.790  25.060  33.386  1.00  0.00     0.173 A 
ATOM     70  C   UNL A   1      43.493  27.364  34.008  1.00  0.00     0.173 A 
ATOM     71  F   UNL A   1      44.281  24.127  32.554  1.00  0.00    -0.203 F 
ATOM     72  C   UNL A   1      43.001  24.659  34.458  1.00  0.00     0.198 A 
ATOM     73  C   UNL A   1      42.707  26.959  35.088  1.00  0.00     0.198 A 
ATOM     74  F   UNL A   1      43.684  28.673  33.793  1.00  0.00    -0.203 F 
ATOM     75  F   UNL A   1      42.747  23.357  34.647  1.00  0.00    -0.200 F 
ATOM     76  C   UNL A   1      42.451  25.610  35.302  1.00  0.00     0.200 A 
ATOM     77  F   UNL A   1      42.168  27.876  35.904  1.00  0.00    -0.200 F 
ATOM     78  F   UNL A   1      41.660  25.227  36.313  1.00  0.00    -0.200 F 
ENDBRANCH  54  68
BRANCH  55  79
ATOM     79  C   UNL A   1      44.995  33.424  27.302  1.00  0.00     0.064 A 
ATOM     80  C   UNL A   1      44.358  33.606  26.052  1.00  0.00     0.173 A 
ATOM     81  C   UNL A   1      44.652  34.341  28.302  1.00  0.00     0.173 A 
ATOM     82  F   UNL A   1      44.707  32.845  25.003  1.00  0.00    -0.203 F 
ATOM     83  C   UNL A   1      43.353  34.553  25.863  1.00  0.00     0.198 A 
ATOM     84  C   UNL A   1      43.622  35.270  28.122  1.00  0.00     0.198 A 
ATOM     85  F   UNL A   1      45.288  34.360  29.480  1.00  0.00    -0.203 F 
ATOM     86  F   UNL A   1      42.749  34.658  24.671  1.00  0.00    -0.200 F 
ATOM     87  C   UNL A   1      42.960  35.363  26.911  1.00  0.00     0.200 A 
ATOM     88  F   UNL A   1      43.258  36.059  29.143  1.00  0.00    -0.200 F 
ATOM     89  F   UNL A   1      41.952  36.230  26.756  1.00  0.00    -0.200 F 
ENDBRANCH  55  79
BRANCH  67  90
ATOM     90  C   UNL A   1      49.434  29.071  29.430  1.00  0.00     0.064 A 
ATOM     91  C   UNL A   1      49.493  28.397  28.205  1.00  0.00     0.173 A 
ATOM     92  C   UNL A   1      50.582  29.751  29.867  1.00  0.00     0.173 A 
ATOM     93  F   UNL A   1      48.418  27.741  27.741  1.00  0.00    -0.203 F 
ATOM     94  C   UNL A   1      50.650  28.425  27.432  1.00  0.00     0.198 A 
ATOM     95  C   UNL A   1      51.727  29.802  29.078  1.00  0.00     0.198 A 
ATOM     96  F   UNL A   1      50.592  30.397  31.045  1.00  0.00    -0.203 F 
ATOM     97  F   UNL A   1      50.684  27.783  26.257  1.00  0.00    -0.200 F 
ATOM     98  C   UNL A   1      51.759  29.140  27.861  1.00  0.00     0.200 A 
ATOM     99  F   UNL A   1      52.789  30.511  29.485  1.00  0.00    -0.200 F 
ATOM    100  F   UNL A   1      52.856  29.203  27.094  1.00  0.00    -0.200 F 
ENDBRANCH  67  90
ENDBRANCH  41  42
ENDBRANCH  34  36
ENDBRANCH  33  34
ENDBRANCH  32  33
ENDBRANCH  31  32
ENDBRANCH  30  31
ENDBRANCH  29  30
ENDBRANCH  28  29
ENDBRANCH   1  28
TORSDOF 22
ENDMDL
