MODEL 1
REMARK VINA RESULT:      -9.5      0.000      0.000
REMARK SMILES CC[C@H](c1ccccc1)[C@@H](C)OC(=O)c1ccccc1C(=O)OCCOCCOCCOCCOC(=O)c1ccc(-c2c3nc(c(-c4c(F)c(F)c(F)c(F)c4F)c4ccc([nH]4)c(-c4c(F)c(F)c(F)c(F)c4F)c4nc(c(-c5c(F)c(F)c(F)c(F)c5F)c5ccc2[nH]5)C=C4)C=C3)cc1
REMARK SMILES IDX 27 1 26 2 25 3 24 4 23 5 21 6 22 7 20 8 15 9 16 10 17 11
REMARK SMILES IDX 19 12 18 13 13 14 14 15 12 16 10 17 11 18 3 19 2 20 1 21
REMARK SMILES IDX 4 22 5 23 9 24 6 25 8 26 7 27 28 28 29 29 30 30 31 31 32 32
REMARK SMILES IDX 33 33 34 34 35 35 36 36 37 37 38 38 39 39 100 40 40 41 99 42
REMARK SMILES IDX 41 43 42 44 43 45 93 46 44 47 98 48 92 49 94 50 45 51 97 52
REMARK SMILES IDX 91 53 90 54 46 56 78 57 58 58 77 59 59 60 62 61 76 62 95 63
REMARK SMILES IDX 60 64 61 65 75 67 96 68 63 69 47 70 48 71 56 72 49 73 50 74
REMARK SMILES IDX 54 75 57 76 51 77 52 78 55 79 53 80 79 81 80 82 88 83 81 84
REMARK SMILES IDX 82 85 86 86 89 87 83 88 84 89 87 90 85 91 64 92 65 93 73 94
REMARK SMILES IDX 66 95 67 96 71 97 74 98 68 99 69 100 72 101 70 102
REMARK H PARENT 94 55 62 66
REMARK Flexibility Score: inf
ROOT
ATOM      1  C   UNL A   1      34.434  32.181  28.466  1.00  0.00     0.188 C 
ENDROOT
BRANCH   1   2
ATOM      2  O   UNL A   1      34.284  31.459  27.257  1.00  0.00    -0.376 OA
BRANCH   2   3
ATOM      3  C   UNL A   1      33.517  30.278  27.158  1.00  0.00     0.202 C 
BRANCH   3   4
ATOM      4  C   UNL A   1      32.723  29.960  25.890  1.00  0.00     0.261 C 
BRANCH   4   5
ATOM      5  O   UNL A   1      33.070  28.713  25.294  1.00  0.00    -0.460 OA
BRANCH   5   6
ATOM      6  C   UNL A   1      32.915  28.586  23.963  1.00  0.00     0.339 C 
ATOM      7  O   UNL A   1      33.630  29.078  23.102  1.00  0.00    -0.246 OA
BRANCH   6   8
ATOM      8  C   UNL A   1      31.865  27.582  23.670  1.00  0.00     0.074 A 
ATOM      9  C   UNL A   1      32.074  26.314  23.099  1.00  0.00     0.074 A 
ATOM     10  C   UNL A   1      30.967  25.470  22.885  1.00  0.00     0.016 A 
ATOM     11  C   UNL A   1      29.672  25.892  23.180  1.00  0.00     0.001 A 
ATOM     12  C   UNL A   1      30.551  28.004  23.944  1.00  0.00     0.016 A 
ATOM     13  C   UNL A   1      29.462  27.170  23.687  1.00  0.00     0.001 A 
BRANCH   9  14
ATOM     14  C   UNL A   1      33.366  25.786  22.601  1.00  0.00     0.339 C 
ATOM     15  O   UNL A   1      33.999  26.338  21.714  1.00  0.00    -0.246 OA
BRANCH  14  16
ATOM     16  O   UNL A   1      33.702  24.635  23.212  1.00  0.00    -0.458 OA
BRANCH  16  17
ATOM     17  C   UNL A   1      33.720  24.598  24.658  1.00  0.00     0.181 C 
ATOM     18  C   UNL A   1      35.097  25.023  25.192  1.00  0.00     0.053 C 
BRANCH  17  19
ATOM     19  C   UNL A   1      33.172  23.248  25.200  1.00  0.00     0.060 C 
BRANCH  19  20
ATOM     20  C   UNL A   1      33.097  22.207  24.051  1.00  0.00     0.009 C 
ATOM     21  C   UNL A   1      33.809  20.902  24.365  1.00  0.00     0.005 C 
ENDBRANCH  19  20
BRANCH  19  22
ATOM     22  C   UNL A   1      31.850  23.494  25.912  1.00  0.00    -0.041 A 
ATOM     23  C   UNL A   1      31.420  24.817  26.107  1.00  0.00     0.004 A 
ATOM     24  C   UNL A   1      31.011  22.443  26.309  1.00  0.00     0.004 A 
ATOM     25  C   UNL A   1      30.170  25.080  26.653  1.00  0.00     0.000 A 
ATOM     26  C   UNL A   1      29.770  22.705  26.872  1.00  0.00     0.000 A 
ATOM     27  C   UNL A   1      29.349  24.020  27.022  1.00  0.00     0.000 A 
ENDBRANCH  19  22
ENDBRANCH  17  19
ENDBRANCH  16  17
ENDBRANCH  14  16
ENDBRANCH   9  14
ENDBRANCH   6   8
ENDBRANCH   5   6
ENDBRANCH   4   5
ENDBRANCH   3   4
ENDBRANCH   2   3
ENDBRANCH   1   2
BRANCH   1  28
ATOM     28  C   UNL A   1      34.712  33.699  28.292  1.00  0.00     0.188 C 
BRANCH  28  29
ATOM     29  O   UNL A   1      34.171  34.687  29.163  1.00  0.00    -0.377 OA
BRANCH  29  30
ATOM     30  C   UNL A   1      34.083  34.378  30.543  1.00  0.00     0.188 C 
BRANCH  30  31
ATOM     31  C   UNL A   1      33.715  35.602  31.398  1.00  0.00     0.188 C 
BRANCH  31  32
ATOM     32  O   UNL A   1      34.329  35.668  32.669  1.00  0.00    -0.376 OA
BRANCH  32  33
ATOM     33  C   UNL A   1      35.684  35.297  32.859  1.00  0.00     0.202 C 
BRANCH  33  34
ATOM     34  C   UNL A   1      36.246  34.301  33.902  1.00  0.00     0.261 C 
BRANCH  34  35
ATOM     35  O   UNL A   1      37.019  33.182  33.468  1.00  0.00    -0.460 OA
BRANCH  35  36
ATOM     36  C   UNL A   1      36.354  32.182  32.860  1.00  0.00     0.338 C 
ATOM     37  O   UNL A   1      35.155  31.985  32.849  1.00  0.00    -0.246 OA
BRANCH  36  38
ATOM     38  C   UNL A   1      37.327  31.433  32.037  1.00  0.00     0.060 A 
ATOM     39  C   UNL A   1      38.296  30.658  32.685  1.00  0.00     0.016 A 
ATOM     40  C   UNL A   1      37.312  31.530  30.643  1.00  0.00     0.016 A 
ATOM     41  C   UNL A   1      39.292  30.025  31.946  1.00  0.00     0.010 A 
ATOM     42  C   UNL A   1      38.328  30.915  29.904  1.00  0.00     0.010 A 
ATOM     43  C   UNL A   1      39.351  30.203  30.559  1.00  0.00    -0.014 A 
BRANCH  43  44
ATOM     44  C   UNL A   1      40.614  29.867  29.857  1.00  0.00     0.031 A 
ATOM     45  C   UNL A   1      40.742  28.496  29.242  1.00  0.00     0.074 A 
ATOM     46  C   UNL A   1      41.589  30.776  29.683  1.00  0.00     0.049 A 
ATOM     47  N   UNL A   1      41.730  27.975  28.559  1.00  0.00    -0.248 NA
ATOM     48  C   UNL A   1      39.596  27.590  29.423  1.00  0.00     0.031 C 
ATOM     49  C   UNL A   1      41.572  32.154  30.169  1.00  0.00     0.029 A 
ATOM     50  N   UNL A   1      42.793  30.662  29.034  1.00  0.00    -0.354 N 
ATOM     51  C   UNL A   1      41.326  26.685  28.234  1.00  0.00     0.074 A 
ATOM     52  C   UNL A   1      40.022  26.487  28.830  1.00  0.00     0.031 C 
ATOM     53  C   UNL A   1      42.718  32.758  29.805  1.00  0.00     0.029 A 
ATOM     54  C   UNL A   1      43.558  31.800  29.093  1.00  0.00     0.049 A 
ATOM     55  H   UNL A   1      43.081  29.843  28.570  1.00  0.00     0.167 HD
ATOM     56  C   UNL A   1      41.973  25.752  27.495  1.00  0.00     0.037 A 
ATOM     57  C   UNL A   1      44.804  32.025  28.637  1.00  0.00     0.037 A 
ATOM     58  C   UNL A   1      43.270  25.947  26.902  1.00  0.00     0.049 A 
ATOM     59  C   UNL A   1      45.536  30.944  27.892  1.00  0.00     0.074 A 
ATOM     60  C   UNL A   1      44.001  25.073  26.116  1.00  0.00     0.029 A 
ATOM     61  N   UNL A   1      44.039  27.093  27.043  1.00  0.00    -0.354 N 
ATOM     62  N   UNL A   1      45.148  29.733  27.586  1.00  0.00    -0.248 NA
ATOM     63  C   UNL A   1      46.882  31.287  27.413  1.00  0.00     0.031 C 
ATOM     64  C   UNL A   1      45.240  25.662  25.840  1.00  0.00     0.029 A 
ATOM     65  C   UNL A   1      45.250  26.935  26.386  1.00  0.00     0.049 A 
ATOM     66  H   UNL A   1      43.766  27.900  27.536  1.00  0.00     0.167 HD
ATOM     67  C   UNL A   1      46.189  29.176  26.857  1.00  0.00     0.074 A 
ATOM     68  C   UNL A   1      47.218  30.189  26.756  1.00  0.00     0.031 C 
ATOM     69  C   UNL A   1      46.279  27.939  26.308  1.00  0.00     0.037 A 
BRANCH  56  70
ATOM     70  C   UNL A   1      41.303  24.418  27.323  1.00  0.00     0.064 A 
ATOM     71  C   UNL A   1      40.138  24.261  26.555  1.00  0.00     0.173 A 
ATOM     72  C   UNL A   1      41.845  23.274  27.927  1.00  0.00     0.173 A 
ATOM     73  F   UNL A   1      39.569  25.324  25.965  1.00  0.00    -0.203 F 
ATOM     74  C   UNL A   1      39.522  23.017  26.431  1.00  0.00     0.198 A 
ATOM     75  C   UNL A   1      41.248  22.026  27.771  1.00  0.00     0.198 A 
ATOM     76  F   UNL A   1      42.960  23.364  28.669  1.00  0.00    -0.203 F 
ATOM     77  F   UNL A   1      38.377  22.904  25.746  1.00  0.00    -0.200 F 
ATOM     78  C   UNL A   1      40.081  21.901  27.034  1.00  0.00     0.200 A 
ATOM     79  F   UNL A   1      41.801  20.945  28.340  1.00  0.00    -0.200 F 
ATOM     80  F   UNL A   1      39.492  20.704  26.910  1.00  0.00    -0.200 F 
ENDBRANCH  56  70
BRANCH  57  81
ATOM     81  C   UNL A   1      45.490  33.312  28.894  1.00  0.00     0.064 A 
ATOM     82  C   UNL A   1      45.320  34.412  28.044  1.00  0.00     0.173 A 
ATOM     83  C   UNL A   1      46.423  33.418  29.932  1.00  0.00     0.173 A 
ATOM     84  F   UNL A   1      44.484  34.328  26.999  1.00  0.00    -0.203 F 
ATOM     85  C   UNL A   1      46.056  35.580  28.230  1.00  0.00     0.198 A 
ATOM     86  C   UNL A   1      47.164  34.583  30.110  1.00  0.00     0.198 A 
ATOM     87  F   UNL A   1      46.611  32.391  30.773  1.00  0.00    -0.203 F 
ATOM     88  F   UNL A   1      45.899  36.612  27.389  1.00  0.00    -0.200 F 
ATOM     89  C   UNL A   1      46.973  35.667  29.267  1.00  0.00     0.200 A 
ATOM     90  F   UNL A   1      48.028  34.674  31.131  1.00  0.00    -0.200 F 
ATOM     91  F   UNL A   1      47.667  36.798  29.458  1.00  0.00    -0.200 F 
ENDBRANCH  57  81
BRANCH  69  92
ATOM     92  C   UNL A   1      47.519  27.637  25.514  1.00  0.00     0.064 A 
ATOM     93  C   UNL A   1      47.559  27.763  24.118  1.00  0.00     0.173 A 
ATOM     94  C   UNL A   1      48.681  27.193  26.166  1.00  0.00     0.173 A 
ATOM     95  F   UNL A   1      46.470  28.165  23.444  1.00  0.00    -0.203 F 
ATOM     96  C   UNL A   1      48.696  27.405  23.399  1.00  0.00     0.198 A 
ATOM     97  C   UNL A   1      49.830  26.876  25.446  1.00  0.00     0.198 A 
ATOM     98  F   UNL A   1      48.701  27.058  27.500  1.00  0.00    -0.203 F 
ATOM     99  F   UNL A   1      48.683  27.454  22.059  1.00  0.00    -0.200 F 
ATOM    100  C   UNL A   1      49.832  26.966  24.063  1.00  0.00     0.200 A 
ATOM    101  F   UNL A   1      50.930  26.467  26.093  1.00  0.00    -0.200 F 
ATOM    102  F   UNL A   1      50.923  26.616  23.369  1.00  0.00    -0.200 F 
ENDBRANCH  69  92
ENDBRANCH  43  44
ENDBRANCH  36  38
ENDBRANCH  35  36
ENDBRANCH  34  35
ENDBRANCH  33  34
ENDBRANCH  32  33
ENDBRANCH  31  32
ENDBRANCH  30  31
ENDBRANCH  29  30
ENDBRANCH  28  29
ENDBRANCH   1  28
TORSDOF 26
ENDMDL
MODEL 2
REMARK VINA RESULT:      -9.5      1.134      7.085
REMARK SMILES CC[C@H](c1ccccc1)[C@@H](C)OC(=O)c1ccccc1C(=O)OCCOCCOCCOCCOC(=O)c1ccc(-c2c3nc(c(-c4c(F)c(F)c(F)c(F)c4F)c4ccc([nH]4)c(-c4c(F)c(F)c(F)c(F)c4F)c4nc(c(-c5c(F)c(F)c(F)c(F)c5F)c5ccc2[nH]5)C=C4)C=C3)cc1
REMARK SMILES IDX 27 1 26 2 25 3 24 4 23 5 21 6 22 7 20 8 15 9 16 10 17 11
REMARK SMILES IDX 19 12 18 13 13 14 14 15 12 16 10 17 11 18 3 19 2 20 1 21
REMARK SMILES IDX 4 22 5 23 9 24 6 25 8 26 7 27 28 28 29 29 30 30 31 31 32 32
REMARK SMILES IDX 33 33 34 34 35 35 36 36 37 37 38 38 39 39 100 40 40 41 99 42
REMARK SMILES IDX 41 43 42 44 43 45 93 46 44 47 98 48 92 49 94 50 45 51 97 52
REMARK SMILES IDX 91 53 90 54 46 56 78 57 58 58 77 59 59 60 62 61 76 62 95 63
REMARK SMILES IDX 60 64 61 65 75 67 96 68 63 69 47 70 48 71 56 72 49 73 50 74
REMARK SMILES IDX 54 75 57 76 51 77 52 78 55 79 53 80 79 81 80 82 88 83 81 84
REMARK SMILES IDX 82 85 86 86 89 87 83 88 84 89 87 90 85 91 64 92 65 93 73 94
REMARK SMILES IDX 66 95 67 96 71 97 74 98 68 99 69 100 72 101 70 102
REMARK H PARENT 94 55 62 66
REMARK Flexibility Score: inf
ROOT
ATOM      1  C   UNL A   1      34.529  32.103  28.389  1.00  0.00     0.188 C 
ENDROOT
BRANCH   1   2
ATOM      2  O   UNL A   1      34.611  31.253  27.259  1.00  0.00    -0.376 OA
BRANCH   2   3
ATOM      3  C   UNL A   1      33.871  30.055  27.143  1.00  0.00     0.202 C 
BRANCH   3   4
ATOM      4  C   UNL A   1      32.996  29.788  25.918  1.00  0.00     0.261 C 
BRANCH   4   5
ATOM      5  O   UNL A   1      33.320  28.579  25.235  1.00  0.00    -0.460 OA
BRANCH   5   6
ATOM      6  C   UNL A   1      32.977  28.477  23.938  1.00  0.00     0.339 C 
ATOM      7  O   UNL A   1      33.565  28.981  22.992  1.00  0.00    -0.246 OA
BRANCH   6   8
ATOM      8  C   UNL A   1      31.889  27.481  23.781  1.00  0.00     0.074 A 
ATOM      9  C   UNL A   1      32.033  26.177  23.275  1.00  0.00     0.074 A 
ATOM     10  C   UNL A   1      30.898  25.347  23.190  1.00  0.00     0.016 A 
ATOM     11  C   UNL A   1      29.635  25.817  23.548  1.00  0.00     0.001 A 
ATOM     12  C   UNL A   1      30.607  27.949  24.119  1.00  0.00     0.016 A 
ATOM     13  C   UNL A   1      29.486  27.127  23.990  1.00  0.00     0.001 A 
BRANCH   9  14
ATOM     14  C   UNL A   1      33.277  25.591  22.720  1.00  0.00     0.339 C 
ATOM     15  O   UNL A   1      34.064  26.242  22.051  1.00  0.00    -0.246 OA
BRANCH  14  16
ATOM     16  O   UNL A   1      33.382  24.281  23.012  1.00  0.00    -0.458 OA
BRANCH  16  17
ATOM     17  C   UNL A   1      34.374  23.865  23.980  1.00  0.00     0.181 C 
ATOM     18  C   UNL A   1      35.624  23.320  23.272  1.00  0.00     0.053 C 
BRANCH  17  19
ATOM     19  C   UNL A   1      33.756  22.942  25.067  1.00  0.00     0.060 C 
BRANCH  19  20
ATOM     20  C   UNL A   1      34.725  22.820  26.274  1.00  0.00     0.009 C 
ATOM     21  C   UNL A   1      34.025  22.502  27.585  1.00  0.00     0.005 C 
ENDBRANCH  19  20
BRANCH  19  22
ATOM     22  C   UNL A   1      33.373  21.612  24.434  1.00  0.00    -0.041 A 
ATOM     23  C   UNL A   1      33.794  20.421  25.049  1.00  0.00     0.004 A 
ATOM     24  C   UNL A   1      32.549  21.535  23.302  1.00  0.00     0.004 A 
ATOM     25  C   UNL A   1      33.373  19.189  24.566  1.00  0.00     0.000 A 
ATOM     26  C   UNL A   1      32.143  20.303  22.807  1.00  0.00     0.000 A 
ATOM     27  C   UNL A   1      32.541  19.140  23.452  1.00  0.00     0.000 A 
ENDBRANCH  19  22
ENDBRANCH  17  19
ENDBRANCH  16  17
ENDBRANCH  14  16
ENDBRANCH   9  14
ENDBRANCH   6   8
ENDBRANCH   5   6
ENDBRANCH   4   5
ENDBRANCH   3   4
ENDBRANCH   2   3
ENDBRANCH   1   2
BRANCH   1  28
ATOM     28  C   UNL A   1      34.767  33.608  28.094  1.00  0.00     0.188 C 
BRANCH  28  29
ATOM     29  O   UNL A   1      34.178  34.648  28.868  1.00  0.00    -0.377 OA
BRANCH  29  30
ATOM     30  C   UNL A   1      33.958  34.406  30.247  1.00  0.00     0.188 C 
BRANCH  30  31
ATOM     31  C   UNL A   1      33.450  35.652  30.990  1.00  0.00     0.188 C 
BRANCH  31  32
ATOM     32  O   UNL A   1      33.576  35.620  32.396  1.00  0.00    -0.376 OA
BRANCH  32  33
ATOM     33  C   UNL A   1      34.763  35.167  33.026  1.00  0.00     0.202 C 
BRANCH  33  34
ATOM     34  C   UNL A   1      34.961  33.852  33.817  1.00  0.00     0.261 C 
BRANCH  34  35
ATOM     35  O   UNL A   1      36.080  33.014  33.528  1.00  0.00    -0.460 OA
BRANCH  35  36
ATOM     36  C   UNL A   1      35.959  32.178  32.479  1.00  0.00     0.338 C 
ATOM     37  O   UNL A   1      34.937  31.727  32.003  1.00  0.00    -0.246 OA
BRANCH  36  38
ATOM     38  C   UNL A   1      37.299  32.028  31.871  1.00  0.00     0.060 A 
ATOM     39  C   UNL A   1      37.462  32.354  30.520  1.00  0.00     0.016 A 
ATOM     40  C   UNL A   1      38.371  31.529  32.615  1.00  0.00     0.016 A 
ATOM     41  C   UNL A   1      38.681  32.124  29.889  1.00  0.00     0.010 A 
ATOM     42  C   UNL A   1      39.588  31.276  31.975  1.00  0.00     0.010 A 
ATOM     43  C   UNL A   1      39.730  31.524  30.596  1.00  0.00    -0.014 A 
BRANCH  43  44
ATOM     44  C   UNL A   1      40.853  30.932  29.827  1.00  0.00     0.031 A 
ATOM     45  C   UNL A   1      42.077  31.779  29.590  1.00  0.00     0.074 A 
ATOM     46  C   UNL A   1      40.834  29.649  29.426  1.00  0.00     0.049 A 
ATOM     47  N   UNL A   1      43.193  31.482  28.973  1.00  0.00    -0.248 NA
ATOM     48  C   UNL A   1      42.036  33.150  30.126  1.00  0.00     0.031 C 
ATOM     49  C   UNL A   1      39.744  28.700  29.641  1.00  0.00     0.029 A 
ATOM     50  N   UNL A   1      41.783  28.925  28.750  1.00  0.00    -0.354 N 
ATOM     51  C   UNL A   1      43.980  32.625  29.044  1.00  0.00     0.074 A 
ATOM     52  C   UNL A   1      43.200  33.635  29.726  1.00  0.00     0.031 C 
ATOM     53  C   UNL A   1      40.085  27.516  29.099  1.00  0.00     0.029 A 
ATOM     54  C   UNL A   1      41.398  27.637  28.474  1.00  0.00     0.049 A 
ATOM     55  H   UNL A   1      42.658  29.293  28.487  1.00  0.00     0.167 HD
ATOM     56  C   UNL A   1      45.243  32.817  28.595  1.00  0.00     0.037 A 
ATOM     57  C   UNL A   1      42.034  26.677  27.776  1.00  0.00     0.037 A 
ATOM     58  C   UNL A   1      46.021  31.814  27.915  1.00  0.00     0.049 A 
ATOM     59  C   UNL A   1      43.402  26.942  27.215  1.00  0.00     0.074 A 
ATOM     60  C   UNL A   1      47.319  31.900  27.442  1.00  0.00     0.029 A 
ATOM     61  N   UNL A   1      45.567  30.542  27.598  1.00  0.00    -0.354 N 
ATOM     62  N   UNL A   1      44.139  28.020  27.288  1.00  0.00    -0.248 NA
ATOM     63  C   UNL A   1      44.028  25.830  26.486  1.00  0.00     0.031 C 
ATOM     64  C   UNL A   1      47.624  30.708  26.777  1.00  0.00     0.029 A 
ATOM     65  C   UNL A   1      46.547  29.848  26.906  1.00  0.00     0.049 A 
ATOM     66  H   UNL A   1      44.679  30.186  27.830  1.00  0.00     0.167 HD
ATOM     67  C   UNL A   1      45.327  27.711  26.640  1.00  0.00     0.074 A 
ATOM     68  C   UNL A   1      45.214  26.339  26.192  1.00  0.00     0.031 C 
ATOM     69  C   UNL A   1      46.419  28.490  26.443  1.00  0.00     0.037 A 
BRANCH  56  70
ATOM     70  C   UNL A   1      45.848  34.179  28.788  1.00  0.00     0.064 A 
ATOM     71  C   UNL A   1      45.754  35.184  27.811  1.00  0.00     0.173 A 
ATOM     72  C   UNL A   1      46.522  34.488  29.979  1.00  0.00     0.173 A 
ATOM     73  F   UNL A   1      45.132  34.939  26.647  1.00  0.00    -0.203 F 
ATOM     74  C   UNL A   1      46.344  36.431  28.005  1.00  0.00     0.198 A 
ATOM     75  C   UNL A   1      47.079  35.748  30.185  1.00  0.00     0.198 A 
ATOM     76  F   UNL A   1      46.638  33.568  30.949  1.00  0.00    -0.203 F 
ATOM     77  F   UNL A   1      46.296  37.351  27.033  1.00  0.00    -0.200 F 
ATOM     78  C   UNL A   1      47.000  36.713  29.194  1.00  0.00     0.200 A 
ATOM     79  F   UNL A   1      47.697  36.024  31.342  1.00  0.00    -0.200 F 
ATOM     80  F   UNL A   1      47.563  37.915  29.381  1.00  0.00    -0.200 F 
ENDBRANCH  56  70
BRANCH  57  81
ATOM     81  C   UNL A   1      41.389  25.370  27.513  1.00  0.00     0.064 A 
ATOM     82  C   UNL A   1      40.346  25.244  26.588  1.00  0.00     0.173 A 
ATOM     83  C   UNL A   1      41.733  24.249  28.277  1.00  0.00     0.173 A 
ATOM     84  F   UNL A   1      39.942  26.312  25.884  1.00  0.00    -0.203 F 
ATOM     85  C   UNL A   1      39.671  24.035  26.430  1.00  0.00     0.198 A 
ATOM     86  C   UNL A   1      41.053  23.044  28.124  1.00  0.00     0.198 A 
ATOM     87  F   UNL A   1      42.732  24.324  29.167  1.00  0.00    -0.203 F 
ATOM     88  F   UNL A   1      38.656  23.942  25.559  1.00  0.00    -0.200 F 
ATOM     89  C   UNL A   1      40.030  22.934  27.194  1.00  0.00     0.200 A 
ATOM     90  F   UNL A   1      41.421  21.974  28.842  1.00  0.00    -0.200 F 
ATOM     91  F   UNL A   1      39.395  21.766  27.028  1.00  0.00    -0.200 F 
ENDBRANCH  57  81
BRANCH  69  92
ATOM     92  C   UNL A   1      47.592  27.854  25.750  1.00  0.00     0.064 A 
ATOM     93  C   UNL A   1      48.683  27.331  26.460  1.00  0.00     0.173 A 
ATOM     94  C   UNL A   1      47.629  27.788  24.349  1.00  0.00     0.173 A 
ATOM     95  F   UNL A   1      48.707  27.387  27.801  1.00  0.00    -0.203 F 
ATOM     96  C   UNL A   1      49.790  26.815  25.792  1.00  0.00     0.198 A 
ATOM     97  C   UNL A   1      48.720  27.232  23.686  1.00  0.00     0.198 A 
ATOM     98  F   UNL A   1      46.611  28.268  23.620  1.00  0.00    -0.203 F 
ATOM     99  F   UNL A   1      50.857  26.399  26.489  1.00  0.00    -0.200 F 
ATOM    100  C   UNL A   1      49.807  26.762  24.407  1.00  0.00     0.200 A 
ATOM    101  F   UNL A   1      48.725  27.169  22.347  1.00  0.00    -0.200 F 
ATOM    102  F   UNL A   1      50.876  26.272  23.765  1.00  0.00    -0.200 F 
ENDBRANCH  69  92
ENDBRANCH  43  44
ENDBRANCH  36  38
ENDBRANCH  35  36
ENDBRANCH  34  35
ENDBRANCH  33  34
ENDBRANCH  32  33
ENDBRANCH  31  32
ENDBRANCH  30  31
ENDBRANCH  29  30
ENDBRANCH  28  29
ENDBRANCH   1  28
TORSDOF 26
ENDMDL
MODEL 3
REMARK VINA RESULT:      -9.5      1.838      3.149
REMARK SMILES CC[C@H](c1ccccc1)[C@@H](C)OC(=O)c1ccccc1C(=O)OCCOCCOCCOCCOC(=O)c1ccc(-c2c3nc(c(-c4c(F)c(F)c(F)c(F)c4F)c4ccc([nH]4)c(-c4c(F)c(F)c(F)c(F)c4F)c4nc(c(-c5c(F)c(F)c(F)c(F)c5F)c5ccc2[nH]5)C=C4)C=C3)cc1
REMARK SMILES IDX 27 1 26 2 25 3 24 4 23 5 21 6 22 7 20 8 15 9 16 10 17 11
REMARK SMILES IDX 19 12 18 13 13 14 14 15 12 16 10 17 11 18 3 19 2 20 1 21
REMARK SMILES IDX 4 22 5 23 9 24 6 25 8 26 7 27 28 28 29 29 30 30 31 31 32 32
REMARK SMILES IDX 33 33 34 34 35 35 36 36 37 37 38 38 39 39 100 40 40 41 99 42
REMARK SMILES IDX 41 43 42 44 43 45 93 46 44 47 98 48 92 49 94 50 45 51 97 52
REMARK SMILES IDX 91 53 90 54 46 56 78 57 58 58 77 59 59 60 62 61 76 62 95 63
REMARK SMILES IDX 60 64 61 65 75 67 96 68 63 69 47 70 48 71 56 72 49 73 50 74
REMARK SMILES IDX 54 75 57 76 51 77 52 78 55 79 53 80 79 81 80 82 88 83 81 84
REMARK SMILES IDX 82 85 86 86 89 87 83 88 84 89 87 90 85 91 64 92 65 93 73 94
REMARK SMILES IDX 66 95 67 96 71 97 74 98 68 99 69 100 72 101 70 102
REMARK H PARENT 94 55 62 66
REMARK Flexibility Score: inf
ROOT
ATOM      1  C   UNL A   1      36.501  30.066  27.870  1.00  0.00     0.188 C 
ENDROOT
BRANCH   1   2
ATOM      2  O   UNL A   1      35.099  30.053  27.665  1.00  0.00    -0.376 OA
BRANCH   2   3
ATOM      3  C   UNL A   1      34.460  29.150  26.787  1.00  0.00     0.202 C 
BRANCH   3   4
ATOM      4  C   UNL A   1      32.995  28.763  26.990  1.00  0.00     0.261 C 
BRANCH   4   5
ATOM      5  O   UNL A   1      32.523  27.796  26.054  1.00  0.00    -0.460 OA
BRANCH   5   6
ATOM      6  C   UNL A   1      31.492  27.013  26.424  1.00  0.00     0.339 C 
ATOM      7  O   UNL A   1      30.767  27.181  27.393  1.00  0.00    -0.246 OA
BRANCH   6   8
ATOM      8  C   UNL A   1      31.213  26.014  25.364  1.00  0.00     0.074 A 
ATOM      9  C   UNL A   1      31.444  24.630  25.456  1.00  0.00     0.074 A 
ATOM     10  C   UNL A   1      31.122  23.808  24.358  1.00  0.00     0.016 A 
ATOM     11  C   UNL A   1      30.633  24.353  23.172  1.00  0.00     0.001 A 
ATOM     12  C   UNL A   1      30.739  26.552  24.154  1.00  0.00     0.016 A 
ATOM     13  C   UNL A   1      30.464  25.728  23.061  1.00  0.00     0.001 A 
BRANCH   9  14
ATOM     14  C   UNL A   1      32.091  23.929  26.590  1.00  0.00     0.339 C 
ATOM     15  O   UNL A   1      31.533  23.770  27.665  1.00  0.00    -0.246 OA
BRANCH  14  16
ATOM     16  O   UNL A   1      33.348  23.551  26.289  1.00  0.00    -0.458 OA
BRANCH  16  17
ATOM     17  C   UNL A   1      33.674  22.141  26.323  1.00  0.00     0.181 C 
ATOM     18  C   UNL A   1      34.241  21.752  27.697  1.00  0.00     0.053 C 
BRANCH  17  19
ATOM     19  C   UNL A   1      34.531  21.726  25.096  1.00  0.00     0.060 C 
BRANCH  19  20
ATOM     20  C   UNL A   1      34.683  22.927  24.123  1.00  0.00     0.009 C 
ATOM     21  C   UNL A   1      36.031  22.976  23.424  1.00  0.00     0.005 C 
ENDBRANCH  19  20
BRANCH  19  22
ATOM     22  C   UNL A   1      33.930  20.480  24.463  1.00  0.00    -0.041 A 
ATOM     23  C   UNL A   1      34.542  19.237  24.696  1.00  0.00     0.004 A 
ATOM     24  C   UNL A   1      32.741  20.520  23.721  1.00  0.00     0.004 A 
ATOM     25  C   UNL A   1      33.961  18.065  24.228  1.00  0.00     0.000 A 
ATOM     26  C   UNL A   1      32.170  19.351  23.237  1.00  0.00     0.000 A 
ATOM     27  C   UNL A   1      32.773  18.130  23.510  1.00  0.00     0.000 A 
ENDBRANCH  19  22
ENDBRANCH  17  19
ENDBRANCH  16  17
ENDBRANCH  14  16
ENDBRANCH   9  14
ENDBRANCH   6   8
ENDBRANCH   5   6
ENDBRANCH   4   5
ENDBRANCH   3   4
ENDBRANCH   2   3
ENDBRANCH   1   2
BRANCH   1  28
ATOM     28  C   UNL A   1      37.035  31.292  28.659  1.00  0.00     0.188 C 
BRANCH  28  29
ATOM     29  O   UNL A   1      37.385  31.228  30.038  1.00  0.00    -0.377 OA
BRANCH  29  30
ATOM     30  C   UNL A   1      36.755  30.242  30.838  1.00  0.00     0.188 C 
BRANCH  30  31
ATOM     31  C   UNL A   1      36.265  30.800  32.183  1.00  0.00     0.188 C 
BRANCH  31  32
ATOM     32  O   UNL A   1      36.087  32.201  32.236  1.00  0.00    -0.376 OA
BRANCH  32  33
ATOM     33  C   UNL A   1      35.810  32.869  33.456  1.00  0.00     0.202 C 
BRANCH  33  34
ATOM     34  C   UNL A   1      36.768  33.067  34.654  1.00  0.00     0.261 C 
BRANCH  34  35
ATOM     35  O   UNL A   1      38.167  33.237  34.421  1.00  0.00    -0.460 OA
BRANCH  35  36
ATOM     36  C   UNL A   1      38.988  32.305  34.942  1.00  0.00     0.338 C 
ATOM     37  O   UNL A   1      39.083  31.965  36.104  1.00  0.00    -0.246 OA
BRANCH  36  38
ATOM     38  C   UNL A   1      39.657  31.619  33.816  1.00  0.00     0.060 A 
ATOM     39  C   UNL A   1      40.397  30.461  34.081  1.00  0.00     0.016 A 
ATOM     40  C   UNL A   1      39.591  32.138  32.520  1.00  0.00     0.016 A 
ATOM     41  C   UNL A   1      41.126  29.850  33.064  1.00  0.00     0.010 A 
ATOM     42  C   UNL A   1      40.342  31.538  31.504  1.00  0.00     0.010 A 
ATOM     43  C   UNL A   1      41.153  30.422  31.786  1.00  0.00    -0.014 A 
BRANCH  43  44
ATOM     44  C   UNL A   1      42.224  30.003  30.848  1.00  0.00     0.031 A 
ATOM     45  C   UNL A   1      41.997  28.765  30.018  1.00  0.00     0.074 A 
ATOM     46  C   UNL A   1      43.331  30.743  30.664  1.00  0.00     0.049 A 
ATOM     47  N   UNL A   1      42.766  28.212  29.114  1.00  0.00    -0.248 NA
ATOM     48  C   UNL A   1      40.725  28.057  30.237  1.00  0.00     0.031 C 
ATOM     49  C   UNL A   1      43.651  31.992  31.352  1.00  0.00     0.029 A 
ATOM     50  N   UNL A   1      44.395  30.540  29.822  1.00  0.00    -0.354 N 
ATOM     51  C   UNL A   1      42.074  27.094  28.663  1.00  0.00     0.074 A 
ATOM     52  C   UNL A   1      40.844  27.022  29.421  1.00  0.00     0.031 C 
ATOM     53  C   UNL A   1      44.839  32.442  30.908  1.00  0.00     0.029 A 
ATOM     54  C   UNL A   1      45.373  31.496  29.932  1.00  0.00     0.049 A 
ATOM     55  H   UNL A   1      44.452  29.781  29.197  1.00  0.00     0.167 HD
ATOM     56  C   UNL A   1      42.423  26.212  27.696  1.00  0.00     0.037 A 
ATOM     57  C   UNL A   1      46.571  31.579  29.324  1.00  0.00     0.037 A 
ATOM     58  C   UNL A   1      43.647  26.281  26.941  1.00  0.00     0.049 A 
ATOM     59  C   UNL A   1      46.971  30.540  28.315  1.00  0.00     0.074 A 
ATOM     60  C   UNL A   1      44.083  25.449  25.923  1.00  0.00     0.029 A 
ATOM     61  N   UNL A   1      44.640  27.229  27.132  1.00  0.00    -0.354 N 
ATOM     62  N   UNL A   1      46.314  29.491  27.892  1.00  0.00    -0.248 NA
ATOM     63  C   UNL A   1      48.287  30.723  27.686  1.00  0.00     0.031 C 
ATOM     64  C   UNL A   1      45.369  25.852  25.548  1.00  0.00     0.029 A 
ATOM     65  C   UNL A   1      45.702  26.983  26.274  1.00  0.00     0.049 A 
ATOM     66  H   UNL A   1      44.598  27.968  27.781  1.00  0.00     0.167 HD
ATOM     67  C   UNL A   1      47.121  28.902  26.929  1.00  0.00     0.074 A 
ATOM     68  C   UNL A   1      48.311  29.721  26.822  1.00  0.00     0.031 C 
ATOM     69  C   UNL A   1      46.892  27.789  26.189  1.00  0.00     0.037 A 
BRANCH  56  70
ATOM     70  C   UNL A   1      41.484  25.069  27.429  1.00  0.00     0.064 A 
ATOM     71  C   UNL A   1      40.342  25.213  26.624  1.00  0.00     0.173 A 
ATOM     72  C   UNL A   1      41.739  23.804  27.980  1.00  0.00     0.173 A 
ATOM     73  F   UNL A   1      40.042  26.403  26.082  1.00  0.00    -0.203 F 
ATOM     74  C   UNL A   1      39.474  24.144  26.413  1.00  0.00     0.198 A 
ATOM     75  C   UNL A   1      40.889  22.728  27.736  1.00  0.00     0.198 A 
ATOM     76  F   UNL A   1      42.818  23.608  28.754  1.00  0.00    -0.203 F 
ATOM     77  F   UNL A   1      38.359  24.321  25.693  1.00  0.00    -0.200 F 
ATOM     78  C   UNL A   1      39.752  22.901  26.963  1.00  0.00     0.200 A 
ATOM     79  F   UNL A   1      41.170  21.524  28.256  1.00  0.00    -0.200 F 
ATOM     80  F   UNL A   1      38.919  21.873  26.755  1.00  0.00    -0.200 F 
ENDBRANCH  56  70
BRANCH  57  81
ATOM     81  C   UNL A   1      47.527  32.658  29.663  1.00  0.00     0.064 A 
ATOM     82  C   UNL A   1      48.395  32.547  30.756  1.00  0.00     0.173 A 
ATOM     83  C   UNL A   1      47.499  33.870  28.963  1.00  0.00     0.173 A 
ATOM     84  F   UNL A   1      48.405  31.427  31.493  1.00  0.00    -0.203 F 
ATOM     85  C   UNL A   1      49.209  33.613  31.134  1.00  0.00     0.198 A 
ATOM     86  C   UNL A   1      48.307  34.936  29.347  1.00  0.00     0.198 A 
ATOM     87  F   UNL A   1      46.689  34.014  27.904  1.00  0.00    -0.203 F 
ATOM     88  F   UNL A   1      50.013  33.496  32.201  1.00  0.00    -0.200 F 
ATOM     89  C   UNL A   1      49.170  34.804  30.425  1.00  0.00     0.200 A 
ATOM     90  F   UNL A   1      48.288  36.075  28.641  1.00  0.00    -0.200 F 
ATOM     91  F   UNL A   1      49.968  35.822  30.775  1.00  0.00    -0.200 F 
ENDBRANCH  57  81
BRANCH  69  92
ATOM     92  C   UNL A   1      47.936  27.423  25.171  1.00  0.00     0.064 A 
ATOM     93  C   UNL A   1      49.123  26.767  25.524  1.00  0.00     0.173 A 
ATOM     94  C   UNL A   1      47.748  27.758  23.821  1.00  0.00     0.173 A 
ATOM     95  F   UNL A   1      49.362  26.441  26.804  1.00  0.00    -0.203 F 
ATOM     96  C   UNL A   1      50.107  26.506  24.574  1.00  0.00     0.198 A 
ATOM     97  C   UNL A   1      48.716  27.458  22.866  1.00  0.00     0.198 A 
ATOM     98  F   UNL A   1      46.629  28.383  23.426  1.00  0.00    -0.203 F 
ATOM     99  F   UNL A   1      51.270  25.953  24.949  1.00  0.00    -0.200 F 
ATOM    100  C   UNL A   1      49.902  26.848  23.246  1.00  0.00     0.200 A 
ATOM    101  F   UNL A   1      48.507  27.776  21.581  1.00  0.00    -0.200 F 
ATOM    102  F   UNL A   1      50.853  26.603  22.334  1.00  0.00    -0.200 F 
ENDBRANCH  69  92
ENDBRANCH  43  44
ENDBRANCH  36  38
ENDBRANCH  35  36
ENDBRANCH  34  35
ENDBRANCH  33  34
ENDBRANCH  32  33
ENDBRANCH  31  32
ENDBRANCH  30  31
ENDBRANCH  29  30
ENDBRANCH  28  29
ENDBRANCH   1  28
TORSDOF 26
ENDMDL
