MODEL 1
REMARK VINA RESULT:      -8.8      0.000      0.000
REMARK SMILES NS(=O)(=O)c1ccc(-n2nc(C(F)F)cc2-c2ccc(C(=O)OCCOCCOCCOCCOC(=O)c3ccc(-c4c5nc(c(-c6c(F)c(F)c(F)c(F)c6F)c6ccc([nH]6)c(-c6c(F)c(F)c(F)c(F)c6F)c6nc(c(-c7c(F)c(F)c(F)c(F)c7F)c7ccc4[nH]7)C=C6)C=C5)cc3)cc2)cc1
REMARK SMILES IDX 28 1 27 2 26 3 25 4 24 5 23 6 21 7 22 8 20 9 17 10 18 11
REMARK SMILES IDX 102 12 19 13 101 14 16 15 9 16 10 17 11 18 15 19 8 20 5 21
REMARK SMILES IDX 6 22 104 23 7 24 103 25 2 26 3 27 4 28 1 29 12 32 13 33
REMARK SMILES IDX 14 34 29 35 30 36 31 37 32 38 33 39 34 40 35 41 36 42 37 43
REMARK SMILES IDX 38 44 39 45 100 46 40 47 99 48 41 49 42 50 43 51 93 52 44 53
REMARK SMILES IDX 98 54 92 55 94 56 45 57 97 58 91 59 90 60 46 62 78 63 58 64
REMARK SMILES IDX 77 65 59 66 62 67 76 68 95 69 60 70 61 71 75 73 96 74 63 75
REMARK SMILES IDX 47 76 48 77 56 78 49 79 50 80 54 81 57 82 51 83 52 84 55 85
REMARK SMILES IDX 53 86 79 87 80 88 88 89 81 90 82 91 86 92 89 93 83 94 84 95
REMARK SMILES IDX 87 96 85 97 64 98 65 99 73 100 66 101 67 102 71 103 74 104
REMARK SMILES IDX 68 105 69 106 72 107 70 108
REMARK H PARENT 1 30 1 31 94 61 62 72
REMARK Flexibility Score: inf
ROOT
ATOM      1  C   UNL A   1      34.045  36.070  32.541  1.00  0.00     0.188 C 
ENDROOT
BRANCH   1   2
ATOM      2  C   UNL A   1      33.748  34.550  32.604  1.00  0.00     0.188 C 
BRANCH   2   3
ATOM      3  O   UNL A   1      34.786  33.727  32.100  1.00  0.00    -0.376 OA
BRANCH   3   4
ATOM      4  C   UNL A   1      35.114  32.554  32.814  1.00  0.00     0.202 C 
BRANCH   4   5
ATOM      5  C   UNL A   1      36.539  32.036  32.584  1.00  0.00     0.261 C 
BRANCH   5   6
ATOM      6  O   UNL A   1      37.268  31.722  33.780  1.00  0.00    -0.460 OA
BRANCH   6   7
ATOM      7  C   UNL A   1      37.562  32.764  34.589  1.00  0.00     0.338 C 
ATOM      8  O   UNL A   1      36.890  33.175  35.519  1.00  0.00    -0.246 OA
BRANCH   7   9
ATOM      9  C   UNL A   1      38.944  33.210  34.298  1.00  0.00     0.060 A 
ATOM     10  C   UNL A   1      41.602  33.966  33.845  1.00  0.00     0.000 A 
ATOM     11  C   UNL A   1      41.212  32.627  33.696  1.00  0.00     0.011 A 
ATOM     12  C   UNL A   1      40.636  34.933  34.153  1.00  0.00     0.011 A 
ATOM     13  C   UNL A   1      39.890  32.248  33.933  1.00  0.00     0.016 A 
ATOM     14  C   UNL A   1      39.306  34.560  34.368  1.00  0.00     0.016 A 
BRANCH  10  15
ATOM     15  C   UNL A   1      43.024  34.305  33.876  1.00  0.00     0.075 A 
ATOM     16  N   UNL A   1      43.847  34.550  32.784  1.00  0.00    -0.233 N 
ATOM     17  N   UNL A   1      45.155  34.365  33.094  1.00  0.00    -0.166 NA
ATOM     18  C   UNL A   1      45.182  34.218  34.429  1.00  0.00     0.129 A 
ATOM     19  C   UNL A   1      43.875  34.179  34.958  1.00  0.00     0.060 A 
BRANCH  16  20
ATOM     20  C   UNL A   1      43.474  34.946  31.472  1.00  0.00     0.065 A 
ATOM     21  C   UNL A   1      42.791  35.731  28.888  1.00  0.00     0.082 A 
ATOM     22  C   UNL A   1      42.544  34.418  29.299  1.00  0.00     0.024 A 
ATOM     23  C   UNL A   1      43.355  36.661  29.768  1.00  0.00     0.024 A 
ATOM     24  C   UNL A   1      42.905  34.019  30.588  1.00  0.00     0.030 A 
ATOM     25  C   UNL A   1      43.666  36.277  31.074  1.00  0.00     0.030 A 
BRANCH  21  26
ATOM     26  S   UNL A   1      42.438  36.225  27.228  1.00  0.00     0.238 S 
ATOM     27  O   UNL A   1      43.231  35.416  26.325  1.00  0.00    -0.207 OA
ATOM     28  O   UNL A   1      42.400  37.662  27.169  1.00  0.00    -0.207 OA
BRANCH  26  29
ATOM     29  N   UNL A   1      40.854  35.706  26.981  1.00  0.00    -0.225 NA
ATOM     30  H   UNL A   1      40.853  34.906  26.347  1.00  0.00     0.137 HD
ATOM     31  H   UNL A   1      40.307  36.465  26.573  1.00  0.00     0.137 HD
ENDBRANCH  26  29
ENDBRANCH  21  26
ENDBRANCH  16  20
BRANCH  18  32
ATOM     32  C   UNL A   1      46.454  34.057  35.208  1.00  0.00     0.393 C 
ATOM     33  F   UNL A   1      47.564  34.237  34.443  1.00  0.00    -0.203 F 
ATOM     34  F   UNL A   1      46.531  34.953  36.229  1.00  0.00    -0.203 F 
ENDBRANCH  18  32
ENDBRANCH  10  15
ENDBRANCH   7   9
ENDBRANCH   6   7
ENDBRANCH   5   6
ENDBRANCH   4   5
ENDBRANCH   3   4
ENDBRANCH   2   3
ENDBRANCH   1   2
BRANCH   1  35
ATOM     35  O   UNL A   1      33.669  36.877  31.427  1.00  0.00    -0.377 OA
BRANCH  35  36
ATOM     36  C   UNL A   1      32.605  36.464  30.579  1.00  0.00     0.188 C 
BRANCH  36  37
ATOM     37  C   UNL A   1      32.910  36.011  29.127  1.00  0.00     0.188 C 
BRANCH  37  38
ATOM     38  O   UNL A   1      34.197  35.439  28.946  1.00  0.00    -0.376 OA
BRANCH  38  39
ATOM     39  C   UNL A   1      34.463  34.496  27.926  1.00  0.00     0.202 C 
BRANCH  39  40
ATOM     40  C   UNL A   1      34.613  33.029  28.316  1.00  0.00     0.261 C 
BRANCH  40  41
ATOM     41  O   UNL A   1      35.811  32.443  27.857  1.00  0.00    -0.460 OA
BRANCH  41  42
ATOM     42  C   UNL A   1      35.864  31.106  27.976  1.00  0.00     0.338 C 
ATOM     43  O   UNL A   1      35.295  30.279  27.286  1.00  0.00    -0.246 OA
BRANCH  42  44
ATOM     44  C   UNL A   1      36.680  30.795  29.153  1.00  0.00     0.060 A 
ATOM     45  C   UNL A   1      37.806  31.597  29.320  1.00  0.00     0.016 A 
ATOM     46  C   UNL A   1      36.566  29.512  29.710  1.00  0.00     0.016 A 
ATOM     47  C   UNL A   1      38.959  30.969  29.703  1.00  0.00     0.010 A 
ATOM     48  C   UNL A   1      37.722  28.876  30.065  1.00  0.00     0.010 A 
ATOM     49  C   UNL A   1      38.907  29.589  29.921  1.00  0.00    -0.014 A 
BRANCH  49  50
ATOM     50  C   UNL A   1      40.161  28.884  29.925  1.00  0.00     0.031 A 
ATOM     51  C   UNL A   1      40.768  28.803  31.260  1.00  0.00     0.074 A 
ATOM     52  C   UNL A   1      40.653  28.333  28.801  1.00  0.00     0.049 A 
ATOM     53  N   UNL A   1      41.855  29.358  31.676  1.00  0.00    -0.248 NA
ATOM     54  C   UNL A   1      39.966  28.157  32.310  1.00  0.00     0.031 C 
ATOM     55  C   UNL A   1      39.977  28.116  27.517  1.00  0.00     0.029 A 
ATOM     56  N   UNL A   1      41.864  27.754  28.612  1.00  0.00    -0.354 N 
ATOM     57  C   UNL A   1      41.972  28.967  33.002  1.00  0.00     0.074 A 
ATOM     58  C   UNL A   1      40.705  28.406  33.388  1.00  0.00     0.031 C 
ATOM     59  C   UNL A   1      40.708  27.252  26.775  1.00  0.00     0.029 A 
ATOM     60  C   UNL A   1      41.950  26.970  27.475  1.00  0.00     0.049 A 
ATOM     61  H   UNL A   1      42.618  27.879  29.233  1.00  0.00     0.167 HD
ATOM     62  C   UNL A   1      43.191  28.871  33.592  1.00  0.00     0.037 A 
ATOM     63  C   UNL A   1      42.934  26.077  27.215  1.00  0.00     0.037 A 
ATOM     64  C   UNL A   1      44.176  29.664  32.906  1.00  0.00     0.049 A 
ATOM     65  C   UNL A   1      44.087  26.415  28.092  1.00  0.00     0.074 A 
ATOM     66  C   UNL A   1      44.314  31.011  32.633  1.00  0.00     0.029 A 
ATOM     67  N   UNL A   1      45.048  29.022  32.061  1.00  0.00    -0.354 N 
ATOM     68  N   UNL A   1      44.803  27.500  27.975  1.00  0.00    -0.248 NA
ATOM     69  C   UNL A   1      44.167  25.759  29.389  1.00  0.00     0.031 C 
ATOM     70  C   UNL A   1      44.913  31.074  31.340  1.00  0.00     0.029 A 
ATOM     71  C   UNL A   1      45.137  29.765  30.911  1.00  0.00     0.049 A 
ATOM     72  H   UNL A   1      45.524  28.182  32.246  1.00  0.00     0.167 HD
ATOM     73  C   UNL A   1      45.093  27.883  29.278  1.00  0.00     0.074 A 
ATOM     74  C   UNL A   1      44.756  26.724  30.098  1.00  0.00     0.031 C 
ATOM     75  C   UNL A   1      45.309  29.194  29.595  1.00  0.00     0.037 A 
BRANCH  62  76
ATOM     76  C   UNL A   1      43.542  27.754  34.538  1.00  0.00     0.064 A 
ATOM     77  C   UNL A   1      43.520  26.431  34.067  1.00  0.00     0.173 A 
ATOM     78  C   UNL A   1      43.615  27.902  35.943  1.00  0.00     0.173 A 
ATOM     79  F   UNL A   1      43.421  26.177  32.753  1.00  0.00    -0.203 F 
ATOM     80  C   UNL A   1      43.506  25.340  34.941  1.00  0.00     0.198 A 
ATOM     81  C   UNL A   1      43.663  26.814  36.807  1.00  0.00     0.198 A 
ATOM     82  F   UNL A   1      43.525  29.094  36.547  1.00  0.00    -0.203 F 
ATOM     83  F   UNL A   1      43.356  24.103  34.452  1.00  0.00    -0.200 F 
ATOM     84  C   UNL A   1      43.574  25.533  36.309  1.00  0.00     0.200 A 
ATOM     85  F   UNL A   1      43.709  27.025  38.131  1.00  0.00    -0.200 F 
ATOM     86  F   UNL A   1      43.502  24.493  37.149  1.00  0.00    -0.200 F 
ENDBRANCH  62  76
BRANCH  63  87
ATOM     87  C   UNL A   1      42.777  24.749  26.578  1.00  0.00     0.064 A 
ATOM     88  C   UNL A   1      43.474  24.422  25.406  1.00  0.00     0.173 A 
ATOM     89  C   UNL A   1      42.149  23.682  27.254  1.00  0.00     0.173 A 
ATOM     90  F   UNL A   1      44.143  25.370  24.734  1.00  0.00    -0.203 F 
ATOM     91  C   UNL A   1      43.551  23.103  24.943  1.00  0.00     0.198 A 
ATOM     92  C   UNL A   1      42.218  22.369  26.787  1.00  0.00     0.198 A 
ATOM     93  F   UNL A   1      41.538  23.875  28.430  1.00  0.00    -0.203 F 
ATOM     94  F   UNL A   1      44.274  22.818  23.852  1.00  0.00    -0.200 F 
ATOM     95  C   UNL A   1      42.929  22.078  25.639  1.00  0.00     0.200 A 
ATOM     96  F   UNL A   1      41.646  21.384  27.492  1.00  0.00    -0.200 F 
ATOM     97  F   UNL A   1      43.050  20.809  25.228  1.00  0.00    -0.200 F 
ENDBRANCH  63  87
BRANCH  75  98
ATOM     98  C   UNL A   1      45.492  30.160  28.457  1.00  0.00     0.064 A 
ATOM     99  C   UNL A   1      44.427  30.787  27.788  1.00  0.00     0.173 A 
ATOM    100  C   UNL A   1      46.791  30.569  28.128  1.00  0.00     0.173 A 
ATOM    101  F   UNL A   1      43.157  30.524  28.119  1.00  0.00    -0.203 F 
ATOM    102  C   UNL A   1      44.657  31.747  26.803  1.00  0.00     0.198 A 
ATOM    103  C   UNL A   1      47.017  31.555  27.171  1.00  0.00     0.198 A 
ATOM    104  F   UNL A   1      47.844  30.047  28.778  1.00  0.00    -0.203 F 
ATOM    105  F   UNL A   1      43.624  32.324  26.171  1.00  0.00    -0.200 F 
ATOM    106  C   UNL A   1      45.951  32.135  26.502  1.00  0.00     0.200 A 
ATOM    107  F   UNL A   1      48.268  31.963  26.919  1.00  0.00    -0.200 F 
ATOM    108  F   UNL A   1      46.173  33.089  25.586  1.00  0.00    -0.200 F 
ENDBRANCH  75  98
ENDBRANCH  49  50
ENDBRANCH  42  44
ENDBRANCH  41  42
ENDBRANCH  40  41
ENDBRANCH  39  40
ENDBRANCH  38  39
ENDBRANCH  37  38
ENDBRANCH  36  37
ENDBRANCH  35  36
ENDBRANCH   1  35
TORSDOF 25
ENDMDL
MODEL 2
REMARK VINA RESULT:      -8.5      4.316     10.259
REMARK SMILES NS(=O)(=O)c1ccc(-n2nc(C(F)F)cc2-c2ccc(C(=O)OCCOCCOCCOCCOC(=O)c3ccc(-c4c5nc(c(-c6c(F)c(F)c(F)c(F)c6F)c6ccc([nH]6)c(-c6c(F)c(F)c(F)c(F)c6F)c6nc(c(-c7c(F)c(F)c(F)c(F)c7F)c7ccc4[nH]7)C=C6)C=C5)cc3)cc2)cc1
REMARK SMILES IDX 28 1 27 2 26 3 25 4 24 5 23 6 21 7 22 8 20 9 17 10 18 11
REMARK SMILES IDX 102 12 19 13 101 14 16 15 9 16 10 17 11 18 15 19 8 20 5 21
REMARK SMILES IDX 6 22 104 23 7 24 103 25 2 26 3 27 4 28 1 29 12 32 13 33
REMARK SMILES IDX 14 34 29 35 30 36 31 37 32 38 33 39 34 40 35 41 36 42 37 43
REMARK SMILES IDX 38 44 39 45 100 46 40 47 99 48 41 49 42 50 43 51 93 52 44 53
REMARK SMILES IDX 98 54 92 55 94 56 45 57 97 58 91 59 90 60 46 62 78 63 58 64
REMARK SMILES IDX 77 65 59 66 62 67 76 68 95 69 60 70 61 71 75 73 96 74 63 75
REMARK SMILES IDX 47 76 48 77 56 78 49 79 50 80 54 81 57 82 51 83 52 84 55 85
REMARK SMILES IDX 53 86 79 87 80 88 88 89 81 90 82 91 86 92 89 93 83 94 84 95
REMARK SMILES IDX 87 96 85 97 64 98 65 99 73 100 66 101 67 102 71 103 74 104
REMARK SMILES IDX 68 105 69 106 72 107 70 108
REMARK H PARENT 1 30 1 31 94 61 62 72
REMARK Flexibility Score: inf
ROOT
ATOM      1  C   UNL A   1      34.262  24.770  24.073  1.00  0.00     0.188 C 
ENDROOT
BRANCH   1   2
ATOM      2  C   UNL A   1      35.057  24.251  25.297  1.00  0.00     0.188 C 
BRANCH   2   3
ATOM      3  O   UNL A   1      35.729  23.021  25.084  1.00  0.00    -0.376 OA
BRANCH   3   4
ATOM      4  C   UNL A   1      37.139  23.010  25.144  1.00  0.00     0.202 C 
BRANCH   4   5
ATOM      5  C   UNL A   1      37.736  23.645  26.405  1.00  0.00     0.261 C 
BRANCH   5   6
ATOM      6  O   UNL A   1      38.867  24.497  26.174  1.00  0.00    -0.460 OA
BRANCH   6   7
ATOM      7  C   UNL A   1      39.571  24.862  27.269  1.00  0.00     0.338 C 
ATOM      8  O   UNL A   1      39.225  24.739  28.431  1.00  0.00    -0.246 OA
BRANCH   7   9
ATOM      9  C   UNL A   1      40.934  25.256  26.843  1.00  0.00     0.060 A 
ATOM     10  C   UNL A   1      43.485  25.944  25.913  1.00  0.00     0.000 A 
ATOM     11  C   UNL A   1      42.340  26.400  25.242  1.00  0.00     0.011 A 
ATOM     12  C   UNL A   1      43.340  25.201  27.092  1.00  0.00     0.011 A 
ATOM     13  C   UNL A   1      41.069  26.048  25.699  1.00  0.00     0.016 A 
ATOM     14  C   UNL A   1      42.067  24.866  27.565  1.00  0.00     0.016 A 
BRANCH  10  15
ATOM     15  C   UNL A   1      44.794  26.073  25.277  1.00  0.00     0.075 A 
ATOM     16  N   UNL A   1      45.697  25.051  25.012  1.00  0.00    -0.233 N 
ATOM     17  N   UNL A   1      46.960  25.526  24.868  1.00  0.00    -0.166 NA
ATOM     18  C   UNL A   1      46.829  26.862  24.822  1.00  0.00     0.129 A 
ATOM     19  C   UNL A   1      45.494  27.246  25.067  1.00  0.00     0.060 A 
BRANCH  16  20
ATOM     20  C   UNL A   1      45.441  23.660  24.889  1.00  0.00     0.065 A 
ATOM     21  C   UNL A   1      44.941  20.935  24.597  1.00  0.00     0.082 A 
ATOM     22  C   UNL A   1      46.095  21.358  25.263  1.00  0.00     0.024 A 
ATOM     23  C   UNL A   1      44.022  21.865  24.098  1.00  0.00     0.024 A 
ATOM     24  C   UNL A   1      46.356  22.724  25.391  1.00  0.00     0.030 A 
ATOM     25  C   UNL A   1      44.255  23.230  24.275  1.00  0.00     0.030 A 
BRANCH  21  26
ATOM     26  S   UNL A   1      44.647  19.212  24.333  1.00  0.00     0.238 S 
ATOM     27  O   UNL A   1      45.496  18.454  25.229  1.00  0.00    -0.207 OA
ATOM     28  O   UNL A   1      44.577  18.964  22.918  1.00  0.00    -0.207 OA
BRANCH  26  29
ATOM     29  N   UNL A   1      43.087  18.973  24.926  1.00  0.00    -0.225 NA
ATOM     30  H   UNL A   1      43.133  18.742  25.919  1.00  0.00     0.137 HD
ATOM     31  H   UNL A   1      42.644  18.207  24.419  1.00  0.00     0.137 HD
ENDBRANCH  26  29
ENDBRANCH  21  26
ENDBRANCH  16  20
BRANCH  18  32
ATOM     32  C   UNL A   1      47.987  27.791  24.598  1.00  0.00     0.393 C 
ATOM     33  F   UNL A   1      48.734  27.976  25.719  1.00  0.00    -0.203 F 
ATOM     34  F   UNL A   1      48.827  27.318  23.638  1.00  0.00    -0.203 F 
ENDBRANCH  18  32
ENDBRANCH  10  15
ENDBRANCH   7   9
ENDBRANCH   6   7
ENDBRANCH   5   6
ENDBRANCH   4   5
ENDBRANCH   3   4
ENDBRANCH   2   3
ENDBRANCH   1   2
BRANCH   1  35
ATOM     35  O   UNL A   1      33.426  25.923  24.137  1.00  0.00    -0.377 OA
BRANCH  35  36
ATOM     36  C   UNL A   1      33.085  26.483  25.400  1.00  0.00     0.188 C 
BRANCH  36  37
ATOM     37  C   UNL A   1      33.755  27.804  25.861  1.00  0.00     0.188 C 
BRANCH  37  38
ATOM     38  O   UNL A   1      33.313  28.963  25.170  1.00  0.00    -0.376 OA
BRANCH  38  39
ATOM     39  C   UNL A   1      32.425  29.893  25.756  1.00  0.00     0.202 C 
BRANCH  39  40
ATOM     40  C   UNL A   1      32.823  30.544  27.077  1.00  0.00     0.261 C 
BRANCH  40  41
ATOM     41  O   UNL A   1      34.151  31.019  27.093  1.00  0.00    -0.460 OA
BRANCH  41  42
ATOM     42  C   UNL A   1      34.619  31.337  28.311  1.00  0.00     0.338 C 
ATOM     43  O   UNL A   1      34.249  32.249  29.031  1.00  0.00    -0.246 OA
BRANCH  42  44
ATOM     44  C   UNL A   1      35.732  30.434  28.613  1.00  0.00     0.060 A 
ATOM     45  C   UNL A   1      35.955  30.204  29.969  1.00  0.00     0.016 A 
ATOM     46  C   UNL A   1      36.726  30.266  27.637  1.00  0.00     0.016 A 
ATOM     47  C   UNL A   1      37.257  30.193  30.386  1.00  0.00     0.010 A 
ATOM     48  C   UNL A   1      38.026  30.283  28.054  1.00  0.00     0.010 A 
ATOM     49  C   UNL A   1      38.252  30.383  29.422  1.00  0.00    -0.014 A 
BRANCH  49  50
ATOM     50  C   UNL A   1      39.554  30.765  29.899  1.00  0.00     0.031 A 
ATOM     51  C   UNL A   1      40.489  29.636  29.979  1.00  0.00     0.074 A 
ATOM     52  C   UNL A   1      39.843  32.049  30.177  1.00  0.00     0.049 A 
ATOM     53  N   UNL A   1      41.007  29.105  31.034  1.00  0.00    -0.248 NA
ATOM     54  C   UNL A   1      40.743  28.900  28.731  1.00  0.00     0.031 C 
ATOM     55  C   UNL A   1      39.072  33.253  29.843  1.00  0.00     0.029 A 
ATOM     56  N   UNL A   1      40.965  32.551  30.746  1.00  0.00    -0.354 N 
ATOM     57  C   UNL A   1      41.812  28.079  30.560  1.00  0.00     0.074 A 
ATOM     58  C   UNL A   1      41.462  27.875  29.180  1.00  0.00     0.031 C 
ATOM     59  C   UNL A   1      39.861  34.340  30.010  1.00  0.00     0.029 A 
ATOM     60  C   UNL A   1      41.127  33.916  30.581  1.00  0.00     0.049 A 
ATOM     61  H   UNL A   1      41.612  31.992  31.235  1.00  0.00     0.167 HD
ATOM     62  C   UNL A   1      42.903  27.674  31.257  1.00  0.00     0.037 A 
ATOM     63  C   UNL A   1      42.277  34.597  30.802  1.00  0.00     0.037 A 
ATOM     64  C   UNL A   1      42.807  28.032  32.648  1.00  0.00     0.049 A 
ATOM     65  C   UNL A   1      43.144  33.745  31.658  1.00  0.00     0.074 A 
ATOM     66  C   UNL A   1      41.928  27.722  33.668  1.00  0.00     0.029 A 
ATOM     67  N   UNL A   1      43.509  29.129  33.083  1.00  0.00    -0.354 N 
ATOM     68  N   UNL A   1      42.879  33.447  32.902  1.00  0.00    -0.248 NA
ATOM     69  C   UNL A   1      44.085  32.854  30.996  1.00  0.00     0.031 C 
ATOM     70  C   UNL A   1      41.830  28.908  34.453  1.00  0.00     0.029 A 
ATOM     71  C   UNL A   1      42.677  29.863  33.890  1.00  0.00     0.049 A 
ATOM     72  H   UNL A   1      44.441  29.349  32.857  1.00  0.00     0.167 HD
ATOM     73  C   UNL A   1      43.289  32.129  33.051  1.00  0.00     0.074 A 
ATOM     74  C   UNL A   1      44.107  31.850  31.875  1.00  0.00     0.031 C 
ATOM     75  C   UNL A   1      42.696  31.306  33.965  1.00  0.00     0.037 A 
BRANCH  62  76
ATOM     76  C   UNL A   1      44.201  27.313  30.585  1.00  0.00     0.064 A 
ATOM     77  C   UNL A   1      44.840  28.271  29.780  1.00  0.00     0.173 A 
ATOM     78  C   UNL A   1      44.688  25.990  30.466  1.00  0.00     0.173 A 
ATOM     79  F   UNL A   1      44.435  29.550  29.792  1.00  0.00    -0.203 F 
ATOM     80  C   UNL A   1      45.845  27.918  28.876  1.00  0.00     0.198 A 
ATOM     81  C   UNL A   1      45.731  25.654  29.610  1.00  0.00     0.198 A 
ATOM     82  F   UNL A   1      44.107  24.952  31.078  1.00  0.00    -0.203 F 
ATOM     83  F   UNL A   1      46.335  28.840  28.039  1.00  0.00    -0.200 F 
ATOM     84  C   UNL A   1      46.287  26.610  28.790  1.00  0.00     0.200 A 
ATOM     85  F   UNL A   1      46.129  24.375  29.529  1.00  0.00    -0.200 F 
ATOM     86  F   UNL A   1      47.208  26.259  27.884  1.00  0.00    -0.200 F 
ENDBRANCH  62  76
BRANCH  63  87
ATOM     87  C   UNL A   1      42.807  35.721  29.995  1.00  0.00     0.064 A 
ATOM     88  C   UNL A   1      43.632  36.698  30.570  1.00  0.00     0.173 A 
ATOM     89  C   UNL A   1      42.734  35.710  28.586  1.00  0.00     0.173 A 
ATOM     90  F   UNL A   1      43.797  36.742  31.900  1.00  0.00    -0.203 F 
ATOM     91  C   UNL A   1      44.354  37.603  29.782  1.00  0.00     0.198 A 
ATOM     92  C   UNL A   1      43.446  36.617  27.802  1.00  0.00     0.198 A 
ATOM     93  F   UNL A   1      42.047  34.758  27.939  1.00  0.00    -0.203 F 
ATOM     94  F   UNL A   1      45.178  38.485  30.363  1.00  0.00    -0.200 F 
ATOM     95  C   UNL A   1      44.266  37.556  28.399  1.00  0.00     0.200 A 
ATOM     96  F   UNL A   1      43.383  36.533  26.467  1.00  0.00    -0.200 F 
ATOM     97  F   UNL A   1      45.000  38.383  27.644  1.00  0.00    -0.200 F 
ENDBRANCH  63  87
BRANCH  75  98
ATOM     98  C   UNL A   1      41.787  31.942  34.981  1.00  0.00     0.064 A 
ATOM     99  C   UNL A   1      40.417  32.169  34.767  1.00  0.00     0.173 A 
ATOM    100  C   UNL A   1      42.291  32.200  36.262  1.00  0.00     0.173 A 
ATOM    101  F   UNL A   1      39.841  31.850  33.601  1.00  0.00    -0.203 F 
ATOM    102  C   UNL A   1      39.601  32.675  35.778  1.00  0.00     0.198 A 
ATOM    103  C   UNL A   1      41.467  32.670  37.281  1.00  0.00     0.198 A 
ATOM    104  F   UNL A   1      43.580  31.946  36.540  1.00  0.00    -0.203 F 
ATOM    105  F   UNL A   1      38.298  32.893  35.546  1.00  0.00    -0.200 F 
ATOM    106  C   UNL A   1      40.125  32.917  37.036  1.00  0.00     0.200 A 
ATOM    107  F   UNL A   1      41.967  32.855  38.511  1.00  0.00    -0.200 F 
ATOM    108  F   UNL A   1      39.333  33.362  38.022  1.00  0.00    -0.200 F 
ENDBRANCH  75  98
ENDBRANCH  49  50
ENDBRANCH  42  44
ENDBRANCH  41  42
ENDBRANCH  40  41
ENDBRANCH  39  40
ENDBRANCH  38  39
ENDBRANCH  37  38
ENDBRANCH  36  37
ENDBRANCH  35  36
ENDBRANCH   1  35
TORSDOF 25
ENDMDL
MODEL 3
REMARK VINA RESULT:      -8.4      4.308     10.058
REMARK SMILES NS(=O)(=O)c1ccc(-n2nc(C(F)F)cc2-c2ccc(C(=O)OCCOCCOCCOCCOC(=O)c3ccc(-c4c5nc(c(-c6c(F)c(F)c(F)c(F)c6F)c6ccc([nH]6)c(-c6c(F)c(F)c(F)c(F)c6F)c6nc(c(-c7c(F)c(F)c(F)c(F)c7F)c7ccc4[nH]7)C=C6)C=C5)cc3)cc2)cc1
REMARK SMILES IDX 28 1 27 2 26 3 25 4 24 5 23 6 21 7 22 8 20 9 17 10 18 11
REMARK SMILES IDX 102 12 19 13 101 14 16 15 9 16 10 17 11 18 15 19 8 20 5 21
REMARK SMILES IDX 6 22 104 23 7 24 103 25 2 26 3 27 4 28 1 29 12 32 13 33
REMARK SMILES IDX 14 34 29 35 30 36 31 37 32 38 33 39 34 40 35 41 36 42 37 43
REMARK SMILES IDX 38 44 39 45 100 46 40 47 99 48 41 49 42 50 43 51 93 52 44 53
REMARK SMILES IDX 98 54 92 55 94 56 45 57 97 58 91 59 90 60 46 62 78 63 58 64
REMARK SMILES IDX 77 65 59 66 62 67 76 68 95 69 60 70 61 71 75 73 96 74 63 75
REMARK SMILES IDX 47 76 48 77 56 78 49 79 50 80 54 81 57 82 51 83 52 84 55 85
REMARK SMILES IDX 53 86 79 87 80 88 88 89 81 90 82 91 86 92 89 93 83 94 84 95
REMARK SMILES IDX 87 96 85 97 64 98 65 99 73 100 66 101 67 102 71 103 74 104
REMARK SMILES IDX 68 105 69 106 72 107 70 108
REMARK H PARENT 1 30 1 31 94 61 62 72
REMARK Flexibility Score: inf
ROOT
ATOM      1  C   UNL A   1      34.433  24.971  24.255  1.00  0.00     0.188 C 
ENDROOT
BRANCH   1   2
ATOM      2  C   UNL A   1      35.231  24.410  25.458  1.00  0.00     0.188 C 
BRANCH   2   3
ATOM      3  O   UNL A   1      35.868  23.167  25.213  1.00  0.00    -0.376 OA
BRANCH   3   4
ATOM      4  C   UNL A   1      37.271  23.097  25.349  1.00  0.00     0.202 C 
BRANCH   4   5
ATOM      5  C   UNL A   1      37.851  23.939  26.491  1.00  0.00     0.261 C 
BRANCH   5   6
ATOM      6  O   UNL A   1      39.260  24.193  26.400  1.00  0.00    -0.460 OA
BRANCH   6   7
ATOM      7  C   UNL A   1      39.786  24.990  27.357  1.00  0.00     0.338 C 
ATOM      8  O   UNL A   1      39.306  25.224  28.452  1.00  0.00    -0.246 OA
BRANCH   7   9
ATOM      9  C   UNL A   1      41.153  25.384  26.944  1.00  0.00     0.060 A 
ATOM     10  C   UNL A   1      43.734  26.026  26.067  1.00  0.00     0.000 A 
ATOM     11  C   UNL A   1      42.656  26.051  25.170  1.00  0.00     0.011 A 
ATOM     12  C   UNL A   1      43.497  25.746  27.419  1.00  0.00     0.011 A 
ATOM     13  C   UNL A   1      41.371  25.720  25.604  1.00  0.00     0.016 A 
ATOM     14  C   UNL A   1      42.207  25.437  27.862  1.00  0.00     0.016 A 
BRANCH  10  15
ATOM     15  C   UNL A   1      45.101  26.092  25.554  1.00  0.00     0.075 A 
ATOM     16  N   UNL A   1      45.971  25.026  25.359  1.00  0.00    -0.233 N 
ATOM     17  N   UNL A   1      47.264  25.436  25.337  1.00  0.00    -0.166 NA
ATOM     18  C   UNL A   1      47.207  26.777  25.297  1.00  0.00     0.129 A 
ATOM     19  C   UNL A   1      45.877  27.228  25.425  1.00  0.00     0.060 A 
BRANCH  16  20
ATOM     20  C   UNL A   1      45.655  23.652  25.195  1.00  0.00     0.065 A 
ATOM     21  C   UNL A   1      45.075  20.950  24.840  1.00  0.00     0.082 A 
ATOM     22  C   UNL A   1      45.446  21.417  26.105  1.00  0.00     0.024 A 
ATOM     23  C   UNL A   1      44.969  21.829  23.757  1.00  0.00     0.024 A 
ATOM     24  C   UNL A   1      45.756  22.767  26.278  1.00  0.00     0.030 A 
ATOM     25  C   UNL A   1      45.226  23.189  23.942  1.00  0.00     0.030 A 
BRANCH  21  26
ATOM     26  S   UNL A   1      44.781  19.227  24.579  1.00  0.00     0.238 S 
ATOM     27  O   UNL A   1      45.863  18.688  23.780  1.00  0.00    -0.207 OA
ATOM     28  O   UNL A   1      43.393  19.036  24.254  1.00  0.00    -0.207 OA
BRANCH  26  29
ATOM     29  N   UNL A   1      45.002  18.544  26.104  1.00  0.00    -0.225 NA
ATOM     30  H   UNL A   1      44.753  17.554  26.073  1.00  0.00     0.137 HD
ATOM     31  H   UNL A   1      44.406  19.023  26.781  1.00  0.00     0.137 HD
ENDBRANCH  26  29
ENDBRANCH  21  26
ENDBRANCH  16  20
BRANCH  18  32
ATOM     32  C   UNL A   1      48.426  27.645  25.192  1.00  0.00     0.393 C 
ATOM     33  F   UNL A   1      48.812  28.154  26.392  1.00  0.00    -0.203 F 
ATOM     34  F   UNL A   1      49.490  26.956  24.697  1.00  0.00    -0.203 F 
ENDBRANCH  18  32
ENDBRANCH  10  15
ENDBRANCH   7   9
ENDBRANCH   6   7
ENDBRANCH   5   6
ENDBRANCH   4   5
ENDBRANCH   3   4
ENDBRANCH   2   3
ENDBRANCH   1   2
BRANCH   1  35
ATOM     35  O   UNL A   1      33.613  26.134  24.357  1.00  0.00    -0.377 OA
BRANCH  35  36
ATOM     36  C   UNL A   1      33.212  26.609  25.636  1.00  0.00     0.188 C 
BRANCH  36  37
ATOM     37  C   UNL A   1      33.824  27.921  26.195  1.00  0.00     0.188 C 
BRANCH  37  38
ATOM     38  O   UNL A   1      33.466  29.092  25.474  1.00  0.00    -0.376 OA
BRANCH  38  39
ATOM     39  C   UNL A   1      32.565  30.049  25.995  1.00  0.00     0.202 C 
BRANCH  39  40
ATOM     40  C   UNL A   1      32.961  30.804  27.260  1.00  0.00     0.261 C 
BRANCH  40  41
ATOM     41  O   UNL A   1      34.297  31.256  27.252  1.00  0.00    -0.460 OA
BRANCH  41  42
ATOM     42  C   UNL A   1      34.746  31.708  28.435  1.00  0.00     0.338 C 
ATOM     43  O   UNL A   1      34.426  32.737  29.003  1.00  0.00    -0.246 OA
BRANCH  42  44
ATOM     44  C   UNL A   1      35.770  30.773  28.911  1.00  0.00     0.060 A 
ATOM     45  C   UNL A   1      35.951  30.751  30.292  1.00  0.00     0.016 A 
ATOM     46  C   UNL A   1      36.757  30.363  28.003  1.00  0.00     0.016 A 
ATOM     47  C   UNL A   1      37.241  30.696  30.742  1.00  0.00     0.010 A 
ATOM     48  C   UNL A   1      38.049  30.337  28.448  1.00  0.00     0.010 A 
ATOM     49  C   UNL A   1      38.263  30.640  29.788  1.00  0.00    -0.014 A 
BRANCH  49  50
ATOM     50  C   UNL A   1      39.587  30.982  30.233  1.00  0.00     0.031 A 
ATOM     51  C   UNL A   1      40.407  29.806  30.551  1.00  0.00     0.074 A 
ATOM     52  C   UNL A   1      39.994  32.263  30.285  1.00  0.00     0.049 A 
ATOM     53  N   UNL A   1      40.852  29.433  31.702  1.00  0.00    -0.248 NA
ATOM     54  C   UNL A   1      40.611  28.833  29.466  1.00  0.00     0.031 C 
ATOM     55  C   UNL A   1      39.349  33.451  29.711  1.00  0.00     0.029 A 
ATOM     56  N   UNL A   1      41.149  32.756  30.792  1.00  0.00    -0.354 N 
ATOM     57  C   UNL A   1      41.562  28.268  31.451  1.00  0.00     0.074 A 
ATOM     58  C   UNL A   1      41.219  27.846  30.119  1.00  0.00     0.031 C 
ATOM     59  C   UNL A   1      40.237  34.473  29.705  1.00  0.00     0.029 A 
ATOM     60  C   UNL A   1      41.446  34.047  30.389  1.00  0.00     0.049 A 
ATOM     61  H   UNL A   1      41.729  32.240  31.397  1.00  0.00     0.167 HD
ATOM     62  C   UNL A   1      42.596  27.899  32.248  1.00  0.00     0.037 A 
ATOM     63  C   UNL A   1      42.651  34.649  30.523  1.00  0.00     0.037 A 
ATOM     64  C   UNL A   1      42.510  28.514  33.547  1.00  0.00     0.049 A 
ATOM     65  C   UNL A   1      43.416  33.892  31.550  1.00  0.00     0.074 A 
ATOM     66  C   UNL A   1      41.587  28.480  34.574  1.00  0.00     0.029 A 
ATOM     67  N   UNL A   1      43.307  29.604  33.801  1.00  0.00    -0.354 N 
ATOM     68  N   UNL A   1      43.101  33.853  32.816  1.00  0.00    -0.248 NA
ATOM     69  C   UNL A   1      44.279  32.812  31.094  1.00  0.00     0.031 C 
ATOM     70  C   UNL A   1      41.590  29.794  35.127  1.00  0.00     0.029 A 
ATOM     71  C   UNL A   1      42.536  30.547  34.431  1.00  0.00     0.049 A 
ATOM     72  H   UNL A   1      44.260  29.692  33.572  1.00  0.00     0.167 HD
ATOM     73  C   UNL A   1      43.379  32.553  33.217  1.00  0.00     0.074 A 
ATOM     74  C   UNL A   1      44.187  31.989  32.140  1.00  0.00     0.031 C 
ATOM     75  C   UNL A   1      42.692  31.971  34.244  1.00  0.00     0.037 A 
BRANCH  62  76
ATOM     76  C   UNL A   1      43.865  27.303  31.700  1.00  0.00     0.064 A 
ATOM     77  C   UNL A   1      44.400  26.158  32.313  1.00  0.00     0.173 A 
ATOM     78  C   UNL A   1      44.722  27.969  30.792  1.00  0.00     0.173 A 
ATOM     79  F   UNL A   1      43.683  25.469  33.214  1.00  0.00    -0.203 F 
ATOM     80  C   UNL A   1      45.717  25.750  32.084  1.00  0.00     0.198 A 
ATOM     81  C   UNL A   1      46.011  27.524  30.520  1.00  0.00     0.198 A 
ATOM     82  F   UNL A   1      44.399  29.135  30.221  1.00  0.00    -0.203 F 
ATOM     83  F   UNL A   1      46.225  24.730  32.786  1.00  0.00    -0.200 F 
ATOM     84  C   UNL A   1      46.520  26.435  31.190  1.00  0.00     0.200 A 
ATOM     85  F   UNL A   1      46.779  28.215  29.665  1.00  0.00    -0.200 F 
ATOM     86  F   UNL A   1      47.800  26.080  31.014  1.00  0.00    -0.200 F 
ENDBRANCH  62  76
BRANCH  63  87
ATOM     87  C   UNL A   1      43.302  35.551  29.545  1.00  0.00     0.064 A 
ATOM     88  C   UNL A   1      43.409  35.195  28.192  1.00  0.00     0.173 A 
ATOM     89  C   UNL A   1      43.592  36.893  29.866  1.00  0.00     0.173 A 
ATOM     90  F   UNL A   1      43.099  33.952  27.797  1.00  0.00    -0.203 F 
ATOM     91  C   UNL A   1      43.771  36.130  27.216  1.00  0.00     0.198 A 
ATOM     92  C   UNL A   1      43.961  37.823  28.894  1.00  0.00     0.198 A 
ATOM     93  F   UNL A   1      43.429  37.354  31.114  1.00  0.00    -0.203 F 
ATOM     94  F   UNL A   1      43.806  35.771  25.926  1.00  0.00    -0.200 F 
ATOM     95  C   UNL A   1      44.039  37.445  27.567  1.00  0.00     0.200 A 
ATOM     96  F   UNL A   1      44.177  39.098  29.243  1.00  0.00    -0.200 F 
ATOM     97  F   UNL A   1      44.328  38.353  26.626  1.00  0.00    -0.200 F 
ENDBRANCH  63  87
BRANCH  75  98
ATOM     98  C   UNL A   1      41.832  32.864  35.094  1.00  0.00     0.064 A 
ATOM     99  C   UNL A   1      42.318  33.606  36.184  1.00  0.00     0.173 A 
ATOM    100  C   UNL A   1      40.505  33.084  34.705  1.00  0.00     0.173 A 
ATOM    101  F   UNL A   1      43.603  33.528  36.551  1.00  0.00    -0.203 F 
ATOM    102  C   UNL A   1      41.497  34.493  36.879  1.00  0.00     0.198 A 
ATOM    103  C   UNL A   1      39.696  33.997  35.376  1.00  0.00     0.198 A 
ATOM    104  F   UNL A   1      40.005  32.447  33.633  1.00  0.00    -0.203 F 
ATOM    105  F   UNL A   1      41.981  35.182  37.923  1.00  0.00    -0.200 F 
ATOM    106  C   UNL A   1      40.189  34.693  36.470  1.00  0.00     0.200 A 
ATOM    107  F   UNL A   1      38.448  34.225  34.946  1.00  0.00    -0.200 F 
ATOM    108  F   UNL A   1      39.410  35.577  37.109  1.00  0.00    -0.200 F 
ENDBRANCH  75  98
ENDBRANCH  49  50
ENDBRANCH  42  44
ENDBRANCH  41  42
ENDBRANCH  40  41
ENDBRANCH  39  40
ENDBRANCH  38  39
ENDBRANCH  37  38
ENDBRANCH  36  37
ENDBRANCH  35  36
ENDBRANCH   1  35
TORSDOF 25
ENDMDL
