MODEL 1
REMARK VINA RESULT:      -9.0      0.000      0.000
REMARK SMILES O=C(OCCOCCOCCOCCOC(=O)c1ccc(-c2c3nc(c(-c4c(F)c(F)c(F)c(F)c4F)c4ccc([nH]4)c(-c4c(F)c(F)c(F)c(F)c4F)c4nc(c(-c5c(F)c(F)c(F)c(F)c5F)c5ccc2[nH]5)C=C4)C=C3)cc1)C1=Cc2cc(Cl)cc(-c3ccc(Cl)cc3)c2O[C@@H]1C(F)(F)F
REMARK SMILES IDX 10 1 9 2 8 3 7 4 6 5 5 6 4 7 3 8 2 9 1 10 81 11 82 12 98 13
REMARK SMILES IDX 83 14 97 15 84 16 96 17 85 18 88 19 86 20 87 21 99 22 100 23
REMARK SMILES IDX 101 24 102 25 89 26 90 27 95 28 91 29 94 30 92 31 93 32
REMARK SMILES IDX 11 33 12 34 13 35 14 36 15 37 16 38 17 39 18 40 19 41 80 42
REMARK SMILES IDX 20 43 79 44 21 45 22 46 23 47 73 48 24 49 78 50 72 51 74 52
REMARK SMILES IDX 25 53 77 54 71 55 70 56 26 58 58 59 38 60 57 61 39 62 42 63
REMARK SMILES IDX 56 64 75 65 40 66 41 67 55 69 76 70 43 71 27 72 28 73 36 74
REMARK SMILES IDX 29 75 30 76 34 77 37 78 31 79 32 80 35 81 33 82 59 83 60 84
REMARK SMILES IDX 68 85 61 86 62 87 66 88 69 89 63 90 64 91 67 92 65 93 44 94
REMARK SMILES IDX 45 95 53 96 46 97 47 98 51 99 54 100 48 101 49 102 52 103
REMARK SMILES IDX 50 104
REMARK H PARENT 74 57 42 68
REMARK Flexibility Score: inf
ROOT
ATOM      1  C   UNL A   1      45.082  24.411  39.269  1.00  0.00     0.188 C 
ENDROOT
BRANCH   1   2
ATOM      2  O   UNL A   1      44.663  25.550  38.557  1.00  0.00    -0.377 OA
BRANCH   2   3
ATOM      3  C   UNL A   1      43.932  25.182  37.419  1.00  0.00     0.188 C 
BRANCH   3   4
ATOM      4  C   UNL A   1      42.516  25.728  37.509  1.00  0.00     0.188 C 
BRANCH   4   5
ATOM      5  O   UNL A   1      42.176  27.142  37.332  1.00  0.00    -0.376 OA
BRANCH   5   6
ATOM      6  C   UNL A   1      42.478  28.274  36.170  1.00  0.00     0.202 C 
BRANCH   6   7
ATOM      7  C   UNL A   1      41.162  28.944  34.564  1.00  0.00     0.261 C 
BRANCH   7   8
ATOM      8  O   UNL A   1      40.534  30.329  34.423  1.00  0.00    -0.460 OA
BRANCH   8   9
ATOM      9  C   UNL A   1      39.387  30.310  33.732  1.00  0.00     0.338 C 
ATOM     10  O   UNL A   1      38.481  29.519  33.789  1.00  0.00    -0.246 OA
BRANCH   9  11
ATOM     11  C   UNL A   1      39.823  31.208  32.683  1.00  0.00     0.087 C 
ATOM     12  C   UNL A   1      40.438  30.517  31.548  1.00  0.00     0.027 C 
ATOM     13  C   UNL A   1      38.170  32.191  32.618  1.00  0.00     0.316 C 
ATOM     14  C   UNL A   1      39.627  30.279  29.960  1.00  0.00     0.019 A 
ATOM     15  O   UNL A   1      37.219  31.860  30.941  1.00  0.00    -0.475 OA
ATOM     16  C   UNL A   1      40.271  29.487  29.043  1.00  0.00     0.032 A 
ATOM     17  C   UNL A   1      37.998  30.800  29.648  1.00  0.00     0.135 A 
ATOM     18  C   UNL A   1      39.531  29.162  27.903  1.00  0.00     0.042 A 
ATOM     19  C   UNL A   1      37.327  30.355  28.512  1.00  0.00     0.026 A 
ATOM     20  Cl  UNL A   1      40.295  28.152  26.720  1.00  0.00    -0.084 Cl
ATOM     21  C   UNL A   1      38.164  29.562  27.659  1.00  0.00     0.033 A 
BRANCH  13  22
ATOM     22  C   UNL A   1      38.893  33.534  33.302  1.00  0.00     0.430 C 
ATOM     23  F   UNL A   1      40.010  34.027  32.740  1.00  0.00    -0.167 F 
ATOM     24  F   UNL A   1      37.992  34.560  33.181  1.00  0.00    -0.167 F 
ATOM     25  F   UNL A   1      39.112  33.439  34.639  1.00  0.00    -0.167 F 
ENDBRANCH  13  22
BRANCH  19  26
ATOM     26  C   UNL A   1      35.946  30.537  28.092  1.00  0.00    -0.015 A 
ATOM     27  C   UNL A   1      35.264  31.754  28.208  1.00  0.00     0.010 A 
ATOM     28  C   UNL A   1      35.192  29.436  27.719  1.00  0.00     0.010 A 
ATOM     29  C   UNL A   1      33.939  31.887  27.761  1.00  0.00     0.021 A 
ATOM     30  C   UNL A   1      33.957  29.596  27.099  1.00  0.00     0.021 A 
ATOM     31  C   UNL A   1      33.319  30.819  27.128  1.00  0.00     0.041 A 
ATOM     32  Cl  UNL A   1      31.745  30.968  26.459  1.00  0.00    -0.084 Cl
ENDBRANCH  19  26
ENDBRANCH   9  11
ENDBRANCH   8   9
ENDBRANCH   7   8
ENDBRANCH   6   7
ENDBRANCH   5   6
ENDBRANCH   4   5
ENDBRANCH   3   4
ENDBRANCH   2   3
ENDBRANCH   1   2
BRANCH   1  33
ATOM     33  C   UNL A   1      46.566  24.191  39.548  1.00  0.00     0.188 C 
BRANCH  33  34
ATOM     34  O   UNL A   1      47.088  22.919  39.868  1.00  0.00    -0.376 OA
BRANCH  34  35
ATOM     35  C   UNL A   1      47.424  22.042  38.812  1.00  0.00     0.202 C 
BRANCH  35  36
ATOM     36  C   UNL A   1      46.395  20.984  38.357  1.00  0.00     0.261 C 
BRANCH  36  37
ATOM     37  O   UNL A   1      46.136  20.851  36.945  1.00  0.00    -0.460 OA
BRANCH  37  38
ATOM     38  C   UNL A   1      47.145  21.159  36.094  1.00  0.00     0.338 C 
ATOM     39  O   UNL A   1      48.161  20.523  35.892  1.00  0.00    -0.246 OA
BRANCH  38  40
ATOM     40  C   UNL A   1      46.741  22.358  35.309  1.00  0.00     0.060 A 
ATOM     41  C   UNL A   1      47.718  23.210  34.764  1.00  0.00     0.016 A 
ATOM     42  C   UNL A   1      45.392  22.636  35.101  1.00  0.00     0.016 A 
ATOM     43  C   UNL A   1      47.353  24.328  33.990  1.00  0.00     0.010 A 
ATOM     44  C   UNL A   1      45.026  23.759  34.346  1.00  0.00     0.010 A 
ATOM     45  C   UNL A   1      46.000  24.622  33.785  1.00  0.00    -0.014 A 
BRANCH  45  46
ATOM     46  C   UNL A   1      45.527  25.941  33.270  1.00  0.00     0.031 A 
ATOM     47  C   UNL A   1      45.083  25.950  31.836  1.00  0.00     0.074 A 
ATOM     48  C   UNL A   1      45.563  27.107  33.947  1.00  0.00     0.049 A 
ATOM     49  N   UNL A   1      44.850  26.952  31.032  1.00  0.00    -0.248 NA
ATOM     50  C   UNL A   1      44.906  24.622  31.221  1.00  0.00     0.031 C 
ATOM     51  C   UNL A   1      45.849  27.276  35.363  1.00  0.00     0.029 A 
ATOM     52  N   UNL A   1      45.405  28.402  33.492  1.00  0.00    -0.354 N 
ATOM     53  C   UNL A   1      44.504  26.372  29.823  1.00  0.00     0.074 A 
ATOM     54  C   UNL A   1      44.664  24.944  29.965  1.00  0.00     0.031 C 
ATOM     55  C   UNL A   1      45.967  28.587  35.643  1.00  0.00     0.029 A 
ATOM     56  C   UNL A   1      45.741  29.360  34.424  1.00  0.00     0.049 A 
ATOM     57  H   UNL A   1      45.084  28.620  32.587  1.00  0.00     0.167 HD
ATOM     58  C   UNL A   1      44.047  26.969  28.700  1.00  0.00     0.037 A 
ATOM     59  C   UNL A   1      45.866  30.699  34.304  1.00  0.00     0.037 A 
ATOM     60  C   UNL A   1      43.900  28.387  28.549  1.00  0.00     0.049 A 
ATOM     61  C   UNL A   1      45.499  31.364  32.998  1.00  0.00     0.074 A 
ATOM     62  C   UNL A   1      43.422  29.091  27.461  1.00  0.00     0.029 A 
ATOM     63  N   UNL A   1      44.258  29.321  29.511  1.00  0.00    -0.354 N 
ATOM     64  N   UNL A   1      45.109  30.816  31.874  1.00  0.00    -0.248 NA
ATOM     65  C   UNL A   1      45.543  32.835  32.956  1.00  0.00     0.031 C 
ATOM     66  C   UNL A   1      43.567  30.454  27.732  1.00  0.00     0.029 A 
ATOM     67  C   UNL A   1      44.047  30.599  29.024  1.00  0.00     0.049 A 
ATOM     68  H   UNL A   1      44.610  29.107  30.405  1.00  0.00     0.167 HD
ATOM     69  C   UNL A   1      44.791  31.866  31.021  1.00  0.00     0.074 A 
ATOM     70  C   UNL A   1      45.059  33.088  31.747  1.00  0.00     0.031 C 
ATOM     71  C   UNL A   1      44.291  31.815  29.761  1.00  0.00     0.037 A 
BRANCH  58  72
ATOM     72  C   UNL A   1      43.710  26.061  27.555  1.00  0.00     0.064 A 
ATOM     73  C   UNL A   1      42.473  25.400  27.475  1.00  0.00     0.173 A 
ATOM     74  C   UNL A   1      44.666  25.789  26.567  1.00  0.00     0.173 A 
ATOM     75  F   UNL A   1      41.533  25.609  28.410  1.00  0.00    -0.203 F 
ATOM     76  C   UNL A   1      42.235  24.446  26.491  1.00  0.00     0.198 A 
ATOM     77  C   UNL A   1      44.405  24.871  25.557  1.00  0.00     0.198 A 
ATOM     78  F   UNL A   1      45.863  26.394  26.597  1.00  0.00    -0.203 F 
ATOM     79  F   UNL A   1      41.091  23.749  26.501  1.00  0.00    -0.200 F 
ATOM     80  C   UNL A   1      43.200  24.185  25.532  1.00  0.00     0.200 A 
ATOM     81  F   UNL A   1      45.333  24.628  24.620  1.00  0.00    -0.200 F 
ATOM     82  F   UNL A   1      42.977  23.255  24.592  1.00  0.00    -0.200 F 
ENDBRANCH  58  72
BRANCH  59  83
ATOM     83  C   UNL A   1      46.323  31.523  35.461  1.00  0.00     0.064 A 
ATOM     84  C   UNL A   1      47.685  31.787  35.670  1.00  0.00     0.173 A 
ATOM     85  C   UNL A   1      45.413  32.029  36.401  1.00  0.00     0.173 A 
ATOM     86  F   UNL A   1      48.599  31.301  34.818  1.00  0.00    -0.203 F 
ATOM     87  C   UNL A   1      48.119  32.508  36.782  1.00  0.00     0.198 A 
ATOM     88  C   UNL A   1      45.848  32.770  37.502  1.00  0.00     0.198 A 
ATOM     89  F   UNL A   1      44.100  31.803  36.256  1.00  0.00    -0.203 F 
ATOM     90  F   UNL A   1      49.431  32.706  36.979  1.00  0.00    -0.200 F 
ATOM     91  C   UNL A   1      47.201  33.003  37.695  1.00  0.00     0.200 A 
ATOM     92  F   UNL A   1      44.956  33.252  38.379  1.00  0.00    -0.200 F 
ATOM     93  F   UNL A   1      47.620  33.696  38.763  1.00  0.00    -0.200 F 
ENDBRANCH  59  83
BRANCH  71  94
ATOM     94  C   UNL A   1      43.909  33.105  29.091  1.00  0.00     0.064 A 
ATOM     95  C   UNL A   1      42.707  33.769  29.369  1.00  0.00     0.173 A 
ATOM     96  C   UNL A   1      44.824  33.739  28.233  1.00  0.00     0.173 A 
ATOM     97  F   UNL A   1      41.792  33.205  30.172  1.00  0.00    -0.203 F 
ATOM     98  C   UNL A   1      42.431  35.014  28.806  1.00  0.00     0.198 A 
ATOM     99  C   UNL A   1      44.563  34.998  27.704  1.00  0.00     0.198 A 
ATOM    100  F   UNL A   1      45.995  33.150  27.939  1.00  0.00    -0.203 F 
ATOM    101  F   UNL A   1      41.261  35.616  29.058  1.00  0.00    -0.200 F 
ATOM    102  C   UNL A   1      43.365  35.633  27.988  1.00  0.00     0.200 A 
ATOM    103  F   UNL A   1      45.478  35.603  26.934  1.00  0.00    -0.200 F 
ATOM    104  F   UNL A   1      43.109  36.844  27.472  1.00  0.00    -0.200 F 
ENDBRANCH  71  94
ENDBRANCH  45  46
ENDBRANCH  38  40
ENDBRANCH  37  38
ENDBRANCH  36  37
ENDBRANCH  35  36
ENDBRANCH  34  35
ENDBRANCH  33  34
ENDBRANCH   1  33
TORSDOF 22
ENDMDL
MODEL 2
REMARK VINA RESULT:      -8.9      6.510     12.500
REMARK SMILES O=C(OCCOCCOCCOCCOC(=O)c1ccc(-c2c3nc(c(-c4c(F)c(F)c(F)c(F)c4F)c4ccc([nH]4)c(-c4c(F)c(F)c(F)c(F)c4F)c4nc(c(-c5c(F)c(F)c(F)c(F)c5F)c5ccc2[nH]5)C=C4)C=C3)cc1)C1=Cc2cc(Cl)cc(-c3ccc(Cl)cc3)c2O[C@@H]1C(F)(F)F
REMARK SMILES IDX 10 1 9 2 8 3 7 4 6 5 5 6 4 7 3 8 2 9 1 10 81 11 82 12 98 13
REMARK SMILES IDX 83 14 97 15 84 16 96 17 85 18 88 19 86 20 87 21 99 22 100 23
REMARK SMILES IDX 101 24 102 25 89 26 90 27 95 28 91 29 94 30 92 31 93 32
REMARK SMILES IDX 11 33 12 34 13 35 14 36 15 37 16 38 17 39 18 40 19 41 80 42
REMARK SMILES IDX 20 43 79 44 21 45 22 46 23 47 73 48 24 49 78 50 72 51 74 52
REMARK SMILES IDX 25 53 77 54 71 55 70 56 26 58 58 59 38 60 57 61 39 62 42 63
REMARK SMILES IDX 56 64 75 65 40 66 41 67 55 69 76 70 43 71 27 72 28 73 36 74
REMARK SMILES IDX 29 75 30 76 34 77 37 78 31 79 32 80 35 81 33 82 59 83 60 84
REMARK SMILES IDX 68 85 61 86 62 87 66 88 69 89 63 90 64 91 67 92 65 93 44 94
REMARK SMILES IDX 45 95 53 96 46 97 47 98 51 99 54 100 48 101 49 102 52 103
REMARK SMILES IDX 50 104
REMARK H PARENT 74 57 42 68
REMARK Flexibility Score: inf
ROOT
ATOM      1  C   UNL A   1      52.226  23.386  36.168  1.00  0.00     0.188 C 
ENDROOT
BRANCH   1   2
ATOM      2  O   UNL A   1      51.500  23.294  37.369  1.00  0.00    -0.377 OA
BRANCH   2   3
ATOM      3  C   UNL A   1      50.827  22.066  37.449  1.00  0.00     0.188 C 
BRANCH   3   4
ATOM      4  C   UNL A   1      49.738  22.135  38.507  1.00  0.00     0.188 C 
BRANCH   4   5
ATOM      5  O   UNL A   1      48.317  21.913  38.229  1.00  0.00    -0.376 OA
BRANCH   5   6
ATOM      6  C   UNL A   1      47.311  20.605  38.284  1.00  0.00     0.202 C 
BRANCH   6   7
ATOM      7  C   UNL A   1      47.174  19.073  39.831  1.00  0.00     0.261 C 
BRANCH   7   8
ATOM      8  O   UNL A   1      46.043  18.902  40.843  1.00  0.00    -0.460 OA
BRANCH   8   9
ATOM      9  C   UNL A   1      46.204  17.829  41.625  1.00  0.00     0.338 C 
ATOM     10  O   UNL A   1      46.998  16.928  41.523  1.00  0.00    -0.246 OA
BRANCH   9  11
ATOM     11  C   UNL A   1      44.908  17.907  42.266  1.00  0.00     0.087 C 
ATOM     12  C   UNL A   1      43.864  17.169  41.553  1.00  0.00     0.027 C 
ATOM     13  C   UNL A   1      45.572  17.473  44.020  1.00  0.00     0.316 C 
ATOM     14  C   UNL A   1      43.194  15.594  42.107  1.00  0.00     0.019 A 
ATOM     15  O   UNL A   1      44.941  15.713  44.596  1.00  0.00    -0.475 OA
ATOM     16  C   UNL A   1      42.326  14.953  41.259  1.00  0.00     0.032 A 
ATOM     17  C   UNL A   1      43.778  14.768  43.520  1.00  0.00     0.135 A 
ATOM     18  C   UNL A   1      41.978  13.650  41.626  1.00  0.00     0.042 A 
ATOM     19  C   UNL A   1      43.425  13.440  43.751  1.00  0.00     0.026 A 
ATOM     20  Cl  UNL A   1      40.894  12.791  40.580  1.00  0.00    -0.084 Cl
ATOM     21  C   UNL A   1      42.492  12.947  42.780  1.00  0.00     0.033 A 
BRANCH  13  22
ATOM     22  C   UNL A   1      45.310  19.036  44.552  1.00  0.00     0.430 C 
ATOM     23  F   UNL A   1      44.256  19.718  44.070  1.00  0.00    -0.167 F 
ATOM     24  F   UNL A   1      45.049  18.947  45.894  1.00  0.00    -0.167 F 
ATOM     25  F   UNL A   1      46.396  19.847  44.477  1.00  0.00    -0.167 F 
ENDBRANCH  13  22
BRANCH  19  26
ATOM     26  C   UNL A   1      43.871  12.502  44.769  1.00  0.00    -0.015 A 
ATOM     27  C   UNL A   1      43.809  11.112  44.610  1.00  0.00     0.010 A 
ATOM     28  C   UNL A   1      44.213  12.968  46.028  1.00  0.00     0.010 A 
ATOM     29  C   UNL A   1      44.281  10.248  45.611  1.00  0.00     0.021 A 
ATOM     30  C   UNL A   1      44.857  12.139  46.942  1.00  0.00     0.021 A 
ATOM     31  C   UNL A   1      44.882  10.774  46.745  1.00  0.00     0.041 A 
ATOM     32  Cl  UNL A   1      45.579   9.759  47.941  1.00  0.00    -0.084 Cl
ENDBRANCH  19  26
ENDBRANCH   9  11
ENDBRANCH   8   9
ENDBRANCH   7   8
ENDBRANCH   6   7
ENDBRANCH   5   6
ENDBRANCH   4   5
ENDBRANCH   3   4
ENDBRANCH   2   3
ENDBRANCH   1   2
BRANCH   1  33
ATOM     33  C   UNL A   1      51.489  23.407  34.833  1.00  0.00     0.188 C 
BRANCH  33  34
ATOM     34  O   UNL A   1      51.812  24.326  33.812  1.00  0.00    -0.376 OA
BRANCH  34  35
ATOM     35  C   UNL A   1      50.933  24.448  32.711  1.00  0.00     0.202 C 
BRANCH  35  36
ATOM     36  C   UNL A   1      49.508  24.998  32.943  1.00  0.00     0.261 C 
BRANCH  36  37
ATOM     37  O   UNL A   1      49.353  26.136  33.814  1.00  0.00    -0.460 OA
BRANCH  37  38
ATOM     38  C   UNL A   1      48.600  25.971  34.929  1.00  0.00     0.338 C 
ATOM     39  O   UNL A   1      48.972  25.588  36.021  1.00  0.00    -0.246 OA
BRANCH  38  40
ATOM     40  C   UNL A   1      47.232  26.484  34.646  1.00  0.00     0.060 A 
ATOM     41  C   UNL A   1      46.111  25.657  34.840  1.00  0.00     0.016 A 
ATOM     42  C   UNL A   1      47.054  27.792  34.200  1.00  0.00     0.016 A 
ATOM     43  C   UNL A   1      44.808  26.139  34.611  1.00  0.00     0.010 A 
ATOM     44  C   UNL A   1      45.758  28.267  33.954  1.00  0.00     0.010 A 
ATOM     45  C   UNL A   1      44.620  27.448  34.151  1.00  0.00    -0.014 A 
BRANCH  45  46
ATOM     46  C   UNL A   1      43.327  27.926  33.577  1.00  0.00     0.031 A 
ATOM     47  C   UNL A   1      43.109  27.605  32.127  1.00  0.00     0.074 A 
ATOM     48  C   UNL A   1      42.417  28.688  34.217  1.00  0.00     0.049 A 
ATOM     49  N   UNL A   1      42.227  28.070  31.284  1.00  0.00    -0.248 NA
ATOM     50  C   UNL A   1      44.052  26.631  31.547  1.00  0.00     0.031 C 
ATOM     51  C   UNL A   1      42.398  29.000  35.639  1.00  0.00     0.029 A 
ATOM     52  N   UNL A   1      41.340  29.393  33.717  1.00  0.00    -0.354 N 
ATOM     53  C   UNL A   1      42.515  27.448  30.080  1.00  0.00     0.074 A 
ATOM     54  C   UNL A   1      43.711  26.662  30.273  1.00  0.00     0.031 C 
ATOM     55  C   UNL A   1      41.448  29.922  35.882  1.00  0.00     0.029 A 
ATOM     56  C   UNL A   1      40.768  30.251  34.631  1.00  0.00     0.049 A 
ATOM     57  H   UNL A   1      41.013  29.293  32.794  1.00  0.00     0.167 HD
ATOM     58  C   UNL A   1      41.819  27.486  28.922  1.00  0.00     0.037 A 
ATOM     59  C   UNL A   1      39.819  31.199  34.475  1.00  0.00     0.037 A 
ATOM     60  C   UNL A   1      40.639  28.275  28.722  1.00  0.00     0.049 A 
ATOM     61  C   UNL A   1      39.137  31.352  33.135  1.00  0.00     0.074 A 
ATOM     62  C   UNL A   1      39.846  28.364  27.594  1.00  0.00     0.029 A 
ATOM     63  N   UNL A   1      40.099  29.134  29.667  1.00  0.00    -0.354 N 
ATOM     64  N   UNL A   1      39.368  30.715  32.014  1.00  0.00    -0.248 NA
ATOM     65  C   UNL A   1      38.032  32.321  33.049  1.00  0.00     0.031 C 
ATOM     66  C   UNL A   1      38.873  29.338  27.828  1.00  0.00     0.029 A 
ATOM     67  C   UNL A   1      39.002  29.788  29.133  1.00  0.00     0.049 A 
ATOM     68  H   UNL A   1      40.443  29.260  30.581  1.00  0.00     0.167 HD
ATOM     69  C   UNL A   1      38.398  31.146  31.117  1.00  0.00     0.074 A 
ATOM     70  C   UNL A   1      37.589  32.121  31.815  1.00  0.00     0.031 C 
ATOM     71  C   UNL A   1      38.183  30.741  29.841  1.00  0.00     0.037 A 
BRANCH  58  72
ATOM     72  C   UNL A   1      42.363  26.661  27.793  1.00  0.00     0.064 A 
ATOM     73  C   UNL A   1      43.329  27.169  26.908  1.00  0.00     0.173 A 
ATOM     74  C   UNL A   1      41.855  25.379  27.548  1.00  0.00     0.173 A 
ATOM     75  F   UNL A   1      43.829  28.402  27.085  1.00  0.00    -0.203 F 
ATOM     76  C   UNL A   1      43.710  26.451  25.778  1.00  0.00     0.198 A 
ATOM     77  C   UNL A   1      42.276  24.645  26.445  1.00  0.00     0.198 A 
ATOM     78  F   UNL A   1      40.932  24.848  28.364  1.00  0.00    -0.203 F 
ATOM     79  F   UNL A   1      44.548  27.001  24.890  1.00  0.00    -0.200 F 
ATOM     80  C   UNL A   1      43.185  25.189  25.550  1.00  0.00     0.200 A 
ATOM     81  F   UNL A   1      41.779  23.418  26.232  1.00  0.00    -0.200 F 
ATOM     82  F   UNL A   1      43.540  24.503  24.455  1.00  0.00    -0.200 F 
ENDBRANCH  58  72
BRANCH  59  83
ATOM     83  C   UNL A   1      39.417  32.063  35.623  1.00  0.00     0.064 A 
ATOM     84  C   UNL A   1      40.030  33.305  35.847  1.00  0.00     0.173 A 
ATOM     85  C   UNL A   1      38.439  31.649  36.540  1.00  0.00     0.173 A 
ATOM     86  F   UNL A   1      40.991  33.735  35.016  1.00  0.00    -0.203 F 
ATOM     87  C   UNL A   1      39.696  34.088  36.951  1.00  0.00     0.198 A 
ATOM     88  C   UNL A   1      38.091  32.445  37.633  1.00  0.00     0.198 A 
ATOM     89  F   UNL A   1      37.824  30.469  36.381  1.00  0.00    -0.203 F 
ATOM     90  F   UNL A   1      40.332  35.250  37.163  1.00  0.00    -0.200 F 
ATOM     91  C   UNL A   1      38.724  33.660  37.841  1.00  0.00     0.200 A 
ATOM     92  F   UNL A   1      37.145  32.030  38.489  1.00  0.00    -0.200 F 
ATOM     93  F   UNL A   1      38.404  34.415  38.903  1.00  0.00    -0.200 F 
ENDBRANCH  59  83
BRANCH  71  94
ATOM     94  C   UNL A   1      36.978  31.272  29.117  1.00  0.00     0.064 A 
ATOM     95  C   UNL A   1      35.834  30.495  28.890  1.00  0.00     0.173 A 
ATOM     96  C   UNL A   1      36.935  32.626  28.741  1.00  0.00     0.173 A 
ATOM     97  F   UNL A   1      35.823  29.195  29.218  1.00  0.00    -0.203 F 
ATOM     98  C   UNL A   1      34.697  31.050  28.305  1.00  0.00     0.198 A 
ATOM     99  C   UNL A   1      35.786  33.186  28.194  1.00  0.00     0.198 A 
ATOM    100  F   UNL A   1      38.001  33.417  28.942  1.00  0.00    -0.203 F 
ATOM    101  F   UNL A   1      33.626  30.282  28.066  1.00  0.00    -0.200 F 
ATOM    102  C   UNL A   1      34.668  32.397  27.973  1.00  0.00     0.200 A 
ATOM    103  F   UNL A   1      35.755  34.492  27.897  1.00  0.00    -0.200 F 
ATOM    104  F   UNL A   1      33.563  32.935  27.439  1.00  0.00    -0.200 F 
ENDBRANCH  71  94
ENDBRANCH  45  46
ENDBRANCH  38  40
ENDBRANCH  37  38
ENDBRANCH  36  37
ENDBRANCH  35  36
ENDBRANCH  34  35
ENDBRANCH  33  34
ENDBRANCH   1  33
TORSDOF 22
ENDMDL
MODEL 3
REMARK VINA RESULT:      -8.7      8.839     15.304
REMARK SMILES O=C(OCCOCCOCCOCCOC(=O)c1ccc(-c2c3nc(c(-c4c(F)c(F)c(F)c(F)c4F)c4ccc([nH]4)c(-c4c(F)c(F)c(F)c(F)c4F)c4nc(c(-c5c(F)c(F)c(F)c(F)c5F)c5ccc2[nH]5)C=C4)C=C3)cc1)C1=Cc2cc(Cl)cc(-c3ccc(Cl)cc3)c2O[C@@H]1C(F)(F)F
REMARK SMILES IDX 10 1 9 2 8 3 7 4 6 5 5 6 4 7 3 8 2 9 1 10 81 11 82 12 98 13
REMARK SMILES IDX 83 14 97 15 84 16 96 17 85 18 88 19 86 20 87 21 99 22 100 23
REMARK SMILES IDX 101 24 102 25 89 26 90 27 95 28 91 29 94 30 92 31 93 32
REMARK SMILES IDX 11 33 12 34 13 35 14 36 15 37 16 38 17 39 18 40 19 41 80 42
REMARK SMILES IDX 20 43 79 44 21 45 22 46 23 47 73 48 24 49 78 50 72 51 74 52
REMARK SMILES IDX 25 53 77 54 71 55 70 56 26 58 58 59 38 60 57 61 39 62 42 63
REMARK SMILES IDX 56 64 75 65 40 66 41 67 55 69 76 70 43 71 27 72 28 73 36 74
REMARK SMILES IDX 29 75 30 76 34 77 37 78 31 79 32 80 35 81 33 82 59 83 60 84
REMARK SMILES IDX 68 85 61 86 62 87 66 88 69 89 63 90 64 91 67 92 65 93 44 94
REMARK SMILES IDX 45 95 53 96 46 97 47 98 51 99 54 100 48 101 49 102 52 103
REMARK SMILES IDX 50 104
REMARK H PARENT 74 57 42 68
REMARK Flexibility Score: inf
ROOT
ATOM      1  C   UNL A   1      47.008  40.696  26.568  1.00  0.00     0.188 C 
ENDROOT
BRANCH   1   2
ATOM      2  O   UNL A   1      47.413  42.040  26.661  1.00  0.00    -0.377 OA
BRANCH   2   3
ATOM      3  C   UNL A   1      47.598  42.411  28.001  1.00  0.00     0.188 C 
BRANCH   3   4
ATOM      4  C   UNL A   1      46.593  43.483  28.389  1.00  0.00     0.188 C 
BRANCH   4   5
ATOM      5  O   UNL A   1      45.518  43.948  27.509  1.00  0.00    -0.376 OA
BRANCH   5   6
ATOM      6  C   UNL A   1      45.414  45.038  26.274  1.00  0.00     0.202 C 
BRANCH   6   7
ATOM      7  C   UNL A   1      44.676  44.712  24.247  1.00  0.00     0.261 C 
BRANCH   7   8
ATOM      8  O   UNL A   1      45.208  43.696  23.239  1.00  0.00    -0.460 OA
BRANCH   8   9
ATOM      9  C   UNL A   1      46.523  43.821  23.022  1.00  0.00     0.338 C 
ATOM     10  O   UNL A   1      47.319  44.531  23.580  1.00  0.00    -0.246 OA
BRANCH   9  11
ATOM     11  C   UNL A   1      46.520  43.217  21.706  1.00  0.00     0.087 C 
ATOM     12  C   UNL A   1      45.183  42.839  21.244  1.00  0.00     0.027 C 
ATOM     13  C   UNL A   1      47.625  44.576  20.907  1.00  0.00     0.316 C 
ATOM     14  C   UNL A   1      44.260  43.747  19.995  1.00  0.00     0.019 A 
ATOM     15  O   UNL A   1      46.608  45.645  19.622  1.00  0.00    -0.475 OA
ATOM     16  C   UNL A   1      42.963  43.357  19.772  1.00  0.00     0.032 A 
ATOM     17  C   UNL A   1      44.854  45.207  19.261  1.00  0.00     0.135 A 
ATOM     18  C   UNL A   1      42.215  44.200  18.945  1.00  0.00     0.042 A 
ATOM     19  C   UNL A   1      43.998  46.012  18.513  1.00  0.00     0.026 A 
ATOM     20  Cl  UNL A   1      40.566  43.759  18.643  1.00  0.00    -0.084 Cl
ATOM     21  C   UNL A   1      42.695  45.434  18.365  1.00  0.00     0.033 A 
BRANCH  13  22
ATOM     22  C   UNL A   1      48.911  43.516  20.780  1.00  0.00     0.430 C 
ATOM     23  F   UNL A   1      48.716  42.328  20.181  1.00  0.00    -0.167 F 
ATOM     24  F   UNL A   1      49.840  44.129  19.981  1.00  0.00    -0.167 F 
ATOM     25  F   UNL A   1      49.572  43.287  21.944  1.00  0.00    -0.167 F 
ENDBRANCH  13  22
BRANCH  19  26
ATOM     26  C   UNL A   1      44.208  47.321  17.913  1.00  0.00    -0.015 A 
ATOM     27  C   UNL A   1      43.337  48.400  18.104  1.00  0.00     0.010 A 
ATOM     28  C   UNL A   1      45.208  47.489  16.969  1.00  0.00     0.010 A 
ATOM     29  C   UNL A   1      43.600  49.653  17.527  1.00  0.00     0.021 A 
ATOM     30  C   UNL A   1      45.584  48.761  16.550  1.00  0.00     0.021 A 
ATOM     31  C   UNL A   1      44.775  49.848  16.816  1.00  0.00     0.041 A 
ATOM     32  Cl  UNL A   1      45.198  51.390  16.192  1.00  0.00    -0.084 Cl
ENDBRANCH  19  26
ENDBRANCH   9  11
ENDBRANCH   8   9
ENDBRANCH   7   8
ENDBRANCH   6   7
ENDBRANCH   5   6
ENDBRANCH   4   5
ENDBRANCH   3   4
ENDBRANCH   2   3
ENDBRANCH   1   2
BRANCH   1  33
ATOM     33  C   UNL A   1      46.140  40.241  25.400  1.00  0.00     0.188 C 
BRANCH  33  34
ATOM     34  O   UNL A   1      45.055  41.010  24.927  1.00  0.00    -0.376 OA
BRANCH  34  35
ATOM     35  C   UNL A   1      44.014  41.333  25.828  1.00  0.00     0.202 C 
BRANCH  35  36
ATOM     36  C   UNL A   1      42.555  41.336  25.322  1.00  0.00     0.261 C 
BRANCH  36  37
ATOM     37  O   UNL A   1      41.640  40.374  25.882  1.00  0.00    -0.460 OA
BRANCH  37  38
ATOM     38  C   UNL A   1      41.565  40.296  27.233  1.00  0.00     0.338 C 
ATOM     39  O   UNL A   1      41.059  41.101  27.992  1.00  0.00    -0.246 OA
BRANCH  38  40
ATOM     40  C   UNL A   1      42.082  38.966  27.653  1.00  0.00     0.060 A 
ATOM     41  C   UNL A   1      42.759  38.823  28.877  1.00  0.00     0.016 A 
ATOM     42  C   UNL A   1      41.887  37.851  26.839  1.00  0.00     0.016 A 
ATOM     43  C   UNL A   1      43.224  37.563  29.303  1.00  0.00     0.010 A 
ATOM     44  C   UNL A   1      42.364  36.600  27.254  1.00  0.00     0.010 A 
ATOM     45  C   UNL A   1      43.043  36.440  28.488  1.00  0.00    -0.014 A 
BRANCH  45  46
ATOM     46  C   UNL A   1      43.777  35.158  28.701  1.00  0.00     0.031 A 
ATOM     47  C   UNL A   1      45.191  35.135  28.198  1.00  0.00     0.074 A 
ATOM     48  C   UNL A   1      43.248  34.024  29.204  1.00  0.00     0.049 A 
ATOM     49  N   UNL A   1      46.004  34.130  28.014  1.00  0.00    -0.248 NA
ATOM     50  C   UNL A   1      45.750  36.447  27.826  1.00  0.00     0.031 C 
ATOM     51  C   UNL A   1      41.947  33.886  29.842  1.00  0.00     0.029 A 
ATOM     52  N   UNL A   1      43.745  32.735  29.200  1.00  0.00    -0.354 N 
ATOM     53  C   UNL A   1      47.162  34.692  27.503  1.00  0.00     0.074 A 
ATOM     54  C   UNL A   1      46.911  36.100  27.304  1.00  0.00     0.031 C 
ATOM     55  C   UNL A   1      41.691  32.582  30.059  1.00  0.00     0.029 A 
ATOM     56  C   UNL A   1      42.826  31.787  29.596  1.00  0.00     0.049 A 
ATOM     57  H   UNL A   1      44.668  32.514  28.939  1.00  0.00     0.167 HD
ATOM     58  C   UNL A   1      48.353  34.099  27.262  1.00  0.00     0.037 A 
ATOM     59  C   UNL A   1      42.887  30.439  29.572  1.00  0.00     0.037 A 
ATOM     60  C   UNL A   1      48.603  32.700  27.444  1.00  0.00     0.049 A 
ATOM     61  C   UNL A   1      44.172  29.761  29.157  1.00  0.00     0.074 A 
ATOM     62  C   UNL A   1      49.783  32.006  27.251  1.00  0.00     0.029 A 
ATOM     63  N   UNL A   1      47.647  31.775  27.836  1.00  0.00    -0.354 N 
ATOM     64  N   UNL A   1      45.290  30.300  28.735  1.00  0.00    -0.248 NA
ATOM     65  C   UNL A   1      44.223  28.293  29.258  1.00  0.00     0.031 C 
ATOM     66  C   UNL A   1      49.519  30.648  27.448  1.00  0.00     0.029 A 
ATOM     67  C   UNL A   1      48.201  30.507  27.854  1.00  0.00     0.049 A 
ATOM     68  H   UNL A   1      46.714  31.988  28.067  1.00  0.00     0.167 HD
ATOM     69  C   UNL A   1      46.194  29.254  28.594  1.00  0.00     0.074 A 
ATOM     70  C   UNL A   1      45.488  28.042  28.950  1.00  0.00     0.031 C 
ATOM     71  C   UNL A   1      47.500  29.305  28.234  1.00  0.00     0.037 A 
BRANCH  58  72
ATOM     72  C   UNL A   1      49.445  34.989  26.745  1.00  0.00     0.064 A 
ATOM     73  C   UNL A   1      50.448  35.494  27.589  1.00  0.00     0.173 A 
ATOM     74  C   UNL A   1      49.442  35.403  25.406  1.00  0.00     0.173 A 
ATOM     75  F   UNL A   1      50.479  35.146  28.886  1.00  0.00    -0.203 F 
ATOM     76  C   UNL A   1      51.361  36.437  27.129  1.00  0.00     0.198 A 
ATOM     77  C   UNL A   1      50.388  36.308  24.939  1.00  0.00     0.198 A 
ATOM     78  F   UNL A   1      48.507  34.950  24.558  1.00  0.00    -0.203 F 
ATOM     79  F   UNL A   1      52.238  36.987  27.980  1.00  0.00    -0.200 F 
ATOM     80  C   UNL A   1      51.332  36.840  25.804  1.00  0.00     0.200 A 
ATOM     81  F   UNL A   1      50.369  36.688  23.653  1.00  0.00    -0.200 F 
ATOM     82  F   UNL A   1      52.203  37.760  25.364  1.00  0.00    -0.200 F 
ENDBRANCH  58  72
BRANCH  59  83
ATOM     83  C   UNL A   1      41.711  29.621  29.990  1.00  0.00     0.064 A 
ATOM     84  C   UNL A   1      41.527  29.244  31.329  1.00  0.00     0.173 A 
ATOM     85  C   UNL A   1      40.769  29.166  29.055  1.00  0.00     0.173 A 
ATOM     86  F   UNL A   1      42.415  29.628  32.259  1.00  0.00    -0.203 F 
ATOM     87  C   UNL A   1      40.461  28.432  31.713  1.00  0.00     0.198 A 
ATOM     88  C   UNL A   1      39.690  28.371  29.444  1.00  0.00     0.198 A 
ATOM     89  F   UNL A   1      40.897  29.488  27.760  1.00  0.00    -0.203 F 
ATOM     90  F   UNL A   1      40.337  28.052  32.993  1.00  0.00    -0.200 F 
ATOM     91  C   UNL A   1      39.540  27.999  30.771  1.00  0.00     0.200 A 
ATOM     92  F   UNL A   1      38.798  27.959  28.532  1.00  0.00    -0.200 F 
ATOM     93  F   UNL A   1      38.515  27.218  31.142  1.00  0.00    -0.200 F 
ENDBRANCH  59  83
BRANCH  71  94
ATOM     94  C   UNL A   1      48.304  28.035  28.279  1.00  0.00     0.064 A 
ATOM     95  C   UNL A   1      48.923  27.579  29.451  1.00  0.00     0.173 A 
ATOM     96  C   UNL A   1      48.358  27.207  27.145  1.00  0.00     0.173 A 
ATOM     97  F   UNL A   1      48.912  28.333  30.559  1.00  0.00    -0.203 F 
ATOM     98  C   UNL A   1      49.575  26.347  29.482  1.00  0.00     0.198 A 
ATOM     99  C   UNL A   1      48.975  25.962  27.190  1.00  0.00     0.198 A 
ATOM    100  F   UNL A   1      47.775  27.592  25.998  1.00  0.00    -0.203 F 
ATOM    101  F   UNL A   1      50.189  25.945  30.602  1.00  0.00    -0.200 F 
ATOM    102  C   UNL A   1      49.586  25.534  28.358  1.00  0.00     0.200 A 
ATOM    103  F   UNL A   1      48.963  25.170  26.109  1.00  0.00    -0.200 F 
ATOM    104  F   UNL A   1      50.187  24.336  28.400  1.00  0.00    -0.200 F 
ENDBRANCH  71  94
ENDBRANCH  45  46
ENDBRANCH  38  40
ENDBRANCH  37  38
ENDBRANCH  36  37
ENDBRANCH  35  36
ENDBRANCH  34  35
ENDBRANCH  33  34
ENDBRANCH   1  33
TORSDOF 22
ENDMDL
