MODEL 1
REMARK VINA RESULT:     -10.7      0.000      0.000
REMARK SMILES C[C@H](NC(=O)c1c(C(=O)OCCOCCOCCOCCOC(=O)c2ccc(-c3c4nc(c(-c5c(F)c(F)c(F)c(F)c5F)c5ccc([nH]5)c(-c5c(F)c(F)c(F)c(F)c5F)c5nc(c(-c6c(F)c(F)c(F)c(F)c6F)c6ccc3[nH]6)C=C5)C=C4)cc2)cnn1C)[C@]12C[C@H]3C[C@H](C[C@H](C3)C1)C2
REMARK SMILES IDX 15 1 14 2 13 3 12 4 11 5 10 6 8 7 9 8 7 9 6 10 90 11 88 12
REMARK SMILES IDX 89 13 91 14 4 15 3 16 5 18 2 19 1 20 92 21 93 22 100 23
REMARK SMILES IDX 101 24 94 25 98 26 96 27 95 28 99 29 97 30 16 31 17 32 18 33
REMARK SMILES IDX 19 34 20 35 21 36 22 37 23 38 24 39 25 40 26 41 87 42 27 43
REMARK SMILES IDX 86 44 28 45 29 46 30 47 80 48 31 49 85 50 79 51 81 52 32 53
REMARK SMILES IDX 84 54 78 55 77 56 33 58 65 59 45 60 64 61 46 62 49 63 63 64
REMARK SMILES IDX 82 65 47 66 48 67 62 69 83 70 50 71 34 72 35 73 43 74 36 75
REMARK SMILES IDX 37 76 41 77 44 78 38 79 39 80 42 81 40 82 66 83 67 84 75 85
REMARK SMILES IDX 68 86 69 87 73 88 76 89 70 90 71 91 74 92 72 93 51 94 52 95
REMARK SMILES IDX 60 96 53 97 54 98 58 99 61 100 55 101 56 102 59 103 57 104
REMARK H PARENT 3 17 81 57 49 68
REMARK Flexibility Score: inf
ROOT
ATOM      1  C   UNL A   1      40.367  22.244  27.612  1.00  0.00     0.188 C 
ENDROOT
BRANCH   1   2
ATOM      2  C   UNL A   1      39.517  23.018  26.593  1.00  0.00     0.188 C 
BRANCH   2   3
ATOM      3  O   UNL A   1      38.200  22.496  26.417  1.00  0.00    -0.376 OA
BRANCH   3   4
ATOM      4  C   UNL A   1      37.494  22.984  25.281  1.00  0.00     0.202 C 
BRANCH   4   5
ATOM      5  C   UNL A   1      36.717  21.900  24.520  1.00  0.00     0.261 C 
BRANCH   5   6
ATOM      6  O   UNL A   1      36.142  22.351  23.286  1.00  0.00    -0.460 OA
BRANCH   6   7
ATOM      7  C   UNL A   1      35.025  23.112  23.380  1.00  0.00     0.342 C 
ATOM      8  O   UNL A   1      34.907  24.228  22.885  1.00  0.00    -0.246 OA
BRANCH   7   9
ATOM      9  C   UNL A   1      33.909  22.407  23.975  1.00  0.00     0.111 A 
ATOM     10  C   UNL A   1      33.242  22.641  25.181  1.00  0.00     0.140 A 
ATOM     11  N   UNL A   1      32.170  21.782  25.125  1.00  0.00    -0.262 N 
ATOM     12  C   UNL A   1      33.285  21.273  23.420  1.00  0.00     0.151 A 
ATOM     13  N   UNL A   1      32.270  20.843  24.163  1.00  0.00    -0.180 NA
ATOM     14  C   UNL A   1      30.903  21.879  25.807  1.00  0.00     0.174 C 
BRANCH  10  15
ATOM     15  C   UNL A   1      33.484  23.706  26.124  1.00  0.00     0.270 C 
ATOM     16  N   UNL A   1      32.769  24.878  26.111  1.00  0.00    -0.348 N 
ATOM     17  H   UNL A   1      33.091  25.528  26.775  1.00  0.00     0.164 HD
ATOM     18  O   UNL A   1      34.345  23.608  26.998  1.00  0.00    -0.267 OA
BRANCH  16  19
ATOM     19  C   UNL A   1      31.632  25.380  25.325  1.00  0.00     0.085 C 
ATOM     20  C   UNL A   1      30.355  25.241  26.159  1.00  0.00     0.031 C 
BRANCH  19  21
ATOM     21  C   UNL A   1      31.893  26.843  24.744  1.00  0.00    -0.009 C 
ATOM     22  C   UNL A   1      31.120  27.106  23.413  1.00  0.00     0.012 C 
ATOM     23  C   UNL A   1      33.395  27.162  24.468  1.00  0.00     0.012 C 
ATOM     24  C   UNL A   1      31.394  27.896  25.782  1.00  0.00     0.012 C 
ATOM     25  C   UNL A   1      31.311  28.548  22.911  1.00  0.00    -0.010 C 
ATOM     26  C   UNL A   1      33.590  28.607  23.964  1.00  0.00    -0.010 C 
ATOM     27  C   UNL A   1      31.580  29.337  25.281  1.00  0.00    -0.010 C 
ATOM     28  C   UNL A   1      30.794  29.525  23.975  1.00  0.00     0.007 C 
ATOM     29  C   UNL A   1      32.803  28.804  22.661  1.00  0.00     0.007 C 
ATOM     30  C   UNL A   1      33.071  29.593  25.022  1.00  0.00     0.007 C 
ENDBRANCH  19  21
ENDBRANCH  16  19
ENDBRANCH  10  15
ENDBRANCH   7   9
ENDBRANCH   6   7
ENDBRANCH   5   6
ENDBRANCH   4   5
ENDBRANCH   3   4
ENDBRANCH   2   3
ENDBRANCH   1   2
BRANCH   1  31
ATOM     31  O   UNL A   1      40.640  20.890  27.301  1.00  0.00    -0.377 OA
BRANCH  31  32
ATOM     32  C   UNL A   1      41.988  20.478  27.098  1.00  0.00     0.188 C 
BRANCH  32  33
ATOM     33  C   UNL A   1      42.445  19.773  25.805  1.00  0.00     0.188 C 
BRANCH  33  34
ATOM     34  O   UNL A   1      43.293  20.557  24.972  1.00  0.00    -0.376 OA
BRANCH  34  35
ATOM     35  C   UNL A   1      44.674  20.561  25.309  1.00  0.00     0.202 C 
BRANCH  35  36
ATOM     36  C   UNL A   1      45.231  21.973  25.518  1.00  0.00     0.261 C 
BRANCH  36  37
ATOM     37  O   UNL A   1      44.239  23.012  25.479  1.00  0.00    -0.460 OA
BRANCH  37  38
ATOM     38  C   UNL A   1      44.692  24.276  25.337  1.00  0.00     0.338 C 
ATOM     39  O   UNL A   1      45.518  24.686  24.542  1.00  0.00    -0.246 OA
BRANCH  38  40
ATOM     40  C   UNL A   1      43.894  25.143  26.220  1.00  0.00     0.060 A 
ATOM     41  C   UNL A   1      44.036  26.531  26.107  1.00  0.00     0.016 A 
ATOM     42  C   UNL A   1      43.028  24.586  27.164  1.00  0.00     0.016 A 
ATOM     43  C   UNL A   1      43.340  27.370  26.977  1.00  0.00     0.010 A 
ATOM     44  C   UNL A   1      42.345  25.425  28.043  1.00  0.00     0.010 A 
ATOM     45  C   UNL A   1      42.527  26.816  27.976  1.00  0.00    -0.014 A 
BRANCH  45  46
ATOM     46  C   UNL A   1      42.027  27.667  29.079  1.00  0.00     0.031 A 
ATOM     47  C   UNL A   1      42.787  27.670  30.374  1.00  0.00     0.074 A 
ATOM     48  C   UNL A   1      40.917  28.410  28.938  1.00  0.00     0.049 A 
ATOM     49  N   UNL A   1      42.529  28.303  31.490  1.00  0.00    -0.248 NA
ATOM     50  C   UNL A   1      44.004  26.842  30.418  1.00  0.00     0.031 C 
ATOM     51  C   UNL A   1      40.111  28.507  27.724  1.00  0.00     0.029 A 
ATOM     52  N   UNL A   1      40.272  29.218  29.840  1.00  0.00    -0.354 N 
ATOM     53  C   UNL A   1      43.546  27.947  32.366  1.00  0.00     0.074 A 
ATOM     54  C   UNL A   1      44.411  27.024  31.665  1.00  0.00     0.031 C 
ATOM     55  C   UNL A   1      39.072  29.327  27.958  1.00  0.00     0.029 A 
ATOM     56  C   UNL A   1      39.129  29.791  29.343  1.00  0.00     0.049 A 
ATOM     57  H   UNL A   1      40.601  29.372  30.755  1.00  0.00     0.167 HD
ATOM     58  C   UNL A   1      43.743  28.358  33.640  1.00  0.00     0.037 A 
ATOM     59  C   UNL A   1      38.229  30.587  29.951  1.00  0.00     0.037 A 
ATOM     60  C   UNL A   1      42.882  29.272  34.338  1.00  0.00     0.049 A 
ATOM     61  C   UNL A   1      38.433  30.972  31.394  1.00  0.00     0.074 A 
ATOM     62  C   UNL A   1      43.018  29.783  35.616  1.00  0.00     0.029 A 
ATOM     63  N   UNL A   1      41.711  29.801  33.816  1.00  0.00    -0.354 N 
ATOM     64  N   UNL A   1      39.422  30.673  32.201  1.00  0.00    -0.248 NA
ATOM     65  C   UNL A   1      37.388  31.803  32.010  1.00  0.00     0.031 C 
ATOM     66  C   UNL A   1      41.904  30.585  35.885  1.00  0.00     0.029 A 
ATOM     67  C   UNL A   1      41.096  30.608  34.759  1.00  0.00     0.049 A 
ATOM     68  H   UNL A   1      41.368  29.628  32.910  1.00  0.00     0.167 HD
ATOM     69  C   UNL A   1      39.137  31.303  33.406  1.00  0.00     0.074 A 
ATOM     70  C   UNL A   1      37.882  32.003  33.225  1.00  0.00     0.031 C 
ATOM     71  C   UNL A   1      39.852  31.304  34.557  1.00  0.00     0.037 A 
BRANCH  58  72
ATOM     72  C   UNL A   1      44.927  27.794  34.365  1.00  0.00     0.064 A 
ATOM     73  C   UNL A   1      46.178  28.428  34.335  1.00  0.00     0.173 A 
ATOM     74  C   UNL A   1      44.806  26.608  35.102  1.00  0.00     0.173 A 
ATOM     75  F   UNL A   1      46.348  29.554  33.626  1.00  0.00    -0.203 F 
ATOM     76  C   UNL A   1      47.273  27.879  34.998  1.00  0.00     0.198 A 
ATOM     77  C   UNL A   1      45.897  26.075  35.784  1.00  0.00     0.198 A 
ATOM     78  F   UNL A   1      43.630  25.964  35.160  1.00  0.00    -0.203 F 
ATOM     79  F   UNL A   1      48.470  28.474  34.917  1.00  0.00    -0.200 F 
ATOM     80  C   UNL A   1      47.130  26.706  35.725  1.00  0.00     0.200 A 
ATOM     81  F   UNL A   1      45.756  24.945  36.490  1.00  0.00    -0.200 F 
ATOM     82  F   UNL A   1      48.185  26.178  36.360  1.00  0.00    -0.200 F 
ENDBRANCH  58  72
BRANCH  59  83
ATOM     83  C   UNL A   1      37.052  31.086  29.196  1.00  0.00     0.064 A 
ATOM     84  C   UNL A   1      37.000  32.411  28.742  1.00  0.00     0.173 A 
ATOM     85  C   UNL A   1      35.949  30.260  28.934  1.00  0.00     0.173 A 
ATOM     86  F   UNL A   1      38.019  33.246  28.996  1.00  0.00    -0.203 F 
ATOM     87  C   UNL A   1      35.885  32.895  28.062  1.00  0.00     0.198 A 
ATOM     88  C   UNL A   1      34.844  30.739  28.235  1.00  0.00     0.198 A 
ATOM     89  F   UNL A   1      35.948  28.988  29.356  1.00  0.00    -0.203 F 
ATOM     90  F   UNL A   1      35.843  34.177  27.674  1.00  0.00    -0.200 F 
ATOM     91  C   UNL A   1      34.809  32.057  27.805  1.00  0.00     0.200 A 
ATOM     92  F   UNL A   1      33.807  29.927  27.987  1.00  0.00    -0.200 F 
ATOM     93  F   UNL A   1      33.736  32.524  27.153  1.00  0.00    -0.200 F 
ENDBRANCH  59  83
BRANCH  71  94
ATOM     94  C   UNL A   1      39.317  32.114  35.701  1.00  0.00     0.064 A 
ATOM     95  C   UNL A   1      38.450  31.558  36.653  1.00  0.00     0.173 A 
ATOM     96  C   UNL A   1      39.718  33.448  35.875  1.00  0.00     0.173 A 
ATOM     97  F   UNL A   1      38.027  30.291  36.521  1.00  0.00    -0.203 F 
ATOM     98  C   UNL A   1      37.990  32.314  37.728  1.00  0.00     0.198 A 
ATOM     99  C   UNL A   1      39.276  34.192  36.964  1.00  0.00     0.198 A 
ATOM    100  F   UNL A   1      40.552  34.022  34.994  1.00  0.00    -0.203 F 
ATOM    101  F   UNL A   1      37.133  31.774  38.605  1.00  0.00    -0.200 F 
ATOM    102  C   UNL A   1      38.408  33.627  37.887  1.00  0.00     0.200 A 
ATOM    103  F   UNL A   1      39.691  35.457  37.123  1.00  0.00    -0.200 F 
ATOM    104  F   UNL A   1      37.971  34.350  38.927  1.00  0.00    -0.200 F 
ENDBRANCH  71  94
ENDBRANCH  45  46
ENDBRANCH  38  40
ENDBRANCH  37  38
ENDBRANCH  36  37
ENDBRANCH  35  36
ENDBRANCH  34  35
ENDBRANCH  33  34
ENDBRANCH  32  33
ENDBRANCH  31  32
ENDBRANCH   1  31
TORSDOF 23
ENDMDL
MODEL 2
REMARK VINA RESULT:     -10.1      0.971      2.026
REMARK SMILES C[C@H](NC(=O)c1c(C(=O)OCCOCCOCCOCCOC(=O)c2ccc(-c3c4nc(c(-c5c(F)c(F)c(F)c(F)c5F)c5ccc([nH]5)c(-c5c(F)c(F)c(F)c(F)c5F)c5nc(c(-c6c(F)c(F)c(F)c(F)c6F)c6ccc3[nH]6)C=C5)C=C4)cc2)cnn1C)[C@]12C[C@H]3C[C@H](C[C@H](C3)C1)C2
REMARK SMILES IDX 15 1 14 2 13 3 12 4 11 5 10 6 8 7 9 8 7 9 6 10 90 11 88 12
REMARK SMILES IDX 89 13 91 14 4 15 3 16 5 18 2 19 1 20 92 21 93 22 100 23
REMARK SMILES IDX 101 24 94 25 98 26 96 27 95 28 99 29 97 30 16 31 17 32 18 33
REMARK SMILES IDX 19 34 20 35 21 36 22 37 23 38 24 39 25 40 26 41 87 42 27 43
REMARK SMILES IDX 86 44 28 45 29 46 30 47 80 48 31 49 85 50 79 51 81 52 32 53
REMARK SMILES IDX 84 54 78 55 77 56 33 58 65 59 45 60 64 61 46 62 49 63 63 64
REMARK SMILES IDX 82 65 47 66 48 67 62 69 83 70 50 71 34 72 35 73 43 74 36 75
REMARK SMILES IDX 37 76 41 77 44 78 38 79 39 80 42 81 40 82 66 83 67 84 75 85
REMARK SMILES IDX 68 86 69 87 73 88 76 89 70 90 71 91 74 92 72 93 51 94 52 95
REMARK SMILES IDX 60 96 53 97 54 98 58 99 61 100 55 101 56 102 59 103 57 104
REMARK H PARENT 3 17 81 57 49 68
REMARK Flexibility Score: inf
ROOT
ATOM      1  C   UNL A   1      40.670  21.969  27.970  1.00  0.00     0.188 C 
ENDROOT
BRANCH   1   2
ATOM      2  C   UNL A   1      39.756  21.965  26.736  1.00  0.00     0.188 C 
BRANCH   2   3
ATOM      3  O   UNL A   1      39.099  23.209  26.492  1.00  0.00    -0.376 OA
BRANCH   3   4
ATOM      4  C   UNL A   1      38.188  23.217  25.398  1.00  0.00     0.202 C 
BRANCH   4   5
ATOM      5  C   UNL A   1      36.980  22.289  25.591  1.00  0.00     0.261 C 
BRANCH   5   6
ATOM      6  O   UNL A   1      36.388  21.837  24.365  1.00  0.00    -0.460 OA
BRANCH   6   7
ATOM      7  C   UNL A   1      35.294  22.511  23.935  1.00  0.00     0.342 C 
ATOM      8  O   UNL A   1      35.317  23.396  23.087  1.00  0.00    -0.246 OA
BRANCH   7   9
ATOM      9  C   UNL A   1      34.056  21.963  24.448  1.00  0.00     0.111 A 
ATOM     10  C   UNL A   1      33.280  22.368  25.539  1.00  0.00     0.140 A 
ATOM     11  N   UNL A   1      32.145  21.600  25.426  1.00  0.00    -0.262 N 
ATOM     12  C   UNL A   1      33.393  20.838  23.921  1.00  0.00     0.151 A 
ATOM     13  N   UNL A   1      32.264  20.568  24.568  1.00  0.00    -0.180 NA
ATOM     14  C   UNL A   1      30.824  21.869  25.938  1.00  0.00     0.174 C 
BRANCH  10  15
ATOM     15  C   UNL A   1      33.513  23.495  26.409  1.00  0.00     0.270 C 
ATOM     16  N   UNL A   1      32.866  24.695  26.249  1.00  0.00    -0.348 N 
ATOM     17  H   UNL A   1      33.175  25.382  26.882  1.00  0.00     0.164 HD
ATOM     18  O   UNL A   1      34.305  23.429  27.350  1.00  0.00    -0.267 OA
BRANCH  16  19
ATOM     19  C   UNL A   1      31.815  25.185  25.344  1.00  0.00     0.085 C 
ATOM     20  C   UNL A   1      30.474  25.158  26.083  1.00  0.00     0.031 C 
BRANCH  19  21
ATOM     21  C   UNL A   1      32.187  26.589  24.685  1.00  0.00    -0.009 C 
ATOM     22  C   UNL A   1      33.679  26.985  24.919  1.00  0.00     0.012 C 
ATOM     23  C   UNL A   1      31.316  27.781  25.187  1.00  0.00     0.012 C 
ATOM     24  C   UNL A   1      31.972  26.495  23.142  1.00  0.00     0.012 C 
ATOM     25  C   UNL A   1      34.046  28.297  24.203  1.00  0.00    -0.010 C 
ATOM     26  C   UNL A   1      31.682  29.099  24.473  1.00  0.00    -0.010 C 
ATOM     27  C   UNL A   1      32.342  27.803  22.425  1.00  0.00    -0.010 C 
ATOM     28  C   UNL A   1      33.818  28.129  22.695  1.00  0.00     0.007 C 
ATOM     29  C   UNL A   1      33.157  29.430  24.734  1.00  0.00     0.007 C 
ATOM     30  C   UNL A   1      31.461  28.940  22.960  1.00  0.00     0.007 C 
ENDBRANCH  19  21
ENDBRANCH  16  19
ENDBRANCH  10  15
ENDBRANCH   7   9
ENDBRANCH   6   7
ENDBRANCH   5   6
ENDBRANCH   4   5
ENDBRANCH   3   4
ENDBRANCH   2   3
ENDBRANCH   1   2
BRANCH   1  31
ATOM     31  O   UNL A   1      42.015  21.584  27.756  1.00  0.00    -0.377 OA
BRANCH  31  32
ATOM     32  C   UNL A   1      42.734  22.136  26.659  1.00  0.00     0.188 C 
BRANCH  32  33
ATOM     33  C   UNL A   1      43.099  21.304  25.413  1.00  0.00     0.188 C 
BRANCH  33  34
ATOM     34  O   UNL A   1      43.787  22.027  24.398  1.00  0.00    -0.376 OA
BRANCH  34  35
ATOM     35  C   UNL A   1      45.196  21.847  24.344  1.00  0.00     0.202 C 
BRANCH  35  36
ATOM     36  C   UNL A   1      45.972  23.143  24.599  1.00  0.00     0.261 C 
BRANCH  36  37
ATOM     37  O   UNL A   1      45.153  24.323  24.646  1.00  0.00    -0.460 OA
BRANCH  37  38
ATOM     38  C   UNL A   1      45.776  25.481  24.951  1.00  0.00     0.338 C 
ATOM     39  O   UNL A   1      46.822  25.906  24.494  1.00  0.00    -0.246 OA
BRANCH  38  40
ATOM     40  C   UNL A   1      44.890  26.252  25.838  1.00  0.00     0.060 A 
ATOM     41  C   UNL A   1      45.004  27.648  25.856  1.00  0.00     0.016 A 
ATOM     42  C   UNL A   1      43.968  25.598  26.660  1.00  0.00     0.016 A 
ATOM     43  C   UNL A   1      44.221  28.393  26.736  1.00  0.00     0.010 A 
ATOM     44  C   UNL A   1      43.198  26.344  27.550  1.00  0.00     0.010 A 
ATOM     45  C   UNL A   1      43.348  27.739  27.617  1.00  0.00    -0.014 A 
BRANCH  45  46
ATOM     46  C   UNL A   1      42.743  28.481  28.745  1.00  0.00     0.031 A 
ATOM     47  C   UNL A   1      43.540  28.625  30.009  1.00  0.00     0.074 A 
ATOM     48  C   UNL A   1      41.508  29.002  28.654  1.00  0.00     0.049 A 
ATOM     49  N   UNL A   1      43.213  29.198  31.139  1.00  0.00    -0.248 NA
ATOM     50  C   UNL A   1      44.891  28.040  29.999  1.00  0.00     0.031 C 
ATOM     51  C   UNL A   1      40.650  28.947  27.473  1.00  0.00     0.029 A 
ATOM     52  N   UNL A   1      40.760  29.675  29.586  1.00  0.00    -0.354 N 
ATOM     53  C   UNL A   1      44.312  29.039  31.972  1.00  0.00     0.074 A 
ATOM     54  C   UNL A   1      45.306  28.294  31.230  1.00  0.00     0.031 C 
ATOM     55  C   UNL A   1      39.486  29.558  27.754  1.00  0.00     0.029 A 
ATOM     56  C   UNL A   1      39.511  30.024  29.140  1.00  0.00     0.049 A 
ATOM     57  H   UNL A   1      41.090  29.888  30.490  1.00  0.00     0.167 HD
ATOM     58  C   UNL A   1      44.480  29.479  33.240  1.00  0.00     0.037 A 
ATOM     59  C   UNL A   1      38.503  30.637  29.789  1.00  0.00     0.037 A 
ATOM     60  C   UNL A   1      43.492  30.215  33.979  1.00  0.00     0.049 A 
ATOM     61  C   UNL A   1      38.688  31.053  31.225  1.00  0.00     0.074 A 
ATOM     62  C   UNL A   1      43.581  30.742  35.255  1.00  0.00     0.029 A 
ATOM     63  N   UNL A   1      42.222  30.516  33.507  1.00  0.00    -0.354 N 
ATOM     64  N   UNL A   1      39.747  30.944  31.990  1.00  0.00    -0.248 NA
ATOM     65  C   UNL A   1      37.532  31.672  31.889  1.00  0.00     0.031 C 
ATOM     66  C   UNL A   1      42.348  31.321  35.573  1.00  0.00     0.029 A 
ATOM     67  C   UNL A   1      41.506  31.192  34.480  1.00  0.00     0.049 A 
ATOM     68  H   UNL A   1      41.881  30.282  32.614  1.00  0.00     0.167 HD
ATOM     69  C   UNL A   1      39.398  31.509  33.211  1.00  0.00     0.074 A 
ATOM     70  C   UNL A   1      38.028  31.962  33.085  1.00  0.00     0.031 C 
ATOM     71  C   UNL A   1      40.146  31.643  34.333  1.00  0.00     0.037 A 
BRANCH  58  72
ATOM     72  C   UNL A   1      45.776  29.147  33.913  1.00  0.00     0.064 A 
ATOM     73  C   UNL A   1      45.934  27.976  34.670  1.00  0.00     0.173 A 
ATOM     74  C   UNL A   1      46.876  30.009  33.796  1.00  0.00     0.173 A 
ATOM     75  F   UNL A   1      44.905  27.130  34.827  1.00  0.00    -0.203 F 
ATOM     76  C   UNL A   1      47.140  27.693  35.306  1.00  0.00     0.198 A 
ATOM     77  C   UNL A   1      48.088  29.710  34.414  1.00  0.00     0.198 A 
ATOM     78  F   UNL A   1      46.774  31.142  33.085  1.00  0.00    -0.203 F 
ATOM     79  F   UNL A   1      47.254  26.593  36.063  1.00  0.00    -0.200 F 
ATOM     80  C   UNL A   1      48.216  28.558  35.174  1.00  0.00     0.200 A 
ATOM     81  F   UNL A   1      49.128  30.545  34.281  1.00  0.00    -0.200 F 
ATOM     82  F   UNL A   1      49.375  28.286  35.789  1.00  0.00    -0.200 F 
ENDBRANCH  58  72
BRANCH  59  83
ATOM     83  C   UNL A   1      37.223  30.907  29.085  1.00  0.00     0.064 A 
ATOM     84  C   UNL A   1      36.308  29.875  28.840  1.00  0.00     0.173 A 
ATOM     85  C   UNL A   1      36.901  32.192  28.625  1.00  0.00     0.173 A 
ATOM     86  F   UNL A   1      36.587  28.624  29.235  1.00  0.00    -0.203 F 
ATOM     87  C   UNL A   1      35.121  30.115  28.151  1.00  0.00     0.198 A 
ATOM     88  C   UNL A   1      35.703  32.435  27.956  1.00  0.00     0.198 A 
ATOM     89  F   UNL A   1      37.749  33.210  28.828  1.00  0.00    -0.203 F 
ATOM     90  F   UNL A   1      34.281  29.103  27.894  1.00  0.00    -0.200 F 
ATOM     91  C   UNL A   1      34.817  31.396  27.714  1.00  0.00     0.200 A 
ATOM     92  F   UNL A   1      35.413  33.675  27.536  1.00  0.00    -0.200 F 
ATOM     93  F   UNL A   1      33.677  31.626  27.050  1.00  0.00    -0.200 F 
ENDBRANCH  59  83
BRANCH  71  94
ATOM     94  C   UNL A   1      39.515  32.338  35.504  1.00  0.00     0.064 A 
ATOM     95  C   UNL A   1      38.686  31.654  36.404  1.00  0.00     0.173 A 
ATOM     96  C   UNL A   1      39.786  33.692  35.755  1.00  0.00     0.173 A 
ATOM     97  F   UNL A   1      38.387  30.363  36.198  1.00  0.00    -0.203 F 
ATOM     98  C   UNL A   1      38.136  32.305  37.505  1.00  0.00     0.198 A 
ATOM     99  C   UNL A   1      39.254  34.333  36.870  1.00  0.00     0.198 A 
ATOM    100  F   UNL A   1      40.579  34.387  34.926  1.00  0.00    -0.203 F 
ATOM    101  F   UNL A   1      37.316  31.643  38.333  1.00  0.00    -0.200 F 
ATOM    102  C   UNL A   1      38.426  33.642  37.741  1.00  0.00     0.200 A 
ATOM    103  F   UNL A   1      39.546  35.621  37.103  1.00  0.00    -0.200 F 
ATOM    104  F   UNL A   1      37.902  34.264  38.806  1.00  0.00    -0.200 F 
ENDBRANCH  71  94
ENDBRANCH  45  46
ENDBRANCH  38  40
ENDBRANCH  37  38
ENDBRANCH  36  37
ENDBRANCH  35  36
ENDBRANCH  34  35
ENDBRANCH  33  34
ENDBRANCH  32  33
ENDBRANCH  31  32
ENDBRANCH   1  31
TORSDOF 23
ENDMDL
MODEL 3
REMARK VINA RESULT:      -9.6      5.303     11.053
REMARK SMILES C[C@H](NC(=O)c1c(C(=O)OCCOCCOCCOCCOC(=O)c2ccc(-c3c4nc(c(-c5c(F)c(F)c(F)c(F)c5F)c5ccc([nH]5)c(-c5c(F)c(F)c(F)c(F)c5F)c5nc(c(-c6c(F)c(F)c(F)c(F)c6F)c6ccc3[nH]6)C=C5)C=C4)cc2)cnn1C)[C@]12C[C@H]3C[C@H](C[C@H](C3)C1)C2
REMARK SMILES IDX 15 1 14 2 13 3 12 4 11 5 10 6 8 7 9 8 7 9 6 10 90 11 88 12
REMARK SMILES IDX 89 13 91 14 4 15 3 16 5 18 2 19 1 20 92 21 93 22 100 23
REMARK SMILES IDX 101 24 94 25 98 26 96 27 95 28 99 29 97 30 16 31 17 32 18 33
REMARK SMILES IDX 19 34 20 35 21 36 22 37 23 38 24 39 25 40 26 41 87 42 27 43
REMARK SMILES IDX 86 44 28 45 29 46 30 47 80 48 31 49 85 50 79 51 81 52 32 53
REMARK SMILES IDX 84 54 78 55 77 56 33 58 65 59 45 60 64 61 46 62 49 63 63 64
REMARK SMILES IDX 82 65 47 66 48 67 62 69 83 70 50 71 34 72 35 73 43 74 36 75
REMARK SMILES IDX 37 76 41 77 44 78 38 79 39 80 42 81 40 82 66 83 67 84 75 85
REMARK SMILES IDX 68 86 69 87 73 88 76 89 70 90 71 91 74 92 72 93 51 94 52 95
REMARK SMILES IDX 60 96 53 97 54 98 58 99 61 100 55 101 56 102 59 103 57 104
REMARK H PARENT 3 17 81 57 49 68
REMARK Flexibility Score: inf
ROOT
ATOM      1  C   UNL A   1      33.608  33.830  27.789  1.00  0.00     0.188 C 
ENDROOT
BRANCH   1   2
ATOM      2  C   UNL A   1      33.525  32.313  28.010  1.00  0.00     0.188 C 
BRANCH   2   3
ATOM      3  O   UNL A   1      34.659  31.591  27.529  1.00  0.00    -0.376 OA
BRANCH   3   4
ATOM      4  C   UNL A   1      34.746  30.234  27.951  1.00  0.00     0.202 C 
BRANCH   4   5
ATOM      5  C   UNL A   1      34.796  29.227  26.793  1.00  0.00     0.261 C 
BRANCH   5   6
ATOM      6  O   UNL A   1      33.534  28.609  26.501  1.00  0.00    -0.460 OA
BRANCH   6   7
ATOM      7  C   UNL A   1      33.578  27.354  25.992  1.00  0.00     0.342 C 
ATOM      8  O   UNL A   1      34.509  26.574  26.158  1.00  0.00    -0.246 OA
BRANCH   7   9
ATOM      9  C   UNL A   1      32.332  26.953  25.373  1.00  0.00     0.111 A 
ATOM     10  C   UNL A   1      32.087  26.473  24.083  1.00  0.00     0.140 A 
ATOM     11  N   UNL A   1      30.766  26.091  24.129  1.00  0.00    -0.262 N 
ATOM     12  C   UNL A   1      31.069  27.008  25.993  1.00  0.00     0.151 A 
ATOM     13  N   UNL A   1      30.100  26.554  25.205  1.00  0.00    -0.180 NA
ATOM     14  C   UNL A   1      30.081  25.123  23.309  1.00  0.00     0.174 C 
BRANCH  10  15
ATOM     15  C   UNL A   1      33.055  26.209  23.047  1.00  0.00     0.270 C 
ATOM     16  N   UNL A   1      33.435  24.937  22.699  1.00  0.00    -0.348 N 
ATOM     17  H   UNL A   1      34.146  24.923  22.019  1.00  0.00     0.164 HD
ATOM     18  O   UNL A   1      33.586  27.123  22.414  1.00  0.00    -0.267 OA
BRANCH  16  19
ATOM     19  C   UNL A   1      33.018  23.589  23.115  1.00  0.00     0.085 C 
ATOM     20  C   UNL A   1      32.849  22.717  21.868  1.00  0.00     0.031 C 
BRANCH  19  21
ATOM     21  C   UNL A   1      33.974  22.975  24.235  1.00  0.00    -0.009 C 
ATOM     22  C   UNL A   1      33.680  23.551  25.656  1.00  0.00     0.012 C 
ATOM     23  C   UNL A   1      35.495  23.189  23.964  1.00  0.00     0.012 C 
ATOM     24  C   UNL A   1      33.744  21.434  24.307  1.00  0.00     0.012 C 
ATOM     25  C   UNL A   1      34.548  22.887  26.738  1.00  0.00    -0.010 C 
ATOM     26  C   UNL A   1      36.369  22.525  25.047  1.00  0.00    -0.010 C 
ATOM     27  C   UNL A   1      34.607  20.768  25.390  1.00  0.00    -0.010 C 
ATOM     28  C   UNL A   1      34.265  21.379  26.757  1.00  0.00     0.007 C 
ATOM     29  C   UNL A   1      36.030  23.127  26.418  1.00  0.00     0.007 C 
ATOM     30  C   UNL A   1      36.089  21.014  25.076  1.00  0.00     0.007 C 
ENDBRANCH  19  21
ENDBRANCH  16  19
ENDBRANCH  10  15
ENDBRANCH   7   9
ENDBRANCH   6   7
ENDBRANCH   5   6
ENDBRANCH   4   5
ENDBRANCH   3   4
ENDBRANCH   2   3
ENDBRANCH   1   2
BRANCH   1  31
ATOM     31  O   UNL A   1      32.671  34.620  28.498  1.00  0.00    -0.377 OA
BRANCH  31  32
ATOM     32  C   UNL A   1      33.113  35.794  29.170  1.00  0.00     0.188 C 
BRANCH  32  33
ATOM     33  C   UNL A   1      32.937  35.987  30.689  1.00  0.00     0.188 C 
BRANCH  33  34
ATOM     34  O   UNL A   1      33.258  34.842  31.473  1.00  0.00    -0.376 OA
BRANCH  34  35
ATOM     35  C   UNL A   1      34.573  34.324  31.317  1.00  0.00     0.202 C 
BRANCH  35  36
ATOM     36  C   UNL A   1      35.105  33.661  32.592  1.00  0.00     0.261 C 
BRANCH  36  37
ATOM     37  O   UNL A   1      36.515  33.383  32.569  1.00  0.00    -0.460 OA
BRANCH  37  38
ATOM     38  C   UNL A   1      36.878  32.088  32.691  1.00  0.00     0.338 C 
ATOM     39  O   UNL A   1      36.216  31.167  33.134  1.00  0.00    -0.246 OA
BRANCH  38  40
ATOM     40  C   UNL A   1      38.190  31.924  32.043  1.00  0.00     0.060 A 
ATOM     41  C   UNL A   1      38.325  32.280  30.697  1.00  0.00     0.016 A 
ATOM     42  C   UNL A   1      39.271  31.401  32.758  1.00  0.00     0.016 A 
ATOM     43  C   UNL A   1      39.540  32.071  30.045  1.00  0.00     0.010 A 
ATOM     44  C   UNL A   1      40.480  31.178  32.102  1.00  0.00     0.010 A 
ATOM     45  C   UNL A   1      40.607  31.478  30.735  1.00  0.00    -0.014 A 
BRANCH  45  46
ATOM     46  C   UNL A   1      41.785  30.981  29.989  1.00  0.00     0.031 A 
ATOM     47  C   UNL A   1      41.719  29.603  29.394  1.00  0.00     0.074 A 
ATOM     48  C   UNL A   1      42.891  31.730  29.855  1.00  0.00     0.049 A 
ATOM     49  N   UNL A   1      42.630  28.939  28.731  1.00  0.00    -0.248 NA
ATOM     50  C   UNL A   1      40.453  28.874  29.576  1.00  0.00     0.031 C 
ATOM     51  C   UNL A   1      43.063  33.087  30.367  1.00  0.00     0.029 A 
ATOM     52  N   UNL A   1      44.088  31.441  29.251  1.00  0.00    -0.354 N 
ATOM     53  C   UNL A   1      42.050  27.716  28.421  1.00  0.00     0.074 A 
ATOM     54  C   UNL A   1      40.720  27.718  28.989  1.00  0.00     0.031 C 
ATOM     55  C   UNL A   1      44.300  33.513  30.058  1.00  0.00     0.029 A 
ATOM     56  C   UNL A   1      45.012  32.450  29.351  1.00  0.00     0.049 A 
ATOM     57  H   UNL A   1      44.266  30.589  28.789  1.00  0.00     0.167 HD
ATOM     58  C   UNL A   1      42.578  26.686  27.721  1.00  0.00     0.037 A 
ATOM     59  C   UNL A   1      46.289  32.496  28.928  1.00  0.00     0.037 A 
ATOM     60  C   UNL A   1      43.900  26.683  27.159  1.00  0.00     0.049 A 
ATOM     61  C   UNL A   1      46.878  31.306  28.213  1.00  0.00     0.074 A 
ATOM     62  C   UNL A   1      44.514  25.704  26.397  1.00  0.00     0.029 A 
ATOM     63  N   UNL A   1      44.822  27.708  27.315  1.00  0.00    -0.354 N 
ATOM     64  N   UNL A   1      46.309  30.174  27.879  1.00  0.00    -0.248 NA
ATOM     65  C   UNL A   1      48.292  31.403  27.822  1.00  0.00     0.031 C 
ATOM     66  C   UNL A   1      45.824  26.118  26.131  1.00  0.00     0.029 A 
ATOM     67  C   UNL A   1      46.012  27.372  26.691  1.00  0.00     0.049 A 
ATOM     68  H   UNL A   1      44.655  28.549  27.798  1.00  0.00     0.167 HD
ATOM     69  C   UNL A   1      47.280  29.438  27.213  1.00  0.00     0.074 A 
ATOM     70  C   UNL A   1      48.477  30.254  27.187  1.00  0.00     0.031 C 
ATOM     71  C   UNL A   1      47.189  28.200  26.668  1.00  0.00     0.037 A 
BRANCH  58  72
ATOM     72  C   UNL A   1      41.724  25.467  27.549  1.00  0.00     0.064 A 
ATOM     73  C   UNL A   1      41.957  24.297  28.287  1.00  0.00     0.173 A 
ATOM     74  C   UNL A   1      40.658  25.472  26.639  1.00  0.00     0.173 A 
ATOM     75  F   UNL A   1      42.978  24.237  29.155  1.00  0.00    -0.203 F 
ATOM     76  C   UNL A   1      41.167  23.166  28.100  1.00  0.00     0.198 A 
ATOM     77  C   UNL A   1      39.854  24.347  26.473  1.00  0.00     0.198 A 
ATOM     78  F   UNL A   1      40.396  26.567  25.909  1.00  0.00    -0.203 F 
ATOM     79  F   UNL A   1      41.436  22.043  28.780  1.00  0.00    -0.200 F 
ATOM     80  C   UNL A   1      40.114  23.193  27.197  1.00  0.00     0.200 A 
ATOM     81  F   UNL A   1      38.835  24.377  25.604  1.00  0.00    -0.200 F 
ATOM     82  F   UNL A   1      39.356  22.103  27.016  1.00  0.00    -0.200 F 
ENDBRANCH  58  72
BRANCH  59  83
ATOM     83  C   UNL A   1      47.104  33.716  29.159  1.00  0.00     0.064 A 
ATOM     84  C   UNL A   1      47.157  34.735  28.198  1.00  0.00     0.173 A 
ATOM     85  C   UNL A   1      47.859  33.878  30.329  1.00  0.00     0.173 A 
ATOM     86  F   UNL A   1      46.474  34.609  27.051  1.00  0.00    -0.203 F 
ATOM     87  C   UNL A   1      47.945  35.866  28.394  1.00  0.00     0.198 A 
ATOM     88  C   UNL A   1      48.630  35.020  30.533  1.00  0.00     0.198 A 
ATOM     89  F   UNL A   1      47.848  32.926  31.273  1.00  0.00    -0.203 F 
ATOM     90  F   UNL A   1      48.011  36.808  27.442  1.00  0.00    -0.200 F 
ATOM     91  C   UNL A   1      48.677  36.011  29.564  1.00  0.00     0.200 A 
ATOM     92  F   UNL A   1      49.335  35.157  31.665  1.00  0.00    -0.200 F 
ATOM     93  F   UNL A   1      49.436  37.098  29.750  1.00  0.00    -0.200 F 
ENDBRANCH  59  83
BRANCH  71  94
ATOM     94  C   UNL A   1      48.401  27.664  25.966  1.00  0.00     0.064 A 
ATOM     95  C   UNL A   1      48.500  27.664  24.567  1.00  0.00     0.173 A 
ATOM     96  C   UNL A   1      49.497  27.191  26.704  1.00  0.00     0.173 A 
ATOM     97  F   UNL A   1      47.473  28.093  23.818  1.00  0.00    -0.203 F 
ATOM     98  C   UNL A   1      49.646  27.194  23.932  1.00  0.00     0.198 A 
ATOM     99  C   UNL A   1      50.651  26.746  26.066  1.00  0.00     0.198 A 
ATOM    100  F   UNL A   1      49.453  27.177  28.045  1.00  0.00    -0.203 F 
ATOM    101  F   UNL A   1      49.706  27.169  22.593  1.00  0.00    -0.200 F 
ATOM    102  C   UNL A   1      50.723  26.742  24.681  1.00  0.00     0.200 A 
ATOM    103  F   UNL A   1      51.695  26.320  26.792  1.00  0.00    -0.200 F 
ATOM    104  F   UNL A   1      51.829  26.298  24.067  1.00  0.00    -0.200 F 
ENDBRANCH  71  94
ENDBRANCH  45  46
ENDBRANCH  38  40
ENDBRANCH  37  38
ENDBRANCH  36  37
ENDBRANCH  35  36
ENDBRANCH  34  35
ENDBRANCH  33  34
ENDBRANCH  32  33
ENDBRANCH  31  32
ENDBRANCH   1  31
TORSDOF 23
ENDMDL
