MODEL 1
REMARK VINA RESULT:      -9.6      0.000      0.000
REMARK SMILES CCc1nsc(NC[C@H](CC(C)C)C(=O)OCCOCCOCCOCCOC(=O)c2ccc(-c3c4nc(c(-c5c(F)c(F)c(F)c(F)c5F)c5ccc([nH]5)c(-c5c(F)c(F)c(F)c(F)c5F)c5nc(c(-c6c(F)c(F)c(F)c(F)c6F)c6ccc3[nH]6)C=C5)C=C4)cc2)n1
REMARK SMILES IDX 21 1 20 2 19 3 18 4 17 5 16 6 14 7 15 8 9 9 8 10 7 11 6 13
REMARK SMILES IDX 3 14 4 15 94 16 5 17 2 18 1 19 10 20 11 21 12 22 13 23 22 24
REMARK SMILES IDX 23 25 24 26 25 27 26 28 27 29 28 30 29 31 30 32 31 33 32 34
REMARK SMILES IDX 93 35 33 36 92 37 34 38 35 39 36 40 86 41 37 42 91 43 85 44
REMARK SMILES IDX 87 45 38 46 90 47 84 48 83 49 39 51 71 52 51 53 70 54 52 55
REMARK SMILES IDX 55 56 69 57 88 58 53 59 54 60 68 62 89 63 56 64 40 65 41 66
REMARK SMILES IDX 49 67 42 68 43 69 47 70 50 71 44 72 45 73 48 74 46 75 72 76
REMARK SMILES IDX 73 77 81 78 74 79 75 80 79 81 82 82 76 83 77 84 80 85 78 86
REMARK SMILES IDX 57 87 58 88 66 89 59 90 60 91 64 92 67 93 61 94 62 95 65 96
REMARK SMILES IDX 63 97
REMARK H PARENT 7 12 87 50 55 61
REMARK Flexibility Score: inf
ROOT
ATOM      1  C   UNL A   1      30.940  28.901  23.601  1.00  0.00     0.188 C 
ENDROOT
BRANCH   1   2
ATOM      2  C   UNL A   1      30.624  28.026  22.383  1.00  0.00     0.188 C 
BRANCH   2   3
ATOM      3  O   UNL A   1      30.947  26.647  22.345  1.00  0.00    -0.376 OA
BRANCH   3   4
ATOM      4  C   UNL A   1      32.082  26.137  21.666  1.00  0.00     0.202 C 
BRANCH   4   5
ATOM      5  C   UNL A   1      33.500  26.097  22.268  1.00  0.00     0.261 C 
BRANCH   5   6
ATOM      6  O   UNL A   1      34.140  24.821  22.449  1.00  0.00    -0.463 OA
BRANCH   6   7
ATOM      7  C   UNL A   1      33.603  24.049  23.418  1.00  0.00     0.310 C 
ATOM      8  O   UNL A   1      33.017  22.994  23.187  1.00  0.00    -0.252 OA
BRANCH   7   9
ATOM      9  C   UNL A   1      33.716  24.599  24.836  1.00  0.00     0.118 C 
BRANCH   9  10
ATOM     10  C   UNL A   1      34.534  23.688  25.761  1.00  0.00     0.130 C 
BRANCH  10  11
ATOM     11  N   UNL A   1      33.878  22.458  26.122  1.00  0.00    -0.359 N 
ATOM     12  H   UNL A   1      33.184  22.507  26.819  1.00  0.00     0.162 HD
BRANCH  11  13
ATOM     13  C   UNL A   1      34.131  21.248  25.588  1.00  0.00     0.202 A 
ATOM     14  C   UNL A   1      33.707  19.204  24.885  1.00  0.00     0.144 A 
ATOM     15  N   UNL A   1      35.016  19.137  24.630  1.00  0.00    -0.174 NA
ATOM     16  N   UNL A   1      33.175  20.363  25.430  1.00  0.00    -0.204 NA
ATOM     17  S   UNL A   1      35.651  20.617  25.063  1.00  0.00     0.004 S 
BRANCH  14  18
ATOM     18  C   UNL A   1      32.833  18.027  24.618  1.00  0.00     0.075 C 
ATOM     19  C   UNL A   1      33.117  17.343  23.289  1.00  0.00     0.012 C 
ENDBRANCH  14  18
ENDBRANCH  11  13
ENDBRANCH  10  11
ENDBRANCH   9  10
BRANCH   9  20
ATOM     20  C   UNL A   1      32.531  25.263  25.585  1.00  0.00     0.020 C 
BRANCH  20  21
ATOM     21  C   UNL A   1      31.076  24.826  25.329  1.00  0.00    -0.017 C 
ATOM     22  C   UNL A   1      30.706  23.550  26.082  1.00  0.00     0.007 C 
ATOM     23  C   UNL A   1      30.129  25.957  25.768  1.00  0.00     0.007 C 
ENDBRANCH  20  21
ENDBRANCH   9  20
ENDBRANCH   7   9
ENDBRANCH   6   7
ENDBRANCH   5   6
ENDBRANCH   4   5
ENDBRANCH   3   4
ENDBRANCH   2   3
ENDBRANCH   1   2
BRANCH   1  24
ATOM     24  O   UNL A   1      32.302  29.230  23.777  1.00  0.00    -0.377 OA
BRANCH  24  25
ATOM     25  C   UNL A   1      32.768  29.363  25.112  1.00  0.00     0.188 C 
BRANCH  25  26
ATOM     26  C   UNL A   1      31.797  29.947  26.157  1.00  0.00     0.188 C 
BRANCH  26  27
ATOM     27  O   UNL A   1      31.216  31.186  25.775  1.00  0.00    -0.376 OA
BRANCH  27  28
ATOM     28  C   UNL A   1      31.363  32.302  26.643  1.00  0.00     0.202 C 
BRANCH  28  29
ATOM     29  C   UNL A   1      32.716  32.465  27.357  1.00  0.00     0.261 C 
BRANCH  29  30
ATOM     30  O   UNL A   1      33.180  33.814  27.537  1.00  0.00    -0.460 OA
BRANCH  30  31
ATOM     31  C   UNL A   1      33.701  34.145  28.735  1.00  0.00     0.338 C 
ATOM     32  O   UNL A   1      33.204  34.867  29.584  1.00  0.00    -0.246 OA
BRANCH  31  33
ATOM     33  C   UNL A   1      34.900  33.312  28.960  1.00  0.00     0.060 A 
ATOM     34  C   UNL A   1      34.726  31.992  29.394  1.00  0.00     0.016 A 
ATOM     35  C   UNL A   1      36.182  33.833  28.770  1.00  0.00     0.016 A 
ATOM     36  C   UNL A   1      35.834  31.204  29.693  1.00  0.00     0.010 A 
ATOM     37  C   UNL A   1      37.293  33.050  29.094  1.00  0.00     0.010 A 
ATOM     38  C   UNL A   1      37.121  31.749  29.601  1.00  0.00    -0.014 A 
BRANCH  38  39
ATOM     39  C   UNL A   1      38.247  31.044  30.257  1.00  0.00     0.031 A 
ATOM     40  C   UNL A   1      38.530  31.349  31.703  1.00  0.00     0.074 A 
ATOM     41  C   UNL A   1      38.965  30.111  29.607  1.00  0.00     0.049 A 
ATOM     42  N   UNL A   1      39.462  30.876  32.490  1.00  0.00    -0.248 NA
ATOM     43  C   UNL A   1      37.635  32.324  32.350  1.00  0.00     0.031 C 
ATOM     44  C   UNL A   1      38.751  29.690  28.225  1.00  0.00     0.029 A 
ATOM     45  N   UNL A   1      40.024  29.349  30.033  1.00  0.00    -0.354 N 
ATOM     46  C   UNL A   1      39.271  31.499  33.716  1.00  0.00     0.074 A 
ATOM     47  C   UNL A   1      38.157  32.409  33.563  1.00  0.00     0.031 C 
ATOM     48  C   UNL A   1      39.659  28.749  27.912  1.00  0.00     0.029 A 
ATOM     49  C   UNL A   1      40.537  28.528  29.060  1.00  0.00     0.049 A 
ATOM     50  H   UNL A   1      40.382  29.388  30.951  1.00  0.00     0.167 HD
ATOM     51  C   UNL A   1      39.955  31.321  34.871  1.00  0.00     0.037 A 
ATOM     52  C   UNL A   1      41.608  27.711  29.093  1.00  0.00     0.037 A 
ATOM     53  C   UNL A   1      41.063  30.415  35.019  1.00  0.00     0.049 A 
ATOM     54  C   UNL A   1      42.403  27.588  30.369  1.00  0.00     0.074 A 
ATOM     55  C   UNL A   1      41.819  30.152  36.147  1.00  0.00     0.029 A 
ATOM     56  N   UNL A   1      41.580  29.628  33.999  1.00  0.00    -0.354 N 
ATOM     57  N   UNL A   1      42.207  28.166  31.531  1.00  0.00    -0.248 NA
ATOM     58  C   UNL A   1      43.567  26.691  30.340  1.00  0.00     0.031 C 
ATOM     59  C   UNL A   1      42.833  29.257  35.794  1.00  0.00     0.029 A 
ATOM     60  C   UNL A   1      42.664  28.902  34.466  1.00  0.00     0.049 A 
ATOM     61  H   UNL A   1      41.229  29.591  33.080  1.00  0.00     0.167 HD
ATOM     62  C   UNL A   1      43.195  27.675  32.376  1.00  0.00     0.074 A 
ATOM     63  C   UNL A   1      43.980  26.741  31.598  1.00  0.00     0.031 C 
ATOM     64  C   UNL A   1      43.431  27.968  33.680  1.00  0.00     0.037 A 
BRANCH  51  65
ATOM     65  C   UNL A   1      39.548  32.150  36.055  1.00  0.00     0.064 A 
ATOM     66  C   UNL A   1      40.167  33.373  36.355  1.00  0.00     0.173 A 
ATOM     67  C   UNL A   1      38.500  31.725  36.888  1.00  0.00     0.173 A 
ATOM     68  F   UNL A   1      41.185  33.818  35.603  1.00  0.00    -0.203 F 
ATOM     69  C   UNL A   1      39.772  34.124  37.460  1.00  0.00     0.198 A 
ATOM     70  C   UNL A   1      38.086  32.495  37.970  1.00  0.00     0.198 A 
ATOM     71  F   UNL A   1      37.874  30.565  36.647  1.00  0.00    -0.203 F 
ATOM     72  F   UNL A   1      40.416  35.262  37.759  1.00  0.00    -0.200 F 
ATOM     73  C   UNL A   1      38.727  33.689  38.261  1.00  0.00     0.200 A 
ATOM     74  F   UNL A   1      37.067  32.079  38.735  1.00  0.00    -0.200 F 
ATOM     75  F   UNL A   1      38.343  34.418  39.318  1.00  0.00    -0.200 F 
ENDBRANCH  51  65
BRANCH  52  76
ATOM     76  C   UNL A   1      42.006  26.952  27.877  1.00  0.00     0.064 A 
ATOM     77  C   UNL A   1      41.520  25.660  27.632  1.00  0.00     0.173 A 
ATOM     78  C   UNL A   1      42.911  27.492  26.950  1.00  0.00     0.173 A 
ATOM     79  F   UNL A   1      40.674  25.087  28.500  1.00  0.00    -0.203 F 
ATOM     80  C   UNL A   1      41.944  24.928  26.524  1.00  0.00     0.198 A 
ATOM     81  C   UNL A   1      43.307  26.773  25.824  1.00  0.00     0.198 A 
ATOM     82  F   UNL A   1      43.410  28.723  27.137  1.00  0.00    -0.203 F 
ATOM     83  F   UNL A   1      41.508  23.673  26.347  1.00  0.00    -0.200 F 
ATOM     84  C   UNL A   1      42.832  25.487  25.618  1.00  0.00     0.200 A 
ATOM     85  F   UNL A   1      44.155  27.324  24.944  1.00  0.00    -0.200 F 
ATOM     86  F   UNL A   1      43.238  24.783  24.552  1.00  0.00    -0.200 F 
ENDBRANCH  52  76
BRANCH  64  87
ATOM     87  C   UNL A   1      44.550  27.231  34.364  1.00  0.00     0.064 A 
ATOM     88  C   UNL A   1      45.877  27.683  34.318  1.00  0.00     0.173 A 
ATOM     89  C   UNL A   1      44.282  26.067  35.101  1.00  0.00     0.173 A 
ATOM     90  F   UNL A   1      46.191  28.786  33.620  1.00  0.00    -0.203 F 
ATOM     91  C   UNL A   1      46.899  26.976  34.948  1.00  0.00     0.198 A 
ATOM     92  C   UNL A   1      45.300  25.383  35.762  1.00  0.00     0.198 A 
ATOM     93  F   UNL A   1      43.029  25.595  35.191  1.00  0.00    -0.203 F 
ATOM     94  F   UNL A   1      48.168  27.392  34.834  1.00  0.00    -0.200 F 
ATOM     95  C   UNL A   1      46.608  25.831  35.674  1.00  0.00     0.200 A 
ATOM     96  F   UNL A   1      45.013  24.289  36.481  1.00  0.00    -0.200 F 
ATOM     97  F   UNL A   1      47.591  25.154  36.283  1.00  0.00    -0.200 F 
ENDBRANCH  64  87
ENDBRANCH  38  39
ENDBRANCH  31  33
ENDBRANCH  30  31
ENDBRANCH  29  30
ENDBRANCH  28  29
ENDBRANCH  27  28
ENDBRANCH  26  27
ENDBRANCH  25  26
ENDBRANCH  24  25
ENDBRANCH   1  24
TORSDOF 26
ENDMDL
MODEL 2
REMARK VINA RESULT:      -9.4      1.842      7.594
REMARK SMILES CCc1nsc(NC[C@H](CC(C)C)C(=O)OCCOCCOCCOCCOC(=O)c2ccc(-c3c4nc(c(-c5c(F)c(F)c(F)c(F)c5F)c5ccc([nH]5)c(-c5c(F)c(F)c(F)c(F)c5F)c5nc(c(-c6c(F)c(F)c(F)c(F)c6F)c6ccc3[nH]6)C=C5)C=C4)cc2)n1
REMARK SMILES IDX 21 1 20 2 19 3 18 4 17 5 16 6 14 7 15 8 9 9 8 10 7 11 6 13
REMARK SMILES IDX 3 14 4 15 94 16 5 17 2 18 1 19 10 20 11 21 12 22 13 23 22 24
REMARK SMILES IDX 23 25 24 26 25 27 26 28 27 29 28 30 29 31 30 32 31 33 32 34
REMARK SMILES IDX 93 35 33 36 92 37 34 38 35 39 36 40 86 41 37 42 91 43 85 44
REMARK SMILES IDX 87 45 38 46 90 47 84 48 83 49 39 51 71 52 51 53 70 54 52 55
REMARK SMILES IDX 55 56 69 57 88 58 53 59 54 60 68 62 89 63 56 64 40 65 41 66
REMARK SMILES IDX 49 67 42 68 43 69 47 70 50 71 44 72 45 73 48 74 46 75 72 76
REMARK SMILES IDX 73 77 81 78 74 79 75 80 79 81 82 82 76 83 77 84 80 85 78 86
REMARK SMILES IDX 57 87 58 88 66 89 59 90 60 91 64 92 67 93 61 94 62 95 65 96
REMARK SMILES IDX 63 97
REMARK H PARENT 7 12 87 50 55 61
REMARK Flexibility Score: inf
ROOT
ATOM      1  C   UNL A   1      30.687  28.481  24.088  1.00  0.00     0.188 C 
ENDROOT
BRANCH   1   2
ATOM      2  C   UNL A   1      30.076  27.470  23.111  1.00  0.00     0.188 C 
BRANCH   2   3
ATOM      3  O   UNL A   1      30.728  26.257  22.780  1.00  0.00    -0.376 OA
BRANCH   3   4
ATOM      4  C   UNL A   1      31.843  26.191  21.908  1.00  0.00     0.202 C 
BRANCH   4   5
ATOM      5  C   UNL A   1      33.302  26.057  22.384  1.00  0.00     0.261 C 
BRANCH   5   6
ATOM      6  O   UNL A   1      33.969  24.791  22.224  1.00  0.00    -0.463 OA
BRANCH   6   7
ATOM      7  C   UNL A   1      33.612  23.845  23.117  1.00  0.00     0.310 C 
ATOM      8  O   UNL A   1      33.094  22.778  22.795  1.00  0.00    -0.252 OA
BRANCH   7   9
ATOM      9  C   UNL A   1      33.839  24.204  24.582  1.00  0.00     0.118 C 
BRANCH   9  10
ATOM     10  C   UNL A   1      35.319  24.442  24.911  1.00  0.00     0.130 C 
BRANCH  10  11
ATOM     11  N   UNL A   1      35.854  23.571  25.926  1.00  0.00    -0.359 N 
ATOM     12  H   UNL A   1      35.586  23.747  26.856  1.00  0.00     0.162 HD
BRANCH  11  13
ATOM     13  C   UNL A   1      36.689  22.536  25.710  1.00  0.00     0.202 A 
ATOM     14  C   UNL A   1      38.582  21.411  25.724  1.00  0.00     0.144 A 
ATOM     15  N   UNL A   1      37.897  20.462  25.082  1.00  0.00    -0.174 NA
ATOM     16  N   UNL A   1      37.946  22.590  26.083  1.00  0.00    -0.204 NA
ATOM     17  S   UNL A   1      36.340  21.037  24.927  1.00  0.00     0.004 S 
BRANCH  14  18
ATOM     18  C   UNL A   1      40.030  21.217  26.018  1.00  0.00     0.075 C 
ATOM     19  C   UNL A   1      40.702  22.441  26.622  1.00  0.00     0.012 C 
ENDBRANCH  14  18
ENDBRANCH  11  13
ENDBRANCH  10  11
ENDBRANCH   9  10
BRANCH   9  20
ATOM     20  C   UNL A   1      33.097  23.506  25.752  1.00  0.00     0.020 C 
BRANCH  20  21
ATOM     21  C   UNL A   1      32.020  24.243  26.570  1.00  0.00    -0.017 C 
ATOM     22  C   UNL A   1      31.873  25.707  26.163  1.00  0.00     0.007 C 
ATOM     23  C   UNL A   1      30.669  23.533  26.375  1.00  0.00     0.007 C 
ENDBRANCH  20  21
ENDBRANCH   9  20
ENDBRANCH   7   9
ENDBRANCH   6   7
ENDBRANCH   5   6
ENDBRANCH   4   5
ENDBRANCH   3   4
ENDBRANCH   2   3
ENDBRANCH   1   2
BRANCH   1  24
ATOM     24  O   UNL A   1      31.985  28.931  23.764  1.00  0.00    -0.377 OA
BRANCH  24  25
ATOM     25  C   UNL A   1      32.807  29.365  24.839  1.00  0.00     0.188 C 
BRANCH  25  26
ATOM     26  C   UNL A   1      32.109  29.923  26.095  1.00  0.00     0.188 C 
BRANCH  26  27
ATOM     27  O   UNL A   1      31.405  31.138  25.872  1.00  0.00    -0.376 OA
BRANCH  27  28
ATOM     28  C   UNL A   1      31.551  32.190  26.816  1.00  0.00     0.202 C 
BRANCH  28  29
ATOM     29  C   UNL A   1      32.931  32.362  27.473  1.00  0.00     0.261 C 
BRANCH  29  30
ATOM     30  O   UNL A   1      33.518  33.672  27.386  1.00  0.00    -0.460 OA
BRANCH  30  31
ATOM     31  C   UNL A   1      33.401  34.485  28.454  1.00  0.00     0.338 C 
ATOM     32  O   UNL A   1      32.467  35.223  28.724  1.00  0.00    -0.246 OA
BRANCH  31  33
ATOM     33  C   UNL A   1      34.511  34.186  29.381  1.00  0.00     0.060 A 
ATOM     34  C   UNL A   1      35.826  34.365  28.931  1.00  0.00     0.016 A 
ATOM     35  C   UNL A   1      34.261  33.711  30.671  1.00  0.00     0.016 A 
ATOM     36  C   UNL A   1      36.896  34.016  29.750  1.00  0.00     0.010 A 
ATOM     37  C   UNL A   1      35.336  33.339  31.483  1.00  0.00     0.010 A 
ATOM     38  C   UNL A   1      36.655  33.446  31.007  1.00  0.00    -0.014 A 
BRANCH  38  39
ATOM     39  C   UNL A   1      37.765  32.754  31.705  1.00  0.00     0.031 A 
ATOM     40  C   UNL A   1      38.404  31.574  31.024  1.00  0.00     0.074 A 
ATOM     41  C   UNL A   1      38.236  33.195  32.884  1.00  0.00     0.049 A 
ATOM     42  N   UNL A   1      39.376  30.800  31.434  1.00  0.00    -0.248 NA
ATOM     43  C   UNL A   1      37.873  31.221  29.697  1.00  0.00     0.031 C 
ATOM     44  C   UNL A   1      37.736  34.357  33.613  1.00  0.00     0.029 A 
ATOM     45  N   UNL A   1      39.246  32.708  33.674  1.00  0.00    -0.354 N 
ATOM     46  C   UNL A   1      39.565  29.867  30.422  1.00  0.00     0.074 A 
ATOM     47  C   UNL A   1      38.587  30.148  29.394  1.00  0.00     0.031 C 
ATOM     48  C   UNL A   1      38.438  34.490  34.753  1.00  0.00     0.029 A 
ATOM     49  C   UNL A   1      39.410  33.402  34.847  1.00  0.00     0.049 A 
ATOM     50  H   UNL A   1      39.802  31.933  33.424  1.00  0.00     0.167 HD
ATOM     51  C   UNL A   1      40.479  28.871  30.350  1.00  0.00     0.037 A 
ATOM     52  C   UNL A   1      40.237  33.168  35.884  1.00  0.00     0.037 A 
ATOM     53  C   UNL A   1      41.450  28.594  31.376  1.00  0.00     0.049 A 
ATOM     54  C   UNL A   1      41.194  32.003  35.815  1.00  0.00     0.074 A 
ATOM     55  C   UNL A   1      42.427  27.615  31.398  1.00  0.00     0.029 A 
ATOM     56  N   UNL A   1      41.559  29.295  32.568  1.00  0.00    -0.354 N 
ATOM     57  N   UNL A   1      41.381  31.136  34.849  1.00  0.00    -0.248 NA
ATOM     58  C   UNL A   1      42.062  31.791  36.982  1.00  0.00     0.031 C 
ATOM     59  C   UNL A   1      43.084  27.681  32.630  1.00  0.00     0.029 A 
ATOM     60  C   UNL A   1      42.569  28.750  33.346  1.00  0.00     0.049 A 
ATOM     61  H   UNL A   1      41.003  30.065  32.824  1.00  0.00     0.167 HD
ATOM     62  C   UNL A   1      42.409  30.302  35.274  1.00  0.00     0.074 A 
ATOM     63  C   UNL A   1      42.816  30.778  36.579  1.00  0.00     0.031 C 
ATOM     64  C   UNL A   1      42.968  29.241  34.641  1.00  0.00     0.037 A 
BRANCH  51  65
ATOM     65  C   UNL A   1      40.447  27.984  29.139  1.00  0.00     0.064 A 
ATOM     66  C   UNL A   1      39.645  26.835  29.079  1.00  0.00     0.173 A 
ATOM     67  C   UNL A   1      41.214  28.307  28.007  1.00  0.00     0.173 A 
ATOM     68  F   UNL A   1      38.906  26.470  30.137  1.00  0.00    -0.203 F 
ATOM     69  C   UNL A   1      39.633  26.027  27.944  1.00  0.00     0.198 A 
ATOM     70  C   UNL A   1      41.173  27.516  26.863  1.00  0.00     0.198 A 
ATOM     71  F   UNL A   1      41.999  29.394  28.010  1.00  0.00    -0.203 F 
ATOM     72  F   UNL A   1      38.900  24.904  27.930  1.00  0.00    -0.200 F 
ATOM     73  C   UNL A   1      40.390  26.373  26.834  1.00  0.00     0.200 A 
ATOM     74  F   UNL A   1      41.895  27.860  25.787  1.00  0.00    -0.200 F 
ATOM     75  F   UNL A   1      40.370  25.599  25.740  1.00  0.00    -0.200 F 
ENDBRANCH  51  65
BRANCH  52  76
ATOM     76  C   UNL A   1      40.193  34.041  37.088  1.00  0.00     0.064 A 
ATOM     77  C   UNL A   1      41.046  35.145  37.220  1.00  0.00     0.173 A 
ATOM     78  C   UNL A   1      39.316  33.767  38.150  1.00  0.00     0.173 A 
ATOM     79  F   UNL A   1      41.921  35.435  36.246  1.00  0.00    -0.203 F 
ATOM     80  C   UNL A   1      41.046  35.924  38.376  1.00  0.00     0.198 A 
ATOM     81  C   UNL A   1      39.292  34.567  39.290  1.00  0.00     0.198 A 
ATOM     82  F   UNL A   1      38.480  32.721  38.078  1.00  0.00    -0.203 F 
ATOM     83  F   UNL A   1      41.914  36.938  38.498  1.00  0.00    -0.200 F 
ATOM     84  C   UNL A   1      40.164  35.638  39.408  1.00  0.00     0.200 A 
ATOM     85  F   UNL A   1      38.429  34.294  40.279  1.00  0.00    -0.200 F 
ATOM     86  F   UNL A   1      40.163  36.388  40.519  1.00  0.00    -0.200 F 
ENDBRANCH  52  76
BRANCH  64  87
ATOM     87  C   UNL A   1      44.118  28.553  35.326  1.00  0.00     0.064 A 
ATOM     88  C   UNL A   1      43.926  27.474  36.201  1.00  0.00     0.173 A 
ATOM     89  C   UNL A   1      45.437  28.966  35.078  1.00  0.00     0.173 A 
ATOM     90  F   UNL A   1      42.685  27.044  36.481  1.00  0.00    -0.203 F 
ATOM     91  C   UNL A   1      45.005  26.863  36.834  1.00  0.00     0.198 A 
ATOM     92  C   UNL A   1      46.517  28.327  35.682  1.00  0.00     0.198 A 
ATOM     93  F   UNL A   1      45.682  29.984  34.239  1.00  0.00    -0.203 F 
ATOM     94  F   UNL A   1      44.792  25.877  37.717  1.00  0.00    -0.200 F 
ATOM     95  C   UNL A   1      46.299  27.285  36.569  1.00  0.00     0.200 A 
ATOM     96  F   UNL A   1      47.767  28.724  35.408  1.00  0.00    -0.200 F 
ATOM     97  F   UNL A   1      47.337  26.693  37.176  1.00  0.00    -0.200 F 
ENDBRANCH  64  87
ENDBRANCH  38  39
ENDBRANCH  31  33
ENDBRANCH  30  31
ENDBRANCH  29  30
ENDBRANCH  28  29
ENDBRANCH  27  28
ENDBRANCH  26  27
ENDBRANCH  25  26
ENDBRANCH  24  25
ENDBRANCH   1  24
TORSDOF 26
ENDMDL
MODEL 3
REMARK VINA RESULT:      -9.4      1.261      2.223
REMARK SMILES CCc1nsc(NC[C@H](CC(C)C)C(=O)OCCOCCOCCOCCOC(=O)c2ccc(-c3c4nc(c(-c5c(F)c(F)c(F)c(F)c5F)c5ccc([nH]5)c(-c5c(F)c(F)c(F)c(F)c5F)c5nc(c(-c6c(F)c(F)c(F)c(F)c6F)c6ccc3[nH]6)C=C5)C=C4)cc2)n1
REMARK SMILES IDX 21 1 20 2 19 3 18 4 17 5 16 6 14 7 15 8 9 9 8 10 7 11 6 13
REMARK SMILES IDX 3 14 4 15 94 16 5 17 2 18 1 19 10 20 11 21 12 22 13 23 22 24
REMARK SMILES IDX 23 25 24 26 25 27 26 28 27 29 28 30 29 31 30 32 31 33 32 34
REMARK SMILES IDX 93 35 33 36 92 37 34 38 35 39 36 40 86 41 37 42 91 43 85 44
REMARK SMILES IDX 87 45 38 46 90 47 84 48 83 49 39 51 71 52 51 53 70 54 52 55
REMARK SMILES IDX 55 56 69 57 88 58 53 59 54 60 68 62 89 63 56 64 40 65 41 66
REMARK SMILES IDX 49 67 42 68 43 69 47 70 50 71 44 72 45 73 48 74 46 75 72 76
REMARK SMILES IDX 73 77 81 78 74 79 75 80 79 81 82 82 76 83 77 84 80 85 78 86
REMARK SMILES IDX 57 87 58 88 66 89 59 90 60 91 64 92 67 93 61 94 62 95 65 96
REMARK SMILES IDX 63 97
REMARK H PARENT 7 12 87 50 55 61
REMARK Flexibility Score: inf
ROOT
ATOM      1  C   UNL A   1      30.778  29.213  23.664  1.00  0.00     0.188 C 
ENDROOT
BRANCH   1   2
ATOM      2  C   UNL A   1      30.381  28.624  22.305  1.00  0.00     0.188 C 
BRANCH   2   3
ATOM      3  O   UNL A   1      30.604  27.263  21.982  1.00  0.00    -0.376 OA
BRANCH   3   4
ATOM      4  C   UNL A   1      31.826  26.596  22.248  1.00  0.00     0.202 C 
BRANCH   4   5
ATOM      5  C   UNL A   1      32.537  25.670  21.243  1.00  0.00     0.261 C 
BRANCH   5   6
ATOM      6  O   UNL A   1      33.637  24.863  21.703  1.00  0.00    -0.463 OA
BRANCH   6   7
ATOM      7  C   UNL A   1      33.321  23.965  22.660  1.00  0.00     0.310 C 
ATOM      8  O   UNL A   1      32.493  23.072  22.496  1.00  0.00    -0.252 OA
BRANCH   7   9
ATOM      9  C   UNL A   1      34.021  24.161  24.001  1.00  0.00     0.118 C 
BRANCH   9  10
ATOM     10  C   UNL A   1      35.082  23.086  24.278  1.00  0.00     0.130 C 
BRANCH  10  11
ATOM     11  N   UNL A   1      34.718  22.135  25.296  1.00  0.00    -0.359 N 
ATOM     12  H   UNL A   1      34.883  22.393  26.231  1.00  0.00     0.162 HD
BRANCH  11  13
ATOM     13  C   UNL A   1      34.171  20.924  25.077  1.00  0.00     0.202 A 
ATOM     14  C   UNL A   1      34.110  18.772  24.613  1.00  0.00     0.144 A 
ATOM     15  N   UNL A   1      32.783  18.906  24.681  1.00  0.00    -0.174 NA
ATOM     16  N   UNL A   1      34.920  19.878  24.818  1.00  0.00    -0.204 NA
ATOM     17  S   UNL A   1      32.495  20.505  25.054  1.00  0.00     0.004 S 
BRANCH  14  18
ATOM     18  C   UNL A   1      34.711  17.449  24.282  1.00  0.00     0.075 C 
ATOM     19  C   UNL A   1      34.024  16.735  23.127  1.00  0.00     0.012 C 
ENDBRANCH  14  18
ENDBRANCH  11  13
ENDBRANCH  10  11
ENDBRANCH   9  10
BRANCH   9  20
ATOM     20  C   UNL A   1      33.273  24.576  25.295  1.00  0.00     0.020 C 
BRANCH  20  21
ATOM     21  C   UNL A   1      32.840  26.035  25.537  1.00  0.00    -0.017 C 
ATOM     22  C   UNL A   1      31.658  26.145  26.497  1.00  0.00     0.007 C 
ATOM     23  C   UNL A   1      34.030  26.821  26.116  1.00  0.00     0.007 C 
ENDBRANCH  20  21
ENDBRANCH   9  20
ENDBRANCH   7   9
ENDBRANCH   6   7
ENDBRANCH   5   6
ENDBRANCH   4   5
ENDBRANCH   3   4
ENDBRANCH   2   3
ENDBRANCH   1   2
BRANCH   1  24
ATOM     24  O   UNL A   1      32.161  29.208  23.948  1.00  0.00    -0.377 OA
BRANCH  24  25
ATOM     25  C   UNL A   1      32.571  29.794  25.176  1.00  0.00     0.188 C 
BRANCH  25  26
ATOM     26  C   UNL A   1      31.476  30.345  26.109  1.00  0.00     0.188 C 
BRANCH  26  27
ATOM     27  O   UNL A   1      31.386  31.763  26.120  1.00  0.00    -0.376 OA
BRANCH  27  28
ATOM     28  C   UNL A   1      31.688  32.454  27.325  1.00  0.00     0.202 C 
BRANCH  28  29
ATOM     29  C   UNL A   1      33.153  32.864  27.553  1.00  0.00     0.261 C 
BRANCH  29  30
ATOM     30  O   UNL A   1      33.418  34.277  27.596  1.00  0.00    -0.460 OA
BRANCH  30  31
ATOM     31  C   UNL A   1      33.403  34.883  28.799  1.00  0.00     0.338 C 
ATOM     32  O   UNL A   1      32.526  35.598  29.257  1.00  0.00    -0.246 OA
BRANCH  31  33
ATOM     33  C   UNL A   1      34.544  34.371  29.585  1.00  0.00     0.060 A 
ATOM     34  C   UNL A   1      35.840  34.579  29.096  1.00  0.00     0.016 A 
ATOM     35  C   UNL A   1      34.339  33.671  30.776  1.00  0.00     0.016 A 
ATOM     36  C   UNL A   1      36.933  34.041  29.769  1.00  0.00     0.010 A 
ATOM     37  C   UNL A   1      35.435  33.110  31.437  1.00  0.00     0.010 A 
ATOM     38  C   UNL A   1      36.731  33.253  30.910  1.00  0.00    -0.014 A 
BRANCH  38  39
ATOM     39  C   UNL A   1      37.839  32.399  31.397  1.00  0.00     0.031 A 
ATOM     40  C   UNL A   1      38.356  32.634  32.791  1.00  0.00     0.074 A 
ATOM     41  C   UNL A   1      38.337  31.399  30.648  1.00  0.00     0.049 A 
ATOM     42  N   UNL A   1      39.322  32.031  33.436  1.00  0.00    -0.248 NA
ATOM     43  C   UNL A   1      37.690  33.697  33.562  1.00  0.00     0.031 C 
ATOM     44  C   UNL A   1      37.882  31.040  29.308  1.00  0.00     0.029 A 
ATOM     45  N   UNL A   1      39.340  30.503  30.917  1.00  0.00    -0.354 N 
ATOM     46  C   UNL A   1      39.383  32.645  34.680  1.00  0.00     0.074 A 
ATOM     47  C   UNL A   1      38.382  33.689  34.690  1.00  0.00     0.031 C 
ATOM     48  C   UNL A   1      38.611  30.000  28.865  1.00  0.00     0.029 A 
ATOM     49  C   UNL A   1      39.606  29.647  29.877  1.00  0.00     0.049 A 
ATOM     50  H   UNL A   1      39.824  30.476  31.775  1.00  0.00     0.167 HD
ATOM     51  C   UNL A   1      40.193  32.357  35.726  1.00  0.00     0.037 A 
ATOM     52  C   UNL A   1      40.559  28.703  29.754  1.00  0.00     0.037 A 
ATOM     53  C   UNL A   1      41.188  31.317  35.712  1.00  0.00     0.049 A 
ATOM     54  C   UNL A   1      41.502  28.453  30.906  1.00  0.00     0.074 A 
ATOM     55  C   UNL A   1      42.054  30.937  36.721  1.00  0.00     0.029 A 
ATOM     56  N   UNL A   1      41.455  30.496  34.625  1.00  0.00    -0.354 N 
ATOM     57  N   UNL A   1      41.543  29.024  32.086  1.00  0.00    -0.248 NA
ATOM     58  C   UNL A   1      42.528  27.420  30.708  1.00  0.00     0.031 C 
ATOM     59  C   UNL A   1      42.889  29.932  36.225  1.00  0.00     0.029 A 
ATOM     60  C   UNL A   1      42.493  29.631  34.932  1.00  0.00     0.049 A 
ATOM     61  H   UNL A   1      40.978  30.524  33.765  1.00  0.00     0.167 HD
ATOM     62  C   UNL A   1      42.570  28.395  32.781  1.00  0.00     0.074 A 
ATOM     63  C   UNL A   1      43.115  27.389  31.895  1.00  0.00     0.031 C 
ATOM     64  C   UNL A   1      43.020  28.627  34.040  1.00  0.00     0.037 A 
BRANCH  51  65
ATOM     65  C   UNL A   1      40.062  33.203  36.960  1.00  0.00     0.064 A 
ATOM     66  C   UNL A   1      39.112  32.926  37.955  1.00  0.00     0.173 A 
ATOM     67  C   UNL A   1      40.921  34.296  37.161  1.00  0.00     0.173 A 
ATOM     68  F   UNL A   1      38.255  31.906  37.806  1.00  0.00    -0.203 F 
ATOM     69  C   UNL A   1      39.009  33.727  39.091  1.00  0.00     0.198 A 
ATOM     70  C   UNL A   1      40.838  35.072  38.313  1.00  0.00     0.198 A 
ATOM     71  F   UNL A   1      41.847  34.606  36.242  1.00  0.00    -0.203 F 
ATOM     72  F   UNL A   1      38.058  33.475  40.001  1.00  0.00    -0.200 F 
ATOM     73  C   UNL A   1      39.878  34.793  39.272  1.00  0.00     0.200 A 
ATOM     74  F   UNL A   1      41.687  36.094  38.493  1.00  0.00    -0.200 F 
ATOM     75  F   UNL A   1      39.782  35.557  40.370  1.00  0.00    -0.200 F 
ENDBRANCH  51  65
BRANCH  52  76
ATOM     76  C   UNL A   1      40.686  27.928  28.490  1.00  0.00     0.064 A 
ATOM     77  C   UNL A   1      40.043  26.693  28.324  1.00  0.00     0.173 A 
ATOM     78  C   UNL A   1      41.483  28.393  27.433  1.00  0.00     0.173 A 
ATOM     79  F   UNL A   1      39.291  26.191  29.315  1.00  0.00    -0.203 F 
ATOM     80  C   UNL A   1      40.214  25.941  27.164  1.00  0.00     0.198 A 
ATOM     81  C   UNL A   1      41.625  27.657  26.259  1.00  0.00     0.198 A 
ATOM     82  F   UNL A   1      42.122  29.567  27.539  1.00  0.00    -0.203 F 
ATOM     83  F   UNL A   1      39.636  24.737  27.057  1.00  0.00    -0.200 F 
ATOM     84  C   UNL A   1      41.000  26.426  26.129  1.00  0.00     0.200 A 
ATOM     85  F   UNL A   1      42.374  28.137  25.256  1.00  0.00    -0.200 F 
ATOM     86  F   UNL A   1      41.163  25.704  25.012  1.00  0.00    -0.200 F 
ENDBRANCH  52  76
BRANCH  64  87
ATOM     87  C   UNL A   1      44.121  27.742  34.557  1.00  0.00     0.064 A 
ATOM     88  C   UNL A   1      43.857  26.512  35.178  1.00  0.00     0.173 A 
ATOM     89  C   UNL A   1      45.464  28.120  34.400  1.00  0.00     0.173 A 
ATOM     90  F   UNL A   1      42.591  26.105  35.362  1.00  0.00    -0.203 F 
ATOM     91  C   UNL A   1      44.893  25.715  35.661  1.00  0.00     0.198 A 
ATOM     92  C   UNL A   1      46.499  27.303  34.849  1.00  0.00     0.198 A 
ATOM     93  F   UNL A   1      45.776  29.279  33.802  1.00  0.00    -0.203 F 
ATOM     94  F   UNL A   1      44.614  24.577  36.310  1.00  0.00    -0.200 F 
ATOM     95  C   UNL A   1      46.212  26.108  35.490  1.00  0.00     0.200 A 
ATOM     96  F   UNL A   1      47.773  27.675  34.664  1.00  0.00    -0.200 F 
ATOM     97  F   UNL A   1      47.208  25.339  35.952  1.00  0.00    -0.200 F 
ENDBRANCH  64  87
ENDBRANCH  38  39
ENDBRANCH  31  33
ENDBRANCH  30  31
ENDBRANCH  29  30
ENDBRANCH  28  29
ENDBRANCH  27  28
ENDBRANCH  26  27
ENDBRANCH  25  26
ENDBRANCH  24  25
ENDBRANCH   1  24
TORSDOF 26
ENDMDL
