MODEL 1
REMARK VINA RESULT:     -11.2      0.000      0.000
REMARK SMILES O=C(OCCOCCOCCOCCOC(=O)[C@H]1[C@H]2CC[C@H](C2)[C@@H]1C(=O)N1CC[NH+](C2CCCCC2)CC1)c1ccc(-c2c3nc(c(-c4c(F)c(F)c(F)c(F)c4F)c4ccc([nH]4)c(-c4c(F)c(F)c(F)c(F)c4F)c4nc(c(-c5c(F)c(F)c(F)c(F)c5F)c5ccc2[nH]5)C=C4)C=C3)cc1
REMARK SMILES IDX 9 1 8 2 7 3 6 4 5 5 4 6 3 7 2 8 1 9 39 10 40 11 101 12 41 13
REMARK SMILES IDX 100 14 42 15 43 16 44 17 94 18 45 19 99 20 93 21 95 22 46 23
REMARK SMILES IDX 98 24 92 25 91 26 47 28 79 29 59 30 78 31 60 32 63 33 77 34
REMARK SMILES IDX 96 35 61 36 62 37 76 39 97 40 64 41 48 42 49 43 57 44 50 45
REMARK SMILES IDX 51 46 55 47 58 48 52 49 53 50 56 51 54 52 80 53 81 54 89 55
REMARK SMILES IDX 82 56 83 57 87 58 90 59 84 60 85 61 88 62 86 63 65 64 66 65
REMARK SMILES IDX 74 66 67 67 68 68 72 69 75 70 69 71 70 72 73 73 71 74 10 75
REMARK SMILES IDX 11 76 12 77 13 78 14 79 15 80 16 81 17 82 18 83 19 84 24 85
REMARK SMILES IDX 20 86 23 87 22 88 21 89 25 90 26 91 27 92 28 93 38 94 29 95
REMARK SMILES IDX 37 96 30 97 31 99 32 100 36 101 33 102 35 103 34 104
REMARK H PARENT 95 27 63 38 30 98
REMARK Flexibility Score: inf
ROOT
ATOM      1  O   UNL A   1      38.504  21.564  25.849  1.00  0.00    -0.377 OA
ENDROOT
BRANCH   1   2
ATOM      2  C   UNL A   1      38.746  20.235  25.380  1.00  0.00     0.188 C 
BRANCH   2   3
ATOM      3  C   UNL A   1      40.079  19.606  25.814  1.00  0.00     0.188 C 
BRANCH   3   4
ATOM      4  O   UNL A   1      40.438  19.993  27.141  1.00  0.00    -0.376 OA
BRANCH   4   5
ATOM      5  C   UNL A   1      41.569  20.846  27.320  1.00  0.00     0.202 C 
BRANCH   5   6
ATOM      6  C   UNL A   1      42.361  21.149  26.058  1.00  0.00     0.261 C 
BRANCH   6   7
ATOM      7  O   UNL A   1      43.223  22.288  26.174  1.00  0.00    -0.460 OA
BRANCH   7   8
ATOM      8  C   UNL A   1      43.012  23.564  25.781  1.00  0.00     0.338 C 
ATOM      9  O   UNL A   1      43.193  23.839  24.595  1.00  0.00    -0.246 OA
BRANCH   8  10
ATOM     10  C   UNL A   1      42.560  24.672  26.675  1.00  0.00     0.060 A 
ATOM     11  C   UNL A   1      43.094  25.959  26.728  1.00  0.00     0.016 A 
ATOM     12  C   UNL A   1      41.425  24.409  27.460  1.00  0.00     0.016 A 
ATOM     13  C   UNL A   1      42.570  26.945  27.541  1.00  0.00     0.010 A 
ATOM     14  C   UNL A   1      40.878  25.393  28.285  1.00  0.00     0.010 A 
ATOM     15  C   UNL A   1      41.476  26.655  28.338  1.00  0.00    -0.014 A 
BRANCH  15  16
ATOM     16  C   UNL A   1      41.151  27.629  29.384  1.00  0.00     0.031 A 
ATOM     17  C   UNL A   1      42.047  27.657  30.578  1.00  0.00     0.074 A 
ATOM     18  C   UNL A   1      40.199  28.549  29.171  1.00  0.00     0.049 A 
ATOM     19  N   UNL A   1      41.927  28.320  31.692  1.00  0.00    -0.248 NA
ATOM     20  C   UNL A   1      43.260  26.821  30.497  1.00  0.00     0.031 C 
ATOM     21  C   UNL A   1      39.423  28.691  27.936  1.00  0.00     0.029 A 
ATOM     22  N   UNL A   1      39.737  29.550  29.978  1.00  0.00    -0.354 N 
ATOM     23  C   UNL A   1      43.015  27.938  32.464  1.00  0.00     0.074 A 
ATOM     24  C   UNL A   1      43.790  26.995  31.695  1.00  0.00     0.031 C 
ATOM     25  C   UNL A   1      38.567  29.715  28.076  1.00  0.00     0.029 A 
ATOM     26  C   UNL A   1      38.678  30.231  29.434  1.00  0.00     0.049 A 
ATOM     27  H   UNL A   1      40.123  29.759  30.859  1.00  0.00     0.167 HD
ATOM     28  C   UNL A   1      43.308  28.337  33.721  1.00  0.00     0.037 A 
ATOM     29  C   UNL A   1      37.854  31.121  30.016  1.00  0.00     0.037 A 
ATOM     30  C   UNL A   1      42.493  29.281  34.433  1.00  0.00     0.049 A 
ATOM     31  C   UNL A   1      38.125  31.471  31.455  1.00  0.00     0.074 A 
ATOM     32  C   UNL A   1      42.619  29.739  35.727  1.00  0.00     0.029 A 
ATOM     33  N   UNL A   1      41.379  29.912  33.884  1.00  0.00    -0.354 N 
ATOM     34  N   UNL A   1      39.093  31.046  32.238  1.00  0.00    -0.248 NA
ATOM     35  C   UNL A   1      37.195  32.400  32.100  1.00  0.00     0.031 C 
ATOM     36  C   UNL A   1      41.544  30.598  35.982  1.00  0.00     0.029 A 
ATOM     37  C   UNL A   1      40.788  30.734  34.824  1.00  0.00     0.049 A 
ATOM     38  H   UNL A   1      41.059  29.790  32.960  1.00  0.00     0.167 HD
ATOM     39  C   UNL A   1      38.901  31.666  33.461  1.00  0.00     0.074 A 
ATOM     40  C   UNL A   1      37.727  32.508  33.310  1.00  0.00     0.031 C 
ATOM     41  C   UNL A   1      39.620  31.557  34.608  1.00  0.00     0.037 A 
BRANCH  28  42
ATOM     42  C   UNL A   1      44.460  27.654  34.399  1.00  0.00     0.064 A 
ATOM     43  C   UNL A   1      45.768  28.164  34.362  1.00  0.00     0.173 A 
ATOM     44  C   UNL A   1      44.263  26.411  35.019  1.00  0.00     0.173 A 
ATOM     45  F   UNL A   1      46.021  29.331  33.749  1.00  0.00    -0.203 F 
ATOM     46  C   UNL A   1      46.838  27.432  34.872  1.00  0.00     0.198 A 
ATOM     47  C   UNL A   1      45.328  25.698  35.560  1.00  0.00     0.198 A 
ATOM     48  F   UNL A   1      43.036  25.868  35.072  1.00  0.00    -0.203 F 
ATOM     49  F   UNL A   1      48.089  27.896  34.743  1.00  0.00    -0.200 F 
ATOM     50  C   UNL A   1      46.617  26.201  35.471  1.00  0.00     0.200 A 
ATOM     51  F   UNL A   1      45.112  24.509  36.139  1.00  0.00    -0.200 F 
ATOM     52  F   UNL A   1      47.650  25.488  35.943  1.00  0.00    -0.200 F 
ENDBRANCH  28  42
BRANCH  29  53
ATOM     53  C   UNL A   1      36.681  31.646  29.269  1.00  0.00     0.064 A 
ATOM     54  C   UNL A   1      35.586  30.833  28.954  1.00  0.00     0.173 A 
ATOM     55  C   UNL A   1      36.621  32.995  28.877  1.00  0.00     0.173 A 
ATOM     56  F   UNL A   1      35.598  29.534  29.289  1.00  0.00    -0.203 F 
ATOM     57  C   UNL A   1      34.480  31.344  28.273  1.00  0.00     0.198 A 
ATOM     58  C   UNL A   1      35.503  33.512  28.225  1.00  0.00     0.198 A 
ATOM     59  F   UNL A   1      37.640  33.822  29.152  1.00  0.00    -0.203 F 
ATOM     60  F   UNL A   1      33.460  30.535  27.955  1.00  0.00    -0.200 F 
ATOM     61  C   UNL A   1      34.436  32.684  27.918  1.00  0.00     0.200 A 
ATOM     62  F   UNL A   1      35.459  34.812  27.903  1.00  0.00    -0.200 F 
ATOM     63  F   UNL A   1      33.368  33.177  27.276  1.00  0.00    -0.200 F 
ENDBRANCH  29  53
BRANCH  41  64
ATOM     64  C   UNL A   1      39.178  32.399  35.764  1.00  0.00     0.064 A 
ATOM     65  C   UNL A   1      38.348  31.888  36.771  1.00  0.00     0.173 A 
ATOM     66  C   UNL A   1      39.671  33.704  35.907  1.00  0.00     0.173 A 
ATOM     67  F   UNL A   1      37.843  30.650  36.667  1.00  0.00    -0.203 F 
ATOM     68  C   UNL A   1      38.017  32.663  37.877  1.00  0.00     0.198 A 
ATOM     69  C   UNL A   1      39.367  34.462  37.031  1.00  0.00     0.198 A 
ATOM     70  F   UNL A   1      40.478  34.229  34.971  1.00  0.00    -0.203 F 
ATOM     71  F   UNL A   1      37.193  32.172  38.813  1.00  0.00    -0.200 F 
ATOM     72  C   UNL A   1      38.537  33.942  38.013  1.00  0.00     0.200 A 
ATOM     73  F   UNL A   1      39.886  35.689  37.169  1.00  0.00    -0.200 F 
ATOM     74  F   UNL A   1      38.236  34.677  39.092  1.00  0.00    -0.200 F 
ENDBRANCH  41  64
ENDBRANCH  15  16
ENDBRANCH   8  10
ENDBRANCH   7   8
ENDBRANCH   6   7
ENDBRANCH   5   6
ENDBRANCH   4   5
ENDBRANCH   3   4
ENDBRANCH   2   3
ENDBRANCH   1   2
BRANCH   1  75
ATOM     75  C   UNL A   1      37.616  22.331  25.046  1.00  0.00     0.188 C 
BRANCH  75  76
ATOM     76  C   UNL A   1      37.014  23.630  25.658  1.00  0.00     0.188 C 
BRANCH  76  77
ATOM     77  O   UNL A   1      35.879  23.391  26.482  1.00  0.00    -0.376 OA
BRANCH  77  78
ATOM     78  C   UNL A   1      34.807  24.327  26.458  1.00  0.00     0.202 C 
BRANCH  78  79
ATOM     79  C   UNL A   1      34.658  25.334  25.300  1.00  0.00     0.261 C 
BRANCH  79  80
ATOM     80  O   UNL A   1      33.996  26.549  25.639  1.00  0.00    -0.463 OA
BRANCH  80  81
ATOM     81  C   UNL A   1      33.423  27.307  24.671  1.00  0.00     0.310 C 
ATOM     82  O   UNL A   1      33.826  28.402  24.283  1.00  0.00    -0.252 OA
BRANCH  81  83
ATOM     83  C   UNL A   1      32.322  26.476  24.057  1.00  0.00     0.115 C 
ATOM     84  C   UNL A   1      30.929  26.787  24.646  1.00  0.00     0.004 C 
ATOM     85  C   UNL A   1      32.138  26.435  22.532  1.00  0.00     0.096 C 
ATOM     86  C   UNL A   1      30.587  28.253  24.420  1.00  0.00     0.005 C 
ATOM     87  C   UNL A   1      30.013  26.129  23.632  1.00  0.00     0.009 C 
ATOM     88  C   UNL A   1      30.657  26.841  22.437  1.00  0.00     0.003 C 
ATOM     89  C   UNL A   1      30.527  28.326  22.886  1.00  0.00     0.005 C 
BRANCH  85  90
ATOM     90  C   UNL A   1      32.681  25.045  22.049  1.00  0.00     0.227 C 
ATOM     91  O   UNL A   1      33.307  25.033  20.979  1.00  0.00    -0.275 OA
ATOM     92  N   UNL A   1      32.742  23.924  22.870  1.00  0.00    -0.331 N 
ATOM     93  C   UNL A   1      33.763  22.895  22.582  1.00  0.00     0.181 C 
ATOM     94  C   UNL A   1      31.622  23.398  23.644  1.00  0.00     0.181 C 
ATOM     95  C   UNL A   1      34.148  22.027  23.815  1.00  0.00     0.284 C 
ATOM     96  C   UNL A   1      32.107  22.679  24.913  1.00  0.00     0.284 C 
ATOM     97  N   UNL A   1      33.041  21.568  24.677  1.00  0.00    -0.330 N 
ATOM     98  H   UNL A   1      33.426  21.328  25.589  1.00  0.00     0.348 HD
BRANCH  97  99
ATOM     99  C   UNL A   1      32.475  20.237  24.366  1.00  0.00     0.184 C 
ATOM    100  C   UNL A   1      32.685  19.854  22.879  1.00  0.00     0.065 C 
ATOM    101  C   UNL A   1      32.874  19.094  25.322  1.00  0.00     0.065 C 
ATOM    102  C   UNL A   1      32.140  18.476  22.521  1.00  0.00     0.006 C 
ATOM    103  C   UNL A   1      32.368  17.720  24.884  1.00  0.00     0.006 C 
ATOM    104  C   UNL A   1      32.735  17.419  23.439  1.00  0.00     0.000 C 
ENDBRANCH  97  99
ENDBRANCH  85  90
ENDBRANCH  81  83
ENDBRANCH  80  81
ENDBRANCH  79  80
ENDBRANCH  78  79
ENDBRANCH  77  78
ENDBRANCH  76  77
ENDBRANCH  75  76
ENDBRANCH   1  75
TORSDOF 22
ENDMDL
MODEL 2
REMARK VINA RESULT:     -10.9      3.013      8.886
REMARK SMILES O=C(OCCOCCOCCOCCOC(=O)[C@H]1[C@H]2CC[C@H](C2)[C@@H]1C(=O)N1CC[NH+](C2CCCCC2)CC1)c1ccc(-c2c3nc(c(-c4c(F)c(F)c(F)c(F)c4F)c4ccc([nH]4)c(-c4c(F)c(F)c(F)c(F)c4F)c4nc(c(-c5c(F)c(F)c(F)c(F)c5F)c5ccc2[nH]5)C=C4)C=C3)cc1
REMARK SMILES IDX 9 1 8 2 7 3 6 4 5 5 4 6 3 7 2 8 1 9 39 10 40 11 101 12 41 13
REMARK SMILES IDX 100 14 42 15 43 16 44 17 94 18 45 19 99 20 93 21 95 22 46 23
REMARK SMILES IDX 98 24 92 25 91 26 47 28 79 29 59 30 78 31 60 32 63 33 77 34
REMARK SMILES IDX 96 35 61 36 62 37 76 39 97 40 64 41 48 42 49 43 57 44 50 45
REMARK SMILES IDX 51 46 55 47 58 48 52 49 53 50 56 51 54 52 80 53 81 54 89 55
REMARK SMILES IDX 82 56 83 57 87 58 90 59 84 60 85 61 88 62 86 63 65 64 66 65
REMARK SMILES IDX 74 66 67 67 68 68 72 69 75 70 69 71 70 72 73 73 71 74 10 75
REMARK SMILES IDX 11 76 12 77 13 78 14 79 15 80 16 81 17 82 18 83 19 84 24 85
REMARK SMILES IDX 20 86 23 87 22 88 21 89 25 90 26 91 27 92 28 93 38 94 29 95
REMARK SMILES IDX 37 96 30 97 31 99 32 100 36 101 33 102 35 103 34 104
REMARK H PARENT 95 27 63 38 30 98
REMARK Flexibility Score: inf
ROOT
ATOM      1  O   UNL A   1      31.450  27.795  27.557  1.00  0.00    -0.377 OA
ENDROOT
BRANCH   1   2
ATOM      2  C   UNL A   1      31.770  28.919  26.732  1.00  0.00     0.188 C 
BRANCH   2   3
ATOM      3  C   UNL A   1      32.875  29.844  27.266  1.00  0.00     0.188 C 
BRANCH   3   4
ATOM      4  O   UNL A   1      32.885  31.101  26.589  1.00  0.00    -0.376 OA
BRANCH   4   5
ATOM      5  C   UNL A   1      33.281  32.265  27.316  1.00  0.00     0.202 C 
BRANCH   5   6
ATOM      6  C   UNL A   1      32.162  33.244  27.636  1.00  0.00     0.261 C 
BRANCH   6   7
ATOM      7  O   UNL A   1      32.622  34.546  28.016  1.00  0.00    -0.460 OA
BRANCH   7   8
ATOM      8  C   UNL A   1      33.304  34.923  29.121  1.00  0.00     0.338 C 
ATOM      9  O   UNL A   1      32.953  35.958  29.689  1.00  0.00    -0.246 OA
BRANCH   8  10
ATOM     10  C   UNL A   1      34.447  34.173  29.721  1.00  0.00     0.060 A 
ATOM     11  C   UNL A   1      34.358  33.161  30.675  1.00  0.00     0.016 A 
ATOM     12  C   UNL A   1      35.717  34.454  29.191  1.00  0.00     0.016 A 
ATOM     13  C   UNL A   1      35.467  32.472  31.129  1.00  0.00     0.010 A 
ATOM     14  C   UNL A   1      36.849  33.768  29.633  1.00  0.00     0.010 A 
ATOM     15  C   UNL A   1      36.716  32.791  30.625  1.00  0.00    -0.014 A 
BRANCH  15  16
ATOM     16  C   UNL A   1      37.872  32.248  31.344  1.00  0.00     0.031 A 
ATOM     17  C   UNL A   1      38.674  31.206  30.637  1.00  0.00     0.074 A 
ATOM     18  C   UNL A   1      38.263  32.803  32.500  1.00  0.00     0.049 A 
ATOM     19  N   UNL A   1      39.658  30.476  31.075  1.00  0.00    -0.248 NA
ATOM     20  C   UNL A   1      38.317  30.960  29.227  1.00  0.00     0.031 C 
ATOM     21  C   UNL A   1      37.628  33.958  33.140  1.00  0.00     0.029 A 
ATOM     22  N   UNL A   1      39.300  32.484  33.331  1.00  0.00    -0.354 N 
ATOM     23  C   UNL A   1      39.999  29.646  30.016  1.00  0.00     0.074 A 
ATOM     24  C   UNL A   1      39.128  29.966  28.911  1.00  0.00     0.031 C 
ATOM     25  C   UNL A   1      38.284  34.241  34.276  1.00  0.00     0.029 A 
ATOM     26  C   UNL A   1      39.318  33.234  34.479  1.00  0.00     0.049 A 
ATOM     27  H   UNL A   1      39.965  31.786  33.126  1.00  0.00     0.167 HD
ATOM     28  C   UNL A   1      40.950  28.687  29.999  1.00  0.00     0.037 A 
ATOM     29  C   UNL A   1      40.051  33.060  35.593  1.00  0.00     0.037 A 
ATOM     30  C   UNL A   1      41.785  28.419  31.136  1.00  0.00     0.049 A 
ATOM     31  C   UNL A   1      41.027  31.914  35.602  1.00  0.00     0.074 A 
ATOM     32  C   UNL A   1      42.748  27.446  31.299  1.00  0.00     0.029 A 
ATOM     33  N   UNL A   1      41.741  29.151  32.321  1.00  0.00    -0.354 N 
ATOM     34  N   UNL A   1      41.297  31.054  34.645  1.00  0.00    -0.248 NA
ATOM     35  C   UNL A   1      41.786  31.697  36.836  1.00  0.00     0.031 C 
ATOM     36  C   UNL A   1      43.240  27.548  32.605  1.00  0.00     0.029 A 
ATOM     37  C   UNL A   1      42.638  28.632  33.233  1.00  0.00     0.049 A 
ATOM     38  H   UNL A   1      41.155  29.926  32.484  1.00  0.00     0.167 HD
ATOM     39  C   UNL A   1      42.267  30.204  35.150  1.00  0.00     0.074 A 
ATOM     40  C   UNL A   1      42.546  30.664  36.500  1.00  0.00     0.031 C 
ATOM     41  C   UNL A   1      42.876  29.141  34.564  1.00  0.00     0.037 A 
BRANCH  28  42
ATOM     42  C   UNL A   1      41.016  27.817  28.778  1.00  0.00     0.064 A 
ATOM     43  C   UNL A   1      40.205  26.682  28.614  1.00  0.00     0.173 A 
ATOM     44  C   UNL A   1      41.982  28.075  27.794  1.00  0.00     0.173 A 
ATOM     45  F   UNL A   1      39.289  26.366  29.543  1.00  0.00    -0.203 F 
ATOM     46  C   UNL A   1      40.394  25.814  27.540  1.00  0.00     0.198 A 
ATOM     47  C   UNL A   1      42.146  27.226  26.703  1.00  0.00     0.198 A 
ATOM     48  F   UNL A   1      42.794  29.138  27.905  1.00  0.00    -0.203 F 
ATOM     49  F   UNL A   1      39.672  24.689  27.453  1.00  0.00    -0.200 F 
ATOM     50  C   UNL A   1      41.363  26.088  26.586  1.00  0.00     0.200 A 
ATOM     51  F   UNL A   1      43.081  27.494  25.782  1.00  0.00    -0.200 F 
ATOM     52  F   UNL A   1      41.558  25.241  25.565  1.00  0.00    -0.200 F 
ENDBRANCH  28  42
BRANCH  29  53
ATOM     53  C   UNL A   1      39.815  33.925  36.779  1.00  0.00     0.064 A 
ATOM     54  C   UNL A   1      40.382  35.200  36.885  1.00  0.00     0.173 A 
ATOM     55  C   UNL A   1      38.982  33.497  37.828  1.00  0.00     0.173 A 
ATOM     56  F   UNL A   1      41.198  35.651  35.921  1.00  0.00    -0.203 F 
ATOM     57  C   UNL A   1      40.131  36.011  37.992  1.00  0.00     0.198 A 
ATOM     58  C   UNL A   1      38.707  34.320  38.918  1.00  0.00     0.198 A 
ATOM     59  F   UNL A   1      38.410  32.285  37.782  1.00  0.00    -0.203 F 
ATOM     60  F   UNL A   1      40.715  37.215  38.083  1.00  0.00    -0.200 F 
ATOM     61  C   UNL A   1      39.288  35.574  39.003  1.00  0.00     0.200 A 
ATOM     62  F   UNL A   1      37.876  33.898  39.881  1.00  0.00    -0.200 F 
ATOM     63  F   UNL A   1      39.038  36.360  40.059  1.00  0.00    -0.200 F 
ENDBRANCH  29  53
BRANCH  41  64
ATOM     64  C   UNL A   1      43.927  28.439  35.366  1.00  0.00     0.064 A 
ATOM     65  C   UNL A   1      43.606  27.397  36.246  1.00  0.00     0.173 A 
ATOM     66  C   UNL A   1      45.280  28.758  35.176  1.00  0.00     0.173 A 
ATOM     67  F   UNL A   1      42.325  27.070  36.468  1.00  0.00    -0.203 F 
ATOM     68  C   UNL A   1      44.607  26.705  36.919  1.00  0.00     0.198 A 
ATOM     69  C   UNL A   1      46.278  28.040  35.823  1.00  0.00     0.198 A 
ATOM     70  F   UNL A   1      45.631  29.742  34.334  1.00  0.00    -0.203 F 
ATOM     71  F   UNL A   1      44.281  25.734  37.784  1.00  0.00    -0.200 F 
ATOM     72  C   UNL A   1      45.941  27.017  36.697  1.00  0.00     0.200 A 
ATOM     73  F   UNL A   1      47.565  28.330  35.592  1.00  0.00    -0.200 F 
ATOM     74  F   UNL A   1      46.904  26.332  37.327  1.00  0.00    -0.200 F 
ENDBRANCH  41  64
ENDBRANCH  15  16
ENDBRANCH   8  10
ENDBRANCH   7   8
ENDBRANCH   6   7
ENDBRANCH   5   6
ENDBRANCH   4   5
ENDBRANCH   3   4
ENDBRANCH   2   3
ENDBRANCH   1   2
BRANCH   1  75
ATOM     75  C   UNL A   1      31.498  26.536  26.898  1.00  0.00     0.188 C 
BRANCH  75  76
ATOM     76  C   UNL A   1      30.220  26.051  26.153  1.00  0.00     0.188 C 
BRANCH  76  77
ATOM     77  O   UNL A   1      29.985  24.654  26.288  1.00  0.00    -0.376 OA
BRANCH  77  78
ATOM     78  C   UNL A   1      31.064  23.812  26.677  1.00  0.00     0.202 C 
BRANCH  78  79
ATOM     79  C   UNL A   1      31.360  22.502  25.920  1.00  0.00     0.261 C 
BRANCH  79  80
ATOM     80  O   UNL A   1      32.381  22.596  24.930  1.00  0.00    -0.463 OA
BRANCH  80  81
ATOM     81  C   UNL A   1      33.509  21.850  25.041  1.00  0.00     0.310 C 
ATOM     82  O   UNL A   1      33.606  20.651  24.785  1.00  0.00    -0.252 OA
BRANCH  81  83
ATOM     83  C   UNL A   1      34.635  22.804  25.364  1.00  0.00     0.115 C 
ATOM     84  C   UNL A   1      35.931  22.086  25.796  1.00  0.00     0.004 C 
ATOM     85  C   UNL A   1      35.061  23.874  24.347  1.00  0.00     0.096 C 
ATOM     86  C   UNL A   1      36.407  21.163  24.683  1.00  0.00     0.005 C 
ATOM     87  C   UNL A   1      36.952  23.202  25.686  1.00  0.00     0.009 C 
ATOM     88  C   UNL A   1      36.562  23.554  24.245  1.00  0.00     0.003 C 
ATOM     89  C   UNL A   1      36.722  22.165  23.560  1.00  0.00     0.005 C 
BRANCH  85  90
ATOM     90  C   UNL A   1      34.508  25.244  24.874  1.00  0.00     0.227 C 
ATOM     91  O   UNL A   1      35.011  25.683  25.919  1.00  0.00    -0.275 OA
ATOM     92  N   UNL A   1      33.719  26.093  24.106  1.00  0.00    -0.331 N 
ATOM     93  C   UNL A   1      33.747  27.540  24.403  1.00  0.00     0.181 C 
ATOM     94  C   UNL A   1      32.505  25.690  23.402  1.00  0.00     0.181 C 
ATOM     95  C   UNL A   1      33.340  28.439  23.199  1.00  0.00     0.284 C 
ATOM     96  C   UNL A   1      32.273  26.553  22.151  1.00  0.00     0.284 C 
ATOM     97  N   UNL A   1      32.178  27.998  22.403  1.00  0.00    -0.330 N 
ATOM     98  H   UNL A   1      32.229  28.446  21.489  1.00  0.00     0.348 HD
BRANCH  97  99
ATOM     99  C   UNL A   1      30.864  28.551  22.798  1.00  0.00     0.184 C 
ATOM    100  C   UNL A   1      30.494  29.809  21.971  1.00  0.00     0.065 C 
ATOM    101  C   UNL A   1      29.700  27.541  22.869  1.00  0.00     0.065 C 
ATOM    102  C   UNL A   1      29.134  30.396  22.328  1.00  0.00     0.006 C 
ATOM    103  C   UNL A   1      28.343  28.182  23.155  1.00  0.00     0.006 C 
ATOM    104  C   UNL A   1      28.052  29.333  22.203  1.00  0.00     0.000 C 
ENDBRANCH  97  99
ENDBRANCH  85  90
ENDBRANCH  81  83
ENDBRANCH  80  81
ENDBRANCH  79  80
ENDBRANCH  78  79
ENDBRANCH  77  78
ENDBRANCH  76  77
ENDBRANCH  75  76
ENDBRANCH   1  75
TORSDOF 22
ENDMDL
MODEL 3
REMARK VINA RESULT:     -10.5      6.131     10.755
REMARK SMILES O=C(OCCOCCOCCOCCOC(=O)[C@H]1[C@H]2CC[C@H](C2)[C@@H]1C(=O)N1CC[NH+](C2CCCCC2)CC1)c1ccc(-c2c3nc(c(-c4c(F)c(F)c(F)c(F)c4F)c4ccc([nH]4)c(-c4c(F)c(F)c(F)c(F)c4F)c4nc(c(-c5c(F)c(F)c(F)c(F)c5F)c5ccc2[nH]5)C=C4)C=C3)cc1
REMARK SMILES IDX 9 1 8 2 7 3 6 4 5 5 4 6 3 7 2 8 1 9 39 10 40 11 101 12 41 13
REMARK SMILES IDX 100 14 42 15 43 16 44 17 94 18 45 19 99 20 93 21 95 22 46 23
REMARK SMILES IDX 98 24 92 25 91 26 47 28 79 29 59 30 78 31 60 32 63 33 77 34
REMARK SMILES IDX 96 35 61 36 62 37 76 39 97 40 64 41 48 42 49 43 57 44 50 45
REMARK SMILES IDX 51 46 55 47 58 48 52 49 53 50 56 51 54 52 80 53 81 54 89 55
REMARK SMILES IDX 82 56 83 57 87 58 90 59 84 60 85 61 88 62 86 63 65 64 66 65
REMARK SMILES IDX 74 66 67 67 68 68 72 69 75 70 69 71 70 72 73 73 71 74 10 75
REMARK SMILES IDX 11 76 12 77 13 78 14 79 15 80 16 81 17 82 18 83 19 84 24 85
REMARK SMILES IDX 20 86 23 87 22 88 21 89 25 90 26 91 27 92 28 93 38 94 29 95
REMARK SMILES IDX 37 96 30 97 31 99 32 100 36 101 33 102 35 103 34 104
REMARK H PARENT 95 27 63 38 30 98
REMARK Flexibility Score: inf
ROOT
ATOM      1  O   UNL A   1      33.492  34.651  31.427  1.00  0.00    -0.377 OA
ENDROOT
BRANCH   1   2
ATOM      2  C   UNL A   1      34.616  33.935  31.946  1.00  0.00     0.188 C 
BRANCH   2   3
ATOM      3  C   UNL A   1      35.810  34.797  32.386  1.00  0.00     0.188 C 
BRANCH   3   4
ATOM      4  O   UNL A   1      35.869  34.935  33.806  1.00  0.00    -0.376 OA
BRANCH   4   5
ATOM      5  C   UNL A   1      35.820  33.754  34.608  1.00  0.00     0.202 C 
BRANCH   5   6
ATOM      6  C   UNL A   1      37.018  32.827  34.474  1.00  0.00     0.261 C 
BRANCH   6   7
ATOM      7  O   UNL A   1      37.378  32.166  35.693  1.00  0.00    -0.460 OA
BRANCH   7   8
ATOM      8  C   UNL A   1      38.257  31.158  35.893  1.00  0.00     0.338 C 
ATOM      9  O   UNL A   1      38.134  30.480  36.914  1.00  0.00    -0.246 OA
BRANCH   8  10
ATOM     10  C   UNL A   1      39.363  30.789  34.961  1.00  0.00     0.060 A 
ATOM     11  C   UNL A   1      39.274  29.909  33.882  1.00  0.00     0.016 A 
ATOM     12  C   UNL A   1      40.576  31.474  35.138  1.00  0.00     0.016 A 
ATOM     13  C   UNL A   1      40.335  29.674  33.029  1.00  0.00     0.010 A 
ATOM     14  C   UNL A   1      41.658  31.254  34.284  1.00  0.00     0.010 A 
ATOM     15  C   UNL A   1      41.535  30.329  33.243  1.00  0.00    -0.014 A 
BRANCH  15  16
ATOM     16  C   UNL A   1      42.696  29.828  32.504  1.00  0.00     0.031 A 
ATOM     17  C   UNL A   1      43.295  28.545  32.980  1.00  0.00     0.074 A 
ATOM     18  C   UNL A   1      43.069  30.420  31.360  1.00  0.00     0.049 A 
ATOM     19  N   UNL A   1      44.384  27.944  32.597  1.00  0.00    -0.248 NA
ATOM     20  C   UNL A   1      42.548  27.835  34.036  1.00  0.00     0.031 C 
ATOM     21  C   UNL A   1      42.393  31.564  30.742  1.00  0.00     0.029 A 
ATOM     22  N   UNL A   1      44.093  30.130  30.504  1.00  0.00    -0.354 N 
ATOM     23  C   UNL A   1      44.482  26.819  33.403  1.00  0.00     0.074 A 
ATOM     24  C   UNL A   1      43.343  26.811  34.288  1.00  0.00     0.031 C 
ATOM     25  C   UNL A   1      43.034  31.888  29.609  1.00  0.00     0.029 A 
ATOM     26  C   UNL A   1      44.208  31.034  29.479  1.00  0.00     0.049 A 
ATOM     27  H   UNL A   1      44.688  29.353  30.612  1.00  0.00     0.167 HD
ATOM     28  C   UNL A   1      45.467  25.894  33.402  1.00  0.00     0.037 A 
ATOM     29  C   UNL A   1      45.204  31.181  28.586  1.00  0.00     0.037 A 
ATOM     30  C   UNL A   1      46.576  25.959  32.492  1.00  0.00     0.049 A 
ATOM     31  C   UNL A   1      46.352  30.212  28.671  1.00  0.00     0.074 A 
ATOM     32  C   UNL A   1      47.681  25.139  32.405  1.00  0.00     0.029 A 
ATOM     33  N   UNL A   1      46.709  26.928  31.500  1.00  0.00    -0.354 N 
ATOM     34  N   UNL A   1      46.514  29.196  29.491  1.00  0.00    -0.248 NA
ATOM     35  C   UNL A   1      47.459  30.408  27.731  1.00  0.00     0.031 C 
ATOM     36  C   UNL A   1      48.513  25.650  31.402  1.00  0.00     0.029 A 
ATOM     37  C   UNL A   1      47.893  26.745  30.814  1.00  0.00     0.049 A 
ATOM     38  H   UNL A   1      46.053  27.639  31.315  1.00  0.00     0.167 HD
ATOM     39  C   UNL A   1      47.729  28.621  29.158  1.00  0.00     0.074 A 
ATOM     40  C   UNL A   1      48.257  29.398  28.049  1.00  0.00     0.031 C 
ATOM     41  C   UNL A   1      48.359  27.552  29.709  1.00  0.00     0.037 A 
BRANCH  28  42
ATOM     42  C   UNL A   1      45.423  24.853  34.483  1.00  0.00     0.064 A 
ATOM     43  C   UNL A   1      45.938  25.079  35.770  1.00  0.00     0.173 A 
ATOM     44  C   UNL A   1      44.940  23.569  34.191  1.00  0.00     0.173 A 
ATOM     45  F   UNL A   1      46.449  26.278  36.093  1.00  0.00    -0.203 F 
ATOM     46  C   UNL A   1      46.017  24.046  36.703  1.00  0.00     0.198 A 
ATOM     47  C   UNL A   1      44.987  22.548  35.136  1.00  0.00     0.198 A 
ATOM     48  F   UNL A   1      44.449  23.292  32.973  1.00  0.00    -0.203 F 
ATOM     49  F   UNL A   1      46.596  24.261  37.892  1.00  0.00    -0.200 F 
ATOM     50  C   UNL A   1      45.540  22.783  36.385  1.00  0.00     0.200 A 
ATOM     51  F   UNL A   1      44.524  21.329  34.827  1.00  0.00    -0.200 F 
ATOM     52  F   UNL A   1      45.635  21.786  37.276  1.00  0.00    -0.200 F 
ENDBRANCH  28  42
BRANCH  29  53
ATOM     53  C   UNL A   1      45.182  32.321  27.632  1.00  0.00     0.064 A 
ATOM     54  C   UNL A   1      44.437  32.276  26.448  1.00  0.00     0.173 A 
ATOM     55  C   UNL A   1      45.892  33.504  27.907  1.00  0.00     0.173 A 
ATOM     56  F   UNL A   1      43.755  31.166  26.129  1.00  0.00    -0.203 F 
ATOM     57  C   UNL A   1      44.406  33.362  25.574  1.00  0.00     0.198 A 
ATOM     58  C   UNL A   1      45.835  34.600  27.048  1.00  0.00     0.198 A 
ATOM     59  F   UNL A   1      46.623  33.606  29.026  1.00  0.00    -0.203 F 
ATOM     60  F   UNL A   1      43.711  33.279  24.430  1.00  0.00    -0.200 F 
ATOM     61  C   UNL A   1      45.097  34.526  25.878  1.00  0.00     0.200 A 
ATOM     62  F   UNL A   1      46.489  35.727  27.360  1.00  0.00    -0.200 F 
ATOM     63  F   UNL A   1      45.055  35.573  25.044  1.00  0.00    -0.200 F 
ENDBRANCH  29  53
BRANCH  41  64
ATOM     64  C   UNL A   1      49.661  27.143  29.092  1.00  0.00     0.064 A 
ATOM     65  C   UNL A   1      50.888  27.580  29.608  1.00  0.00     0.173 A 
ATOM     66  C   UNL A   1      49.673  26.230  28.028  1.00  0.00     0.173 A 
ATOM     67  F   UNL A   1      50.922  28.464  30.616  1.00  0.00    -0.203 F 
ATOM     68  C   UNL A   1      52.086  27.122  29.069  1.00  0.00     0.198 A 
ATOM     69  C   UNL A   1      50.872  25.749  27.516  1.00  0.00     0.198 A 
ATOM     70  F   UNL A   1      48.520  25.779  27.510  1.00  0.00    -0.203 F 
ATOM     71  F   UNL A   1      53.251  27.577  29.551  1.00  0.00    -0.200 F 
ATOM     72  C   UNL A   1      52.077  26.198  28.034  1.00  0.00     0.200 A 
ATOM     73  F   UNL A   1      50.860  24.841  26.530  1.00  0.00    -0.200 F 
ATOM     74  F   UNL A   1      53.232  25.740  27.534  1.00  0.00    -0.200 F 
ENDBRANCH  41  64
ENDBRANCH  15  16
ENDBRANCH   8  10
ENDBRANCH   7   8
ENDBRANCH   6   7
ENDBRANCH   5   6
ENDBRANCH   4   5
ENDBRANCH   3   4
ENDBRANCH   2   3
ENDBRANCH   1   2
BRANCH   1  75
ATOM     75  C   UNL A   1      33.803  35.605  30.419  1.00  0.00     0.188 C 
BRANCH  75  76
ATOM     76  C   UNL A   1      32.898  35.652  29.153  1.00  0.00     0.188 C 
BRANCH  76  77
ATOM     77  O   UNL A   1      32.825  34.408  28.466  1.00  0.00    -0.376 OA
BRANCH  77  78
ATOM     78  C   UNL A   1      34.032  33.794  28.030  1.00  0.00     0.202 C 
BRANCH  78  79
ATOM     79  C   UNL A   1      34.150  32.259  27.934  1.00  0.00     0.261 C 
BRANCH  79  80
ATOM     80  O   UNL A   1      35.456  31.774  27.633  1.00  0.00    -0.463 OA
BRANCH  80  81
ATOM     81  C   UNL A   1      35.792  30.492  27.924  1.00  0.00     0.310 C 
ATOM     82  O   UNL A   1      35.123  29.495  27.654  1.00  0.00    -0.252 OA
BRANCH  81  83
ATOM     83  C   UNL A   1      37.197  30.520  28.474  1.00  0.00     0.115 C 
ATOM     84  C   UNL A   1      37.335  31.395  29.739  1.00  0.00     0.004 C 
ATOM     85  C   UNL A   1      37.937  29.209  28.782  1.00  0.00     0.096 C 
ATOM     86  C   UNL A   1      36.418  30.870  30.833  1.00  0.00     0.005 C 
ATOM     87  C   UNL A   1      38.685  30.954  30.272  1.00  0.00     0.009 C 
ATOM     88  C   UNL A   1      38.319  29.464  30.250  1.00  0.00     0.003 C 
ATOM     89  C   UNL A   1      37.015  29.479  31.100  1.00  0.00     0.005 C 
BRANCH  85  90
ATOM     90  C   UNL A   1      38.995  29.009  27.641  1.00  0.00     0.227 C 
ATOM     91  O   UNL A   1      38.845  29.692  26.617  1.00  0.00    -0.275 OA
ATOM     92  N   UNL A   1      40.201  28.344  27.829  1.00  0.00    -0.331 N 
ATOM     93  C   UNL A   1      41.345  28.703  26.963  1.00  0.00     0.181 C 
ATOM     94  C   UNL A   1      40.335  27.011  28.407  1.00  0.00     0.181 C 
ATOM     95  C   UNL A   1      42.733  28.378  27.588  1.00  0.00     0.284 C 
ATOM     96  C   UNL A   1      41.687  26.843  29.119  1.00  0.00     0.284 C 
ATOM     97  N   UNL A   1      42.867  27.077  28.273  1.00  0.00    -0.330 N 
ATOM     98  H   UNL A   1      43.661  27.132  28.908  1.00  0.00     0.348 HD
BRANCH  97  99
ATOM     99  C   UNL A   1      43.371  25.953  27.454  1.00  0.00     0.184 C 
ATOM    100  C   UNL A   1      44.917  25.970  27.341  1.00  0.00     0.065 C 
ATOM    101  C   UNL A   1      42.831  24.556  27.822  1.00  0.00     0.065 C 
ATOM    102  C   UNL A   1      45.481  24.811  26.527  1.00  0.00     0.006 C 
ATOM    103  C   UNL A   1      43.479  23.418  27.034  1.00  0.00     0.006 C 
ATOM    104  C   UNL A   1      44.998  23.485  27.093  1.00  0.00     0.000 C 
ENDBRANCH  97  99
ENDBRANCH  85  90
ENDBRANCH  81  83
ENDBRANCH  80  81
ENDBRANCH  79  80
ENDBRANCH  78  79
ENDBRANCH  77  78
ENDBRANCH  76  77
ENDBRANCH  75  76
ENDBRANCH   1  75
TORSDOF 22
ENDMDL
