MODEL 1
REMARK VINA RESULT:     -10.8      0.000      0.000
REMARK SMILES Cc1cc2c(c(C)c1Cl)C=C(C(=O)OCCOCCOCCOCCOC(=O)c1ccc(-c3c4nc(c(-c5c(F)c(F)c(F)c(F)c5F)c5ccc([nH]5)c(-c5c(F)c(F)c(F)c(F)c5F)c5nc(c(-c6c(F)c(F)c(F)c(F)c6F)c6ccc3[nH]6)C=C5)C=C4)cc1)[C@@H](C(F)(F)F)O2
REMARK SMILES IDX 21 1 20 2 19 3 18 4 17 5 16 6 15 7 14 8 12 9 13 10 11 11
REMARK SMILES IDX 1 12 2 13 3 14 8 15 4 16 6 17 9 18 5 19 97 20 7 21 10 22
REMARK SMILES IDX 92 23 93 24 94 25 95 26 96 27 22 28 23 29 24 30 25 31 26 32
REMARK SMILES IDX 27 33 28 34 29 35 30 36 91 37 31 38 90 39 32 40 33 41 34 42
REMARK SMILES IDX 84 43 35 44 89 45 83 46 85 47 36 48 88 49 82 50 81 51 37 53
REMARK SMILES IDX 69 54 49 55 68 56 50 57 53 58 67 59 86 60 51 61 52 62 66 64
REMARK SMILES IDX 87 65 54 66 38 67 39 68 47 69 40 70 41 71 45 72 48 73 42 74
REMARK SMILES IDX 43 75 46 76 44 77 70 78 71 79 79 80 72 81 73 82 77 83 80 84
REMARK SMILES IDX 74 85 75 86 78 87 76 88 55 89 56 90 64 91 57 92 58 93 62 94
REMARK SMILES IDX 65 95 59 96 60 97 63 98 61 99
REMARK H PARENT 85 52 53 63
REMARK Flexibility Score: inf
ROOT
ATOM      1  C   UNL A   1      35.002  31.686  28.351  1.00  0.00     0.188 C 
ENDROOT
BRANCH   1   2
ATOM      2  O   UNL A   1      34.248  31.182  27.246  1.00  0.00    -0.377 OA
BRANCH   2   3
ATOM      3  C   UNL A   1      33.866  29.814  27.267  1.00  0.00     0.188 C 
BRANCH   3   4
ATOM      4  C   UNL A   1      32.399  29.582  26.853  1.00  0.00     0.188 C 
BRANCH   4   5
ATOM      5  O   UNL A   1      32.114  30.075  25.551  1.00  0.00    -0.376 OA
BRANCH   5   6
ATOM      6  C   UNL A   1      31.784  29.157  24.522  1.00  0.00     0.202 C 
BRANCH   6   7
ATOM      7  C   UNL A   1      32.840  28.742  23.482  1.00  0.00     0.261 C 
BRANCH   7   8
ATOM      8  O   UNL A   1      33.604  27.570  23.784  1.00  0.00    -0.460 OA
BRANCH   8   9
ATOM      9  C   UNL A   1      33.665  26.605  22.847  1.00  0.00     0.338 C 
ATOM     10  O   UNL A   1      34.028  26.733  21.691  1.00  0.00    -0.246 OA
BRANCH   9  11
ATOM     11  C   UNL A   1      33.378  25.313  23.511  1.00  0.00     0.087 C 
ATOM     12  C   UNL A   1      32.988  19.152  25.375  1.00  0.00     0.046 C 
ATOM     13  C   UNL A   1      33.471  20.542  25.062  1.00  0.00    -0.028 A 
ATOM     14  C   UNL A   1      32.512  21.563  25.041  1.00  0.00     0.052 A 
ATOM     15  C   UNL A   1      34.816  20.873  24.805  1.00  0.00     0.047 A 
ATOM     16  C   UNL A   1      32.847  22.853  24.640  1.00  0.00     0.128 A 
ATOM     17  C   UNL A   1      35.179  22.186  24.418  1.00  0.00    -0.021 A 
ATOM     18  Cl  UNL A   1      36.027  19.635  24.948  1.00  0.00    -0.084 Cl
ATOM     19  C   UNL A   1      34.158  23.157  24.262  1.00  0.00     0.022 A 
ATOM     20  O   UNL A   1      31.810  23.740  24.632  1.00  0.00    -0.475 OA
ATOM     21  C   UNL A   1      36.620  22.577  24.177  1.00  0.00     0.047 C 
ATOM     22  C   UNL A   1      34.399  24.458  23.640  1.00  0.00     0.027 C 
ATOM     23  C   UNL A   1      32.003  25.063  24.069  1.00  0.00     0.316 C 
BRANCH  23  24
ATOM     24  C   UNL A   1      30.894  25.293  23.033  1.00  0.00     0.430 C 
ATOM     25  F   UNL A   1      29.909  24.369  23.155  1.00  0.00    -0.167 F 
ATOM     26  F   UNL A   1      30.305  26.503  23.173  1.00  0.00    -0.167 F 
ATOM     27  F   UNL A   1      31.366  25.218  21.767  1.00  0.00    -0.167 F 
ENDBRANCH  23  24
ENDBRANCH   9  11
ENDBRANCH   8   9
ENDBRANCH   7   8
ENDBRANCH   6   7
ENDBRANCH   5   6
ENDBRANCH   4   5
ENDBRANCH   3   4
ENDBRANCH   2   3
ENDBRANCH   1   2
BRANCH   1  28
ATOM     28  C   UNL A   1      34.497  32.844  29.249  1.00  0.00     0.188 C 
BRANCH  28  29
ATOM     29  O   UNL A   1      33.656  33.777  28.584  1.00  0.00    -0.376 OA
BRANCH  29  30
ATOM     30  C   UNL A   1      33.944  35.156  28.741  1.00  0.00     0.202 C 
BRANCH  30  31
ATOM     31  C   UNL A   1      32.942  35.934  29.601  1.00  0.00     0.261 C 
BRANCH  31  32
ATOM     32  O   UNL A   1      32.409  35.222  30.728  1.00  0.00    -0.460 OA
BRANCH  32  33
ATOM     33  C   UNL A   1      32.687  35.700  31.960  1.00  0.00     0.338 C 
ATOM     34  O   UNL A   1      32.004  36.445  32.639  1.00  0.00    -0.246 OA
BRANCH  33  35
ATOM     35  C   UNL A   1      33.900  35.004  32.431  1.00  0.00     0.060 A 
ATOM     36  C   UNL A   1      35.135  35.661  32.370  1.00  0.00     0.016 A 
ATOM     37  C   UNL A   1      33.804  33.718  32.971  1.00  0.00     0.016 A 
ATOM     38  C   UNL A   1      36.286  35.020  32.836  1.00  0.00     0.010 A 
ATOM     39  C   UNL A   1      34.957  33.072  33.419  1.00  0.00     0.010 A 
ATOM     40  C   UNL A   1      36.206  33.711  33.332  1.00  0.00    -0.014 A 
BRANCH  40  41
ATOM     41  C   UNL A   1      37.447  32.947  33.601  1.00  0.00     0.031 A 
ATOM     42  C   UNL A   1      38.188  33.214  34.882  1.00  0.00     0.074 A 
ATOM     43  C   UNL A   1      37.895  32.016  32.740  1.00  0.00     0.049 A 
ATOM     44  N   UNL A   1      39.290  32.673  35.333  1.00  0.00    -0.248 NA
ATOM     45  C   UNL A   1      37.604  34.227  35.776  1.00  0.00     0.031 C 
ATOM     46  C   UNL A   1      37.245  31.645  31.485  1.00  0.00     0.029 A 
ATOM     47  N   UNL A   1      39.006  31.211  32.795  1.00  0.00    -0.354 N 
ATOM     48  C   UNL A   1      39.520  33.267  36.565  1.00  0.00     0.074 A 
ATOM     49  C   UNL A   1      38.475  34.243  36.774  1.00  0.00     0.031 C 
ATOM     50  C   UNL A   1      37.967  30.678  30.891  1.00  0.00     0.029 A 
ATOM     51  C   UNL A   1      39.142  30.383  31.708  1.00  0.00     0.049 A 
ATOM     52  H   UNL A   1      39.644  31.226  33.544  1.00  0.00     0.167 HD
ATOM     53  C   UNL A   1      40.506  33.005  37.454  1.00  0.00     0.037 A 
ATOM     54  C   UNL A   1      40.112  29.494  31.408  1.00  0.00     0.037 A 
ATOM     55  C   UNL A   1      41.553  32.042  37.240  1.00  0.00     0.049 A 
ATOM     56  C   UNL A   1      41.256  29.293  32.372  1.00  0.00     0.074 A 
ATOM     57  C   UNL A   1      42.600  31.711  38.080  1.00  0.00     0.029 A 
ATOM     58  N   UNL A   1      41.685  31.260  36.103  1.00  0.00    -0.354 N 
ATOM     59  N   UNL A   1      41.453  29.839  33.548  1.00  0.00    -0.248 NA
ATOM     60  C   UNL A   1      42.311  28.350  31.969  1.00  0.00     0.031 C 
ATOM     61  C   UNL A   1      43.397  30.766  37.430  1.00  0.00     0.029 A 
ATOM     62  C   UNL A   1      42.812  30.463  36.210  1.00  0.00     0.049 A 
ATOM     63  H   UNL A   1      41.070  31.270  35.334  1.00  0.00     0.167 HD
ATOM     64  C   UNL A   1      42.627  29.281  34.038  1.00  0.00     0.074 A 
ATOM     65  C   UNL A   1      43.099  28.350  33.036  1.00  0.00     0.031 C 
ATOM     66  C   UNL A   1      43.256  29.519  35.216  1.00  0.00     0.037 A 
BRANCH  53  67
ATOM     67  C   UNL A   1      40.506  33.769  38.745  1.00  0.00     0.064 A 
ATOM     68  C   UNL A   1      41.307  34.907  38.918  1.00  0.00     0.173 A 
ATOM     69  C   UNL A   1      39.645  33.404  39.790  1.00  0.00     0.173 A 
ATOM     70  F   UNL A   1      42.158  35.287  37.954  1.00  0.00    -0.203 F 
ATOM     71  C   UNL A   1      41.251  35.648  40.095  1.00  0.00     0.198 A 
ATOM     72  C   UNL A   1      39.571  34.164  40.954  1.00  0.00     0.198 A 
ATOM     73  F   UNL A   1      38.857  32.324  39.673  1.00  0.00    -0.203 F 
ATOM     74  F   UNL A   1      42.047  36.715  40.251  1.00  0.00    -0.200 F 
ATOM     75  C   UNL A   1      40.375  35.283  41.106  1.00  0.00     0.200 A 
ATOM     76  F   UNL A   1      38.713  33.819  41.924  1.00  0.00    -0.200 F 
ATOM     77  F   UNL A   1      40.307  36.010  42.230  1.00  0.00    -0.200 F 
ENDBRANCH  53  67
BRANCH  54  78
ATOM     78  C   UNL A   1      40.036  28.708  30.148  1.00  0.00     0.064 A 
ATOM     79  C   UNL A   1      39.409  27.454  30.119  1.00  0.00     0.173 A 
ATOM     80  C   UNL A   1      40.588  29.187  28.951  1.00  0.00     0.173 A 
ATOM     81  F   UNL A   1      38.890  26.939  31.244  1.00  0.00    -0.203 F 
ATOM     82  C   UNL A   1      39.349  26.704  28.945  1.00  0.00     0.198 A 
ATOM     83  C   UNL A   1      40.502  28.450  27.772  1.00  0.00     0.198 A 
ATOM     84  F   UNL A   1      41.204  30.378  28.925  1.00  0.00    -0.203 F 
ATOM     85  F   UNL A   1      38.781  25.491  28.957  1.00  0.00    -0.200 F 
ATOM     86  C   UNL A   1      39.887  27.207  27.770  1.00  0.00     0.200 A 
ATOM     87  F   UNL A   1      41.016  28.943  26.636  1.00  0.00    -0.200 F 
ATOM     88  F   UNL A   1      39.823  26.489  26.641  1.00  0.00    -0.200 F 
ENDBRANCH  54  78
BRANCH  66  89
ATOM     89  C   UNL A   1      44.502  28.742  35.526  1.00  0.00     0.064 A 
ATOM     90  C   UNL A   1      45.775  29.234  35.203  1.00  0.00     0.173 A 
ATOM     91  C   UNL A   1      44.425  27.546  36.258  1.00  0.00     0.173 A 
ATOM     92  F   UNL A   1      45.902  30.367  34.497  1.00  0.00    -0.203 F 
ATOM     93  C   UNL A   1      46.924  28.556  35.601  1.00  0.00     0.198 A 
ATOM     94  C   UNL A   1      45.576  26.887  36.678  1.00  0.00     0.198 A 
ATOM     95  F   UNL A   1      43.231  27.040  36.601  1.00  0.00    -0.203 F 
ATOM     96  F   UNL A   1      48.130  29.033  35.265  1.00  0.00    -0.200 F 
ATOM     97  C   UNL A   1      46.824  27.392  36.350  1.00  0.00     0.200 A 
ATOM     98  F   UNL A   1      45.477  25.775  37.419  1.00  0.00    -0.200 F 
ATOM     99  F   UNL A   1      47.933  26.758  36.757  1.00  0.00    -0.200 F 
ENDBRANCH  66  89
ENDBRANCH  40  41
ENDBRANCH  33  35
ENDBRANCH  32  33
ENDBRANCH  31  32
ENDBRANCH  30  31
ENDBRANCH  29  30
ENDBRANCH  28  29
ENDBRANCH   1  28
TORSDOF 21
ENDMDL
MODEL 2
REMARK VINA RESULT:     -10.8      0.438      7.122
REMARK SMILES Cc1cc2c(c(C)c1Cl)C=C(C(=O)OCCOCCOCCOCCOC(=O)c1ccc(-c3c4nc(c(-c5c(F)c(F)c(F)c(F)c5F)c5ccc([nH]5)c(-c5c(F)c(F)c(F)c(F)c5F)c5nc(c(-c6c(F)c(F)c(F)c(F)c6F)c6ccc3[nH]6)C=C5)C=C4)cc1)[C@@H](C(F)(F)F)O2
REMARK SMILES IDX 21 1 20 2 19 3 18 4 17 5 16 6 15 7 14 8 12 9 13 10 11 11
REMARK SMILES IDX 1 12 2 13 3 14 8 15 4 16 6 17 9 18 5 19 97 20 7 21 10 22
REMARK SMILES IDX 92 23 93 24 94 25 95 26 96 27 22 28 23 29 24 30 25 31 26 32
REMARK SMILES IDX 27 33 28 34 29 35 30 36 91 37 31 38 90 39 32 40 33 41 34 42
REMARK SMILES IDX 84 43 35 44 89 45 83 46 85 47 36 48 88 49 82 50 81 51 37 53
REMARK SMILES IDX 69 54 49 55 68 56 50 57 53 58 67 59 86 60 51 61 52 62 66 64
REMARK SMILES IDX 87 65 54 66 38 67 39 68 47 69 40 70 41 71 45 72 48 73 42 74
REMARK SMILES IDX 43 75 46 76 44 77 70 78 71 79 79 80 72 81 73 82 77 83 80 84
REMARK SMILES IDX 74 85 75 86 78 87 76 88 55 89 56 90 64 91 57 92 58 93 62 94
REMARK SMILES IDX 65 95 59 96 60 97 63 98 61 99
REMARK H PARENT 85 52 53 63
REMARK Flexibility Score: inf
ROOT
ATOM      1  C   UNL A   1      34.966  31.999  28.317  1.00  0.00     0.188 C 
ENDROOT
BRANCH   1   2
ATOM      2  O   UNL A   1      33.972  31.460  27.443  1.00  0.00    -0.377 OA
BRANCH   2   3
ATOM      3  C   UNL A   1      33.899  30.048  27.305  1.00  0.00     0.188 C 
BRANCH   3   4
ATOM      4  C   UNL A   1      32.458  29.523  27.154  1.00  0.00     0.188 C 
BRANCH   4   5
ATOM      5  O   UNL A   1      31.797  30.059  26.016  1.00  0.00    -0.376 OA
BRANCH   5   6
ATOM      6  C   UNL A   1      31.674  29.262  24.849  1.00  0.00     0.202 C 
BRANCH   6   7
ATOM      7  C   UNL A   1      32.902  28.986  23.964  1.00  0.00     0.261 C 
BRANCH   7   8
ATOM      8  O   UNL A   1      33.561  27.730  24.163  1.00  0.00    -0.460 OA
BRANCH   8   9
ATOM      9  C   UNL A   1      33.560  26.854  23.142  1.00  0.00     0.338 C 
ATOM     10  O   UNL A   1      33.849  27.086  21.981  1.00  0.00    -0.246 OA
BRANCH   9  11
ATOM     11  C   UNL A   1      33.310  25.507  23.704  1.00  0.00     0.087 C 
ATOM     12  C   UNL A   1      33.175  19.223  25.148  1.00  0.00     0.046 C 
ATOM     13  C   UNL A   1      33.593  20.656  24.954  1.00  0.00    -0.028 A 
ATOM     14  C   UNL A   1      32.578  21.622  24.938  1.00  0.00     0.052 A 
ATOM     15  C   UNL A   1      34.929  21.076  24.801  1.00  0.00     0.047 A 
ATOM     16  C   UNL A   1      32.861  22.951  24.640  1.00  0.00     0.128 A 
ATOM     17  C   UNL A   1      35.236  22.430  24.521  1.00  0.00    -0.021 A 
ATOM     18  Cl  UNL A   1      36.200  19.900  24.940  1.00  0.00    -0.084 Cl
ATOM     19  C   UNL A   1      34.171  23.352  24.364  1.00  0.00     0.022 A 
ATOM     20  O   UNL A   1      31.775  23.779  24.625  1.00  0.00    -0.475 OA
ATOM     21  C   UNL A   1      36.664  22.914  24.394  1.00  0.00     0.047 C 
ATOM     22  C   UNL A   1      34.371  24.702  23.841  1.00  0.00     0.027 C 
ATOM     23  C   UNL A   1      31.923  25.145  24.159  1.00  0.00     0.316 C 
BRANCH  23  24
ATOM     24  C   UNL A   1      30.864  25.382  23.073  1.00  0.00     0.430 C 
ATOM     25  F   UNL A   1      31.410  25.317  21.834  1.00  0.00    -0.167 F 
ATOM     26  F   UNL A   1      29.878  24.456  23.108  1.00  0.00    -0.167 F 
ATOM     27  F   UNL A   1      30.282  26.597  23.197  1.00  0.00    -0.167 F 
ENDBRANCH  23  24
ENDBRANCH   9  11
ENDBRANCH   8   9
ENDBRANCH   7   8
ENDBRANCH   6   7
ENDBRANCH   5   6
ENDBRANCH   4   5
ENDBRANCH   3   4
ENDBRANCH   2   3
ENDBRANCH   1   2
BRANCH   1  28
ATOM     28  C   UNL A   1      34.632  33.022  29.433  1.00  0.00     0.188 C 
BRANCH  28  29
ATOM     29  O   UNL A   1      33.417  33.731  29.232  1.00  0.00    -0.376 OA
BRANCH  29  30
ATOM     30  C   UNL A   1      33.495  35.130  29.019  1.00  0.00     0.202 C 
BRANCH  30  31
ATOM     31  C   UNL A   1      32.767  35.987  30.062  1.00  0.00     0.261 C 
BRANCH  31  32
ATOM     32  O   UNL A   1      32.411  35.312  31.278  1.00  0.00    -0.460 OA
BRANCH  32  33
ATOM     33  C   UNL A   1      32.957  35.764  32.427  1.00  0.00     0.338 C 
ATOM     34  O   UNL A   1      32.473  36.551  33.220  1.00  0.00    -0.246 OA
BRANCH  33  35
ATOM     35  C   UNL A   1      34.187  34.983  32.659  1.00  0.00     0.060 A 
ATOM     36  C   UNL A   1      34.092  33.706  33.226  1.00  0.00     0.016 A 
ATOM     37  C   UNL A   1      35.428  35.500  32.276  1.00  0.00     0.016 A 
ATOM     38  C   UNL A   1      35.248  32.948  33.428  1.00  0.00     0.010 A 
ATOM     39  C   UNL A   1      36.584  34.749  32.496  1.00  0.00     0.010 A 
ATOM     40  C   UNL A   1      36.502  33.481  33.094  1.00  0.00    -0.014 A 
BRANCH  40  41
ATOM     41  C   UNL A   1      37.737  32.784  33.524  1.00  0.00     0.031 A 
ATOM     42  C   UNL A   1      38.313  31.727  32.624  1.00  0.00     0.074 A 
ATOM     43  C   UNL A   1      38.352  33.101  34.678  1.00  0.00     0.049 A 
ATOM     44  N   UNL A   1      39.379  30.987  32.786  1.00  0.00    -0.248 NA
ATOM     45  C   UNL A   1      37.588  31.472  31.368  1.00  0.00     0.031 C 
ATOM     46  C   UNL A   1      37.909  34.131  35.615  1.00  0.00     0.029 A 
ATOM     47  N   UNL A   1      39.487  32.585  35.255  1.00  0.00    -0.354 N 
ATOM     48  C   UNL A   1      39.460  30.194  31.651  1.00  0.00     0.074 A 
ATOM     49  C   UNL A   1      38.313  30.505  30.827  1.00  0.00     0.031 C 
ATOM     50  C   UNL A   1      38.768  34.176  36.649  1.00  0.00     0.029 A 
ATOM     51  C   UNL A   1      39.803  33.161  36.460  1.00  0.00     0.049 A 
ATOM     52  H   UNL A   1      40.023  31.870  34.842  1.00  0.00     0.167 HD
ATOM     53  C   UNL A   1      40.419  29.301  31.316  1.00  0.00     0.037 A 
ATOM     54  C   UNL A   1      40.811  32.890  37.315  1.00  0.00     0.037 A 
ATOM     55  C   UNL A   1      41.553  28.984  32.141  1.00  0.00     0.049 A 
ATOM     56  C   UNL A   1      41.813  31.817  36.962  1.00  0.00     0.074 A 
ATOM     57  C   UNL A   1      42.575  28.087  31.889  1.00  0.00     0.029 A 
ATOM     58  N   UNL A   1      41.811  29.552  33.379  1.00  0.00    -0.354 N 
ATOM     59  N   UNL A   1      41.898  31.090  35.875  1.00  0.00    -0.248 NA
ATOM     60  C   UNL A   1      42.860  31.529  37.955  1.00  0.00     0.031 C 
ATOM     61  C   UNL A   1      43.424  28.073  32.999  1.00  0.00     0.029 A 
ATOM     62  C   UNL A   1      42.965  29.006  33.915  1.00  0.00     0.049 A 
ATOM     63  H   UNL A   1      41.255  30.239  33.814  1.00  0.00     0.167 HD
ATOM     64  C   UNL A   1      43.023  30.290  36.035  1.00  0.00     0.074 A 
ATOM     65  C   UNL A   1      43.592  30.621  37.323  1.00  0.00     0.031 C 
ATOM     66  C   UNL A   1      43.537  29.364  35.188  1.00  0.00     0.037 A 
BRANCH  53  67
ATOM     67  C   UNL A   1      40.290  28.597  29.998  1.00  0.00     0.064 A 
ATOM     68  C   UNL A   1      40.930  29.081  28.847  1.00  0.00     0.173 A 
ATOM     69  C   UNL A   1      39.583  27.389  29.899  1.00  0.00     0.173 A 
ATOM     70  F   UNL A   1      41.605  30.239  28.887  1.00  0.00    -0.203 F 
ATOM     71  C   UNL A   1      40.860  28.386  27.643  1.00  0.00     0.198 A 
ATOM     72  C   UNL A   1      39.539  26.682  28.701  1.00  0.00     0.198 A 
ATOM     73  F   UNL A   1      38.955  26.883  30.971  1.00  0.00    -0.203 F 
ATOM     74  F   UNL A   1      41.454  28.882  26.550  1.00  0.00    -0.200 F 
ATOM     75  C   UNL A   1      40.176  27.182  27.575  1.00  0.00     0.200 A 
ATOM     76  F   UNL A   1      38.890  25.511  28.639  1.00  0.00    -0.200 F 
ATOM     77  F   UNL A   1      40.128  26.502  26.420  1.00  0.00    -0.200 F 
ENDBRANCH  53  67
BRANCH  54  78
ATOM     78  C   UNL A   1      40.940  33.661  38.580  1.00  0.00     0.064 A 
ATOM     79  C   UNL A   1      41.843  34.730  38.682  1.00  0.00     0.173 A 
ATOM     80  C   UNL A   1      40.173  33.347  39.711  1.00  0.00     0.173 A 
ATOM     81  F   UNL A   1      42.620  35.052  37.637  1.00  0.00    -0.203 F 
ATOM     82  C   UNL A   1      41.981  35.446  39.871  1.00  0.00     0.198 A 
ATOM     83  C   UNL A   1      40.291  34.082  40.889  1.00  0.00     0.198 A 
ATOM     84  F   UNL A   1      39.300  32.330  39.669  1.00  0.00    -0.203 F 
ATOM     85  F   UNL A   1      42.881  36.436  39.952  1.00  0.00    -0.200 F 
ATOM     86  C   UNL A   1      41.198  35.127  40.970  1.00  0.00     0.200 A 
ATOM     87  F   UNL A   1      39.527  33.777  41.947  1.00  0.00    -0.200 F 
ATOM     88  F   UNL A   1      41.327  35.821  42.109  1.00  0.00    -0.200 F 
ENDBRANCH  54  78
BRANCH  66  89
ATOM     89  C   UNL A   1      44.801  28.661  35.587  1.00  0.00     0.064 A 
ATOM     90  C   UNL A   1      44.778  27.437  36.271  1.00  0.00     0.173 A 
ATOM     91  C   UNL A   1      46.048  29.161  35.176  1.00  0.00     0.173 A 
ATOM     92  F   UNL A   1      43.614  26.922  36.693  1.00  0.00    -0.203 F 
ATOM     93  C   UNL A   1      45.956  26.742  36.530  1.00  0.00     0.198 A 
ATOM     94  C   UNL A   1      47.219  28.449  35.411  1.00  0.00     0.198 A 
ATOM     95  F   UNL A   1      46.123  30.322  34.508  1.00  0.00    -0.203 F 
ATOM     96  F   UNL A   1      45.913  25.584  37.203  1.00  0.00    -0.200 F 
ATOM     97  C   UNL A   1      47.173  27.240  36.088  1.00  0.00     0.200 A 
ATOM     98  F   UNL A   1      48.391  28.922  34.965  1.00  0.00    -0.200 F 
ATOM     99  F   UNL A   1      48.302  26.554  36.314  1.00  0.00    -0.200 F 
ENDBRANCH  66  89
ENDBRANCH  40  41
ENDBRANCH  33  35
ENDBRANCH  32  33
ENDBRANCH  31  32
ENDBRANCH  30  31
ENDBRANCH  29  30
ENDBRANCH  28  29
ENDBRANCH   1  28
TORSDOF 21
ENDMDL
MODEL 3
REMARK VINA RESULT:     -10.7      6.708     12.254
REMARK SMILES Cc1cc2c(c(C)c1Cl)C=C(C(=O)OCCOCCOCCOCCOC(=O)c1ccc(-c3c4nc(c(-c5c(F)c(F)c(F)c(F)c5F)c5ccc([nH]5)c(-c5c(F)c(F)c(F)c(F)c5F)c5nc(c(-c6c(F)c(F)c(F)c(F)c6F)c6ccc3[nH]6)C=C5)C=C4)cc1)[C@@H](C(F)(F)F)O2
REMARK SMILES IDX 21 1 20 2 19 3 18 4 17 5 16 6 15 7 14 8 12 9 13 10 11 11
REMARK SMILES IDX 1 12 2 13 3 14 8 15 4 16 6 17 9 18 5 19 97 20 7 21 10 22
REMARK SMILES IDX 92 23 93 24 94 25 95 26 96 27 22 28 23 29 24 30 25 31 26 32
REMARK SMILES IDX 27 33 28 34 29 35 30 36 91 37 31 38 90 39 32 40 33 41 34 42
REMARK SMILES IDX 84 43 35 44 89 45 83 46 85 47 36 48 88 49 82 50 81 51 37 53
REMARK SMILES IDX 69 54 49 55 68 56 50 57 53 58 67 59 86 60 51 61 52 62 66 64
REMARK SMILES IDX 87 65 54 66 38 67 39 68 47 69 40 70 41 71 45 72 48 73 42 74
REMARK SMILES IDX 43 75 46 76 44 77 70 78 71 79 79 80 72 81 73 82 77 83 80 84
REMARK SMILES IDX 74 85 75 86 78 87 76 88 55 89 56 90 64 91 57 92 58 93 62 94
REMARK SMILES IDX 65 95 59 96 60 97 63 98 61 99
REMARK H PARENT 85 52 53 63
REMARK Flexibility Score: inf
ROOT
ATOM      1  C   UNL A   1      40.749  21.426  26.449  1.00  0.00     0.188 C 
ENDROOT
BRANCH   1   2
ATOM      2  O   UNL A   1      40.012  22.377  27.220  1.00  0.00    -0.377 OA
BRANCH   2   3
ATOM      3  C   UNL A   1      39.270  23.370  26.524  1.00  0.00     0.188 C 
BRANCH   3   4
ATOM      4  C   UNL A   1      37.853  22.909  26.129  1.00  0.00     0.188 C 
BRANCH   4   5
ATOM      5  O   UNL A   1      37.809  22.332  24.830  1.00  0.00    -0.376 OA
BRANCH   5   6
ATOM      6  C   UNL A   1      37.260  21.034  24.670  1.00  0.00     0.202 C 
BRANCH   6   7
ATOM      7  C   UNL A   1      35.770  20.780  24.956  1.00  0.00     0.261 C 
BRANCH   7   8
ATOM      8  O   UNL A   1      34.836  21.601  24.246  1.00  0.00    -0.460 OA
BRANCH   8   9
ATOM      9  C   UNL A   1      33.527  21.427  24.507  1.00  0.00     0.338 C 
ATOM     10  O   UNL A   1      32.909  20.378  24.475  1.00  0.00    -0.246 OA
BRANCH   9  11
ATOM     11  C   UNL A   1      32.995  22.713  25.013  1.00  0.00     0.087 C 
ATOM     12  C   UNL A   1      31.790  28.876  26.484  1.00  0.00     0.046 C 
ATOM     13  C   UNL A   1      31.969  27.568  25.761  1.00  0.00    -0.028 A 
ATOM     14  C   UNL A   1      31.844  26.396  26.519  1.00  0.00     0.052 A 
ATOM     15  C   UNL A   1      32.241  27.456  24.383  1.00  0.00     0.047 A 
ATOM     16  C   UNL A   1      32.118  25.151  25.962  1.00  0.00     0.128 A 
ATOM     17  C   UNL A   1      32.498  26.194  23.794  1.00  0.00    -0.021 A 
ATOM     18  Cl  UNL A   1      32.278  28.898  23.415  1.00  0.00    -0.084 Cl
ATOM     19  C   UNL A   1      32.510  25.045  24.624  1.00  0.00     0.022 A 
ATOM     20  O   UNL A   1      31.991  24.097  26.820  1.00  0.00    -0.475 OA
ATOM     21  C   UNL A   1      32.750  26.043  22.311  1.00  0.00     0.047 C 
ATOM     22  C   UNL A   1      32.997  23.747  24.162  1.00  0.00     0.027 C 
ATOM     23  C   UNL A   1      32.416  22.775  26.400  1.00  0.00     0.316 C 
BRANCH  23  24
ATOM     24  C   UNL A   1      33.378  22.236  27.467  1.00  0.00     0.430 C 
ATOM     25  F   UNL A   1      32.855  22.368  28.711  1.00  0.00    -0.167 F 
ATOM     26  F   UNL A   1      33.643  20.919  27.299  1.00  0.00    -0.167 F 
ATOM     27  F   UNL A   1      34.561  22.890  27.453  1.00  0.00    -0.167 F 
ENDBRANCH  23  24
ENDBRANCH   9  11
ENDBRANCH   8   9
ENDBRANCH   7   8
ENDBRANCH   6   7
ENDBRANCH   5   6
ENDBRANCH   4   5
ENDBRANCH   3   4
ENDBRANCH   2   3
ENDBRANCH   1   2
BRANCH   1  28
ATOM     28  C   UNL A   1      40.279  19.961  26.258  1.00  0.00     0.188 C 
BRANCH  28  29
ATOM     29  O   UNL A   1      41.259  19.102  25.691  1.00  0.00    -0.376 OA
BRANCH  29  30
ATOM     30  C   UNL A   1      42.442  18.866  26.434  1.00  0.00     0.202 C 
BRANCH  30  31
ATOM     31  C   UNL A   1      43.641  18.382  25.610  1.00  0.00     0.261 C 
BRANCH  31  32
ATOM     32  O   UNL A   1      43.845  19.058  24.360  1.00  0.00    -0.460 OA
BRANCH  32  33
ATOM     33  C   UNL A   1      45.054  19.618  24.142  1.00  0.00     0.338 C 
ATOM     34  O   UNL A   1      45.974  19.166  23.483  1.00  0.00    -0.246 OA
BRANCH  33  35
ATOM     35  C   UNL A   1      45.005  20.986  24.694  1.00  0.00     0.060 A 
ATOM     36  C   UNL A   1      44.654  22.052  23.857  1.00  0.00     0.016 A 
ATOM     37  C   UNL A   1      45.267  21.202  26.050  1.00  0.00     0.016 A 
ATOM     38  C   UNL A   1      44.582  23.346  24.375  1.00  0.00     0.010 A 
ATOM     39  C   UNL A   1      45.213  22.500  26.562  1.00  0.00     0.010 A 
ATOM     40  C   UNL A   1      44.893  23.580  25.723  1.00  0.00    -0.014 A 
BRANCH  40  41
ATOM     41  C   UNL A   1      45.049  24.970  26.214  1.00  0.00     0.031 A 
ATOM     42  C   UNL A   1      46.404  25.613  26.121  1.00  0.00     0.074 A 
ATOM     43  C   UNL A   1      44.004  25.657  26.708  1.00  0.00     0.049 A 
ATOM     44  N   UNL A   1      46.782  26.811  26.484  1.00  0.00    -0.248 NA
ATOM     45  C   UNL A   1      47.479  24.794  25.537  1.00  0.00     0.031 C 
ATOM     46  C   UNL A   1      42.636  25.152  26.815  1.00  0.00     0.029 A 
ATOM     47  N   UNL A   1      43.933  26.933  27.210  1.00  0.00    -0.354 N 
ATOM     48  C   UNL A   1      48.128  26.894  26.159  1.00  0.00     0.074 A 
ATOM     49  C   UNL A   1      48.517  25.613  25.614  1.00  0.00     0.031 C 
ATOM     50  C   UNL A   1      41.859  26.113  27.346  1.00  0.00     0.029 A 
ATOM     51  C   UNL A   1      42.678  27.288  27.640  1.00  0.00     0.049 A 
ATOM     52  H   UNL A   1      44.709  27.536  27.257  1.00  0.00     0.167 HD
ATOM     53  C   UNL A   1      48.960  27.952  26.285  1.00  0.00     0.037 A 
ATOM     54  C   UNL A   1      42.246  28.431  28.213  1.00  0.00     0.037 A 
ATOM     55  C   UNL A   1      48.575  29.223  26.838  1.00  0.00     0.049 A 
ATOM     56  C   UNL A   1      43.220  29.563  28.433  1.00  0.00     0.074 A 
ATOM     57  C   UNL A   1      49.351  30.355  27.012  1.00  0.00     0.029 A 
ATOM     58  N   UNL A   1      47.307  29.526  27.309  1.00  0.00    -0.354 N 
ATOM     59  N   UNL A   1      44.485  29.643  28.098  1.00  0.00    -0.248 NA
ATOM     60  C   UNL A   1      42.705  30.765  29.108  1.00  0.00     0.031 C 
ATOM     61  C   UNL A   1      48.566  31.327  27.637  1.00  0.00     0.029 A 
ATOM     62  C   UNL A   1      47.285  30.822  27.797  1.00  0.00     0.049 A 
ATOM     63  H   UNL A   1      46.538  28.912  27.300  1.00  0.00     0.167 HD
ATOM     64  C   UNL A   1      44.905  30.910  28.486  1.00  0.00     0.074 A 
ATOM     65  C   UNL A   1      43.760  31.567  29.078  1.00  0.00     0.031 C 
ATOM     66  C   UNL A   1      46.131  31.475  28.360  1.00  0.00     0.037 A 
BRANCH  53  67
ATOM     67  C   UNL A   1      50.375  27.790  25.815  1.00  0.00     0.064 A 
ATOM     68  C   UNL A   1      51.416  27.524  26.718  1.00  0.00     0.173 A 
ATOM     69  C   UNL A   1      50.683  27.827  24.447  1.00  0.00     0.173 A 
ATOM     70  F   UNL A   1      51.176  27.495  28.037  1.00  0.00    -0.203 F 
ATOM     71  C   UNL A   1      52.716  27.309  26.267  1.00  0.00     0.198 A 
ATOM     72  C   UNL A   1      51.978  27.582  23.999  1.00  0.00     0.198 A 
ATOM     73  F   UNL A   1      49.723  28.074  23.544  1.00  0.00    -0.203 F 
ATOM     74  F   UNL A   1      53.700  27.086  27.149  1.00  0.00    -0.200 F 
ATOM     75  C   UNL A   1      52.993  27.326  24.909  1.00  0.00     0.200 A 
ATOM     76  F   UNL A   1      52.242  27.584  22.685  1.00  0.00    -0.200 F 
ATOM     77  F   UNL A   1      54.240  27.096  24.475  1.00  0.00    -0.200 F 
ENDBRANCH  53  67
BRANCH  54  78
ATOM     78  C   UNL A   1      40.817  28.574  28.599  1.00  0.00     0.064 A 
ATOM     79  C   UNL A   1      39.866  29.038  27.679  1.00  0.00     0.173 A 
ATOM     80  C   UNL A   1      40.372  28.257  29.891  1.00  0.00     0.173 A 
ATOM     81  F   UNL A   1      40.245  29.381  26.439  1.00  0.00    -0.203 F 
ATOM     82  C   UNL A   1      38.527  29.191  28.040  1.00  0.00     0.198 A 
ATOM     83  C   UNL A   1      39.029  28.383  30.242  1.00  0.00     0.198 A 
ATOM     84  F   UNL A   1      41.242  27.816  30.811  1.00  0.00    -0.203 F 
ATOM     85  F   UNL A   1      37.648  29.675  27.153  1.00  0.00    -0.200 F 
ATOM     86  C   UNL A   1      38.109  28.854  29.319  1.00  0.00     0.200 A 
ATOM     87  F   UNL A   1      38.627  28.048  31.476  1.00  0.00    -0.200 F 
ATOM     88  F   UNL A   1      36.821  28.995  29.663  1.00  0.00    -0.200 F 
ENDBRANCH  54  78
BRANCH  66  89
ATOM     89  C   UNL A   1      46.311  32.890  28.826  1.00  0.00     0.064 A 
ATOM     90  C   UNL A   1      46.067  33.981  27.978  1.00  0.00     0.173 A 
ATOM     91  C   UNL A   1      46.619  33.158  30.170  1.00  0.00     0.173 A 
ATOM     92  F   UNL A   1      45.778  33.778  26.684  1.00  0.00    -0.203 F 
ATOM     93  C   UNL A   1      46.126  35.286  28.460  1.00  0.00     0.198 A 
ATOM     94  C   UNL A   1      46.649  34.462  30.653  1.00  0.00     0.198 A 
ATOM     95  F   UNL A   1      46.850  32.149  31.024  1.00  0.00    -0.203 F 
ATOM     96  F   UNL A   1      45.909  36.314  27.628  1.00  0.00    -0.200 F 
ATOM     97  C   UNL A   1      46.403  35.525  29.797  1.00  0.00     0.200 A 
ATOM     98  F   UNL A   1      46.895  34.690  31.950  1.00  0.00    -0.200 F 
ATOM     99  F   UNL A   1      46.430  36.781  30.264  1.00  0.00    -0.200 F 
ENDBRANCH  66  89
ENDBRANCH  40  41
ENDBRANCH  33  35
ENDBRANCH  32  33
ENDBRANCH  31  32
ENDBRANCH  30  31
ENDBRANCH  29  30
ENDBRANCH  28  29
ENDBRANCH   1  28
TORSDOF 21
ENDMDL
