MODEL 1
REMARK VINA RESULT:     -10.3      0.000      0.000
REMARK SMILES COc1ccc(Br)c([C@H]2[NH2+][C@H](C(=O)OCCOCCOCCOCCOC(=O)c3ccc(-c4c5nc(c(-c6c(F)c(F)c(F)c(F)c6F)c6ccc([nH]6)c(-c6c(F)c(F)c(F)c(F)c6F)c6nc(c(-c7c(F)c(F)c(F)c(F)c7F)c7ccc4[nH]7)C=C6)C=C5)cc3)CS2)c1O
REMARK SMILES IDX 20 1 19 2 18 3 17 4 16 5 15 6 14 7 12 8 13 9 11 10 9 11
REMARK SMILES IDX 10 12 93 13 92 16 8 17 3 18 4 19 94 20 5 21 6 22 7 23 2 24
REMARK SMILES IDX 1 25 95 26 21 28 22 29 23 30 24 31 25 32 26 33 27 34 28 35
REMARK SMILES IDX 29 36 30 37 91 38 31 39 90 40 32 41 33 42 34 43 84 44 35 45
REMARK SMILES IDX 89 46 83 47 85 48 36 49 88 50 82 51 81 52 37 54 69 55 49 56
REMARK SMILES IDX 68 57 50 58 53 59 67 60 86 61 51 62 52 63 66 65 87 66 54 67
REMARK SMILES IDX 38 68 39 69 47 70 40 71 41 72 45 73 48 74 42 75 43 76 46 77
REMARK SMILES IDX 44 78 70 79 71 80 79 81 72 82 73 83 77 84 80 85 74 86 75 87
REMARK SMILES IDX 78 88 76 89 55 90 56 91 64 92 57 93 58 94 62 95 65 96 59 97
REMARK SMILES IDX 60 98 63 99 61 100
REMARK H PARENT 10 14 10 15 95 27 85 53 53 64
REMARK Flexibility Score: inf
ROOT
ATOM      1  O   UNL A   1      34.861  31.097  28.311  1.00  0.00    -0.377 OA
ENDROOT
BRANCH   1   2
ATOM      2  C   UNL A   1      34.849  29.851  27.642  1.00  0.00     0.188 C 
BRANCH   2   3
ATOM      3  C   UNL A   1      33.558  29.558  26.856  1.00  0.00     0.188 C 
BRANCH   3   4
ATOM      4  O   UNL A   1      33.239  28.242  26.414  1.00  0.00    -0.376 OA
BRANCH   4   5
ATOM      5  C   UNL A   1      33.318  27.900  25.039  1.00  0.00     0.202 C 
BRANCH   5   6
ATOM      6  C   UNL A   1      32.059  27.907  24.150  1.00  0.00     0.261 C 
BRANCH   6   7
ATOM      7  O   UNL A   1      31.653  26.650  23.568  1.00  0.00    -0.459 OA
BRANCH   7   8
ATOM      8  C   UNL A   1      30.428  26.209  23.935  1.00  0.00     0.365 C 
ATOM      9  O   UNL A   1      29.398  26.867  23.785  1.00  0.00    -0.245 OA
BRANCH   8  10
ATOM     10  C   UNL A   1      30.372  24.841  24.625  1.00  0.00     0.304 C 
ATOM     11  C   UNL A   1      32.512  23.731  24.899  1.00  0.00     0.279 C 
ATOM     12  N   UNL A   1      31.245  23.731  24.150  1.00  0.00    -0.319 N 
ATOM     13  S   UNL A   1      32.226  24.545  26.501  1.00  0.00    -0.087 SA
ATOM     14  H   UNL A   1      30.768  22.841  24.293  1.00  0.00     0.348 HD
ATOM     15  H   UNL A   1      31.442  23.862  23.158  1.00  0.00     0.348 HD
ATOM     16  C   UNL A   1      30.523  25.020  26.123  1.00  0.00     0.153 C 
BRANCH  11  17
ATOM     17  C   UNL A   1      33.163  22.336  24.929  1.00  0.00     0.080 A 
ATOM     18  C   UNL A   1      33.106  19.891  25.330  1.00  0.00     0.161 A 
ATOM     19  C   UNL A   1      34.447  19.768  25.001  1.00  0.00     0.051 A 
ATOM     20  C   UNL A   1      32.466  21.148  25.252  1.00  0.00     0.169 A 
ATOM     21  C   UNL A   1      35.156  20.899  24.626  1.00  0.00     0.020 A 
ATOM     22  C   UNL A   1      34.536  22.163  24.623  1.00  0.00     0.032 A 
ATOM     23  Br  UNL A   1      35.725  23.595  24.264  1.00  0.00    -0.050 Br
BRANCH  18  24
ATOM     24  O   UNL A   1      32.528  18.780  25.888  1.00  0.00    -0.493 OA
ATOM     25  C   UNL A   1      32.553  17.618  25.066  1.00  0.00     0.278 C 
ENDBRANCH  18  24
BRANCH  20  26
ATOM     26  O   UNL A   1      31.132  21.203  25.551  1.00  0.00    -0.504 OA
ATOM     27  H   UNL A   1      30.842  21.062  26.431  1.00  0.00     0.293 HD
ENDBRANCH  20  26
ENDBRANCH  11  17
ENDBRANCH   8  10
ENDBRANCH   7   8
ENDBRANCH   6   7
ENDBRANCH   5   6
ENDBRANCH   4   5
ENDBRANCH   3   4
ENDBRANCH   2   3
ENDBRANCH   1   2
BRANCH   1  28
ATOM     28  C   UNL A   1      34.278  32.192  27.626  1.00  0.00     0.188 C 
BRANCH  28  29
ATOM     29  C   UNL A   1      34.208  33.532  28.373  1.00  0.00     0.188 C 
BRANCH  29  30
ATOM     30  O   UNL A   1      33.863  33.395  29.745  1.00  0.00    -0.376 OA
BRANCH  30  31
ATOM     31  C   UNL A   1      34.709  33.991  30.720  1.00  0.00     0.202 C 
BRANCH  31  32
ATOM     32  C   UNL A   1      34.642  33.462  32.165  1.00  0.00     0.261 C 
BRANCH  32  33
ATOM     33  O   UNL A   1      35.170  32.148  32.409  1.00  0.00    -0.460 OA
BRANCH  33  34
ATOM     34  C   UNL A   1      36.313  32.035  33.113  1.00  0.00     0.338 C 
ATOM     35  O   UNL A   1      36.488  32.328  34.283  1.00  0.00    -0.246 OA
BRANCH  34  36
ATOM     36  C   UNL A   1      37.290  31.297  32.279  1.00  0.00     0.060 A 
ATOM     37  C   UNL A   1      38.319  30.589  32.915  1.00  0.00     0.016 A 
ATOM     38  C   UNL A   1      37.195  31.297  30.886  1.00  0.00     0.016 A 
ATOM     39  C   UNL A   1      39.280  29.916  32.158  1.00  0.00     0.010 A 
ATOM     40  C   UNL A   1      38.172  30.642  30.127  1.00  0.00     0.010 A 
ATOM     41  C   UNL A   1      39.241  29.981  30.759  1.00  0.00    -0.014 A 
BRANCH  41  42
ATOM     42  C   UNL A   1      40.423  29.546  29.971  1.00  0.00     0.031 A 
ATOM     43  C   UNL A   1      41.514  30.548  29.712  1.00  0.00     0.074 A 
ATOM     44  C   UNL A   1      40.547  28.285  29.519  1.00  0.00     0.049 A 
ATOM     45  N   UNL A   1      42.617  30.425  29.016  1.00  0.00    -0.248 NA
ATOM     46  C   UNL A   1      41.336  31.876  30.323  1.00  0.00     0.031 C 
ATOM     47  C   UNL A   1      39.588  27.208  29.742  1.00  0.00     0.029 A 
ATOM     48  N   UNL A   1      41.540  27.704  28.768  1.00  0.00    -0.354 N 
ATOM     49  C   UNL A   1      43.255  31.656  29.101  1.00  0.00     0.074 A 
ATOM     50  C   UNL A   1      42.403  32.524  29.884  1.00  0.00     0.031 C 
ATOM     51  C   UNL A   1      40.030  26.098  29.127  1.00  0.00     0.029 A 
ATOM     52  C   UNL A   1      41.287  26.395  28.439  1.00  0.00     0.049 A 
ATOM     53  H   UNL A   1      42.356  28.181  28.492  1.00  0.00     0.167 HD
ATOM     54  C   UNL A   1      44.449  32.027  28.581  1.00  0.00     0.037 A 
ATOM     55  C   UNL A   1      41.978  25.547  27.651  1.00  0.00     0.037 A 
ATOM     56  C   UNL A   1      45.293  31.164  27.797  1.00  0.00     0.049 A 
ATOM     57  C   UNL A   1      43.264  26.010  27.010  1.00  0.00     0.074 A 
ATOM     58  C   UNL A   1      46.527  31.443  27.237  1.00  0.00     0.029 A 
ATOM     59  N   UNL A   1      44.985  29.856  27.456  1.00  0.00    -0.354 N 
ATOM     60  N   UNL A   1      43.874  27.167  27.112  1.00  0.00    -0.248 NA
ATOM     61  C   UNL A   1      43.960  25.046  26.146  1.00  0.00     0.031 C 
ATOM     62  C   UNL A   1      46.935  30.325  26.501  1.00  0.00     0.029 A 
ATOM     63  C   UNL A   1      45.991  29.324  26.664  1.00  0.00     0.049 A 
ATOM     64  H   UNL A   1      44.171  29.376  27.734  1.00  0.00     0.167 HD
ATOM     65  C   UNL A   1      45.036  27.057  26.358  1.00  0.00     0.074 A 
ATOM     66  C   UNL A   1      45.053  25.716  25.814  1.00  0.00     0.031 C 
ATOM     67  C   UNL A   1      46.003  27.983  26.136  1.00  0.00     0.037 A 
BRANCH  54  68
ATOM     68  C   UNL A   1      44.897  33.441  28.815  1.00  0.00     0.064 A 
ATOM     69  C   UNL A   1      44.532  34.487  27.953  1.00  0.00     0.173 A 
ATOM     70  C   UNL A   1      45.679  33.760  29.936  1.00  0.00     0.173 A 
ATOM     71  F   UNL A   1      43.798  34.236  26.858  1.00  0.00    -0.203 F 
ATOM     72  C   UNL A   1      44.960  35.792  28.187  1.00  0.00     0.198 A 
ATOM     73  C   UNL A   1      46.076  35.070  30.186  1.00  0.00     0.198 A 
ATOM     74  F   UNL A   1      46.054  32.799  30.794  1.00  0.00    -0.203 F 
ATOM     75  F   UNL A   1      44.646  36.765  27.321  1.00  0.00    -0.200 F 
ATOM     76  C   UNL A   1      45.725  36.083  29.308  1.00  0.00     0.200 A 
ATOM     77  F   UNL A   1      46.802  35.352  31.277  1.00  0.00    -0.200 F 
ATOM     78  F   UNL A   1      46.129  37.340  29.537  1.00  0.00    -0.200 F 
ENDBRANCH  54  68
BRANCH  55  79
ATOM     79  C   UNL A   1      41.462  24.174  27.401  1.00  0.00     0.064 A 
ATOM     80  C   UNL A   1      40.310  23.959  26.631  1.00  0.00     0.173 A 
ATOM     81  C   UNL A   1      42.091  23.049  27.956  1.00  0.00     0.173 A 
ATOM     82  F   UNL A   1      39.653  25.002  26.103  1.00  0.00    -0.203 F 
ATOM     83  C   UNL A   1      39.796  22.677  26.444  1.00  0.00     0.198 A 
ATOM     84  C   UNL A   1      41.595  21.765  27.741  1.00  0.00     0.198 A 
ATOM     85  F   UNL A   1      43.192  23.197  28.708  1.00  0.00    -0.203 F 
ATOM     86  F   UNL A   1      38.662  22.508  25.751  1.00  0.00    -0.200 F 
ATOM     87  C   UNL A   1      40.443  21.581  26.993  1.00  0.00     0.200 A 
ATOM     88  F   UNL A   1      42.230  20.707  28.266  1.00  0.00    -0.200 F 
ATOM     89  F   UNL A   1      39.949  20.348  26.812  1.00  0.00    -0.200 F 
ENDBRANCH  55  79
BRANCH  67  90
ATOM     90  C   UNL A   1      47.188  27.569  25.310  1.00  0.00     0.064 A 
ATOM     91  C   UNL A   1      48.276  26.878  25.865  1.00  0.00     0.173 A 
ATOM     92  C   UNL A   1      47.214  27.828  23.930  1.00  0.00     0.173 A 
ATOM     93  F   UNL A   1      48.309  26.615  27.180  1.00  0.00    -0.203 F 
ATOM     94  C   UNL A   1      49.356  26.490  25.076  1.00  0.00     0.198 A 
ATOM     95  C   UNL A   1      48.278  27.406  23.138  1.00  0.00     0.198 A 
ATOM     96  F   UNL A   1      46.195  28.475  23.343  1.00  0.00    -0.203 F 
ATOM     97  F   UNL A   1      50.409  25.879  25.638  1.00  0.00    -0.200 F 
ATOM     98  C   UNL A   1      49.353  26.746  23.713  1.00  0.00     0.200 A 
ATOM     99  F   UNL A   1      48.263  27.637  21.818  1.00  0.00    -0.200 F 
ATOM    100  F   UNL A   1      50.389  26.362  22.954  1.00  0.00    -0.200 F 
ENDBRANCH  67  90
ENDBRANCH  41  42
ENDBRANCH  34  36
ENDBRANCH  33  34
ENDBRANCH  32  33
ENDBRANCH  31  32
ENDBRANCH  30  31
ENDBRANCH  29  30
ENDBRANCH  28  29
ENDBRANCH   1  28
TORSDOF 23
ENDMDL
MODEL 2
REMARK VINA RESULT:     -10.1      4.438      7.219
REMARK SMILES COc1ccc(Br)c([C@H]2[NH2+][C@H](C(=O)OCCOCCOCCOCCOC(=O)c3ccc(-c4c5nc(c(-c6c(F)c(F)c(F)c(F)c6F)c6ccc([nH]6)c(-c6c(F)c(F)c(F)c(F)c6F)c6nc(c(-c7c(F)c(F)c(F)c(F)c7F)c7ccc4[nH]7)C=C6)C=C5)cc3)CS2)c1O
REMARK SMILES IDX 20 1 19 2 18 3 17 4 16 5 15 6 14 7 12 8 13 9 11 10 9 11
REMARK SMILES IDX 10 12 93 13 92 16 8 17 3 18 4 19 94 20 5 21 6 22 7 23 2 24
REMARK SMILES IDX 1 25 95 26 21 28 22 29 23 30 24 31 25 32 26 33 27 34 28 35
REMARK SMILES IDX 29 36 30 37 91 38 31 39 90 40 32 41 33 42 34 43 84 44 35 45
REMARK SMILES IDX 89 46 83 47 85 48 36 49 88 50 82 51 81 52 37 54 69 55 49 56
REMARK SMILES IDX 68 57 50 58 53 59 67 60 86 61 51 62 52 63 66 65 87 66 54 67
REMARK SMILES IDX 38 68 39 69 47 70 40 71 41 72 45 73 48 74 42 75 43 76 46 77
REMARK SMILES IDX 44 78 70 79 71 80 79 81 72 82 73 83 77 84 80 85 74 86 75 87
REMARK SMILES IDX 78 88 76 89 55 90 56 91 64 92 57 93 58 94 62 95 65 96 59 97
REMARK SMILES IDX 60 98 63 99 61 100
REMARK H PARENT 10 14 10 15 95 27 85 53 53 64
REMARK Flexibility Score: inf
ROOT
ATOM      1  O   UNL A   1      33.226  29.403  24.574  1.00  0.00    -0.377 OA
ENDROOT
BRANCH   1   2
ATOM      2  C   UNL A   1      32.762  28.570  23.529  1.00  0.00     0.188 C 
BRANCH   2   3
ATOM      3  C   UNL A   1      31.332  28.880  23.049  1.00  0.00     0.188 C 
BRANCH   3   4
ATOM      4  O   UNL A   1      30.195  28.551  23.840  1.00  0.00    -0.376 OA
BRANCH   4   5
ATOM      5  C   UNL A   1      29.371  27.446  23.502  1.00  0.00     0.202 C 
BRANCH   5   6
ATOM      6  C   UNL A   1      29.580  26.073  24.168  1.00  0.00     0.261 C 
BRANCH   6   7
ATOM      7  O   UNL A   1      30.842  25.411  23.940  1.00  0.00    -0.459 OA
BRANCH   7   8
ATOM      8  C   UNL A   1      31.463  24.949  25.049  1.00  0.00     0.365 C 
ATOM      9  O   UNL A   1      32.175  25.649  25.770  1.00  0.00    -0.245 OA
BRANCH   8  10
ATOM     10  C   UNL A   1      31.295  23.455  25.354  1.00  0.00     0.304 C 
ATOM     11  C   UNL A   1      33.355  22.176  25.435  1.00  0.00     0.279 C 
ATOM     12  N   UNL A   1      32.140  22.451  24.649  1.00  0.00    -0.319 N 
ATOM     13  S   UNL A   1      33.005  22.566  27.178  1.00  0.00    -0.087 SA
ATOM     14  H   UNL A   1      31.612  21.587  24.531  1.00  0.00     0.348 HD
ATOM     15  H   UNL A   1      32.408  22.821  23.737  1.00  0.00     0.348 HD
ATOM     16  C   UNL A   1      31.356  23.232  26.852  1.00  0.00     0.153 C 
BRANCH  11  17
ATOM     17  C   UNL A   1      33.932  20.781  25.132  1.00  0.00     0.080 A 
ATOM     18  C   UNL A   1      33.704  18.344  24.743  1.00  0.00     0.161 A 
ATOM     19  C   UNL A   1      35.077  18.200  24.604  1.00  0.00     0.051 A 
ATOM     20  C   UNL A   1      33.141  19.621  24.960  1.00  0.00     0.169 A 
ATOM     21  C   UNL A   1      35.886  19.320  24.712  1.00  0.00     0.020 A 
ATOM     22  C   UNL A   1      35.329  20.580  25.004  1.00  0.00     0.032 A 
ATOM     23  Br  UNL A   1      36.620  21.937  25.295  1.00  0.00    -0.050 Br
BRANCH  18  24
ATOM     24  O   UNL A   1      32.992  17.175  24.833  1.00  0.00    -0.493 OA
ATOM     25  C   UNL A   1      33.676  16.110  25.483  1.00  0.00     0.278 C 
ENDBRANCH  18  24
BRANCH  20  26
ATOM     26  O   UNL A   1      31.778  19.708  25.051  1.00  0.00    -0.504 OA
ATOM     27  H   UNL A   1      31.343  19.449  25.839  1.00  0.00     0.293 HD
ENDBRANCH  20  26
ENDBRANCH  11  17
ENDBRANCH   8  10
ENDBRANCH   7   8
ENDBRANCH   6   7
ENDBRANCH   5   6
ENDBRANCH   4   5
ENDBRANCH   3   4
ENDBRANCH   2   3
ENDBRANCH   1   2
BRANCH   1  28
ATOM     28  C   UNL A   1      33.538  28.768  25.801  1.00  0.00     0.188 C 
BRANCH  28  29
ATOM     29  C   UNL A   1      32.844  29.300  27.064  1.00  0.00     0.188 C 
BRANCH  29  30
ATOM     30  O   UNL A   1      32.405  30.646  26.942  1.00  0.00    -0.376 OA
BRANCH  30  31
ATOM     31  C   UNL A   1      33.148  31.664  27.597  1.00  0.00     0.202 C 
BRANCH  31  32
ATOM     32  C   UNL A   1      32.836  33.133  27.252  1.00  0.00     0.261 C 
BRANCH  32  33
ATOM     33  O   UNL A   1      32.237  33.937  28.280  1.00  0.00    -0.460 OA
BRANCH  33  34
ATOM     34  C   UNL A   1      32.928  34.992  28.755  1.00  0.00     0.338 C 
ATOM     35  O   UNL A   1      32.600  36.165  28.712  1.00  0.00    -0.246 OA
BRANCH  34  36
ATOM     36  C   UNL A   1      34.078  34.472  29.530  1.00  0.00     0.060 A 
ATOM     37  C   UNL A   1      35.367  34.608  28.995  1.00  0.00     0.016 A 
ATOM     38  C   UNL A   1      33.895  33.860  30.772  1.00  0.00     0.016 A 
ATOM     39  C   UNL A   1      36.469  34.093  29.681  1.00  0.00     0.010 A 
ATOM     40  C   UNL A   1      34.997  33.325  31.448  1.00  0.00     0.010 A 
ATOM     41  C   UNL A   1      36.285  33.404  30.886  1.00  0.00    -0.014 A 
BRANCH  41  42
ATOM     42  C   UNL A   1      37.396  32.591  31.444  1.00  0.00     0.031 A 
ATOM     43  C   UNL A   1      37.900  32.924  32.822  1.00  0.00     0.074 A 
ATOM     44  C   UNL A   1      37.928  31.559  30.765  1.00  0.00     0.049 A 
ATOM     45  N   UNL A   1      38.884  32.394  33.504  1.00  0.00    -0.248 NA
ATOM     46  C   UNL A   1      37.197  34.009  33.527  1.00  0.00     0.031 C 
ATOM     47  C   UNL A   1      37.499  31.103  29.447  1.00  0.00     0.029 A 
ATOM     48  N   UNL A   1      38.958  30.712  31.098  1.00  0.00    -0.354 N 
ATOM     49  C   UNL A   1      38.920  33.083  34.710  1.00  0.00     0.074 A 
ATOM     50  C   UNL A   1      37.885  34.092  34.654  1.00  0.00     0.031 C 
ATOM     51  C   UNL A   1      38.270  30.067  29.073  1.00  0.00     0.029 A 
ATOM     52  C   UNL A   1      39.269  29.809  30.111  1.00  0.00     0.049 A 
ATOM     53  H   UNL A   1      39.428  30.750  31.963  1.00  0.00     0.167 HD
ATOM     54  C   UNL A   1      39.736  32.887  35.773  1.00  0.00     0.037 A 
ATOM     55  C   UNL A   1      40.262  28.900  30.047  1.00  0.00     0.037 A 
ATOM     56  C   UNL A   1      40.769  31.886  35.825  1.00  0.00     0.049 A 
ATOM     57  C   UNL A   1      41.215  28.757  31.209  1.00  0.00     0.074 A 
ATOM     58  C   UNL A   1      41.639  31.599  36.862  1.00  0.00     0.029 A 
ATOM     59  N   UNL A   1      41.075  31.013  34.791  1.00  0.00    -0.354 N 
ATOM     60  N   UNL A   1      41.230  29.395  32.355  1.00  0.00    -0.248 NA
ATOM     61  C   UNL A   1      42.288  27.762  31.069  1.00  0.00     0.031 C 
ATOM     62  C   UNL A   1      42.516  30.598  36.431  1.00  0.00     0.029 A 
ATOM     63  C   UNL A   1      42.145  30.210  35.154  1.00  0.00     0.049 A 
ATOM     64  H   UNL A   1      40.605  30.972  33.928  1.00  0.00     0.167 HD
ATOM     65  C   UNL A   1      42.285  28.857  33.081  1.00  0.00     0.074 A 
ATOM     66  C   UNL A   1      42.880  27.831  32.251  1.00  0.00     0.031 C 
ATOM     67  C   UNL A   1      42.723  29.183  34.323  1.00  0.00     0.037 A 
BRANCH  54  68
ATOM     68  C   UNL A   1      39.565  33.798  36.955  1.00  0.00     0.064 A 
ATOM     69  C   UNL A   1      40.159  35.068  37.004  1.00  0.00     0.173 A 
ATOM     70  C   UNL A   1      38.771  33.403  38.043  1.00  0.00     0.173 A 
ATOM     71  F   UNL A   1      40.940  35.488  35.997  1.00  0.00    -0.203 F 
ATOM     72  C   UNL A   1      39.990  35.896  38.111  1.00  0.00     0.198 A 
ATOM     73  C   UNL A   1      38.576  34.248  39.132  1.00  0.00     0.198 A 
ATOM     74  F   UNL A   1      38.177  32.200  38.048  1.00  0.00    -0.203 F 
ATOM     75  F   UNL A   1      40.611  37.083  38.160  1.00  0.00    -0.200 F 
ATOM     76  C   UNL A   1      39.191  35.489  39.170  1.00  0.00     0.200 A 
ATOM     77  F   UNL A   1      37.793  33.859  40.148  1.00  0.00    -0.200 F 
ATOM     78  F   UNL A   1      39.023  36.290  40.231  1.00  0.00    -0.200 F 
ENDBRANCH  54  68
BRANCH  55  79
ATOM     79  C   UNL A   1      40.426  28.062  28.828  1.00  0.00     0.064 A 
ATOM     80  C   UNL A   1      41.208  28.494  27.748  1.00  0.00     0.173 A 
ATOM     81  C   UNL A   1      39.776  26.824  28.704  1.00  0.00     0.173 A 
ATOM     82  F   UNL A   1      41.826  29.683  27.802  1.00  0.00    -0.203 F 
ATOM     83  C   UNL A   1      41.316  27.733  26.585  1.00  0.00     0.198 A 
ATOM     84  C   UNL A   1      39.911  26.049  27.555  1.00  0.00     0.198 A 
ATOM     85  F   UNL A   1      39.008  26.366  29.704  1.00  0.00    -0.203 F 
ATOM     86  F   UNL A   1      42.025  28.198  25.547  1.00  0.00    -0.200 F 
ATOM     87  C   UNL A   1      40.674  26.508  26.492  1.00  0.00     0.200 A 
ATOM     88  F   UNL A   1      39.296  24.861  27.474  1.00  0.00    -0.200 F 
ATOM     89  F   UNL A   1      40.778  25.776  25.374  1.00  0.00    -0.200 F 
ENDBRANCH  55  79
BRANCH  67  90
ATOM     90  C   UNL A   1      43.870  28.392  34.888  1.00  0.00     0.064 A 
ATOM     91  C   UNL A   1      43.670  27.230  35.648  1.00  0.00     0.173 A 
ATOM     92  C   UNL A   1      45.194  28.780  34.624  1.00  0.00     0.173 A 
ATOM     93  F   UNL A   1      42.426  26.821  35.939  1.00  0.00    -0.203 F 
ATOM     94  C   UNL A   1      44.749  26.505  36.147  1.00  0.00     0.198 A 
ATOM     95  C   UNL A   1      46.270  28.032  35.093  1.00  0.00     0.198 A 
ATOM     96  F   UNL A   1      45.446  29.877  33.893  1.00  0.00    -0.203 F 
ATOM     97  F   UNL A   1      44.532  25.427  36.915  1.00  0.00    -0.200 F 
ATOM     98  C   UNL A   1      46.047  26.900  35.862  1.00  0.00     0.200 A 
ATOM     99  F   UNL A   1      47.523  28.406  34.800  1.00  0.00    -0.200 F 
ATOM    100  F   UNL A   1      47.083  26.194  36.334  1.00  0.00    -0.200 F 
ENDBRANCH  67  90
ENDBRANCH  41  42
ENDBRANCH  34  36
ENDBRANCH  33  34
ENDBRANCH  32  33
ENDBRANCH  31  32
ENDBRANCH  30  31
ENDBRANCH  29  30
ENDBRANCH  28  29
ENDBRANCH   1  28
TORSDOF 23
ENDMDL
MODEL 3
REMARK VINA RESULT:      -9.3      1.464      2.538
REMARK SMILES COc1ccc(Br)c([C@H]2[NH2+][C@H](C(=O)OCCOCCOCCOCCOC(=O)c3ccc(-c4c5nc(c(-c6c(F)c(F)c(F)c(F)c6F)c6ccc([nH]6)c(-c6c(F)c(F)c(F)c(F)c6F)c6nc(c(-c7c(F)c(F)c(F)c(F)c7F)c7ccc4[nH]7)C=C6)C=C5)cc3)CS2)c1O
REMARK SMILES IDX 20 1 19 2 18 3 17 4 16 5 15 6 14 7 12 8 13 9 11 10 9 11
REMARK SMILES IDX 10 12 93 13 92 16 8 17 3 18 4 19 94 20 5 21 6 22 7 23 2 24
REMARK SMILES IDX 1 25 95 26 21 28 22 29 23 30 24 31 25 32 26 33 27 34 28 35
REMARK SMILES IDX 29 36 30 37 91 38 31 39 90 40 32 41 33 42 34 43 84 44 35 45
REMARK SMILES IDX 89 46 83 47 85 48 36 49 88 50 82 51 81 52 37 54 69 55 49 56
REMARK SMILES IDX 68 57 50 58 53 59 67 60 86 61 51 62 52 63 66 65 87 66 54 67
REMARK SMILES IDX 38 68 39 69 47 70 40 71 41 72 45 73 48 74 42 75 43 76 46 77
REMARK SMILES IDX 44 78 70 79 71 80 79 81 72 82 73 83 77 84 80 85 74 86 75 87
REMARK SMILES IDX 78 88 76 89 55 90 56 91 64 92 57 93 58 94 62 95 65 96 59 97
REMARK SMILES IDX 60 98 63 99 61 100
REMARK H PARENT 10 14 10 15 95 27 85 53 53 64
REMARK Flexibility Score: inf
ROOT
ATOM      1  O   UNL A   1      35.475  31.090  27.563  1.00  0.00    -0.377 OA
ENDROOT
BRANCH   1   2
ATOM      2  C   UNL A   1      34.533  30.044  27.700  1.00  0.00     0.188 C 
BRANCH   2   3
ATOM      3  C   UNL A   1      33.217  30.264  26.932  1.00  0.00     0.188 C 
BRANCH   3   4
ATOM      4  O   UNL A   1      32.229  29.242  26.842  1.00  0.00    -0.376 OA
BRANCH   4   5
ATOM      5  C   UNL A   1      32.389  28.154  25.946  1.00  0.00     0.202 C 
BRANCH   5   6
ATOM      6  C   UNL A   1      32.241  26.701  26.434  1.00  0.00     0.261 C 
BRANCH   6   7
ATOM      7  O   UNL A   1      32.265  25.661  25.433  1.00  0.00    -0.459 OA
BRANCH   7   8
ATOM      8  C   UNL A   1      31.071  25.082  25.169  1.00  0.00     0.365 C 
ATOM      9  O   UNL A   1      30.072  25.714  24.825  1.00  0.00    -0.245 OA
BRANCH   8  10
ATOM     10  C   UNL A   1      30.986  23.565  25.379  1.00  0.00     0.304 C 
ATOM     11  C   UNL A   1      33.119  22.421  25.549  1.00  0.00     0.279 C 
ATOM     12  N   UNL A   1      31.949  22.662  24.688  1.00  0.00    -0.319 N 
ATOM     13  S   UNL A   1      32.616  22.684  27.278  1.00  0.00    -0.087 SA
ATOM     14  H   UNL A   1      31.492  21.774  24.483  1.00  0.00     0.348 HD
ATOM     15  H   UNL A   1      32.256  23.102  23.820  1.00  0.00     0.348 HD
ATOM     16  C   UNL A   1      30.953  23.258  26.862  1.00  0.00     0.153 C 
BRANCH  11  17
ATOM     17  C   UNL A   1      33.813  21.087  25.217  1.00  0.00     0.080 A 
ATOM     18  C   UNL A   1      33.809  18.635  24.864  1.00  0.00     0.161 A 
ATOM     19  C   UNL A   1      35.175  18.629  24.628  1.00  0.00     0.051 A 
ATOM     20  C   UNL A   1      33.134  19.851  25.110  1.00  0.00     0.169 A 
ATOM     21  C   UNL A   1      35.871  19.827  24.669  1.00  0.00     0.020 A 
ATOM     22  C   UNL A   1      35.211  21.028  24.990  1.00  0.00     0.032 A 
ATOM     23  Br  UNL A   1      36.374  22.513  25.177  1.00  0.00    -0.050 Br
BRANCH  18  24
ATOM     24  O   UNL A   1      33.228  17.401  25.014  1.00  0.00    -0.493 OA
ATOM     25  C   UNL A   1      34.057  16.304  24.650  1.00  0.00     0.278 C 
ENDBRANCH  18  24
BRANCH  20  26
ATOM     26  O   UNL A   1      31.780  19.801  25.298  1.00  0.00    -0.504 OA
ATOM     27  H   UNL A   1      31.309  20.579  25.524  1.00  0.00     0.293 HD
ENDBRANCH  20  26
ENDBRANCH  11  17
ENDBRANCH   8  10
ENDBRANCH   7   8
ENDBRANCH   6   7
ENDBRANCH   5   6
ENDBRANCH   4   5
ENDBRANCH   3   4
ENDBRANCH   2   3
ENDBRANCH   1   2
BRANCH   1  28
ATOM     28  C   UNL A   1      35.893  31.728  28.758  1.00  0.00     0.188 C 
BRANCH  28  29
ATOM     29  C   UNL A   1      36.201  30.830  29.965  1.00  0.00     0.188 C 
BRANCH  29  30
ATOM     30  O   UNL A   1      35.612  31.289  31.174  1.00  0.00    -0.376 OA
BRANCH  30  31
ATOM     31  C   UNL A   1      34.889  32.512  31.155  1.00  0.00     0.202 C 
BRANCH  31  32
ATOM     32  C   UNL A   1      35.117  33.512  32.304  1.00  0.00     0.261 C 
BRANCH  32  33
ATOM     33  O   UNL A   1      36.070  34.564  32.081  1.00  0.00    -0.460 OA
BRANCH  33  34
ATOM     34  C   UNL A   1      37.256  34.502  32.717  1.00  0.00     0.338 C 
ATOM     35  O   UNL A   1      37.523  34.950  33.820  1.00  0.00    -0.246 OA
BRANCH  34  36
ATOM     36  C   UNL A   1      38.148  33.615  31.936  1.00  0.00     0.060 A 
ATOM     37  C   UNL A   1      38.814  32.576  32.599  1.00  0.00     0.016 A 
ATOM     38  C   UNL A   1      38.324  33.797  30.562  1.00  0.00     0.016 A 
ATOM     39  C   UNL A   1      39.693  31.746  31.900  1.00  0.00     0.010 A 
ATOM     40  C   UNL A   1      39.223  32.980  29.867  1.00  0.00     0.010 A 
ATOM     41  C   UNL A   1      39.940  31.975  30.541  1.00  0.00    -0.014 A 
BRANCH  41  42
ATOM     42  C   UNL A   1      41.095  31.312  29.883  1.00  0.00     0.031 A 
ATOM     43  C   UNL A   1      42.334  32.127  29.628  1.00  0.00     0.074 A 
ATOM     44  C   UNL A   1      41.066  30.010  29.545  1.00  0.00     0.049 A 
ATOM     45  N   UNL A   1      43.450  31.791  29.030  1.00  0.00    -0.248 NA
ATOM     46  C   UNL A   1      42.309  33.517  30.114  1.00  0.00     0.031 C 
ATOM     47  C   UNL A   1      39.949  29.100  29.780  1.00  0.00     0.029 A 
ATOM     48  N   UNL A   1      42.012  29.233  28.921  1.00  0.00    -0.354 N 
ATOM     49  C   UNL A   1      44.251  32.925  29.064  1.00  0.00     0.074 A 
ATOM     50  C   UNL A   1      43.485  33.969  29.707  1.00  0.00     0.031 C 
ATOM     51  C   UNL A   1      40.266  27.888  29.292  1.00  0.00     0.029 A 
ATOM     52  C   UNL A   1      41.594  27.947  28.680  1.00  0.00     0.049 A 
ATOM     53  H   UNL A   1      42.904  29.566  28.671  1.00  0.00     0.167 HD
ATOM     54  C   UNL A   1      45.517  33.080  28.609  1.00  0.00     0.037 A 
ATOM     55  C   UNL A   1      42.206  26.944  28.018  1.00  0.00     0.037 A 
ATOM     56  C   UNL A   1      46.278  32.041  27.964  1.00  0.00     0.049 A 
ATOM     57  C   UNL A   1      43.584  27.166  27.442  1.00  0.00     0.074 A 
ATOM     58  C   UNL A   1      47.572  32.095  27.479  1.00  0.00     0.029 A 
ATOM     59  N   UNL A   1      45.807  30.762  27.707  1.00  0.00    -0.354 N 
ATOM     60  N   UNL A   1      44.345  28.232  27.497  1.00  0.00    -0.248 NA
ATOM     61  C   UNL A   1      44.188  26.040  26.715  1.00  0.00     0.031 C 
ATOM     62  C   UNL A   1      47.862  30.870  26.870  1.00  0.00     0.029 A 
ATOM     63  C   UNL A   1      46.775  30.028  27.040  1.00  0.00     0.049 A 
ATOM     64  H   UNL A   1      44.917  30.426  27.960  1.00  0.00     0.167 HD
ATOM     65  C   UNL A   1      45.526  27.895  26.846  1.00  0.00     0.074 A 
ATOM     66  C   UNL A   1      45.385  26.521  26.414  1.00  0.00     0.031 C 
ATOM     67  C   UNL A   1      46.628  28.655  26.625  1.00  0.00     0.037 A 
BRANCH  54  68
ATOM     68  C   UNL A   1      46.148  34.434  28.761  1.00  0.00     0.064 A 
ATOM     69  C   UNL A   1      46.956  34.757  29.862  1.00  0.00     0.173 A 
ATOM     70  C   UNL A   1      45.964  35.416  27.775  1.00  0.00     0.173 A 
ATOM     71  F   UNL A   1      47.152  33.860  30.842  1.00  0.00    -0.203 F 
ATOM     72  C   UNL A   1      47.529  36.019  29.986  1.00  0.00     0.198 A 
ATOM     73  C   UNL A   1      46.567  36.665  27.884  1.00  0.00     0.198 A 
ATOM     74  F   UNL A   1      45.203  35.161  26.699  1.00  0.00    -0.203 F 
ATOM     75  F   UNL A   1      48.251  36.323  31.073  1.00  0.00    -0.200 F 
ATOM     76  C   UNL A   1      47.341  36.970  28.993  1.00  0.00     0.200 A 
ATOM     77  F   UNL A   1      46.396  37.577  26.917  1.00  0.00    -0.200 F 
ATOM     78  F   UNL A   1      47.900  38.182  29.109  1.00  0.00    -0.200 F 
ENDBRANCH  54  68
BRANCH  55  79
ATOM     79  C   UNL A   1      41.515  25.638  27.841  1.00  0.00     0.064 A 
ATOM     80  C   UNL A   1      41.913  24.501  28.559  1.00  0.00     0.173 A 
ATOM     81  C   UNL A   1      40.463  25.490  26.924  1.00  0.00     0.173 A 
ATOM     82  F   UNL A   1      42.935  24.580  29.425  1.00  0.00    -0.203 F 
ATOM     83  C   UNL A   1      41.302  23.266  28.352  1.00  0.00     0.198 A 
ATOM     84  C   UNL A   1      39.830  24.263  26.742  1.00  0.00     0.198 A 
ATOM     85  F   UNL A   1      40.046  26.543  26.205  1.00  0.00    -0.203 F 
ATOM     86  F   UNL A   1      41.742  22.185  29.011  1.00  0.00    -0.200 F 
ATOM     87  C   UNL A   1      40.257  23.149  27.449  1.00  0.00     0.200 A 
ATOM     88  F   UNL A   1      38.813  24.157  25.875  1.00  0.00    -0.200 F 
ATOM     89  F   UNL A   1      39.668  21.961  27.251  1.00  0.00    -0.200 F 
ENDBRANCH  55  79
BRANCH  67  90
ATOM     90  C   UNL A   1      47.793  28.009  25.927  1.00  0.00     0.064 A 
ATOM     91  C   UNL A   1      47.836  27.863  24.533  1.00  0.00     0.173 A 
ATOM     92  C   UNL A   1      48.905  27.571  26.665  1.00  0.00     0.173 A 
ATOM     93  F   UNL A   1      46.796  28.253  23.780  1.00  0.00    -0.203 F 
ATOM     94  C   UNL A   1      48.934  27.276  23.908  1.00  0.00     0.198 A 
ATOM     95  C   UNL A   1      50.016  27.019  26.034  1.00  0.00     0.198 A 
ATOM     96  F   UNL A   1      48.923  27.696  28.001  1.00  0.00    -0.203 F 
ATOM     97  F   UNL A   1      48.930  27.098  22.579  1.00  0.00    -0.200 F 
ATOM     98  C   UNL A   1      50.025  26.862  24.656  1.00  0.00     0.200 A 
ATOM     99  F   UNL A   1      51.076  26.638  26.758  1.00  0.00    -0.200 F 
ATOM    100  F   UNL A   1      51.084  26.308  24.051  1.00  0.00    -0.200 F 
ENDBRANCH  67  90
ENDBRANCH  41  42
ENDBRANCH  34  36
ENDBRANCH  33  34
ENDBRANCH  32  33
ENDBRANCH  31  32
ENDBRANCH  30  31
ENDBRANCH  29  30
ENDBRANCH  28  29
ENDBRANCH   1  28
TORSDOF 23
ENDMDL
