MODEL 1
REMARK VINA RESULT:     -10.6      0.000      0.000
REMARK SMILES COc1ccc2c(CC(=O)OCCOCCOCCOCCOC(=O)c3ccc(-c4c5nc(c(-c6c(F)c(F)c(F)c(F)c6F)c6ccc([nH]6)c(-c6c(F)c(F)c(F)c(F)c6F)c6nc(c(-c7c(F)c(F)c(F)c(F)c7F)c7ccc4[nH]7)C=C6)C=C5)cc3)c(C(=O)c3cc(C)ccn3)[nH]c2c1
REMARK SMILES IDX 16 1 15 2 14 3 13 4 12 5 11 6 9 7 10 8 8 9 7 10 3 11 4 12
REMARK SMILES IDX 101 13 5 14 100 15 6 16 99 17 89 18 2 20 1 21 90 22 91 23
REMARK SMILES IDX 92 24 93 25 98 26 94 27 97 28 95 29 96 30 17 31 18 32 19 33
REMARK SMILES IDX 20 34 21 35 22 36 23 37 24 38 25 39 26 40 27 41 88 42 28 43
REMARK SMILES IDX 87 44 29 45 30 46 31 47 81 48 32 49 86 50 80 51 82 52 33 53
REMARK SMILES IDX 85 54 79 55 78 56 34 58 66 59 46 60 65 61 47 62 50 63 64 64
REMARK SMILES IDX 83 65 48 66 49 67 63 69 84 70 51 71 35 72 36 73 44 74 37 75
REMARK SMILES IDX 38 76 42 77 45 78 39 79 40 80 43 81 41 82 67 83 68 84 76 85
REMARK SMILES IDX 69 86 70 87 74 88 77 89 71 90 72 91 75 92 73 93 52 94 53 95
REMARK SMILES IDX 61 96 54 97 55 98 59 99 62 100 56 101 57 102 60 103 58 104
REMARK H PARENT 99 19 82 57 50 68
REMARK Flexibility Score: inf
ROOT
ATOM      1  C   UNL A   1      32.769  18.603  24.134  1.00  0.00     0.188 C 
ENDROOT
BRANCH   1   2
ATOM      2  C   UNL A   1      32.094  19.796  23.419  1.00  0.00     0.188 C 
BRANCH   2   3
ATOM      3  O   UNL A   1      32.271  21.102  23.922  1.00  0.00    -0.376 OA
BRANCH   3   4
ATOM      4  C   UNL A   1      31.440  21.664  24.911  1.00  0.00     0.202 C 
BRANCH   4   5
ATOM      5  C   UNL A   1      31.674  23.019  25.610  1.00  0.00     0.261 C 
BRANCH   5   6
ATOM      6  O   UNL A   1      30.632  24.008  25.531  1.00  0.00    -0.463 OA
BRANCH   6   7
ATOM      7  C   UNL A   1      30.635  24.849  24.472  1.00  0.00     0.310 C 
ATOM      8  O   UNL A   1      30.681  24.444  23.311  1.00  0.00    -0.252 OA
BRANCH   7   9
ATOM      9  C   UNL A   1      30.526  26.346  24.772  1.00  0.00     0.161 C 
BRANCH   9  10
ATOM     10  C   UNL A   1      30.700  27.432  23.713  1.00  0.00     0.000 A 
ATOM     11  C   UNL A   1      28.059  30.240  21.986  1.00  0.00     0.120 A 
ATOM     12  C   UNL A   1      27.460  29.283  22.802  1.00  0.00     0.047 A 
ATOM     13  C   UNL A   1      29.417  30.162  21.676  1.00  0.00     0.073 A 
ATOM     14  C   UNL A   1      28.224  28.264  23.389  1.00  0.00     0.014 A 
ATOM     15  C   UNL A   1      30.170  29.166  22.312  1.00  0.00     0.050 A 
ATOM     16  C   UNL A   1      29.619  28.224  23.177  1.00  0.00     0.004 A 
ATOM     17  N   UNL A   1      31.512  28.905  22.245  1.00  0.00    -0.351 N 
ATOM     18  C   UNL A   1      31.896  28.022  23.234  1.00  0.00     0.093 A 
ATOM     19  H   UNL A   1      32.123  29.295  21.579  1.00  0.00     0.167 HD
BRANCH  11  20
ATOM     20  O   UNL A   1      27.358  31.265  21.406  1.00  0.00    -0.497 OA
ATOM     21  C   UNL A   1      28.131  31.977  20.438  1.00  0.00     0.278 C 
ENDBRANCH  11  20
BRANCH  18  22
ATOM     22  C   UNL A   1      33.296  27.738  23.602  1.00  0.00     0.227 C 
ATOM     23  O   UNL A   1      34.073  28.641  23.905  1.00  0.00    -0.285 OA
BRANCH  22  24
ATOM     24  C   UNL A   1      33.815  26.318  23.721  1.00  0.00     0.113 A 
ATOM     25  C   UNL A   1      34.317  25.765  24.901  1.00  0.00     0.036 A 
ATOM     26  N   UNL A   1      33.739  25.599  22.567  1.00  0.00    -0.253 NA
ATOM     27  C   UNL A   1      34.794  24.440  24.882  1.00  0.00    -0.047 A 
ATOM     28  C   UNL A   1      34.183  24.325  22.581  1.00  0.00     0.112 A 
ATOM     29  C   UNL A   1      35.355  23.767  26.099  1.00  0.00     0.044 C 
ATOM     30  C   UNL A   1      34.747  23.722  23.685  1.00  0.00     0.023 A 
ENDBRANCH  22  24
ENDBRANCH  18  22
ENDBRANCH   9  10
ENDBRANCH   7   9
ENDBRANCH   6   7
ENDBRANCH   5   6
ENDBRANCH   4   5
ENDBRANCH   3   4
ENDBRANCH   2   3
ENDBRANCH   1   2
BRANCH   1  31
ATOM     31  O   UNL A   1      33.781  18.641  25.121  1.00  0.00    -0.377 OA
BRANCH  31  32
ATOM     32  C   UNL A   1      35.091  18.942  24.722  1.00  0.00     0.188 C 
BRANCH  32  33
ATOM     33  C   UNL A   1      35.439  20.407  24.977  1.00  0.00     0.188 C 
BRANCH  33  34
ATOM     34  O   UNL A   1      36.745  20.585  25.491  1.00  0.00    -0.376 OA
BRANCH  34  35
ATOM     35  C   UNL A   1      37.848  20.052  24.765  1.00  0.00     0.202 C 
BRANCH  35  36
ATOM     36  C   UNL A   1      38.974  19.249  25.455  1.00  0.00     0.261 C 
BRANCH  36  37
ATOM     37  O   UNL A   1      39.834  19.973  26.336  1.00  0.00    -0.460 OA
BRANCH  37  38
ATOM     38  C   UNL A   1      41.147  19.724  26.249  1.00  0.00     0.338 C 
ATOM     39  O   UNL A   1      41.695  18.707  25.859  1.00  0.00    -0.246 OA
BRANCH  38  40
ATOM     40  C   UNL A   1      41.808  21.011  26.495  1.00  0.00     0.060 A 
ATOM     41  C   UNL A   1      42.265  21.264  27.791  1.00  0.00     0.016 A 
ATOM     42  C   UNL A   1      42.035  21.919  25.454  1.00  0.00     0.016 A 
ATOM     43  C   UNL A   1      42.939  22.442  28.061  1.00  0.00     0.010 A 
ATOM     44  C   UNL A   1      42.671  23.125  25.735  1.00  0.00     0.010 A 
ATOM     45  C   UNL A   1      43.086  23.397  27.048  1.00  0.00    -0.014 A 
BRANCH  45  46
ATOM     46  C   UNL A   1      43.415  24.769  27.470  1.00  0.00     0.031 A 
ATOM     47  C   UNL A   1      44.817  25.242  27.221  1.00  0.00     0.074 A 
ATOM     48  C   UNL A   1      42.457  25.588  27.929  1.00  0.00     0.049 A 
ATOM     49  N   UNL A   1      45.345  26.421  27.413  1.00  0.00    -0.248 NA
ATOM     50  C   UNL A   1      45.753  24.247  26.666  1.00  0.00     0.031 C 
ATOM     51  C   UNL A   1      41.058  25.218  28.134  1.00  0.00     0.029 A 
ATOM     52  N   UNL A   1      42.518  26.908  28.284  1.00  0.00    -0.354 N 
ATOM     53  C   UNL A   1      46.665  26.309  26.999  1.00  0.00     0.074 A 
ATOM     54  C   UNL A   1      46.875  24.943  26.582  1.00  0.00     0.031 C 
ATOM     55  C   UNL A   1      40.386  26.294  28.579  1.00  0.00     0.029 A 
ATOM     56  C   UNL A   1      41.317  27.412  28.715  1.00  0.00     0.049 A 
ATOM     57  H   UNL A   1      43.342  27.444  28.234  1.00  0.00     0.167 HD
ATOM     58  C   UNL A   1      47.614  27.272  26.965  1.00  0.00     0.037 A 
ATOM     59  C   UNL A   1      41.025  28.640  29.182  1.00  0.00     0.037 A 
ATOM     60  C   UNL A   1      47.379  28.622  27.398  1.00  0.00     0.049 A 
ATOM     61  C   UNL A   1      42.122  29.672  29.209  1.00  0.00     0.074 A 
ATOM     62  C   UNL A   1      48.259  29.688  27.426  1.00  0.00     0.029 A 
ATOM     63  N   UNL A   1      46.167  29.087  27.892  1.00  0.00    -0.354 N 
ATOM     64  N   UNL A   1      43.370  29.569  28.812  1.00  0.00    -0.248 NA
ATOM     65  C   UNL A   1      41.769  30.994  29.739  1.00  0.00     0.031 C 
ATOM     66  C   UNL A   1      47.597  30.778  27.998  1.00  0.00     0.029 A 
ATOM     67  C   UNL A   1      46.283  30.417  28.257  1.00  0.00     0.049 A 
ATOM     68  H   UNL A   1      45.345  28.549  27.972  1.00  0.00     0.167 HD
ATOM     69  C   UNL A   1      43.944  30.816  29.018  1.00  0.00     0.074 A 
ATOM     70  C   UNL A   1      42.897  31.665  29.553  1.00  0.00     0.031 C 
ATOM     71  C   UNL A   1      45.217  31.229  28.790  1.00  0.00     0.037 A 
BRANCH  58  72
ATOM     72  C   UNL A   1      48.984  26.878  26.494  1.00  0.00     0.064 A 
ATOM     73  C   UNL A   1      49.961  26.383  27.371  1.00  0.00     0.173 A 
ATOM     74  C   UNL A   1      49.326  27.002  25.139  1.00  0.00     0.173 A 
ATOM     75  F   UNL A   1      49.697  26.267  28.682  1.00  0.00    -0.203 F 
ATOM     76  C   UNL A   1      51.236  26.054  26.915  1.00  0.00     0.198 A 
ATOM     77  C   UNL A   1      50.590  26.641  24.680  1.00  0.00     0.198 A 
ATOM     78  F   UNL A   1      48.435  27.479  24.257  1.00  0.00    -0.203 F 
ATOM     79  F   UNL A   1      52.171  25.639  27.782  1.00  0.00    -0.200 F 
ATOM     80  C   UNL A   1      51.547  26.175  25.569  1.00  0.00     0.200 A 
ATOM     81  F   UNL A   1      50.885  26.751  23.378  1.00  0.00    -0.200 F 
ATOM     82  F   UNL A   1      52.771  25.854  25.130  1.00  0.00    -0.200 F 
ENDBRANCH  58  72
BRANCH  59  83
ATOM     83  C   UNL A   1      39.653  28.948  29.666  1.00  0.00     0.064 A 
ATOM     84  C   UNL A   1      39.319  28.855  31.024  1.00  0.00     0.173 A 
ATOM     85  C   UNL A   1      38.640  29.330  28.773  1.00  0.00     0.173 A 
ATOM     86  F   UNL A   1      40.243  28.476  31.918  1.00  0.00    -0.203 F 
ATOM     87  C   UNL A   1      38.021  29.109  31.466  1.00  0.00     0.198 A 
ATOM     88  C   UNL A   1      37.352  29.617  29.220  1.00  0.00     0.198 A 
ATOM     89  F   UNL A   1      38.905  29.435  27.462  1.00  0.00    -0.203 F 
ATOM     90  F   UNL A   1      37.716  28.964  32.763  1.00  0.00    -0.200 F 
ATOM     91  C   UNL A   1      37.041  29.497  30.565  1.00  0.00     0.200 A 
ATOM     92  F   UNL A   1      36.414  30.006  28.346  1.00  0.00    -0.200 F 
ATOM     93  F   UNL A   1      35.795  29.745  30.990  1.00  0.00    -0.200 F 
ENDBRANCH  59  83
BRANCH  71  94
ATOM     94  C   UNL A   1      45.526  32.669  29.085  1.00  0.00     0.064 A 
ATOM     95  C   UNL A   1      45.323  33.679  28.134  1.00  0.00     0.173 A 
ATOM     96  C   UNL A   1      46.016  33.043  30.346  1.00  0.00     0.173 A 
ATOM     97  F   UNL A   1      44.867  33.374  26.910  1.00  0.00    -0.203 F 
ATOM     98  C   UNL A   1      45.643  35.003  28.419  1.00  0.00     0.198 A 
ATOM     99  C   UNL A   1      46.294  34.373  30.642  1.00  0.00     0.198 A 
ATOM    100  F   UNL A   1      46.214  32.117  31.299  1.00  0.00    -0.203 F 
ATOM    101  F   UNL A   1      45.510  35.942  27.471  1.00  0.00    -0.200 F 
ATOM    102  C   UNL A   1      46.121  35.349  29.674  1.00  0.00     0.200 A 
ATOM    103  F   UNL A   1      46.735  34.708  31.862  1.00  0.00    -0.200 F 
ATOM    104  F   UNL A   1      46.427  36.626  29.946  1.00  0.00    -0.200 F 
ENDBRANCH  71  94
ENDBRANCH  45  46
ENDBRANCH  38  40
ENDBRANCH  37  38
ENDBRANCH  36  37
ENDBRANCH  35  36
ENDBRANCH  34  35
ENDBRANCH  33  34
ENDBRANCH  32  33
ENDBRANCH  31  32
ENDBRANCH   1  31
TORSDOF 24
ENDMDL
MODEL 2
REMARK VINA RESULT:     -10.5      1.181      7.094
REMARK SMILES COc1ccc2c(CC(=O)OCCOCCOCCOCCOC(=O)c3ccc(-c4c5nc(c(-c6c(F)c(F)c(F)c(F)c6F)c6ccc([nH]6)c(-c6c(F)c(F)c(F)c(F)c6F)c6nc(c(-c7c(F)c(F)c(F)c(F)c7F)c7ccc4[nH]7)C=C6)C=C5)cc3)c(C(=O)c3cc(C)ccn3)[nH]c2c1
REMARK SMILES IDX 16 1 15 2 14 3 13 4 12 5 11 6 9 7 10 8 8 9 7 10 3 11 4 12
REMARK SMILES IDX 101 13 5 14 100 15 6 16 99 17 89 18 2 20 1 21 90 22 91 23
REMARK SMILES IDX 92 24 93 25 98 26 94 27 97 28 95 29 96 30 17 31 18 32 19 33
REMARK SMILES IDX 20 34 21 35 22 36 23 37 24 38 25 39 26 40 27 41 88 42 28 43
REMARK SMILES IDX 87 44 29 45 30 46 31 47 81 48 32 49 86 50 80 51 82 52 33 53
REMARK SMILES IDX 85 54 79 55 78 56 34 58 66 59 46 60 65 61 47 62 50 63 64 64
REMARK SMILES IDX 83 65 48 66 49 67 63 69 84 70 51 71 35 72 36 73 44 74 37 75
REMARK SMILES IDX 38 76 42 77 45 78 39 79 40 80 43 81 41 82 67 83 68 84 76 85
REMARK SMILES IDX 69 86 70 87 74 88 77 89 71 90 72 91 75 92 73 93 52 94 53 95
REMARK SMILES IDX 61 96 54 97 55 98 59 99 62 100 56 101 57 102 60 103 58 104
REMARK H PARENT 99 19 82 57 50 68
REMARK Flexibility Score: inf
ROOT
ATOM      1  C   UNL A   1      33.234  19.409  24.730  1.00  0.00     0.188 C 
ENDROOT
BRANCH   1   2
ATOM      2  C   UNL A   1      32.167  20.127  23.872  1.00  0.00     0.188 C 
BRANCH   2   3
ATOM      3  O   UNL A   1      32.572  20.989  22.832  1.00  0.00    -0.376 OA
BRANCH   3   4
ATOM      4  C   UNL A   1      32.174  22.338  22.753  1.00  0.00     0.202 C 
BRANCH   4   5
ATOM      5  C   UNL A   1      31.294  23.070  23.788  1.00  0.00     0.261 C 
BRANCH   5   6
ATOM      6  O   UNL A   1      30.282  23.968  23.296  1.00  0.00    -0.463 OA
BRANCH   6   7
ATOM      7  C   UNL A   1      30.615  25.267  23.127  1.00  0.00     0.310 C 
ATOM      8  O   UNL A   1      31.524  25.620  22.377  1.00  0.00    -0.252 OA
BRANCH   7   9
ATOM      9  C   UNL A   1      29.774  26.305  23.875  1.00  0.00     0.161 C 
BRANCH   9  10
ATOM     10  C   UNL A   1      30.123  27.790  23.929  1.00  0.00     0.000 A 
ATOM     11  C   UNL A   1      28.257  31.258  22.402  1.00  0.00     0.120 A 
ATOM     12  C   UNL A   1      27.711  30.051  21.973  1.00  0.00     0.047 A 
ATOM     13  C   UNL A   1      29.421  31.281  23.171  1.00  0.00     0.073 A 
ATOM     14  C   UNL A   1      28.277  28.830  22.368  1.00  0.00     0.014 A 
ATOM     15  C   UNL A   1      29.941  30.049  23.594  1.00  0.00     0.050 A 
ATOM     16  C   UNL A   1      29.392  28.822  23.233  1.00  0.00     0.004 A 
ATOM     17  N   UNL A   1      31.016  29.783  24.397  1.00  0.00    -0.351 N 
ATOM     18  C   UNL A   1      31.021  28.461  24.796  1.00  0.00     0.093 A 
ATOM     19  H   UNL A   1      31.697  30.445  24.656  1.00  0.00     0.167 HD
BRANCH  11  20
ATOM     20  O   UNL A   1      27.729  32.476  22.058  1.00  0.00    -0.497 OA
ATOM     21  C   UNL A   1      27.800  32.724  20.653  1.00  0.00     0.278 C 
ENDBRANCH  11  20
BRANCH  18  22
ATOM     22  C   UNL A   1      31.881  27.914  25.862  1.00  0.00     0.227 C 
ATOM     23  O   UNL A   1      31.881  28.395  26.994  1.00  0.00    -0.285 OA
BRANCH  22  24
ATOM     24  C   UNL A   1      32.730  26.676  25.644  1.00  0.00     0.113 A 
ATOM     25  C   UNL A   1      32.627  25.512  26.408  1.00  0.00     0.036 A 
ATOM     26  N   UNL A   1      33.612  26.782  24.612  1.00  0.00    -0.253 NA
ATOM     27  C   UNL A   1      33.487  24.434  26.124  1.00  0.00    -0.047 A 
ATOM     28  C   UNL A   1      34.411  25.726  24.348  1.00  0.00     0.112 A 
ATOM     29  C   UNL A   1      33.451  23.148  26.896  1.00  0.00     0.044 C 
ATOM     30  C   UNL A   1      34.414  24.564  25.089  1.00  0.00     0.023 A 
ENDBRANCH  22  24
ENDBRANCH  18  22
ENDBRANCH   9  10
ENDBRANCH   7   9
ENDBRANCH   6   7
ENDBRANCH   5   6
ENDBRANCH   4   5
ENDBRANCH   3   4
ENDBRANCH   2   3
ENDBRANCH   1   2
BRANCH   1  31
ATOM     31  O   UNL A   1      34.277  19.991  25.487  1.00  0.00    -0.377 OA
BRANCH  31  32
ATOM     32  C   UNL A   1      35.531  20.151  24.881  1.00  0.00     0.188 C 
BRANCH  32  33
ATOM     33  C   UNL A   1      36.117  21.536  25.144  1.00  0.00     0.188 C 
BRANCH  33  34
ATOM     34  O   UNL A   1      37.415  21.492  25.705  1.00  0.00    -0.376 OA
BRANCH  34  35
ATOM     35  C   UNL A   1      38.428  20.745  25.037  1.00  0.00     0.202 C 
BRANCH  35  36
ATOM     36  C   UNL A   1      39.221  19.623  25.745  1.00  0.00     0.261 C 
BRANCH  36  37
ATOM     37  O   UNL A   1      40.261  20.033  26.634  1.00  0.00    -0.460 OA
BRANCH  37  38
ATOM     38  C   UNL A   1      41.516  19.713  26.294  1.00  0.00     0.338 C 
ATOM     39  O   UNL A   1      41.924  18.663  25.826  1.00  0.00    -0.246 OA
BRANCH  38  40
ATOM     40  C   UNL A   1      42.278  20.964  26.376  1.00  0.00     0.060 A 
ATOM     41  C   UNL A   1      42.512  21.496  27.647  1.00  0.00     0.016 A 
ATOM     42  C   UNL A   1      42.811  21.564  25.229  1.00  0.00     0.016 A 
ATOM     43  C   UNL A   1      43.267  22.647  27.779  1.00  0.00     0.010 A 
ATOM     44  C   UNL A   1      43.532  22.748  25.356  1.00  0.00     0.010 A 
ATOM     45  C   UNL A   1      43.723  23.305  26.631  1.00  0.00    -0.014 A 
BRANCH  45  46
ATOM     46  C   UNL A   1      44.139  24.709  26.790  1.00  0.00     0.031 A 
ATOM     47  C   UNL A   1      43.114  25.671  27.314  1.00  0.00     0.074 A 
ATOM     48  C   UNL A   1      45.419  25.064  26.600  1.00  0.00     0.049 A 
ATOM     49  N   UNL A   1      43.239  26.932  27.629  1.00  0.00    -0.248 NA
ATOM     50  C   UNL A   1      41.759  25.129  27.525  1.00  0.00     0.031 C 
ATOM     51  C   UNL A   1      46.486  24.169  26.156  1.00  0.00     0.029 A 
ATOM     52  N   UNL A   1      46.038  26.271  26.780  1.00  0.00    -0.354 N 
ATOM     53  C   UNL A   1      41.986  27.329  28.075  1.00  0.00     0.074 A 
ATOM     54  C   UNL A   1      41.103  26.194  27.958  1.00  0.00     0.031 C 
ATOM     55  C   UNL A   1      47.636  24.861  26.100  1.00  0.00     0.029 A 
ATOM     56  C   UNL A   1      47.375  26.249  26.476  1.00  0.00     0.049 A 
ATOM     57  H   UNL A   1      45.569  27.077  27.097  1.00  0.00     0.167 HD
ATOM     58  C   UNL A   1      41.615  28.539  28.551  1.00  0.00     0.037 A 
ATOM     59  C   UNL A   1      48.270  27.253  26.488  1.00  0.00     0.037 A 
ATOM     60  C   UNL A   1      42.514  29.657  28.646  1.00  0.00     0.049 A 
ATOM     61  C   UNL A   1      47.810  28.613  26.946  1.00  0.00     0.074 A 
ATOM     62  C   UNL A   1      42.259  30.938  29.097  1.00  0.00     0.029 A 
ATOM     63  N   UNL A   1      43.851  29.621  28.268  1.00  0.00    -0.354 N 
ATOM     64  N   UNL A   1      46.626  28.989  27.374  1.00  0.00    -0.248 NA
ATOM     65  C   UNL A   1      48.810  29.687  26.931  1.00  0.00     0.031 C 
ATOM     66  C   UNL A   1      43.424  31.693  28.930  1.00  0.00     0.029 A 
ATOM     67  C   UNL A   1      44.427  30.867  28.447  1.00  0.00     0.049 A 
ATOM     68  H   UNL A   1      44.319  28.826  27.923  1.00  0.00     0.167 HD
ATOM     69  C   UNL A   1      46.745  30.332  27.706  1.00  0.00     0.074 A 
ATOM     70  C   UNL A   1      48.125  30.696  27.449  1.00  0.00     0.031 C 
ATOM     71  C   UNL A   1      45.806  31.191  28.177  1.00  0.00     0.037 A 
BRANCH  58  72
ATOM     72  C   UNL A   1      40.178  28.716  28.948  1.00  0.00     0.064 A 
ATOM     73  C   UNL A   1      39.728  28.473  30.255  1.00  0.00     0.173 A 
ATOM     74  C   UNL A   1      39.232  29.134  28.000  1.00  0.00     0.173 A 
ATOM     75  F   UNL A   1      40.584  28.047  31.196  1.00  0.00    -0.203 F 
ATOM     76  C   UNL A   1      38.383  28.614  30.590  1.00  0.00     0.198 A 
ATOM     77  C   UNL A   1      37.894  29.306  28.346  1.00  0.00     0.198 A 
ATOM     78  F   UNL A   1      39.603  29.372  26.733  1.00  0.00    -0.203 F 
ATOM     79  F   UNL A   1      37.968  28.318  31.830  1.00  0.00    -0.200 F 
ATOM     80  C   UNL A   1      37.469  29.038  29.638  1.00  0.00     0.200 A 
ATOM     81  F   UNL A   1      37.015  29.724  27.425  1.00  0.00    -0.200 F 
ATOM     82  F   UNL A   1      36.176  29.178  29.961  1.00  0.00    -0.200 F 
ENDBRANCH  58  72
BRANCH  59  83
ATOM     83  C   UNL A   1      49.669  27.013  26.047  1.00  0.00     0.064 A 
ATOM     84  C   UNL A   1      50.037  27.107  24.698  1.00  0.00     0.173 A 
ATOM     85  C   UNL A   1      50.669  26.668  26.969  1.00  0.00     0.173 A 
ATOM     86  F   UNL A   1      49.118  27.415  23.772  1.00  0.00    -0.203 F 
ATOM     87  C   UNL A   1      51.343  26.843  24.287  1.00  0.00     0.198 A 
ATOM     88  C   UNL A   1      51.981  26.437  26.562  1.00  0.00     0.198 A 
ATOM     89  F   UNL A   1      50.373  26.563  28.274  1.00  0.00    -0.203 F 
ATOM     90  F   UNL A   1      51.656  26.892  22.984  1.00  0.00    -0.200 F 
ATOM     91  C   UNL A   1      52.315  26.516  25.219  1.00  0.00     0.200 A 
ATOM     92  F   UNL A   1      52.919  26.137  27.470  1.00  0.00    -0.200 F 
ATOM     93  F   UNL A   1      53.571  26.267  24.824  1.00  0.00    -0.200 F 
ENDBRANCH  59  83
BRANCH  71  94
ATOM     94  C   UNL A   1      46.257  32.592  28.477  1.00  0.00     0.064 A 
ATOM     95  C   UNL A   1      46.864  32.928  29.697  1.00  0.00     0.173 A 
ATOM     96  C   UNL A   1      46.097  33.607  27.522  1.00  0.00     0.173 A 
ATOM     97  F   UNL A   1      47.032  31.997  30.648  1.00  0.00    -0.203 F 
ATOM     98  C   UNL A   1      47.249  34.238  29.965  1.00  0.00     0.198 A 
ATOM     99  C   UNL A   1      46.522  34.907  27.777  1.00  0.00     0.198 A 
ATOM    100  F   UNL A   1      45.535  33.336  26.332  1.00  0.00    -0.203 F 
ATOM    101  F   UNL A   1      47.760  34.551  31.165  1.00  0.00    -0.200 F 
ATOM    102  C   UNL A   1      47.084  35.223  29.004  1.00  0.00     0.200 A 
ATOM    103  F   UNL A   1      46.382  35.853  26.839  1.00  0.00    -0.200 F 
ATOM    104  F   UNL A   1      47.458  36.484  29.264  1.00  0.00    -0.200 F 
ENDBRANCH  71  94
ENDBRANCH  45  46
ENDBRANCH  38  40
ENDBRANCH  37  38
ENDBRANCH  36  37
ENDBRANCH  35  36
ENDBRANCH  34  35
ENDBRANCH  33  34
ENDBRANCH  32  33
ENDBRANCH  31  32
ENDBRANCH   1  31
TORSDOF 24
ENDMDL
MODEL 3
REMARK VINA RESULT:     -10.2      1.402      2.439
REMARK SMILES COc1ccc2c(CC(=O)OCCOCCOCCOCCOC(=O)c3ccc(-c4c5nc(c(-c6c(F)c(F)c(F)c(F)c6F)c6ccc([nH]6)c(-c6c(F)c(F)c(F)c(F)c6F)c6nc(c(-c7c(F)c(F)c(F)c(F)c7F)c7ccc4[nH]7)C=C6)C=C5)cc3)c(C(=O)c3cc(C)ccn3)[nH]c2c1
REMARK SMILES IDX 16 1 15 2 14 3 13 4 12 5 11 6 9 7 10 8 8 9 7 10 3 11 4 12
REMARK SMILES IDX 101 13 5 14 100 15 6 16 99 17 89 18 2 20 1 21 90 22 91 23
REMARK SMILES IDX 92 24 93 25 98 26 94 27 97 28 95 29 96 30 17 31 18 32 19 33
REMARK SMILES IDX 20 34 21 35 22 36 23 37 24 38 25 39 26 40 27 41 88 42 28 43
REMARK SMILES IDX 87 44 29 45 30 46 31 47 81 48 32 49 86 50 80 51 82 52 33 53
REMARK SMILES IDX 85 54 79 55 78 56 34 58 66 59 46 60 65 61 47 62 50 63 64 64
REMARK SMILES IDX 83 65 48 66 49 67 63 69 84 70 51 71 35 72 36 73 44 74 37 75
REMARK SMILES IDX 38 76 42 77 45 78 39 79 40 80 43 81 41 82 67 83 68 84 76 85
REMARK SMILES IDX 69 86 70 87 74 88 77 89 71 90 72 91 75 92 73 93 52 94 53 95
REMARK SMILES IDX 61 96 54 97 55 98 59 99 62 100 56 101 57 102 60 103 58 104
REMARK H PARENT 99 19 82 57 50 68
REMARK Flexibility Score: inf
ROOT
ATOM      1  C   UNL A   1      32.732  20.042  25.342  1.00  0.00     0.188 C 
ENDROOT
BRANCH   1   2
ATOM      2  C   UNL A   1      31.992  20.978  24.359  1.00  0.00     0.188 C 
BRANCH   2   3
ATOM      3  O   UNL A   1      32.471  21.124  23.041  1.00  0.00    -0.376 OA
BRANCH   3   4
ATOM      4  C   UNL A   1      32.326  22.314  22.299  1.00  0.00     0.202 C 
BRANCH   4   5
ATOM      5  C   UNL A   1      32.197  23.730  22.900  1.00  0.00     0.261 C 
BRANCH   5   6
ATOM      6  O   UNL A   1      31.128  24.568  22.424  1.00  0.00    -0.463 OA
BRANCH   6   7
ATOM      7  C   UNL A   1      31.269  25.907  22.550  1.00  0.00     0.310 C 
ATOM      8  O   UNL A   1      32.077  26.549  21.878  1.00  0.00    -0.252 OA
BRANCH   7   9
ATOM      9  C   UNL A   1      30.338  26.616  23.536  1.00  0.00     0.161 C 
BRANCH   9  10
ATOM     10  C   UNL A   1      30.434  28.104  23.864  1.00  0.00     0.000 A 
ATOM     11  C   UNL A   1      28.414  31.521  22.421  1.00  0.00     0.120 A 
ATOM     12  C   UNL A   1      28.161  30.342  21.723  1.00  0.00     0.047 A 
ATOM     13  C   UNL A   1      29.374  31.560  23.431  1.00  0.00     0.073 A 
ATOM     14  C   UNL A   1      28.815  29.151  22.073  1.00  0.00     0.014 A 
ATOM     15  C   UNL A   1      29.979  30.349  23.796  1.00  0.00     0.050 A 
ATOM     16  C   UNL A   1      29.714  29.139  23.161  1.00  0.00     0.004 A 
ATOM     17  N   UNL A   1      30.892  30.088  24.782  1.00  0.00    -0.351 N 
ATOM     18  C   UNL A   1      31.017  28.729  24.994  1.00  0.00     0.093 A 
ATOM     19  H   UNL A   1      31.392  30.777  25.275  1.00  0.00     0.167 HD
BRANCH  11  20
ATOM     20  O   UNL A   1      27.787  32.705  22.128  1.00  0.00    -0.497 OA
ATOM     21  C   UNL A   1      27.667  32.926  20.722  1.00  0.00     0.278 C 
ENDBRANCH  11  20
BRANCH  18  22
ATOM     22  C   UNL A   1      31.711  28.126  26.147  1.00  0.00     0.227 C 
ATOM     23  O   UNL A   1      31.578  28.579  27.282  1.00  0.00    -0.285 OA
BRANCH  22  24
ATOM     24  C   UNL A   1      32.538  26.861  26.006  1.00  0.00     0.113 A 
ATOM     25  C   UNL A   1      32.230  25.652  26.632  1.00  0.00     0.036 A 
ATOM     26  N   UNL A   1      33.620  26.993  25.191  1.00  0.00    -0.253 NA
ATOM     27  C   UNL A   1      33.088  24.552  26.444  1.00  0.00    -0.047 A 
ATOM     28  C   UNL A   1      34.415  25.917  25.011  1.00  0.00     0.112 A 
ATOM     29  C   UNL A   1      32.840  23.216  27.081  1.00  0.00     0.044 C 
ATOM     30  C   UNL A   1      34.217  24.705  25.636  1.00  0.00     0.023 A 
ENDBRANCH  22  24
ENDBRANCH  18  22
ENDBRANCH   9  10
ENDBRANCH   7   9
ENDBRANCH   6   7
ENDBRANCH   5   6
ENDBRANCH   4   5
ENDBRANCH   3   4
ENDBRANCH   2   3
ENDBRANCH   1   2
BRANCH   1  31
ATOM     31  O   UNL A   1      34.052  20.166  25.834  1.00  0.00    -0.377 OA
BRANCH  31  32
ATOM     32  C   UNL A   1      35.116  19.971  24.941  1.00  0.00     0.188 C 
BRANCH  32  33
ATOM     33  C   UNL A   1      36.096  21.143  24.962  1.00  0.00     0.188 C 
BRANCH  33  34
ATOM     34  O   UNL A   1      37.311  20.838  25.618  1.00  0.00    -0.376 OA
BRANCH  34  35
ATOM     35  C   UNL A   1      38.344  20.186  24.885  1.00  0.00     0.202 C 
BRANCH  35  36
ATOM     36  C   UNL A   1      39.388  19.276  25.571  1.00  0.00     0.261 C 
BRANCH  36  37
ATOM     37  O   UNL A   1      40.343  19.917  26.417  1.00  0.00    -0.460 OA
BRANCH  37  38
ATOM     38  C   UNL A   1      41.626  19.866  26.037  1.00  0.00     0.338 C 
ATOM     39  O   UNL A   1      42.168  19.035  25.328  1.00  0.00    -0.246 OA
BRANCH  38  40
ATOM     40  C   UNL A   1      42.211  21.145  26.453  1.00  0.00     0.060 A 
ATOM     41  C   UNL A   1      42.330  21.386  27.825  1.00  0.00     0.016 A 
ATOM     42  C   UNL A   1      42.696  22.060  25.511  1.00  0.00     0.016 A 
ATOM     43  C   UNL A   1      42.920  22.557  28.266  1.00  0.00     0.010 A 
ATOM     44  C   UNL A   1      43.248  23.260  25.953  1.00  0.00     0.010 A 
ATOM     45  C   UNL A   1      43.321  23.519  27.331  1.00  0.00    -0.014 A 
BRANCH  45  46
ATOM     46  C   UNL A   1      43.541  24.884  27.835  1.00  0.00     0.031 A 
ATOM     47  C   UNL A   1      44.962  25.352  27.943  1.00  0.00     0.074 A 
ATOM     48  C   UNL A   1      42.502  25.705  28.052  1.00  0.00     0.049 A 
ATOM     49  N   UNL A   1      45.430  26.527  28.270  1.00  0.00    -0.248 NA
ATOM     50  C   UNL A   1      46.002  24.357  27.625  1.00  0.00     0.031 C 
ATOM     51  C   UNL A   1      41.094  25.341  27.902  1.00  0.00     0.029 A 
ATOM     52  N   UNL A   1      42.477  27.021  28.423  1.00  0.00    -0.354 N 
ATOM     53  C   UNL A   1      46.811  26.410  28.193  1.00  0.00     0.074 A 
ATOM     54  C   UNL A   1      47.113  25.048  27.827  1.00  0.00     0.031 C 
ATOM     55  C   UNL A   1      40.337  26.417  28.179  1.00  0.00     0.029 A 
ATOM     56  C   UNL A   1      41.209  27.529  28.551  1.00  0.00     0.049 A 
ATOM     57  H   UNL A   1      43.290  27.554  28.583  1.00  0.00     0.167 HD
ATOM     58  C   UNL A   1      47.742  27.369  28.403  1.00  0.00     0.037 A 
ATOM     59  C   UNL A   1      40.815  28.754  28.943  1.00  0.00     0.037 A 
ATOM     60  C   UNL A   1      47.413  28.717  28.778  1.00  0.00     0.049 A 
ATOM     61  C   UNL A   1      41.875  29.780  29.249  1.00  0.00     0.074 A 
ATOM     62  C   UNL A   1      48.262  29.777  29.032  1.00  0.00     0.029 A 
ATOM     63  N   UNL A   1      46.117  29.184  28.963  1.00  0.00    -0.354 N 
ATOM     64  N   UNL A   1      43.182  29.673  29.171  1.00  0.00    -0.248 NA
ATOM     65  C   UNL A   1      41.407  31.099  29.690  1.00  0.00     0.031 C 
ATOM     66  C   UNL A   1      47.483  30.866  29.435  1.00  0.00     0.029 A 
ATOM     67  C   UNL A   1      46.145  30.510  29.359  1.00  0.00     0.049 A 
ATOM     68  H   UNL A   1      45.300  28.650  28.833  1.00  0.00     0.167 HD
ATOM     69  C   UNL A   1      43.691  30.916  29.524  1.00  0.00     0.074 A 
ATOM     70  C   UNL A   1      42.548  31.765  29.794  1.00  0.00     0.031 C 
ATOM     71  C   UNL A   1      44.982  31.323  29.621  1.00  0.00     0.037 A 
BRANCH  58  72
ATOM     72  C   UNL A   1      49.185  26.972  28.280  1.00  0.00     0.064 A 
ATOM     73  C   UNL A   1      49.884  27.065  27.066  1.00  0.00     0.173 A 
ATOM     74  C   UNL A   1      49.879  26.485  29.397  1.00  0.00     0.173 A 
ATOM     75  F   UNL A   1      49.263  27.498  25.959  1.00  0.00    -0.203 F 
ATOM     76  C   UNL A   1      51.214  26.659  26.971  1.00  0.00     0.198 A 
ATOM     77  C   UNL A   1      51.218  26.113  29.306  1.00  0.00     0.198 A 
ATOM     78  F   UNL A   1      49.258  26.366  30.581  1.00  0.00    -0.203 F 
ATOM     79  F   UNL A   1      51.843  26.701  25.787  1.00  0.00    -0.200 F 
ATOM     80  C   UNL A   1      51.882  26.192  28.092  1.00  0.00     0.200 A 
ATOM     81  F   UNL A   1      51.863  25.669  30.394  1.00  0.00    -0.200 F 
ATOM     82  F   UNL A   1      53.162  25.806  28.001  1.00  0.00    -0.200 F 
ENDBRANCH  58  72
BRANCH  59  83
ATOM     83  C   UNL A   1      39.367  29.065  29.078  1.00  0.00     0.064 A 
ATOM     84  C   UNL A   1      38.592  29.432  27.969  1.00  0.00     0.173 A 
ATOM     85  C   UNL A   1      38.730  29.015  30.327  1.00  0.00     0.173 A 
ATOM     86  F   UNL A   1      39.155  29.515  26.755  1.00  0.00    -0.203 F 
ATOM     87  C   UNL A   1      37.244  29.759  28.109  1.00  0.00     0.198 A 
ATOM     88  C   UNL A   1      37.375  29.308  30.460  1.00  0.00     0.198 A 
ATOM     89  F   UNL A   1      39.424  28.669  31.421  1.00  0.00    -0.203 F 
ATOM     90  F   UNL A   1      36.538  30.156  27.040  1.00  0.00    -0.200 F 
ATOM     91  C   UNL A   1      36.635  29.690  29.352  1.00  0.00     0.200 A 
ATOM     92  F   UNL A   1      36.788  29.224  31.662  1.00  0.00    -0.200 F 
ATOM     93  F   UNL A   1      35.338  30.000  29.485  1.00  0.00    -0.200 F 
ENDBRANCH  59  83
BRANCH  71  94
ATOM     94  C   UNL A   1      45.214  32.759  29.997  1.00  0.00     0.064 A 
ATOM     95  C   UNL A   1      45.384  33.155  31.332  1.00  0.00     0.173 A 
ATOM     96  C   UNL A   1      45.287  33.747  29.003  1.00  0.00     0.173 A 
ATOM     97  F   UNL A   1      45.313  32.251  32.320  1.00  0.00    -0.203 F 
ATOM     98  C   UNL A   1      45.569  34.495  31.660  1.00  0.00     0.198 A 
ATOM     99  C   UNL A   1      45.516  35.079  29.333  1.00  0.00     0.198 A 
ATOM    100  F   UNL A   1      45.146  33.419  27.709  1.00  0.00    -0.203 F 
ATOM    101  F   UNL A   1      45.655  34.861  32.947  1.00  0.00    -0.200 F 
ATOM    102  C   UNL A   1      45.642  35.454  30.661  1.00  0.00     0.200 A 
ATOM    103  F   UNL A   1      45.607  36.001  28.364  1.00  0.00    -0.200 F 
ATOM    104  F   UNL A   1      45.822  36.743  30.980  1.00  0.00    -0.200 F 
ENDBRANCH  71  94
ENDBRANCH  45  46
ENDBRANCH  38  40
ENDBRANCH  37  38
ENDBRANCH  36  37
ENDBRANCH  35  36
ENDBRANCH  34  35
ENDBRANCH  33  34
ENDBRANCH  32  33
ENDBRANCH  31  32
ENDBRANCH   1  31
TORSDOF 24
ENDMDL
