MODEL 1
REMARK VINA RESULT:     -10.5      0.000      0.000
REMARK SMILES COc1ccc(-c2noc(CC(=O)OCCOCCOCCOCCOC(=O)c3ccc(-c4c5nc(c(-c6c(F)c(F)c(F)c(F)c6F)c6ccc([nH]6)c(-c6c(F)c(F)c(F)c(F)c6F)c6nc(c(-c7c(F)c(F)c(F)c(F)c7F)c7ccc4[nH]7)C=C6)C=C5)cc3)c2-c2ccc(OC)cc2)cc1
REMARK SMILES IDX 19 1 18 2 17 3 16 4 15 5 14 6 12 7 13 8 11 9 10 10 7 11 8 12
REMARK SMILES IDX 92 13 9 14 6 15 3 16 4 17 102 18 5 19 101 20 2 21 1 22 93 23
REMARK SMILES IDX 94 24 100 25 95 26 99 27 96 28 97 29 98 30 20 31 21 32 22 33
REMARK SMILES IDX 23 34 24 35 25 36 26 37 27 38 28 39 29 40 30 41 91 42 31 43
REMARK SMILES IDX 90 44 32 45 33 46 34 47 84 48 35 49 89 50 83 51 85 52 36 53
REMARK SMILES IDX 88 54 82 55 81 56 37 58 69 59 49 60 68 61 50 62 53 63 67 64
REMARK SMILES IDX 86 65 51 66 52 67 66 69 87 70 54 71 38 72 39 73 47 74 40 75
REMARK SMILES IDX 41 76 45 77 48 78 42 79 43 80 46 81 44 82 70 83 71 84 79 85
REMARK SMILES IDX 72 86 73 87 77 88 80 89 74 90 75 91 78 92 76 93 55 94 56 95
REMARK SMILES IDX 64 96 57 97 58 98 62 99 65 100 59 101 60 102 63 103 61 104
REMARK H PARENT 85 57 53 68
REMARK Flexibility Score: inf
ROOT
ATOM      1  C   UNL A   1      33.897  30.690  27.205  1.00  0.00     0.188 C 
ENDROOT
BRANCH   1   2
ATOM      2  C   UNL A   1      32.640  29.840  27.009  1.00  0.00     0.188 C 
BRANCH   2   3
ATOM      3  O   UNL A   1      32.167  29.567  25.702  1.00  0.00    -0.376 OA
BRANCH   3   4
ATOM      4  C   UNL A   1      33.081  29.397  24.628  1.00  0.00     0.202 C 
BRANCH   4   5
ATOM      5  C   UNL A   1      32.650  28.895  23.230  1.00  0.00     0.261 C 
BRANCH   5   6
ATOM      6  O   UNL A   1      33.651  28.211  22.445  1.00  0.00    -0.463 OA
BRANCH   6   7
ATOM      7  C   UNL A   1      33.474  26.887  22.240  1.00  0.00     0.313 C 
ATOM      8  O   UNL A   1      33.592  26.356  21.136  1.00  0.00    -0.252 OA
BRANCH   7   9
ATOM      9  C   UNL A   1      33.266  26.030  23.472  1.00  0.00     0.201 C 
BRANCH   9  10
ATOM     10  C   UNL A   1      32.853  24.600  23.330  1.00  0.00     0.156 A 
ATOM     11  C   UNL A   1      32.405  22.414  23.431  1.00  0.00     0.122 A 
ATOM     12  N   UNL A   1      31.240  23.023  23.182  1.00  0.00    -0.079 NA
ATOM     13  C   UNL A   1      33.457  23.375  23.532  1.00  0.00     0.053 A 
ATOM     14  O   UNL A   1      31.511  24.372  23.206  1.00  0.00    -0.359 OA
BRANCH  11  15
ATOM     15  C   UNL A   1      32.462  20.987  23.698  1.00  0.00     0.005 A 
ATOM     16  C   UNL A   1      32.668  18.240  24.234  1.00  0.00     0.118 A 
ATOM     17  C   UNL A   1      32.292  18.688  22.964  1.00  0.00     0.047 A 
ATOM     18  C   UNL A   1      32.941  19.168  25.237  1.00  0.00     0.047 A 
ATOM     19  C   UNL A   1      32.173  20.057  22.697  1.00  0.00     0.014 A 
ATOM     20  C   UNL A   1      32.836  20.536  24.970  1.00  0.00     0.014 A 
BRANCH  16  21
ATOM     21  O   UNL A   1      32.784  16.884  24.366  1.00  0.00    -0.497 OA
ATOM     22  C   UNL A   1      32.670  16.383  25.694  1.00  0.00     0.278 C 
ENDBRANCH  16  21
ENDBRANCH  11  15
BRANCH  13  23
ATOM     23  C   UNL A   1      34.793  23.216  24.044  1.00  0.00    -0.012 A 
ATOM     24  C   UNL A   1      35.790  22.574  23.312  1.00  0.00     0.013 A 
ATOM     25  C   UNL A   1      35.055  23.654  25.345  1.00  0.00     0.013 A 
ATOM     26  C   UNL A   1      37.057  22.410  23.881  1.00  0.00     0.047 A 
ATOM     27  C   UNL A   1      36.319  23.510  25.898  1.00  0.00     0.047 A 
ATOM     28  C   UNL A   1      37.330  22.893  25.166  1.00  0.00     0.118 A 
BRANCH  28  29
ATOM     29  O   UNL A   1      38.607  22.694  25.613  1.00  0.00    -0.497 OA
ATOM     30  C   UNL A   1      38.971  23.420  26.785  1.00  0.00     0.278 C 
ENDBRANCH  28  29
ENDBRANCH  13  23
ENDBRANCH   9  10
ENDBRANCH   7   9
ENDBRANCH   6   7
ENDBRANCH   5   6
ENDBRANCH   4   5
ENDBRANCH   3   4
ENDBRANCH   2   3
ENDBRANCH   1   2
BRANCH   1  31
ATOM     31  O   UNL A   1      33.869  31.616  28.271  1.00  0.00    -0.377 OA
BRANCH  31  32
ATOM     32  C   UNL A   1      33.712  32.991  27.966  1.00  0.00     0.188 C 
BRANCH  32  33
ATOM     33  C   UNL A   1      34.890  33.941  28.228  1.00  0.00     0.188 C 
BRANCH  33  34
ATOM     34  O   UNL A   1      34.517  35.242  28.655  1.00  0.00    -0.376 OA
BRANCH  34  35
ATOM     35  C   UNL A   1      33.148  35.518  28.928  1.00  0.00     0.202 C 
BRANCH  35  36
ATOM     36  C   UNL A   1      32.803  36.685  29.870  1.00  0.00     0.261 C 
BRANCH  36  37
ATOM     37  O   UNL A   1      33.329  36.615  31.207  1.00  0.00    -0.460 OA
BRANCH  37  38
ATOM     38  C   UNL A   1      32.927  35.602  32.002  1.00  0.00     0.338 C 
ATOM     39  O   UNL A   1      31.811  35.144  32.110  1.00  0.00    -0.246 OA
BRANCH  38  40
ATOM     40  C   UNL A   1      34.139  34.990  32.592  1.00  0.00     0.060 A 
ATOM     41  C   UNL A   1      35.385  35.549  32.285  1.00  0.00     0.016 A 
ATOM     42  C   UNL A   1      34.050  33.869  33.420  1.00  0.00     0.016 A 
ATOM     43  C   UNL A   1      36.552  34.959  32.766  1.00  0.00     0.010 A 
ATOM     44  C   UNL A   1      35.223  33.264  33.885  1.00  0.00     0.010 A 
ATOM     45  C   UNL A   1      36.479  33.783  33.524  1.00  0.00    -0.014 A 
BRANCH  45  46
ATOM     46  C   UNL A   1      37.718  33.000  33.757  1.00  0.00     0.031 A 
ATOM     47  C   UNL A   1      38.494  33.247  35.021  1.00  0.00     0.074 A 
ATOM     48  C   UNL A   1      38.111  32.044  32.897  1.00  0.00     0.049 A 
ATOM     49  N   UNL A   1      39.595  32.683  35.447  1.00  0.00    -0.248 NA
ATOM     50  C   UNL A   1      37.951  34.269  35.930  1.00  0.00     0.031 C 
ATOM     51  C   UNL A   1      37.418  31.680  31.664  1.00  0.00     0.029 A 
ATOM     52  N   UNL A   1      39.196  31.204  32.936  1.00  0.00    -0.354 N 
ATOM     53  C   UNL A   1      39.877  33.283  36.669  1.00  0.00     0.074 A 
ATOM     54  C   UNL A   1      38.855  34.280  36.898  1.00  0.00     0.031 C 
ATOM     55  C   UNL A   1      38.098  30.691  31.059  1.00  0.00     0.029 A 
ATOM     56  C   UNL A   1      39.291  30.376  31.846  1.00  0.00     0.049 A 
ATOM     57  H   UNL A   1      39.846  31.197  33.676  1.00  0.00     0.167 HD
ATOM     58  C   UNL A   1      40.892  33.020  37.526  1.00  0.00     0.037 A 
ATOM     59  C   UNL A   1      40.242  29.481  31.515  1.00  0.00     0.037 A 
ATOM     60  C   UNL A   1      41.910  32.030  37.292  1.00  0.00     0.049 A 
ATOM     61  C   UNL A   1      41.405  29.262  32.450  1.00  0.00     0.074 A 
ATOM     62  C   UNL A   1      42.973  31.677  38.104  1.00  0.00     0.029 A 
ATOM     63  N   UNL A   1      41.998  31.241  36.154  1.00  0.00    -0.354 N 
ATOM     64  N   UNL A   1      41.652  29.813  33.614  1.00  0.00    -0.248 NA
ATOM     65  C   UNL A   1      42.423  28.289  32.025  1.00  0.00     0.031 C 
ATOM     66  C   UNL A   1      43.741  30.723  37.430  1.00  0.00     0.029 A 
ATOM     67  C   UNL A   1      43.116  30.426  36.228  1.00  0.00     0.049 A 
ATOM     68  H   UNL A   1      41.360  31.259  35.405  1.00  0.00     0.167 HD
ATOM     69  C   UNL A   1      42.829  29.232  34.074  1.00  0.00     0.074 A 
ATOM     70  C   UNL A   1      43.237  28.272  33.070  1.00  0.00     0.031 C 
ATOM     71  C   UNL A   1      43.509  29.471  35.223  1.00  0.00     0.037 A 
BRANCH  58  72
ATOM     72  C   UNL A   1      40.968  33.840  38.783  1.00  0.00     0.064 A 
ATOM     73  C   UNL A   1      40.375  33.417  39.983  1.00  0.00     0.173 A 
ATOM     74  C   UNL A   1      41.670  35.054  38.794  1.00  0.00     0.173 A 
ATOM     75  F   UNL A   1      39.679  32.271  40.025  1.00  0.00    -0.203 F 
ATOM     76  C   UNL A   1      40.457  34.194  41.137  1.00  0.00     0.198 A 
ATOM     77  C   UNL A   1      41.780  35.811  39.957  1.00  0.00     0.198 A 
ATOM     78  F   UNL A   1      42.260  35.505  37.675  1.00  0.00    -0.203 F 
ATOM     79  F   UNL A   1      39.837  33.796  42.256  1.00  0.00    -0.200 F 
ATOM     80  C   UNL A   1      41.166  35.386  41.125  1.00  0.00     0.200 A 
ATOM     81  F   UNL A   1      42.478  36.955  39.946  1.00  0.00    -0.200 F 
ATOM     82  F   UNL A   1      41.252  36.128  42.237  1.00  0.00    -0.200 F 
ENDBRANCH  58  72
BRANCH  59  83
ATOM     83  C   UNL A   1      40.147  28.729  30.234  1.00  0.00     0.064 A 
ATOM     84  C   UNL A   1      39.586  27.445  30.183  1.00  0.00     0.173 A 
ATOM     85  C   UNL A   1      40.645  29.268  29.038  1.00  0.00     0.173 A 
ATOM     86  F   UNL A   1      39.121  26.873  31.303  1.00  0.00    -0.203 F 
ATOM     87  C   UNL A   1      39.548  26.721  28.992  1.00  0.00     0.198 A 
ATOM     88  C   UNL A   1      40.575  28.557  27.841  1.00  0.00     0.198 A 
ATOM     89  F   UNL A   1      41.196  30.491  29.029  1.00  0.00    -0.203 F 
ATOM     90  F   UNL A   1      39.058  25.473  28.986  1.00  0.00    -0.200 F 
ATOM     91  C   UNL A   1      40.037  27.280  27.822  1.00  0.00     0.200 A 
ATOM     92  F   UNL A   1      41.037  29.107  26.711  1.00  0.00    -0.200 F 
ATOM     93  F   UNL A   1      39.998  26.585  26.677  1.00  0.00    -0.200 F 
ENDBRANCH  59  83
BRANCH  71  94
ATOM     94  C   UNL A   1      44.743  28.650  35.479  1.00  0.00     0.064 A 
ATOM     95  C   UNL A   1      44.688  27.412  36.138  1.00  0.00     0.173 A 
ATOM     96  C   UNL A   1      45.997  29.096  35.030  1.00  0.00     0.173 A 
ATOM     97  F   UNL A   1      43.519  26.943  36.598  1.00  0.00    -0.203 F 
ATOM     98  C   UNL A   1      45.846  26.674  36.372  1.00  0.00     0.198 A 
ATOM     99  C   UNL A   1      47.146  28.336  35.232  1.00  0.00     0.198 A 
ATOM    100  F   UNL A   1      46.107  30.266  34.383  1.00  0.00    -0.203 F 
ATOM    101  F   UNL A   1      45.776  25.525  37.060  1.00  0.00    -0.200 F 
ATOM    102  C   UNL A   1      47.071  27.132  35.914  1.00  0.00     0.200 A 
ATOM    103  F   UNL A   1      48.325  28.773  34.770  1.00  0.00    -0.200 F 
ATOM    104  F   UNL A   1      48.182  26.417  36.136  1.00  0.00    -0.200 F 
ENDBRANCH  71  94
ENDBRANCH  45  46
ENDBRANCH  38  40
ENDBRANCH  37  38
ENDBRANCH  36  37
ENDBRANCH  35  36
ENDBRANCH  34  35
ENDBRANCH  33  34
ENDBRANCH  32  33
ENDBRANCH  31  32
ENDBRANCH   1  31
TORSDOF 25
ENDMDL
MODEL 2
REMARK VINA RESULT:      -9.8      6.456     13.715
REMARK SMILES COc1ccc(-c2noc(CC(=O)OCCOCCOCCOCCOC(=O)c3ccc(-c4c5nc(c(-c6c(F)c(F)c(F)c(F)c6F)c6ccc([nH]6)c(-c6c(F)c(F)c(F)c(F)c6F)c6nc(c(-c7c(F)c(F)c(F)c(F)c7F)c7ccc4[nH]7)C=C6)C=C5)cc3)c2-c2ccc(OC)cc2)cc1
REMARK SMILES IDX 19 1 18 2 17 3 16 4 15 5 14 6 12 7 13 8 11 9 10 10 7 11 8 12
REMARK SMILES IDX 92 13 9 14 6 15 3 16 4 17 102 18 5 19 101 20 2 21 1 22 93 23
REMARK SMILES IDX 94 24 100 25 95 26 99 27 96 28 97 29 98 30 20 31 21 32 22 33
REMARK SMILES IDX 23 34 24 35 25 36 26 37 27 38 28 39 29 40 30 41 91 42 31 43
REMARK SMILES IDX 90 44 32 45 33 46 34 47 84 48 35 49 89 50 83 51 85 52 36 53
REMARK SMILES IDX 88 54 82 55 81 56 37 58 69 59 49 60 68 61 50 62 53 63 67 64
REMARK SMILES IDX 86 65 51 66 52 67 66 69 87 70 54 71 38 72 39 73 47 74 40 75
REMARK SMILES IDX 41 76 45 77 48 78 42 79 43 80 46 81 44 82 70 83 71 84 79 85
REMARK SMILES IDX 72 86 73 87 77 88 80 89 74 90 75 91 78 92 76 93 55 94 56 95
REMARK SMILES IDX 64 96 57 97 58 98 62 99 65 100 59 101 60 102 63 103 61 104
REMARK H PARENT 85 57 53 68
REMARK Flexibility Score: inf
ROOT
ATOM      1  C   UNL A   1      46.807  24.178  24.195  1.00  0.00     0.188 C 
ENDROOT
BRANCH   1   2
ATOM      2  C   UNL A   1      46.709  25.163  25.362  1.00  0.00     0.188 C 
BRANCH   2   3
ATOM      3  O   UNL A   1      47.011  26.531  25.162  1.00  0.00    -0.376 OA
BRANCH   3   4
ATOM      4  C   UNL A   1      45.969  27.475  24.963  1.00  0.00     0.202 C 
BRANCH   4   5
ATOM      5  C   UNL A   1      44.599  27.378  25.674  1.00  0.00     0.261 C 
BRANCH   5   6
ATOM      6  O   UNL A   1      44.371  28.281  26.779  1.00  0.00    -0.463 OA
BRANCH   6   7
ATOM      7  C   UNL A   1      43.569  29.344  26.551  1.00  0.00     0.313 C 
ATOM      8  O   UNL A   1      42.530  29.275  25.895  1.00  0.00    -0.252 OA
BRANCH   7   9
ATOM      9  C   UNL A   1      43.922  30.628  27.273  1.00  0.00     0.201 C 
BRANCH   9  10
ATOM     10  C   UNL A   1      45.172  31.369  26.918  1.00  0.00     0.156 A 
ATOM     11  C   UNL A   1      46.921  32.724  26.618  1.00  0.00     0.122 A 
ATOM     12  N   UNL A   1      47.427  31.511  26.868  1.00  0.00    -0.079 NA
ATOM     13  C   UNL A   1      45.494  32.682  26.639  1.00  0.00     0.053 A 
ATOM     14  O   UNL A   1      46.346  30.704  27.136  1.00  0.00    -0.359 OA
BRANCH  11  15
ATOM     15  C   UNL A   1      47.785  33.888  26.508  1.00  0.00     0.005 A 
ATOM     16  C   UNL A   1      49.400  36.178  26.366  1.00  0.00     0.118 A 
ATOM     17  C   UNL A   1      48.633  35.783  25.266  1.00  0.00     0.047 A 
ATOM     18  C   UNL A   1      49.359  35.426  27.539  1.00  0.00     0.047 A 
ATOM     19  C   UNL A   1      47.838  34.633  25.327  1.00  0.00     0.014 A 
ATOM     20  C   UNL A   1      48.556  34.284  27.607  1.00  0.00     0.014 A 
BRANCH  16  21
ATOM     21  O   UNL A   1      50.109  37.336  26.201  1.00  0.00    -0.497 OA
ATOM     22  C   UNL A   1      50.141  38.204  27.328  1.00  0.00     0.278 C 
ENDBRANCH  16  21
ENDBRANCH  11  15
BRANCH  13  23
ATOM     23  C   UNL A   1      44.548  33.766  26.690  1.00  0.00    -0.012 A 
ATOM     24  C   UNL A   1      43.798  34.142  25.577  1.00  0.00     0.013 A 
ATOM     25  C   UNL A   1      44.453  34.500  27.876  1.00  0.00     0.013 A 
ATOM     26  C   UNL A   1      42.928  35.232  25.677  1.00  0.00     0.047 A 
ATOM     27  C   UNL A   1      43.573  35.568  27.978  1.00  0.00     0.047 A 
ATOM     28  C   UNL A   1      42.800  35.936  26.880  1.00  0.00     0.118 A 
BRANCH  28  29
ATOM     29  O   UNL A   1      41.906  36.971  26.867  1.00  0.00    -0.497 OA
ATOM     30  C   UNL A   1      42.457  38.264  27.105  1.00  0.00     0.278 C 
ENDBRANCH  28  29
ENDBRANCH  13  23
ENDBRANCH   9  10
ENDBRANCH   7   9
ENDBRANCH   6   7
ENDBRANCH   5   6
ENDBRANCH   4   5
ENDBRANCH   3   4
ENDBRANCH   2   3
ENDBRANCH   1   2
BRANCH   1  31
ATOM     31  O   UNL A   1      45.877  23.116  24.189  1.00  0.00    -0.377 OA
BRANCH  31  32
ATOM     32  C   UNL A   1      46.030  22.080  25.144  1.00  0.00     0.188 C 
BRANCH  32  33
ATOM     33  C   UNL A   1      46.460  20.689  24.656  1.00  0.00     0.188 C 
BRANCH  33  34
ATOM     34  O   UNL A   1      46.292  19.649  25.608  1.00  0.00    -0.376 OA
BRANCH  34  35
ATOM     35  C   UNL A   1      45.567  18.482  25.241  1.00  0.00     0.202 C 
BRANCH  35  36
ATOM     36  C   UNL A   1      44.049  18.445  25.494  1.00  0.00     0.261 C 
BRANCH  36  37
ATOM     37  O   UNL A   1      43.313  19.643  25.194  1.00  0.00    -0.460 OA
BRANCH  37  38
ATOM     38  C   UNL A   1      42.131  19.842  25.813  1.00  0.00     0.338 C 
ATOM     39  O   UNL A   1      41.239  19.039  25.982  1.00  0.00    -0.246 OA
BRANCH  38  40
ATOM     40  C   UNL A   1      42.178  21.180  26.444  1.00  0.00     0.060 A 
ATOM     41  C   UNL A   1      42.437  22.292  25.634  1.00  0.00     0.016 A 
ATOM     42  C   UNL A   1      41.990  21.335  27.820  1.00  0.00     0.016 A 
ATOM     43  C   UNL A   1      42.557  23.557  26.203  1.00  0.00     0.010 A 
ATOM     44  C   UNL A   1      42.133  22.602  28.393  1.00  0.00     0.010 A 
ATOM     45  C   UNL A   1      42.458  23.711  27.592  1.00  0.00    -0.014 A 
BRANCH  45  46
ATOM     46  C   UNL A   1      42.898  24.988  28.207  1.00  0.00     0.031 A 
ATOM     47  C   UNL A   1      41.867  26.054  28.457  1.00  0.00     0.074 A 
ATOM     48  C   UNL A   1      44.172  25.174  28.595  1.00  0.00     0.049 A 
ATOM     49  N   UNL A   1      42.007  27.242  28.988  1.00  0.00    -0.248 NA
ATOM     50  C   UNL A   1      40.488  25.735  28.054  1.00  0.00     0.031 C 
ATOM     51  C   UNL A   1      45.249  24.199  28.451  1.00  0.00     0.029 A 
ATOM     52  N   UNL A   1      44.770  26.255  29.193  1.00  0.00    -0.354 N 
ATOM     53  C   UNL A   1      40.739  27.811  28.979  1.00  0.00     0.074 A 
ATOM     54  C   UNL A   1      39.850  26.855  28.357  1.00  0.00     0.031 C 
ATOM     55  C   UNL A   1      46.383  24.728  28.943  1.00  0.00     0.029 A 
ATOM     56  C   UNL A   1      46.116  26.089  29.408  1.00  0.00     0.049 A 
ATOM     57  H   UNL A   1      44.282  27.072  29.445  1.00  0.00     0.167 HD
ATOM     58  C   UNL A   1      40.350  29.017  29.456  1.00  0.00     0.037 A 
ATOM     59  C   UNL A   1      47.028  26.947  29.904  1.00  0.00     0.037 A 
ATOM     60  C   UNL A   1      41.239  29.967  30.071  1.00  0.00     0.049 A 
ATOM     61  C   UNL A   1      46.583  28.316  30.356  1.00  0.00     0.074 A 
ATOM     62  C   UNL A   1      40.942  31.211  30.599  1.00  0.00     0.029 A 
ATOM     63  N   UNL A   1      42.605  29.782  30.229  1.00  0.00    -0.354 N 
ATOM     64  N   UNL A   1      45.380  28.837  30.370  1.00  0.00    -0.248 NA
ATOM     65  C   UNL A   1      47.627  29.216  30.868  1.00  0.00     0.031 C 
ATOM     66  C   UNL A   1      42.136  31.806  31.016  1.00  0.00     0.029 A 
ATOM     67  C   UNL A   1      43.169  30.903  30.817  1.00  0.00     0.049 A 
ATOM     68  H   UNL A   1      43.100  28.974  29.963  1.00  0.00     0.167 HD
ATOM     69  C   UNL A   1      45.516  30.107  30.920  1.00  0.00     0.074 A 
ATOM     70  C   UNL A   1      46.917  30.270  31.244  1.00  0.00     0.031 C 
ATOM     71  C   UNL A   1      44.566  31.052  31.138  1.00  0.00     0.037 A 
BRANCH  58  72
ATOM     72  C   UNL A   1      38.902  29.390  29.301  1.00  0.00     0.064 A 
ATOM     73  C   UNL A   1      38.332  29.646  28.044  1.00  0.00     0.173 A 
ATOM     74  C   UNL A   1      38.067  29.465  30.425  1.00  0.00     0.173 A 
ATOM     75  F   UNL A   1      39.090  29.603  26.937  1.00  0.00    -0.203 F 
ATOM     76  C   UNL A   1      36.988  29.992  27.923  1.00  0.00     0.198 A 
ATOM     77  C   UNL A   1      36.717  29.778  30.298  1.00  0.00     0.198 A 
ATOM     78  F   UNL A   1      38.558  29.227  31.651  1.00  0.00    -0.203 F 
ATOM     79  F   UNL A   1      36.479  30.284  26.718  1.00  0.00    -0.200 F 
ATOM     80  C   UNL A   1      36.180  30.049  29.048  1.00  0.00     0.200 A 
ATOM     81  F   UNL A   1      35.934  29.818  31.385  1.00  0.00    -0.200 F 
ATOM     82  F   UNL A   1      34.886  30.374  28.930  1.00  0.00    -0.200 F 
ENDBRANCH  58  72
BRANCH  59  83
ATOM     83  C   UNL A   1      48.460  26.549  29.992  1.00  0.00     0.064 A 
ATOM     84  C   UNL A   1      48.960  25.876  31.115  1.00  0.00     0.173 A 
ATOM     85  C   UNL A   1      49.364  26.862  28.965  1.00  0.00     0.173 A 
ATOM     86  F   UNL A   1      48.144  25.578  32.136  1.00  0.00    -0.203 F 
ATOM     87  C   UNL A   1      50.313  25.552  31.218  1.00  0.00     0.198 A 
ATOM     88  C   UNL A   1      50.708  26.506  29.053  1.00  0.00     0.198 A 
ATOM     89  F   UNL A   1      48.939  27.508  27.869  1.00  0.00    -0.203 F 
ATOM     90  F   UNL A   1      50.774  24.959  32.328  1.00  0.00    -0.200 F 
ATOM     91  C   UNL A   1      51.184  25.862  30.185  1.00  0.00     0.200 A 
ATOM     92  F   UNL A   1      51.543  26.797  28.047  1.00  0.00    -0.200 F 
ATOM     93  F   UNL A   1      52.482  25.548  30.284  1.00  0.00    -0.200 F 
ENDBRANCH  59  83
BRANCH  71  94
ATOM     94  C   UNL A   1      45.003  32.331  31.798  1.00  0.00     0.064 A 
ATOM     95  C   UNL A   1      44.732  32.601  33.148  1.00  0.00     0.173 A 
ATOM     96  C   UNL A   1      45.731  33.289  31.074  1.00  0.00     0.173 A 
ATOM     97  F   UNL A   1      44.031  31.726  33.885  1.00  0.00    -0.203 F 
ATOM     98  C   UNL A   1      45.138  33.797  33.735  1.00  0.00     0.198 A 
ATOM     99  C   UNL A   1      46.169  34.465  31.675  1.00  0.00     0.198 A 
ATOM    100  F   UNL A   1      46.029  33.078  29.782  1.00  0.00    -0.203 F 
ATOM    101  F   UNL A   1      44.812  34.060  35.009  1.00  0.00    -0.200 F 
ATOM    102  C   UNL A   1      45.862  34.725  33.001  1.00  0.00     0.200 A 
ATOM    103  F   UNL A   1      46.885  35.351  30.968  1.00  0.00    -0.200 F 
ATOM    104  F   UNL A   1      46.255  35.872  33.570  1.00  0.00    -0.200 F 
ENDBRANCH  71  94
ENDBRANCH  45  46
ENDBRANCH  38  40
ENDBRANCH  37  38
ENDBRANCH  36  37
ENDBRANCH  35  36
ENDBRANCH  34  35
ENDBRANCH  33  34
ENDBRANCH  32  33
ENDBRANCH  31  32
ENDBRANCH   1  31
TORSDOF 25
ENDMDL
MODEL 3
REMARK VINA RESULT:      -9.8      0.682      6.967
REMARK SMILES COc1ccc(-c2noc(CC(=O)OCCOCCOCCOCCOC(=O)c3ccc(-c4c5nc(c(-c6c(F)c(F)c(F)c(F)c6F)c6ccc([nH]6)c(-c6c(F)c(F)c(F)c(F)c6F)c6nc(c(-c7c(F)c(F)c(F)c(F)c7F)c7ccc4[nH]7)C=C6)C=C5)cc3)c2-c2ccc(OC)cc2)cc1
REMARK SMILES IDX 19 1 18 2 17 3 16 4 15 5 14 6 12 7 13 8 11 9 10 10 7 11 8 12
REMARK SMILES IDX 92 13 9 14 6 15 3 16 4 17 102 18 5 19 101 20 2 21 1 22 93 23
REMARK SMILES IDX 94 24 100 25 95 26 99 27 96 28 97 29 98 30 20 31 21 32 22 33
REMARK SMILES IDX 23 34 24 35 25 36 26 37 27 38 28 39 29 40 30 41 91 42 31 43
REMARK SMILES IDX 90 44 32 45 33 46 34 47 84 48 35 49 89 50 83 51 85 52 36 53
REMARK SMILES IDX 88 54 82 55 81 56 37 58 69 59 49 60 68 61 50 62 53 63 67 64
REMARK SMILES IDX 86 65 51 66 52 67 66 69 87 70 54 71 38 72 39 73 47 74 40 75
REMARK SMILES IDX 41 76 45 77 48 78 42 79 43 80 46 81 44 82 70 83 71 84 79 85
REMARK SMILES IDX 72 86 73 87 77 88 80 89 74 90 75 91 78 92 76 93 55 94 56 95
REMARK SMILES IDX 64 96 57 97 58 98 62 99 65 100 59 101 60 102 63 103 61 104
REMARK H PARENT 85 57 53 68
REMARK Flexibility Score: inf
ROOT
ATOM      1  C   UNL A   1      33.868  30.592  27.077  1.00  0.00     0.188 C 
ENDROOT
BRANCH   1   2
ATOM      2  C   UNL A   1      32.660  29.682  26.845  1.00  0.00     0.188 C 
BRANCH   2   3
ATOM      3  O   UNL A   1      32.257  29.362  25.526  1.00  0.00    -0.376 OA
BRANCH   3   4
ATOM      4  C   UNL A   1      33.226  29.076  24.528  1.00  0.00     0.202 C 
BRANCH   4   5
ATOM      5  C   UNL A   1      32.859  28.497  23.141  1.00  0.00     0.261 C 
BRANCH   5   6
ATOM      6  O   UNL A   1      33.875  27.723  22.466  1.00  0.00    -0.463 OA
BRANCH   6   7
ATOM      7  C   UNL A   1      33.656  26.396  22.340  1.00  0.00     0.313 C 
ATOM      8  O   UNL A   1      33.648  25.815  21.255  1.00  0.00    -0.252 OA
BRANCH   7   9
ATOM      9  C   UNL A   1      33.565  25.597  23.624  1.00  0.00     0.201 C 
BRANCH   9  10
ATOM     10  C   UNL A   1      33.153  24.160  23.586  1.00  0.00     0.156 A 
ATOM     11  C   UNL A   1      32.691  21.991  23.853  1.00  0.00     0.122 A 
ATOM     12  N   UNL A   1      31.540  22.578  23.503  1.00  0.00    -0.079 NA
ATOM     13  C   UNL A   1      33.742  22.957  23.917  1.00  0.00     0.053 A 
ATOM     14  O   UNL A   1      31.816  23.923  23.425  1.00  0.00    -0.359 OA
BRANCH  11  15
ATOM     15  C   UNL A   1      32.730  20.592  24.242  1.00  0.00     0.005 A 
ATOM     16  C   UNL A   1      32.715  17.881  24.964  1.00  0.00     0.118 A 
ATOM     17  C   UNL A   1      32.906  18.871  25.933  1.00  0.00     0.047 A 
ATOM     18  C   UNL A   1      32.532  18.248  23.632  1.00  0.00     0.047 A 
ATOM     19  C   UNL A   1      32.930  20.223  25.575  1.00  0.00     0.014 A 
ATOM     20  C   UNL A   1      32.542  19.598  23.274  1.00  0.00     0.014 A 
BRANCH  16  21
ATOM     21  O   UNL A   1      32.676  16.598  25.437  1.00  0.00    -0.497 OA
ATOM     22  C   UNL A   1      33.873  15.844  25.273  1.00  0.00     0.278 C 
ENDBRANCH  16  21
ENDBRANCH  11  15
BRANCH  13  23
ATOM     23  C   UNL A   1      35.054  22.841  24.498  1.00  0.00    -0.012 A 
ATOM     24  C   UNL A   1      35.631  23.880  25.226  1.00  0.00     0.013 A 
ATOM     25  C   UNL A   1      35.785  21.676  24.244  1.00  0.00     0.013 A 
ATOM     26  C   UNL A   1      36.928  23.724  25.727  1.00  0.00     0.047 A 
ATOM     27  C   UNL A   1      37.062  21.517  24.762  1.00  0.00     0.047 A 
ATOM     28  C   UNL A   1      37.638  22.538  25.512  1.00  0.00     0.118 A 
BRANCH  28  29
ATOM     29  O   UNL A   1      38.889  22.491  26.065  1.00  0.00    -0.497 OA
ATOM     30  C   UNL A   1      39.228  23.580  26.919  1.00  0.00     0.278 C 
ENDBRANCH  28  29
ENDBRANCH  13  23
ENDBRANCH   9  10
ENDBRANCH   7   9
ENDBRANCH   6   7
ENDBRANCH   5   6
ENDBRANCH   4   5
ENDBRANCH   3   4
ENDBRANCH   2   3
ENDBRANCH   1   2
BRANCH   1  31
ATOM     31  O   UNL A   1      33.791  31.470  28.180  1.00  0.00    -0.377 OA
BRANCH  31  32
ATOM     32  C   UNL A   1      33.704  32.862  27.929  1.00  0.00     0.188 C 
BRANCH  32  33
ATOM     33  C   UNL A   1      34.931  33.739  28.221  1.00  0.00     0.188 C 
BRANCH  33  34
ATOM     34  O   UNL A   1      34.628  35.028  28.733  1.00  0.00    -0.376 OA
BRANCH  34  35
ATOM     35  C   UNL A   1      33.295  35.322  29.129  1.00  0.00     0.202 C 
BRANCH  35  36
ATOM     36  C   UNL A   1      33.050  36.510  30.078  1.00  0.00     0.261 C 
BRANCH  36  37
ATOM     37  O   UNL A   1      33.655  36.432  31.380  1.00  0.00    -0.460 OA
BRANCH  37  38
ATOM     38  C   UNL A   1      33.271  35.438  32.207  1.00  0.00     0.338 C 
ATOM     39  O   UNL A   1      32.179  34.920  32.286  1.00  0.00    -0.246 OA
BRANCH  38  40
ATOM     40  C   UNL A   1      34.484  34.930  32.887  1.00  0.00     0.060 A 
ATOM     41  C   UNL A   1      35.736  35.351  32.422  1.00  0.00     0.016 A 
ATOM     42  C   UNL A   1      34.390  34.034  33.955  1.00  0.00     0.016 A 
ATOM     43  C   UNL A   1      36.900  34.840  32.992  1.00  0.00     0.010 A 
ATOM     44  C   UNL A   1      35.559  33.505  34.511  1.00  0.00     0.010 A 
ATOM     45  C   UNL A   1      36.817  33.875  34.003  1.00  0.00    -0.014 A 
BRANCH  45  46
ATOM     46  C   UNL A   1      38.037  33.116  34.374  1.00  0.00     0.031 A 
ATOM     47  C   UNL A   1      38.531  32.052  33.433  1.00  0.00     0.074 A 
ATOM     48  C   UNL A   1      38.730  33.409  35.489  1.00  0.00     0.049 A 
ATOM     49  N   UNL A   1      39.574  31.267  33.535  1.00  0.00    -0.248 NA
ATOM     50  C   UNL A   1      37.741  31.846  32.209  1.00  0.00     0.031 C 
ATOM     51  C   UNL A   1      38.379  34.448  36.452  1.00  0.00     0.029 A 
ATOM     52  N   UNL A   1      39.878  32.851  35.994  1.00  0.00    -0.354 N 
ATOM     53  C   UNL A   1      39.562  30.475  32.393  1.00  0.00     0.074 A 
ATOM     54  C   UNL A   1      38.390  30.847  31.631  1.00  0.00     0.031 C 
ATOM     55  C   UNL A   1      39.292  34.452  37.439  1.00  0.00     0.029 A 
ATOM     56  C   UNL A   1      40.272  33.394  37.192  1.00  0.00     0.049 A 
ATOM     57  H   UNL A   1      40.372  32.129  35.542  1.00  0.00     0.167 HD
ATOM     58  C   UNL A   1      40.453  29.531  32.009  1.00  0.00     0.037 A 
ATOM     59  C   UNL A   1      41.295  33.061  38.002  1.00  0.00     0.037 A 
ATOM     60  C   UNL A   1      41.616  29.161  32.772  1.00  0.00     0.049 A 
ATOM     61  C   UNL A   1      42.230  31.950  37.590  1.00  0.00     0.074 A 
ATOM     62  C   UNL A   1      42.588  28.226  32.465  1.00  0.00     0.029 A 
ATOM     63  N   UNL A   1      41.957  29.702  34.004  1.00  0.00    -0.354 N 
ATOM     64  N   UNL A   1      42.228  31.224  36.498  1.00  0.00    -0.248 NA
ATOM     65  C   UNL A   1      43.314  31.616  38.525  1.00  0.00     0.031 C 
ATOM     66  C   UNL A   1      43.481  28.154  33.539  1.00  0.00     0.029 A 
ATOM     67  C   UNL A   1      43.108  29.097  34.484  1.00  0.00     0.049 A 
ATOM     68  H   UNL A   1      41.456  30.411  34.467  1.00  0.00     0.167 HD
ATOM     69  C   UNL A   1      43.325  30.375  36.598  1.00  0.00     0.074 A 
ATOM     70  C   UNL A   1      43.979  30.689  37.851  1.00  0.00     0.031 C 
ATOM     71  C   UNL A   1      43.752  29.422  35.731  1.00  0.00     0.037 A 
BRANCH  58  72
ATOM     72  C   UNL A   1      40.186  28.807  30.719  1.00  0.00     0.064 A 
ATOM     73  C   UNL A   1      39.429  27.625  30.674  1.00  0.00     0.173 A 
ATOM     74  C   UNL A   1      40.671  29.319  29.507  1.00  0.00     0.173 A 
ATOM     75  F   UNL A   1      38.954  27.084  31.806  1.00  0.00    -0.203 F 
ATOM     76  C   UNL A   1      39.194  26.970  29.468  1.00  0.00     0.198 A 
ATOM     77  C   UNL A   1      40.406  28.680  28.299  1.00  0.00     0.198 A 
ATOM     78  F   UNL A   1      41.397  30.448  29.491  1.00  0.00    -0.203 F 
ATOM     79  F   UNL A   1      38.515  25.815  29.455  1.00  0.00    -0.200 F 
ATOM     80  C   UNL A   1      39.675  27.502  28.281  1.00  0.00     0.200 A 
ATOM     81  F   UNL A   1      40.858  29.204  27.152  1.00  0.00    -0.200 F 
ATOM     82  F   UNL A   1      39.442  26.875  27.120  1.00  0.00    -0.200 F 
ENDBRANCH  58  72
BRANCH  59  83
ATOM     83  C   UNL A   1      41.489  33.774  39.294  1.00  0.00     0.064 A 
ATOM     84  C   UNL A   1      42.342  34.882  39.392  1.00  0.00     0.173 A 
ATOM     85  C   UNL A   1      40.848  33.341  40.465  1.00  0.00     0.173 A 
ATOM     86  F   UNL A   1      43.000  35.319  38.308  1.00  0.00    -0.203 F 
ATOM     87  C   UNL A   1      42.564  35.515  40.614  1.00  0.00     0.198 A 
ATOM     88  C   UNL A   1      41.044  33.996  41.679  1.00  0.00     0.198 A 
ATOM     89  F   UNL A   1      40.024  32.283  40.429  1.00  0.00    -0.203 F 
ATOM     90  F   UNL A   1      43.429  36.536  40.689  1.00  0.00    -0.200 F 
ATOM     91  C   UNL A   1      41.910  35.075  41.755  1.00  0.00     0.200 A 
ATOM     92  F   UNL A   1      40.400  33.575  42.776  1.00  0.00    -0.200 F 
ATOM     93  F   UNL A   1      42.122  35.686  42.929  1.00  0.00    -0.200 F 
ENDBRANCH  59  83
BRANCH  71  94
ATOM     94  C   UNL A   1      45.010  28.679  36.087  1.00  0.00     0.064 A 
ATOM     95  C   UNL A   1      46.279  29.141  35.702  1.00  0.00     0.173 A 
ATOM     96  C   UNL A   1      44.948  27.502  36.849  1.00  0.00     0.173 A 
ATOM     97  F   UNL A   1      46.397  30.255  34.964  1.00  0.00    -0.203 F 
ATOM     98  C   UNL A   1      47.430  28.431  36.035  1.00  0.00     0.198 A 
ATOM     99  C   UNL A   1      46.104  26.817  37.212  1.00  0.00     0.198 A 
ATOM    100  F   UNL A   1      43.762  27.020  37.254  1.00  0.00    -0.203 F 
ATOM    101  F   UNL A   1      48.625  28.859  35.602  1.00  0.00    -0.200 F 
ATOM    102  C   UNL A   1      47.343  27.275  36.794  1.00  0.00     0.200 A 
ATOM    103  F   UNL A   1      46.017  25.710  37.963  1.00  0.00    -0.200 F 
ATOM    104  F   UNL A   1      48.453  26.597  37.116  1.00  0.00    -0.200 F 
ENDBRANCH  71  94
ENDBRANCH  45  46
ENDBRANCH  38  40
ENDBRANCH  37  38
ENDBRANCH  36  37
ENDBRANCH  35  36
ENDBRANCH  34  35
ENDBRANCH  33  34
ENDBRANCH  32  33
ENDBRANCH  31  32
ENDBRANCH   1  31
TORSDOF 25
ENDMDL
