MODEL 1
REMARK VINA RESULT:      -9.0      0.000      0.000
REMARK SMILES O=C(OCCOCCOCCOCCOC(=O)[C@@H]1CCCC[C@@H]1C(=O)N1CCN(C(=O)c2sc3cc([N+](=O)[O-])ccc3c2Cl)CC1)c1ccc(-c2c3nc(c(-c4c(F)c(F)c(F)c(F)c4F)c4ccc([nH]4)c(-c4c(F)c(F)c(F)c(F)c4F)c4nc(c(-c5c(F)c(F)c(F)c(F)c5F)c5ccc2[nH]5)C=C4)C=C3)cc1
REMARK SMILES IDX 10 1 9 2 8 3 7 4 6 5 5 6 4 7 3 8 2 9 1 10 47 11 48 12 109 13
REMARK SMILES IDX 49 14 108 15 50 16 51 17 52 18 102 19 53 20 107 21 101 22
REMARK SMILES IDX 103 23 54 24 106 25 100 26 99 27 55 29 87 30 67 31 86 32
REMARK SMILES IDX 68 33 71 34 85 35 104 36 69 37 70 38 84 40 105 41 72 42
REMARK SMILES IDX 56 43 57 44 65 45 58 46 59 47 63 48 66 49 60 50 61 51 64 52
REMARK SMILES IDX 62 53 88 54 89 55 97 56 90 57 91 58 95 59 98 60 92 61 93 62
REMARK SMILES IDX 96 63 94 64 73 65 74 66 82 67 75 68 76 69 80 70 83 71 77 72
REMARK SMILES IDX 78 73 81 74 79 75 11 76 12 77 13 78 14 79 15 80 16 81 17 82
REMARK SMILES IDX 18 83 19 84 23 85 20 86 22 87 21 88 24 89 25 90 26 91 27 92
REMARK SMILES IDX 46 93 28 94 45 95 29 96 30 97 31 98 32 99 33 100 43 101
REMARK SMILES IDX 34 102 42 103 44 104 35 105 41 106 36 107 40 108 37 109
REMARK SMILES IDX 38 110 39 111
REMARK H PARENT 103 28 71 39
REMARK Flexibility Score: inf
ROOT
ATOM      1  C   UNL A   1      34.760  33.087  33.019  1.00  0.00     0.188 C 
ENDROOT
BRANCH   1   2
ATOM      2  O   UNL A   1      33.584  33.759  32.589  1.00  0.00    -0.377 OA
BRANCH   2   3
ATOM      3  C   UNL A   1      33.663  35.176  32.482  1.00  0.00     0.188 C 
BRANCH   3   4
ATOM      4  C   UNL A   1      33.279  35.700  31.100  1.00  0.00     0.188 C 
BRANCH   4   5
ATOM      5  O   UNL A   1      33.925  34.938  30.091  1.00  0.00    -0.376 OA
BRANCH   5   6
ATOM      6  C   UNL A   1      33.281  34.896  28.827  1.00  0.00     0.202 C 
BRANCH   6   7
ATOM      7  C   UNL A   1      33.818  33.735  27.998  1.00  0.00     0.261 C 
BRANCH   7   8
ATOM      8  O   UNL A   1      34.359  32.703  28.851  1.00  0.00    -0.460 OA
BRANCH   8   9
ATOM      9  C   UNL A   1      34.472  31.475  28.268  1.00  0.00     0.338 C 
ATOM     10  O   UNL A   1      33.553  30.862  27.751  1.00  0.00    -0.246 OA
BRANCH   9  11
ATOM     11  C   UNL A   1      35.847  30.936  28.517  1.00  0.00     0.060 A 
ATOM     12  C   UNL A   1      36.858  31.783  28.989  1.00  0.00     0.016 A 
ATOM     13  C   UNL A   1      36.178  29.641  28.089  1.00  0.00     0.016 A 
ATOM     14  C   UNL A   1      38.193  31.339  28.991  1.00  0.00     0.010 A 
ATOM     15  C   UNL A   1      37.507  29.238  28.006  1.00  0.00     0.010 A 
ATOM     16  C   UNL A   1      38.529  30.078  28.460  1.00  0.00    -0.014 A 
BRANCH  16  17
ATOM     17  C   UNL A   1      39.815  29.429  28.777  1.00  0.00     0.031 A 
ATOM     18  C   UNL A   1      39.977  29.410  30.220  1.00  0.00     0.074 A 
ATOM     19  C   UNL A   1      40.792  28.868  28.028  1.00  0.00     0.049 A 
ATOM     20  N   UNL A   1      40.744  30.240  30.838  1.00  0.00    -0.248 NA
ATOM     21  C   UNL A   1      39.100  28.606  31.076  1.00  0.00     0.031 C 
ATOM     22  C   UNL A   1      40.878  28.952  26.602  1.00  0.00     0.029 A 
ATOM     23  N   UNL A   1      41.906  28.100  28.314  1.00  0.00    -0.354 N 
ATOM     24  C   UNL A   1      40.722  29.793  32.131  1.00  0.00     0.074 A 
ATOM     25  C   UNL A   1      39.523  29.001  32.279  1.00  0.00     0.031 C 
ATOM     26  C   UNL A   1      41.778  28.108  26.078  1.00  0.00     0.029 A 
ATOM     27  C   UNL A   1      42.462  27.488  27.183  1.00  0.00     0.049 A 
ATOM     28  H   UNL A   1      42.272  27.994  29.223  1.00  0.00     0.167 HD
ATOM     29  C   UNL A   1      41.914  29.699  32.765  1.00  0.00     0.037 A 
ATOM     30  C   UNL A   1      43.574  26.735  27.008  1.00  0.00     0.037 A 
ATOM     31  C   UNL A   1      42.941  30.506  32.150  1.00  0.00     0.049 A 
ATOM     32  C   UNL A   1      44.596  27.343  27.878  1.00  0.00     0.074 A 
ATOM     33  C   UNL A   1      43.178  31.859  32.021  1.00  0.00     0.029 A 
ATOM     34  N   UNL A   1      43.685  29.884  31.181  1.00  0.00    -0.354 N 
ATOM     35  N   UNL A   1      45.130  28.515  27.656  1.00  0.00    -0.248 NA
ATOM     36  C   UNL A   1      44.792  26.796  29.213  1.00  0.00     0.031 C 
ATOM     37  C   UNL A   1      44.076  32.028  30.928  1.00  0.00     0.029 A 
ATOM     38  C   UNL A   1      44.388  30.778  30.409  1.00  0.00     0.049 A 
ATOM     39  H   UNL A   1      43.713  28.908  31.054  1.00  0.00     0.167 HD
ATOM     40  C   UNL A   1      45.282  29.032  28.926  1.00  0.00     0.074 A 
ATOM     41  C   UNL A   1      45.242  27.890  29.827  1.00  0.00     0.031 C 
ATOM     42  C   UNL A   1      45.037  30.344  29.188  1.00  0.00     0.037 A 
BRANCH  29  43
ATOM     43  C   UNL A   1      42.217  28.515  33.616  1.00  0.00     0.064 A 
ATOM     44  C   UNL A   1      42.657  27.331  33.020  1.00  0.00     0.173 A 
ATOM     45  C   UNL A   1      41.893  28.449  34.991  1.00  0.00     0.173 A 
ATOM     46  F   UNL A   1      42.886  27.284  31.700  1.00  0.00    -0.203 F 
ATOM     47  C   UNL A   1      42.811  26.165  33.768  1.00  0.00     0.198 A 
ATOM     48  C   UNL A   1      42.122  27.311  35.750  1.00  0.00     0.198 A 
ATOM     49  F   UNL A   1      41.249  29.448  35.612  1.00  0.00    -0.203 F 
ATOM     50  F   UNL A   1      43.157  25.026  33.154  1.00  0.00    -0.200 F 
ATOM     51  C   UNL A   1      42.571  26.163  35.134  1.00  0.00     0.200 A 
ATOM     52  F   UNL A   1      41.845  27.323  37.060  1.00  0.00    -0.200 F 
ATOM     53  F   UNL A   1      42.719  25.041  35.849  1.00  0.00    -0.200 F 
ENDBRANCH  29  43
BRANCH  30  54
ATOM     54  C   UNL A   1      43.846  25.673  26.003  1.00  0.00     0.064 A 
ATOM     55  C   UNL A   1      45.112  25.539  25.407  1.00  0.00     0.173 A 
ATOM     56  C   UNL A   1      42.957  24.592  25.816  1.00  0.00     0.173 A 
ATOM     57  F   UNL A   1      46.030  26.505  25.540  1.00  0.00    -0.203 F 
ATOM     58  C   UNL A   1      45.490  24.372  24.733  1.00  0.00     0.198 A 
ATOM     59  C   UNL A   1      43.334  23.430  25.135  1.00  0.00     0.198 A 
ATOM     60  F   UNL A   1      41.733  24.603  26.362  1.00  0.00    -0.203 F 
ATOM     61  F   UNL A   1      46.736  24.254  24.254  1.00  0.00    -0.200 F 
ATOM     62  C   UNL A   1      44.609  23.310  24.617  1.00  0.00     0.200 A 
ATOM     63  F   UNL A   1      42.477  22.404  25.043  1.00  0.00    -0.200 F 
ATOM     64  F   UNL A   1      45.001  22.163  24.045  1.00  0.00    -0.200 F 
ENDBRANCH  30  54
BRANCH  42  65
ATOM     65  C   UNL A   1      45.373  31.355  28.136  1.00  0.00     0.064 A 
ATOM     66  C   UNL A   1      44.570  31.695  27.039  1.00  0.00     0.173 A 
ATOM     67  C   UNL A   1      46.571  32.071  28.307  1.00  0.00     0.173 A 
ATOM     68  F   UNL A   1      43.389  31.096  26.827  1.00  0.00    -0.203 F 
ATOM     69  C   UNL A   1      44.960  32.704  26.152  1.00  0.00     0.198 A 
ATOM     70  C   UNL A   1      46.941  33.094  27.441  1.00  0.00     0.198 A 
ATOM     71  F   UNL A   1      47.375  31.796  29.347  1.00  0.00    -0.203 F 
ATOM     72  F   UNL A   1      44.180  33.016  25.105  1.00  0.00    -0.200 F 
ATOM     73  C   UNL A   1      46.137  33.408  26.359  1.00  0.00     0.200 A 
ATOM     74  F   UNL A   1      48.066  33.787  27.669  1.00  0.00    -0.200 F 
ATOM     75  F   UNL A   1      46.488  34.400  25.529  1.00  0.00    -0.200 F 
ENDBRANCH  42  65
ENDBRANCH  16  17
ENDBRANCH   9  11
ENDBRANCH   8   9
ENDBRANCH   7   8
ENDBRANCH   6   7
ENDBRANCH   5   6
ENDBRANCH   4   5
ENDBRANCH   3   4
ENDBRANCH   2   3
ENDBRANCH   1   2
BRANCH   1  76
ATOM     76  C   UNL A   1      35.645  33.848  33.975  1.00  0.00     0.188 C 
BRANCH  76  77
ATOM     77  O   UNL A   1      36.089  33.062  35.060  1.00  0.00    -0.376 OA
BRANCH  77  78
ATOM     78  C   UNL A   1      37.190  33.529  35.801  1.00  0.00     0.202 C 
BRANCH  78  79
ATOM     79  C   UNL A   1      38.568  33.451  35.128  1.00  0.00     0.261 C 
BRANCH  79  80
ATOM     80  O   UNL A   1      39.687  34.370  35.270  1.00  0.00    -0.463 OA
BRANCH  80  81
ATOM     81  C   UNL A   1      39.851  35.427  36.078  1.00  0.00     0.309 C 
ATOM     82  O   UNL A   1      39.657  36.584  35.815  1.00  0.00    -0.252 OA
BRANCH  81  83
ATOM     83  C   UNL A   1      40.176  35.096  37.506  1.00  0.00     0.111 C 
ATOM     84  C   UNL A   1      40.427  36.289  38.410  1.00  0.00     0.016 C 
ATOM     85  C   UNL A   1      41.211  33.959  37.568  1.00  0.00     0.093 C 
ATOM     86  C   UNL A   1      40.619  35.803  39.843  1.00  0.00     0.001 C 
ATOM     87  C   UNL A   1      41.393  33.518  39.025  1.00  0.00     0.014 C 
ATOM     88  C   UNL A   1      41.678  34.705  39.950  1.00  0.00     0.001 C 
BRANCH  85  89
ATOM     89  C   UNL A   1      42.582  34.341  37.004  1.00  0.00     0.226 C 
ATOM     90  O   UNL A   1      42.942  35.518  36.992  1.00  0.00    -0.275 OA
ATOM     91  N   UNL A   1      43.465  33.323  36.689  1.00  0.00    -0.339 N 
ATOM     92  C   UNL A   1      44.891  33.639  36.695  1.00  0.00     0.141 C 
ATOM     93  C   UNL A   1      43.158  31.961  36.216  1.00  0.00     0.141 C 
ATOM     94  C   UNL A   1      45.590  32.626  37.601  1.00  0.00     0.141 C 
ATOM     95  C   UNL A   1      43.975  30.875  36.933  1.00  0.00     0.141 C 
ATOM     96  N   UNL A   1      45.385  31.270  37.076  1.00  0.00    -0.334 N 
ATOM     97  C   UNL A   1      46.507  30.527  36.719  1.00  0.00     0.265 C 
ATOM     98  O   UNL A   1      47.642  30.947  36.936  1.00  0.00    -0.268 OA
BRANCH  97  99
ATOM     99  C   UNL A   1      46.307  29.255  36.070  1.00  0.00     0.112 A 
ATOM    100  S   UNL A   1      46.221  27.854  37.029  1.00  0.00    -0.128 S 
ATOM    101  C   UNL A   1      46.303  28.965  34.727  1.00  0.00     0.072 A 
ATOM    102  C   UNL A   1      46.220  26.821  35.652  1.00  0.00     0.043 A 
ATOM    103  C   UNL A   1      46.231  27.552  34.459  1.00  0.00     0.012 A 
ATOM    104  Cl  UNL A   1      46.442  30.132  33.479  1.00  0.00    -0.082 Cl
ATOM    105  C   UNL A   1      46.220  25.413  35.668  1.00  0.00     0.105 A 
ATOM    106  C   UNL A   1      46.218  26.827  33.236  1.00  0.00     0.018 A 
ATOM    107  C   UNL A   1      46.231  24.734  34.443  1.00  0.00     0.270 A 
ATOM    108  C   UNL A   1      46.217  25.427  33.233  1.00  0.00     0.086 A 
BRANCH 107 109
ATOM    109  N   UNL A   1      46.264  23.266  34.439  1.00  0.00     0.062 N 
ATOM    110  O   UNL A   1      47.023  22.704  35.242  1.00  0.00    -0.258 OA
ATOM    111  O   UNL A   1      45.528  22.675  33.636  1.00  0.00    -0.258 OA
ENDBRANCH 107 109
ENDBRANCH  97  99
ENDBRANCH  85  89
ENDBRANCH  81  83
ENDBRANCH  80  81
ENDBRANCH  79  80
ENDBRANCH  78  79
ENDBRANCH  77  78
ENDBRANCH  76  77
ENDBRANCH   1  76
TORSDOF 23
ENDMDL
MODEL 2
REMARK VINA RESULT:      -8.6      1.313      2.050
REMARK SMILES O=C(OCCOCCOCCOCCOC(=O)[C@@H]1CCCC[C@@H]1C(=O)N1CCN(C(=O)c2sc3cc([N+](=O)[O-])ccc3c2Cl)CC1)c1ccc(-c2c3nc(c(-c4c(F)c(F)c(F)c(F)c4F)c4ccc([nH]4)c(-c4c(F)c(F)c(F)c(F)c4F)c4nc(c(-c5c(F)c(F)c(F)c(F)c5F)c5ccc2[nH]5)C=C4)C=C3)cc1
REMARK SMILES IDX 10 1 9 2 8 3 7 4 6 5 5 6 4 7 3 8 2 9 1 10 47 11 48 12 109 13
REMARK SMILES IDX 49 14 108 15 50 16 51 17 52 18 102 19 53 20 107 21 101 22
REMARK SMILES IDX 103 23 54 24 106 25 100 26 99 27 55 29 87 30 67 31 86 32
REMARK SMILES IDX 68 33 71 34 85 35 104 36 69 37 70 38 84 40 105 41 72 42
REMARK SMILES IDX 56 43 57 44 65 45 58 46 59 47 63 48 66 49 60 50 61 51 64 52
REMARK SMILES IDX 62 53 88 54 89 55 97 56 90 57 91 58 95 59 98 60 92 61 93 62
REMARK SMILES IDX 96 63 94 64 73 65 74 66 82 67 75 68 76 69 80 70 83 71 77 72
REMARK SMILES IDX 78 73 81 74 79 75 11 76 12 77 13 78 14 79 15 80 16 81 17 82
REMARK SMILES IDX 18 83 19 84 23 85 20 86 22 87 21 88 24 89 25 90 26 91 27 92
REMARK SMILES IDX 46 93 28 94 45 95 29 96 30 97 31 98 32 99 33 100 43 101
REMARK SMILES IDX 34 102 42 103 44 104 35 105 41 106 36 107 40 108 37 109
REMARK SMILES IDX 38 110 39 111
REMARK H PARENT 103 28 71 39
REMARK Flexibility Score: inf
ROOT
ATOM      1  C   UNL A   1      35.103  32.051  32.129  1.00  0.00     0.188 C 
ENDROOT
BRANCH   1   2
ATOM      2  O   UNL A   1      34.005  32.895  32.450  1.00  0.00    -0.377 OA
BRANCH   2   3
ATOM      3  C   UNL A   1      34.254  34.296  32.442  1.00  0.00     0.188 C 
BRANCH   3   4
ATOM      4  C   UNL A   1      33.819  34.980  31.147  1.00  0.00     0.188 C 
BRANCH   4   5
ATOM      5  O   UNL A   1      34.706  34.638  30.091  1.00  0.00    -0.376 OA
BRANCH   5   6
ATOM      6  C   UNL A   1      34.103  34.297  28.852  1.00  0.00     0.202 C 
BRANCH   6   7
ATOM      7  C   UNL A   1      35.044  33.422  28.031  1.00  0.00     0.261 C 
BRANCH   7   8
ATOM      8  O   UNL A   1      35.672  32.423  28.862  1.00  0.00    -0.460 OA
BRANCH   8   9
ATOM      9  C   UNL A   1      35.684  31.163  28.338  1.00  0.00     0.338 C 
ATOM     10  O   UNL A   1      34.742  30.636  27.771  1.00  0.00    -0.246 OA
BRANCH   9  11
ATOM     11  C   UNL A   1      36.961  30.482  28.722  1.00  0.00     0.060 A 
ATOM     12  C   UNL A   1      38.011  31.221  29.282  1.00  0.00     0.016 A 
ATOM     13  C   UNL A   1      37.186  29.151  28.339  1.00  0.00     0.016 A 
ATOM     14  C   UNL A   1      39.283  30.635  29.416  1.00  0.00     0.010 A 
ATOM     15  C   UNL A   1      38.464  28.603  28.387  1.00  0.00     0.010 A 
ATOM     16  C   UNL A   1      39.525  29.334  28.930  1.00  0.00    -0.014 A 
BRANCH  16  17
ATOM     17  C   UNL A   1      40.696  28.555  29.374  1.00  0.00     0.031 A 
ATOM     18  C   UNL A   1      40.717  28.545  30.826  1.00  0.00     0.074 A 
ATOM     19  C   UNL A   1      41.672  27.877  28.726  1.00  0.00     0.049 A 
ATOM     20  N   UNL A   1      41.509  29.297  31.508  1.00  0.00    -0.248 NA
ATOM     21  C   UNL A   1      39.680  27.857  31.599  1.00  0.00     0.031 C 
ATOM     22  C   UNL A   1      41.900  27.925  27.315  1.00  0.00     0.029 A 
ATOM     23  N   UNL A   1      42.662  26.998  29.124  1.00  0.00    -0.354 N 
ATOM     24  C   UNL A   1      41.316  28.878  32.796  1.00  0.00     0.074 A 
ATOM     25  C   UNL A   1      40.028  28.225  32.835  1.00  0.00     0.031 C 
ATOM     26  C   UNL A   1      42.748  26.979  26.887  1.00  0.00     0.029 A 
ATOM     27  C   UNL A   1      43.252  26.308  28.056  1.00  0.00     0.049 A 
ATOM     28  H   UNL A   1      42.926  26.869  30.064  1.00  0.00     0.167 HD
ATOM     29  C   UNL A   1      42.425  28.666  33.543  1.00  0.00     0.037 A 
ATOM     30  C   UNL A   1      44.285  25.435  27.995  1.00  0.00     0.037 A 
ATOM     31  C   UNL A   1      43.588  29.345  33.023  1.00  0.00     0.049 A 
ATOM     32  C   UNL A   1      45.281  25.944  28.954  1.00  0.00     0.074 A 
ATOM     33  C   UNL A   1      43.984  30.662  32.908  1.00  0.00     0.029 A 
ATOM     34  N   UNL A   1      44.347  28.628  32.135  1.00  0.00    -0.354 N 
ATOM     35  N   UNL A   1      45.959  27.046  28.775  1.00  0.00    -0.248 NA
ATOM     36  C   UNL A   1      45.287  25.403  30.306  1.00  0.00     0.031 C 
ATOM     37  C   UNL A   1      44.995  30.712  31.904  1.00  0.00     0.029 A 
ATOM     38  C   UNL A   1      45.215  29.426  31.427  1.00  0.00     0.049 A 
ATOM     39  H   UNL A   1      44.279  27.653  32.018  1.00  0.00     0.167 HD
ATOM     40  C   UNL A   1      46.047  27.566  30.050  1.00  0.00     0.074 A 
ATOM     41  C   UNL A   1      45.796  26.452  30.952  1.00  0.00     0.031 C 
ATOM     42  C   UNL A   1      45.925  28.901  30.278  1.00  0.00     0.037 A 
BRANCH  29  43
ATOM     43  C   UNL A   1      42.513  27.472  34.428  1.00  0.00     0.064 A 
ATOM     44  C   UNL A   1      42.964  26.258  33.906  1.00  0.00     0.173 A 
ATOM     45  C   UNL A   1      41.973  27.438  35.735  1.00  0.00     0.173 A 
ATOM     46  F   UNL A   1      43.393  26.186  32.638  1.00  0.00    -0.203 F 
ATOM     47  C   UNL A   1      42.923  25.090  34.666  1.00  0.00     0.198 A 
ATOM     48  C   UNL A   1      42.006  26.293  36.517  1.00  0.00     0.198 A 
ATOM     49  F   UNL A   1      41.306  28.481  36.249  1.00  0.00    -0.203 F 
ATOM     50  F   UNL A   1      43.287  23.927  34.111  1.00  0.00    -0.200 F 
ATOM     51  C   UNL A   1      42.472  25.114  35.977  1.00  0.00     0.200 A 
ATOM     52  F   UNL A   1      41.528  26.333  37.768  1.00  0.00    -0.200 F 
ATOM     53  F   UNL A   1      42.433  23.990  36.704  1.00  0.00    -0.200 F 
ENDBRANCH  29  43
BRANCH  30  54
ATOM     54  C   UNL A   1      44.531  24.332  27.028  1.00  0.00     0.064 A 
ATOM     55  C   UNL A   1      43.660  23.233  26.937  1.00  0.00     0.173 A 
ATOM     56  C   UNL A   1      45.465  24.469  25.978  1.00  0.00     0.173 A 
ATOM     57  F   UNL A   1      42.728  23.026  27.878  1.00  0.00    -0.203 F 
ATOM     58  C   UNL A   1      43.671  22.372  25.834  1.00  0.00     0.198 A 
ATOM     59  C   UNL A   1      45.481  23.602  24.881  1.00  0.00     0.198 A 
ATOM     60  F   UNL A   1      46.327  25.495  25.950  1.00  0.00    -0.203 F 
ATOM     61  F   UNL A   1      42.765  21.387  25.749  1.00  0.00    -0.200 F 
ATOM     62  C   UNL A   1      44.566  22.569  24.797  1.00  0.00     0.200 A 
ATOM     63  F   UNL A   1      46.342  23.814  23.876  1.00  0.00    -0.200 F 
ATOM     64  F   UNL A   1      44.520  21.795  23.704  1.00  0.00    -0.200 F 
ENDBRANCH  30  54
BRANCH  42  65
ATOM     65  C   UNL A   1      46.468  29.851  29.256  1.00  0.00     0.064 A 
ATOM     66  C   UNL A   1      47.825  30.110  29.017  1.00  0.00     0.173 A 
ATOM     67  C   UNL A   1      45.533  30.485  28.420  1.00  0.00     0.173 A 
ATOM     68  F   UNL A   1      48.786  29.511  29.735  1.00  0.00    -0.203 F 
ATOM     69  C   UNL A   1      48.219  30.974  27.989  1.00  0.00     0.198 A 
ATOM     70  C   UNL A   1      45.928  31.318  27.380  1.00  0.00     0.198 A 
ATOM     71  F   UNL A   1      44.219  30.266  28.596  1.00  0.00    -0.203 F 
ATOM     72  F   UNL A   1      49.522  31.212  27.775  1.00  0.00    -0.200 F 
ATOM     73  C   UNL A   1      47.272  31.568  27.167  1.00  0.00     0.200 A 
ATOM     74  F   UNL A   1      45.005  31.863  26.574  1.00  0.00    -0.200 F 
ATOM     75  F   UNL A   1      47.655  32.364  26.159  1.00  0.00    -0.200 F 
ENDBRANCH  42  65
ENDBRANCH  16  17
ENDBRANCH   9  11
ENDBRANCH   8   9
ENDBRANCH   7   8
ENDBRANCH   6   7
ENDBRANCH   5   6
ENDBRANCH   4   5
ENDBRANCH   3   4
ENDBRANCH   2   3
ENDBRANCH   1   2
BRANCH   1  76
ATOM     76  C   UNL A   1      36.446  32.481  32.668  1.00  0.00     0.188 C 
BRANCH  76  77
ATOM     77  O   UNL A   1      36.537  32.373  34.072  1.00  0.00    -0.376 OA
BRANCH  77  78
ATOM     78  C   UNL A   1      37.773  32.670  34.674  1.00  0.00     0.202 C 
BRANCH  78  79
ATOM     79  C   UNL A   1      38.125  34.154  34.849  1.00  0.00     0.261 C 
BRANCH  79  80
ATOM     80  O   UNL A   1      39.420  34.734  35.173  1.00  0.00    -0.463 OA
BRANCH  80  81
ATOM     81  C   UNL A   1      39.758  35.668  36.074  1.00  0.00     0.309 C 
ATOM     82  O   UNL A   1      39.990  36.829  35.869  1.00  0.00    -0.252 OA
BRANCH  81  83
ATOM     83  C   UNL A   1      39.694  35.226  37.507  1.00  0.00     0.111 C 
ATOM     84  C   UNL A   1      39.723  36.341  38.535  1.00  0.00     0.016 C 
ATOM     85  C   UNL A   1      40.657  34.048  37.745  1.00  0.00     0.093 C 
ATOM     86  C   UNL A   1      39.527  35.749  39.927  1.00  0.00     0.001 C 
ATOM     87  C   UNL A   1      40.446  33.500  39.161  1.00  0.00     0.014 C 
ATOM     88  C   UNL A   1      40.502  34.607  40.218  1.00  0.00     0.001 C 
BRANCH  85  89
ATOM     89  C   UNL A   1      42.134  34.416  37.585  1.00  0.00     0.226 C 
ATOM     90  O   UNL A   1      42.501  35.584  37.722  1.00  0.00    -0.275 OA
ATOM     91  N   UNL A   1      43.054  33.390  37.472  1.00  0.00    -0.339 N 
ATOM     92  C   UNL A   1      44.431  33.669  37.873  1.00  0.00     0.141 C 
ATOM     93  C   UNL A   1      42.866  32.055  36.874  1.00  0.00     0.141 C 
ATOM     94  C   UNL A   1      44.847  32.603  38.887  1.00  0.00     0.141 C 
ATOM     95  C   UNL A   1      43.445  30.922  37.735  1.00  0.00     0.141 C 
ATOM     96  N   UNL A   1      44.772  31.275  38.266  1.00  0.00    -0.334 N 
ATOM     97  C   UNL A   1      45.937  30.518  38.189  1.00  0.00     0.265 C 
ATOM     98  O   UNL A   1      46.979  30.900  38.719  1.00  0.00    -0.268 OA
BRANCH  97  99
ATOM     99  C   UNL A   1      45.900  29.278  37.455  1.00  0.00     0.112 A 
ATOM    100  S   UNL A   1      45.554  27.841  38.295  1.00  0.00    -0.128 S 
ATOM    101  C   UNL A   1      46.244  29.043  36.145  1.00  0.00     0.072 A 
ATOM    102  C   UNL A   1      45.901  26.865  36.920  1.00  0.00     0.043 A 
ATOM    103  C   UNL A   1      46.230  27.643  35.805  1.00  0.00     0.012 A 
ATOM    104  Cl  UNL A   1      46.714  30.255  35.029  1.00  0.00    -0.082 Cl
ATOM    105  C   UNL A   1      45.882  25.458  36.873  1.00  0.00     0.105 A 
ATOM    106  C   UNL A   1      46.528  26.968  34.589  1.00  0.00     0.018 A 
ATOM    107  C   UNL A   1      46.205  24.829  35.664  1.00  0.00     0.270 A 
ATOM    108  C   UNL A   1      46.514  25.570  34.524  1.00  0.00     0.086 A 
BRANCH 107 109
ATOM    109  N   UNL A   1      46.223  23.361  35.604  1.00  0.00     0.062 N 
ATOM    110  O   UNL A   1      47.079  22.825  34.885  1.00  0.00    -0.258 OA
ATOM    111  O   UNL A   1      45.385  22.746  36.278  1.00  0.00    -0.258 OA
ENDBRANCH 107 109
ENDBRANCH  97  99
ENDBRANCH  85  89
ENDBRANCH  81  83
ENDBRANCH  80  81
ENDBRANCH  79  80
ENDBRANCH  78  79
ENDBRANCH  77  78
ENDBRANCH  76  77
ENDBRANCH   1  76
TORSDOF 23
ENDMDL
MODEL 3
REMARK VINA RESULT:      -8.0      5.346     11.220
REMARK SMILES O=C(OCCOCCOCCOCCOC(=O)[C@@H]1CCCC[C@@H]1C(=O)N1CCN(C(=O)c2sc3cc([N+](=O)[O-])ccc3c2Cl)CC1)c1ccc(-c2c3nc(c(-c4c(F)c(F)c(F)c(F)c4F)c4ccc([nH]4)c(-c4c(F)c(F)c(F)c(F)c4F)c4nc(c(-c5c(F)c(F)c(F)c(F)c5F)c5ccc2[nH]5)C=C4)C=C3)cc1
REMARK SMILES IDX 10 1 9 2 8 3 7 4 6 5 5 6 4 7 3 8 2 9 1 10 47 11 48 12 109 13
REMARK SMILES IDX 49 14 108 15 50 16 51 17 52 18 102 19 53 20 107 21 101 22
REMARK SMILES IDX 103 23 54 24 106 25 100 26 99 27 55 29 87 30 67 31 86 32
REMARK SMILES IDX 68 33 71 34 85 35 104 36 69 37 70 38 84 40 105 41 72 42
REMARK SMILES IDX 56 43 57 44 65 45 58 46 59 47 63 48 66 49 60 50 61 51 64 52
REMARK SMILES IDX 62 53 88 54 89 55 97 56 90 57 91 58 95 59 98 60 92 61 93 62
REMARK SMILES IDX 96 63 94 64 73 65 74 66 82 67 75 68 76 69 80 70 83 71 77 72
REMARK SMILES IDX 78 73 81 74 79 75 11 76 12 77 13 78 14 79 15 80 16 81 17 82
REMARK SMILES IDX 18 83 19 84 23 85 20 86 22 87 21 88 24 89 25 90 26 91 27 92
REMARK SMILES IDX 46 93 28 94 45 95 29 96 30 97 31 98 32 99 33 100 43 101
REMARK SMILES IDX 34 102 42 103 44 104 35 105 41 106 36 107 40 108 37 109
REMARK SMILES IDX 38 110 39 111
REMARK H PARENT 103 28 71 39
REMARK Flexibility Score: inf
ROOT
ATOM      1  C   UNL A   1      44.171  19.008  25.701  1.00  0.00     0.188 C 
ENDROOT
BRANCH   1   2
ATOM      2  O   UNL A   1      45.363  18.671  25.005  1.00  0.00    -0.377 OA
BRANCH   2   3
ATOM      3  C   UNL A   1      46.225  19.749  24.657  1.00  0.00     0.188 C 
BRANCH   3   4
ATOM      4  C   UNL A   1      45.549  21.116  24.750  1.00  0.00     0.188 C 
BRANCH   4   5
ATOM      5  O   UNL A   1      46.510  22.117  25.051  1.00  0.00    -0.376 OA
BRANCH   5   6
ATOM      6  C   UNL A   1      46.330  23.372  24.413  1.00  0.00     0.202 C 
BRANCH   6   7
ATOM      7  C   UNL A   1      47.023  24.473  25.208  1.00  0.00     0.261 C 
BRANCH   7   8
ATOM      8  O   UNL A   1      46.546  25.774  24.805  1.00  0.00    -0.460 OA
BRANCH   8   9
ATOM      9  C   UNL A   1      47.397  26.807  25.071  1.00  0.00     0.338 C 
ATOM     10  O   UNL A   1      48.599  26.787  24.874  1.00  0.00    -0.246 OA
BRANCH   9  11
ATOM     11  C   UNL A   1      46.651  27.886  25.795  1.00  0.00     0.060 A 
ATOM     12  C   UNL A   1      45.251  27.870  25.828  1.00  0.00     0.016 A 
ATOM     13  C   UNL A   1      47.337  29.016  26.264  1.00  0.00     0.016 A 
ATOM     14  C   UNL A   1      44.552  28.999  26.294  1.00  0.00     0.010 A 
ATOM     15  C   UNL A   1      46.646  30.164  26.636  1.00  0.00     0.010 A 
ATOM     16  C   UNL A   1      45.247  30.169  26.661  1.00  0.00    -0.014 A 
BRANCH  16  17
ATOM     17  C   UNL A   1      44.612  31.211  27.490  1.00  0.00     0.031 A 
ATOM     18  C   UNL A   1      45.017  32.510  26.982  1.00  0.00     0.074 A 
ATOM     19  C   UNL A   1      43.764  31.184  28.544  1.00  0.00     0.049 A 
ATOM     20  N   UNL A   1      45.922  33.222  27.559  1.00  0.00    -0.248 NA
ATOM     21  C   UNL A   1      44.593  32.980  25.661  1.00  0.00     0.031 C 
ATOM     22  C   UNL A   1      43.404  30.006  29.271  1.00  0.00     0.029 A 
ATOM     23  N   UNL A   1      43.023  32.143  29.209  1.00  0.00    -0.354 N 
ATOM     24  C   UNL A   1      45.892  34.400  26.864  1.00  0.00     0.074 A 
ATOM     25  C   UNL A   1      45.295  34.113  25.580  1.00  0.00     0.031 C 
ATOM     26  C   UNL A   1      42.364  30.195  30.096  1.00  0.00     0.029 A 
ATOM     27  C   UNL A   1      42.048  31.599  30.057  1.00  0.00     0.049 A 
ATOM     28  H   UNL A   1      43.164  33.111  29.097  1.00  0.00     0.167 HD
ATOM     29  C   UNL A   1      45.888  35.540  27.593  1.00  0.00     0.037 A 
ATOM     30  C   UNL A   1      41.181  32.164  30.929  1.00  0.00     0.037 A 
ATOM     31  C   UNL A   1      46.374  35.346  28.939  1.00  0.00     0.049 A 
ATOM     32  C   UNL A   1      41.929  33.263  31.565  1.00  0.00     0.074 A 
ATOM     33  C   UNL A   1      47.598  35.053  29.505  1.00  0.00     0.029 A 
ATOM     34  N   UNL A   1      45.423  35.034  29.875  1.00  0.00    -0.354 N 
ATOM     35  N   UNL A   1      42.925  33.077  32.389  1.00  0.00    -0.248 NA
ATOM     36  C   UNL A   1      41.798  34.606  31.016  1.00  0.00     0.031 C 
ATOM     37  C   UNL A   1      47.345  34.534  30.808  1.00  0.00     0.029 A 
ATOM     38  C   UNL A   1      45.973  34.529  31.029  1.00  0.00     0.049 A 
ATOM     39  H   UNL A   1      44.456  35.157  29.737  1.00  0.00     0.167 HD
ATOM     40  C   UNL A   1      43.787  34.107  32.072  1.00  0.00     0.074 A 
ATOM     41  C   UNL A   1      42.981  35.101  31.379  1.00  0.00     0.031 C 
ATOM     42  C   UNL A   1      45.133  33.916  32.038  1.00  0.00     0.037 A 
BRANCH  29  43
ATOM     43  C   UNL A   1      44.995  36.669  27.211  1.00  0.00     0.064 A 
ATOM     44  C   UNL A   1      45.540  37.935  26.986  1.00  0.00     0.173 A 
ATOM     45  C   UNL A   1      43.584  36.586  27.255  1.00  0.00     0.173 A 
ATOM     46  F   UNL A   1      46.868  38.116  27.033  1.00  0.00    -0.203 F 
ATOM     47  C   UNL A   1      44.720  39.042  26.769  1.00  0.00     0.198 A 
ATOM     48  C   UNL A   1      42.771  37.671  26.961  1.00  0.00     0.198 A 
ATOM     49  F   UNL A   1      42.956  35.483  27.687  1.00  0.00    -0.203 F 
ATOM     50  F   UNL A   1      45.270  40.255  26.637  1.00  0.00    -0.200 F 
ATOM     51  C   UNL A   1      43.341  38.904  26.729  1.00  0.00     0.200 A 
ATOM     52  F   UNL A   1      41.440  37.521  26.966  1.00  0.00    -0.200 F 
ATOM     53  F   UNL A   1      42.557  39.969  26.521  1.00  0.00    -0.200 F 
ENDBRANCH  29  43
BRANCH  30  54
ATOM     54  C   UNL A   1      39.844  31.687  31.373  1.00  0.00     0.064 A 
ATOM     55  C   UNL A   1      39.679  31.013  32.596  1.00  0.00     0.173 A 
ATOM     56  C   UNL A   1      38.659  32.132  30.748  1.00  0.00     0.173 A 
ATOM     57  F   UNL A   1      40.745  30.565  33.273  1.00  0.00    -0.203 F 
ATOM     58  C   UNL A   1      38.421  30.858  33.189  1.00  0.00     0.198 A 
ATOM     59  C   UNL A   1      37.402  31.968  31.338  1.00  0.00     0.198 A 
ATOM     60  F   UNL A   1      38.701  32.808  29.592  1.00  0.00    -0.203 F 
ATOM     61  F   UNL A   1      38.320  30.283  34.396  1.00  0.00    -0.200 F 
ATOM     62  C   UNL A   1      37.286  31.355  32.572  1.00  0.00     0.200 A 
ATOM     63  F   UNL A   1      36.313  32.468  30.737  1.00  0.00    -0.200 F 
ATOM     64  F   UNL A   1      36.094  31.280  33.180  1.00  0.00    -0.200 F 
ENDBRANCH  30  54
BRANCH  42  65
ATOM     65  C   UNL A   1      45.743  32.969  33.025  1.00  0.00     0.064 A 
ATOM     66  C   UNL A   1      46.083  31.632  32.777  1.00  0.00     0.173 A 
ATOM     67  C   UNL A   1      46.062  33.493  34.290  1.00  0.00     0.173 A 
ATOM     68  F   UNL A   1      45.859  31.066  31.582  1.00  0.00    -0.203 F 
ATOM     69  C   UNL A   1      46.709  30.858  33.760  1.00  0.00     0.198 A 
ATOM     70  C   UNL A   1      46.711  32.731  35.254  1.00  0.00     0.198 A 
ATOM     71  F   UNL A   1      45.769  34.772  34.580  1.00  0.00    -0.203 F 
ATOM     72  F   UNL A   1      47.026  29.579  33.506  1.00  0.00    -0.200 F 
ATOM     73  C   UNL A   1      47.031  31.410  34.992  1.00  0.00     0.200 A 
ATOM     74  F   UNL A   1      47.043  33.283  36.430  1.00  0.00    -0.200 F 
ATOM     75  F   UNL A   1      47.664  30.677  35.917  1.00  0.00    -0.200 F 
ENDBRANCH  42  65
ENDBRANCH  16  17
ENDBRANCH   9  11
ENDBRANCH   8   9
ENDBRANCH   7   8
ENDBRANCH   6   7
ENDBRANCH   5   6
ENDBRANCH   4   5
ENDBRANCH   3   4
ENDBRANCH   2   3
ENDBRANCH   1   2
BRANCH   1  76
ATOM     76  C   UNL A   1      43.034  18.023  25.583  1.00  0.00     0.188 C 
BRANCH  76  77
ATOM     77  O   UNL A   1      41.905  18.389  26.347  1.00  0.00    -0.376 OA
BRANCH  77  78
ATOM     78  C   UNL A   1      41.340  19.657  26.116  1.00  0.00     0.202 C 
BRANCH  78  79
ATOM     79  C   UNL A   1      41.137  20.564  27.338  1.00  0.00     0.261 C 
BRANCH  79  80
ATOM     80  O   UNL A   1      41.142  22.018  27.383  1.00  0.00    -0.463 OA
BRANCH  80  81
ATOM     81  C   UNL A   1      41.686  22.916  26.549  1.00  0.00     0.309 C 
ATOM     82  O   UNL A   1      42.263  22.698  25.518  1.00  0.00    -0.252 OA
BRANCH  81  83
ATOM     83  C   UNL A   1      41.408  24.352  26.887  1.00  0.00     0.111 C 
ATOM     84  C   UNL A   1      41.532  25.329  25.732  1.00  0.00     0.016 C 
ATOM     85  C   UNL A   1      42.122  24.741  28.194  1.00  0.00     0.093 C 
ATOM     86  C   UNL A   1      41.101  26.716  26.197  1.00  0.00     0.001 C 
ATOM     87  C   UNL A   1      41.683  26.149  28.612  1.00  0.00     0.014 C 
ATOM     88  C   UNL A   1      41.828  27.157  27.468  1.00  0.00     0.001 C 
BRANCH  85  89
ATOM     89  C   UNL A   1      43.650  24.722  28.092  1.00  0.00     0.226 C 
ATOM     90  O   UNL A   1      44.198  24.725  26.989  1.00  0.00    -0.275 OA
ATOM     91  N   UNL A   1      44.383  24.891  29.252  1.00  0.00    -0.339 N 
ATOM     92  C   UNL A   1      45.738  25.423  29.123  1.00  0.00     0.141 C 
ATOM     93  C   UNL A   1      44.029  24.487  30.625  1.00  0.00     0.141 C 
ATOM     94  C   UNL A   1      45.854  26.634  30.048  1.00  0.00     0.141 C 
ATOM     95  C   UNL A   1      44.309  25.581  31.667  1.00  0.00     0.141 C 
ATOM     96  N   UNL A   1      45.614  26.222  31.436  1.00  0.00    -0.334 N 
ATOM     97  C   UNL A   1      46.631  26.417  32.365  1.00  0.00     0.265 C 
ATOM     98  O   UNL A   1      47.662  27.014  32.063  1.00  0.00    -0.268 OA
BRANCH  97  99
ATOM     99  C   UNL A   1      46.456  25.884  33.694  1.00  0.00     0.112 A 
ATOM    100  S   UNL A   1      47.195  24.403  34.084  1.00  0.00    -0.128 S 
ATOM    101  C   UNL A   1      45.641  26.339  34.704  1.00  0.00     0.072 A 
ATOM    102  C   UNL A   1      46.400  24.322  35.608  1.00  0.00     0.043 A 
ATOM    103  C   UNL A   1      45.610  25.454  35.839  1.00  0.00     0.012 A 
ATOM    104  Cl  UNL A   1      44.694  27.764  34.622  1.00  0.00    -0.082 Cl
ATOM    105  C   UNL A   1      46.489  23.268  36.537  1.00  0.00     0.105 A 
ATOM    106  C   UNL A   1      44.903  25.529  37.071  1.00  0.00     0.018 A 
ATOM    107  C   UNL A   1      45.758  23.368  37.729  1.00  0.00     0.270 A 
ATOM    108  C   UNL A   1      44.980  24.491  38.006  1.00  0.00     0.086 A 
BRANCH 107 109
ATOM    109  N   UNL A   1      45.812  22.263  38.696  1.00  0.00     0.062 N 
ATOM    110  O   UNL A   1      45.738  22.548  39.900  1.00  0.00    -0.258 OA
ATOM    111  O   UNL A   1      45.923  21.113  38.250  1.00  0.00    -0.258 OA
ENDBRANCH 107 109
ENDBRANCH  97  99
ENDBRANCH  85  89
ENDBRANCH  81  83
ENDBRANCH  80  81
ENDBRANCH  79  80
ENDBRANCH  78  79
ENDBRANCH  77  78
ENDBRANCH  76  77
ENDBRANCH   1  76
TORSDOF 23
ENDMDL
