MODEL 1
REMARK VINA RESULT:     -10.1      0.000      0.000
REMARK SMILES Cc1n[nH]c(C(F)(F)Cl)c1C(=O)OCCOCCOCCOCCOC(=O)c1ccc(-c2c3nc(c(-c4c(F)c(F)c(F)c(F)c4F)c4ccc([nH]4)c(-c4c(F)c(F)c(F)c(F)c4F)c4nc(c(-c5c(F)c(F)c(F)c(F)c5F)c5ccc2[nH]5)C=C4)C=C3)cc1
REMARK SMILES IDX 20 1 19 2 18 3 17 4 16 5 15 6 14 7 13 8 11 9 12 10 10 11
REMARK SMILES IDX 1 12 2 13 3 14 4 15 5 16 6 18 7 19 8 20 9 21 21 22 22 23
REMARK SMILES IDX 23 24 24 25 25 26 26 27 27 28 28 29 29 30 90 31 30 32 89 33
REMARK SMILES IDX 31 34 32 35 33 36 83 37 34 38 88 39 82 40 84 41 35 42 87 43
REMARK SMILES IDX 81 44 80 45 36 47 68 48 48 49 67 50 49 51 52 52 66 53 85 54
REMARK SMILES IDX 50 55 51 56 65 58 86 59 53 60 37 61 38 62 46 63 39 64 40 65
REMARK SMILES IDX 44 66 47 67 41 68 42 69 45 70 43 71 69 72 70 73 78 74 71 75
REMARK SMILES IDX 72 76 76 77 79 78 73 79 74 80 77 81 75 82 54 83 55 84 63 85
REMARK SMILES IDX 56 86 57 87 61 88 64 89 58 90 59 91 62 92 60 93
REMARK H PARENT 4 17 84 46 52 57
REMARK Flexibility Score: inf
ROOT
ATOM      1  C   UNL A   1      31.871  28.305  25.558  1.00  0.00     0.188 C 
ENDROOT
BRANCH   1   2
ATOM      2  O   UNL A   1      30.981  27.798  24.570  1.00  0.00    -0.377 OA
BRANCH   2   3
ATOM      3  C   UNL A   1      30.784  26.400  24.481  1.00  0.00     0.188 C 
BRANCH   3   4
ATOM      4  C   UNL A   1      30.895  25.639  25.810  1.00  0.00     0.188 C 
BRANCH   4   5
ATOM      5  O   UNL A   1      32.044  24.793  25.895  1.00  0.00    -0.376 OA
BRANCH   5   6
ATOM      6  C   UNL A   1      31.845  23.559  26.581  1.00  0.00     0.202 C 
BRANCH   6   7
ATOM      7  C   UNL A   1      31.481  22.408  25.639  1.00  0.00     0.261 C 
BRANCH   7   8
ATOM      8  O   UNL A   1      32.000  22.594  24.315  1.00  0.00    -0.460 OA
BRANCH   8   9
ATOM      9  C   UNL A   1      32.562  21.520  23.706  1.00  0.00     0.342 C 
ATOM     10  O   UNL A   1      32.107  20.968  22.714  1.00  0.00    -0.246 OA
BRANCH   9  11
ATOM     11  C   UNL A   1      33.830  21.173  24.320  1.00  0.00     0.111 A 
ATOM     12  C   UNL A   1      35.062  23.507  24.345  1.00  0.00     0.070 C 
ATOM     13  C   UNL A   1      34.932  22.044  24.587  1.00  0.00     0.074 A 
ATOM     14  N   UNL A   1      35.956  21.387  25.141  1.00  0.00    -0.180 NA
ATOM     15  N   UNL A   1      35.543  20.120  25.199  1.00  0.00    -0.274 N 
ATOM     16  C   UNL A   1      34.289  19.913  24.691  1.00  0.00     0.135 A 
ATOM     17  H   UNL A   1      36.093  19.395  25.575  1.00  0.00     0.190 HD
BRANCH  16  18
ATOM     18  C   UNL A   1      33.828  18.505  24.631  1.00  0.00     0.365 C 
ATOM     19  F   UNL A   1      33.328  18.277  23.380  1.00  0.00    -0.181 F 
ATOM     20  F   UNL A   1      34.898  17.670  24.737  1.00  0.00    -0.181 F 
ATOM     21  Cl  UNL A   1      32.598  18.015  25.786  1.00  0.00    -0.040 Cl
ENDBRANCH  16  18
ENDBRANCH   9  11
ENDBRANCH   8   9
ENDBRANCH   7   8
ENDBRANCH   6   7
ENDBRANCH   5   6
ENDBRANCH   4   5
ENDBRANCH   3   4
ENDBRANCH   2   3
ENDBRANCH   1   2
BRANCH   1  22
ATOM     22  C   UNL A   1      32.512  29.703  25.449  1.00  0.00     0.188 C 
BRANCH  22  23
ATOM     23  O   UNL A   1      31.599  30.787  25.612  1.00  0.00    -0.376 OA
BRANCH  23  24
ATOM     24  C   UNL A   1      31.532  31.365  26.911  1.00  0.00     0.202 C 
BRANCH  24  25
ATOM     25  C   UNL A   1      31.796  32.873  26.892  1.00  0.00     0.261 C 
BRANCH  25  26
ATOM     26  O   UNL A   1      33.189  33.219  26.914  1.00  0.00    -0.460 OA
BRANCH  26  27
ATOM     27  C   UNL A   1      33.668  33.708  28.078  1.00  0.00     0.338 C 
ATOM     28  O   UNL A   1      33.154  34.541  28.802  1.00  0.00    -0.246 OA
BRANCH  27  29
ATOM     29  C   UNL A   1      34.866  32.931  28.435  1.00  0.00     0.060 A 
ATOM     30  C   UNL A   1      34.717  31.570  28.733  1.00  0.00     0.016 A 
ATOM     31  C   UNL A   1      36.123  33.541  28.480  1.00  0.00     0.016 A 
ATOM     32  C   UNL A   1      35.827  30.825  29.125  1.00  0.00     0.010 A 
ATOM     33  C   UNL A   1      37.228  32.798  28.890  1.00  0.00     0.010 A 
ATOM     34  C   UNL A   1      37.076  31.449  29.248  1.00  0.00    -0.014 A 
BRANCH  34  35
ATOM     35  C   UNL A   1      38.176  30.758  29.955  1.00  0.00     0.031 A 
ATOM     36  C   UNL A   1      38.424  31.115  31.394  1.00  0.00     0.074 A 
ATOM     37  C   UNL A   1      38.944  29.849  29.334  1.00  0.00     0.049 A 
ATOM     38  N   UNL A   1      39.344  30.678  32.213  1.00  0.00    -0.248 NA
ATOM     39  C   UNL A   1      37.508  32.104  31.986  1.00  0.00     0.031 C 
ATOM     40  C   UNL A   1      38.787  29.410  27.949  1.00  0.00     0.029 A 
ATOM     41  N   UNL A   1      40.025  29.140  29.795  1.00  0.00    -0.354 N 
ATOM     42  C   UNL A   1      39.113  31.331  33.416  1.00  0.00     0.074 A 
ATOM     43  C   UNL A   1      37.988  32.217  33.215  1.00  0.00     0.031 C 
ATOM     44  C   UNL A   1      39.751  28.515  27.666  1.00  0.00     0.029 A 
ATOM     45  C   UNL A   1      40.600  28.337  28.843  1.00  0.00     0.049 A 
ATOM     46  H   UNL A   1      40.357  29.203  30.719  1.00  0.00     0.167 HD
ATOM     47  C   UNL A   1      39.779  31.200  34.586  1.00  0.00     0.037 A 
ATOM     48  C   UNL A   1      41.699  27.561  28.918  1.00  0.00     0.037 A 
ATOM     49  C   UNL A   1      40.909  30.336  34.781  1.00  0.00     0.049 A 
ATOM     50  C   UNL A   1      42.465  27.485  30.214  1.00  0.00     0.074 A 
ATOM     51  C   UNL A   1      41.644  30.121  35.932  1.00  0.00     0.029 A 
ATOM     52  N   UNL A   1      41.476  29.552  33.788  1.00  0.00    -0.354 N 
ATOM     53  N   UNL A   1      42.216  28.072  31.360  1.00  0.00    -0.248 NA
ATOM     54  C   UNL A   1      43.667  26.638  30.225  1.00  0.00     0.031 C 
ATOM     55  C   UNL A   1      42.682  29.234  35.627  1.00  0.00     0.029 A 
ATOM     56  C   UNL A   1      42.568  28.867  34.294  1.00  0.00     0.049 A 
ATOM     57  H   UNL A   1      41.151  29.491  32.861  1.00  0.00     0.167 HD
ATOM     58  C   UNL A   1      43.208  27.645  32.232  1.00  0.00     0.074 A 
ATOM     59  C   UNL A   1      44.062  26.744  31.486  1.00  0.00     0.031 C 
ATOM     60  C   UNL A   1      43.397  27.968  33.536  1.00  0.00     0.037 A 
BRANCH  47  61
ATOM     61  C   UNL A   1      39.305  32.031  35.738  1.00  0.00     0.064 A 
ATOM     62  C   UNL A   1      38.364  31.539  36.655  1.00  0.00     0.173 A 
ATOM     63  C   UNL A   1      39.803  33.327  35.933  1.00  0.00     0.173 A 
ATOM     64  F   UNL A   1      37.844  30.314  36.496  1.00  0.00    -0.203 F 
ATOM     65  C   UNL A   1      37.925  32.325  37.716  1.00  0.00     0.198 A 
ATOM     66  C   UNL A   1      39.377  34.101  37.008  1.00  0.00     0.198 A 
ATOM     67  F   UNL A   1      40.700  33.842  35.078  1.00  0.00    -0.203 F 
ATOM     68  F   UNL A   1      36.995  31.851  38.558  1.00  0.00    -0.200 F 
ATOM     69  C   UNL A   1      38.435  33.602  37.895  1.00  0.00     0.200 A 
ATOM     70  F   UNL A   1      39.873  35.335  37.182  1.00  0.00    -0.200 F 
ATOM     71  F   UNL A   1      38.011  34.357  38.919  1.00  0.00    -0.200 F 
ENDBRANCH  47  61
BRANCH  48  72
ATOM     72  C   UNL A   1      42.149  26.793  27.730  1.00  0.00     0.064 A 
ATOM     73  C   UNL A   1      41.641  25.514  27.464  1.00  0.00     0.173 A 
ATOM     74  C   UNL A   1      43.113  27.309  26.852  1.00  0.00     0.173 A 
ATOM     75  F   UNL A   1      40.737  24.968  28.291  1.00  0.00    -0.203 F 
ATOM     76  C   UNL A   1      42.092  24.773  26.374  1.00  0.00     0.198 A 
ATOM     77  C   UNL A   1      43.547  26.576  25.750  1.00  0.00     0.198 A 
ATOM     78  F   UNL A   1      43.633  28.526  27.068  1.00  0.00    -0.203 F 
ATOM     79  F   UNL A   1      41.622  23.536  26.167  1.00  0.00    -0.200 F 
ATOM     80  C   UNL A   1      43.042  25.307  25.516  1.00  0.00     0.200 A 
ATOM     81  F   UNL A   1      44.461  27.097  24.920  1.00  0.00    -0.200 F 
ATOM     82  F   UNL A   1      43.478  24.592  24.469  1.00  0.00    -0.200 F 
ENDBRANCH  48  72
BRANCH  60  83
ATOM     83  C   UNL A   1      44.547  27.322  34.246  1.00  0.00     0.064 A 
ATOM     84  C   UNL A   1      45.784  27.968  34.379  1.00  0.00     0.173 A 
ATOM     85  C   UNL A   1      44.391  26.065  34.849  1.00  0.00     0.173 A 
ATOM     86  F   UNL A   1      45.983  29.165  33.808  1.00  0.00    -0.203 F 
ATOM     87  C   UNL A   1      46.830  27.371  35.077  1.00  0.00     0.198 A 
ATOM     88  C   UNL A   1      45.432  25.481  35.566  1.00  0.00     0.198 A 
ATOM     89  F   UNL A   1      43.224  25.410  34.755  1.00  0.00    -0.203 F 
ATOM     90  F   UNL A   1      48.015  27.991  35.163  1.00  0.00    -0.200 F 
ATOM     91  C   UNL A   1      46.650  26.133  35.676  1.00  0.00     0.200 A 
ATOM     92  F   UNL A   1      45.254  24.289  36.153  1.00  0.00    -0.200 F 
ATOM     93  F   UNL A   1      47.657  25.564  36.354  1.00  0.00    -0.200 F 
ENDBRANCH  60  83
ENDBRANCH  34  35
ENDBRANCH  27  29
ENDBRANCH  26  27
ENDBRANCH  25  26
ENDBRANCH  24  25
ENDBRANCH  23  24
ENDBRANCH  22  23
ENDBRANCH   1  22
TORSDOF 21
ENDMDL
MODEL 2
REMARK VINA RESULT:     -10.1      4.746     10.103
REMARK SMILES Cc1n[nH]c(C(F)(F)Cl)c1C(=O)OCCOCCOCCOCCOC(=O)c1ccc(-c2c3nc(c(-c4c(F)c(F)c(F)c(F)c4F)c4ccc([nH]4)c(-c4c(F)c(F)c(F)c(F)c4F)c4nc(c(-c5c(F)c(F)c(F)c(F)c5F)c5ccc2[nH]5)C=C4)C=C3)cc1
REMARK SMILES IDX 20 1 19 2 18 3 17 4 16 5 15 6 14 7 13 8 11 9 12 10 10 11
REMARK SMILES IDX 1 12 2 13 3 14 4 15 5 16 6 18 7 19 8 20 9 21 21 22 22 23
REMARK SMILES IDX 23 24 24 25 25 26 26 27 27 28 28 29 29 30 90 31 30 32 89 33
REMARK SMILES IDX 31 34 32 35 33 36 83 37 34 38 88 39 82 40 84 41 35 42 87 43
REMARK SMILES IDX 81 44 80 45 36 47 68 48 48 49 67 50 49 51 52 52 66 53 85 54
REMARK SMILES IDX 50 55 51 56 65 58 86 59 53 60 37 61 38 62 46 63 39 64 40 65
REMARK SMILES IDX 44 66 47 67 41 68 42 69 45 70 43 71 69 72 70 73 78 74 71 75
REMARK SMILES IDX 72 76 76 77 79 78 73 79 74 80 77 81 75 82 54 83 55 84 63 85
REMARK SMILES IDX 56 86 57 87 61 88 64 89 58 90 59 91 62 92 60 93
REMARK H PARENT 4 17 84 46 52 57
REMARK Flexibility Score: inf
ROOT
ATOM      1  C   UNL A   1      33.363  21.110  24.199  1.00  0.00     0.188 C 
ENDROOT
BRANCH   1   2
ATOM      2  O   UNL A   1      32.243  21.372  23.360  1.00  0.00    -0.377 OA
BRANCH   2   3
ATOM      3  C   UNL A   1      31.742  22.692  23.282  1.00  0.00     0.188 C 
BRANCH   3   4
ATOM      4  C   UNL A   1      32.158  23.617  24.435  1.00  0.00     0.188 C 
BRANCH   4   5
ATOM      5  O   UNL A   1      31.316  23.517  25.586  1.00  0.00    -0.376 OA
BRANCH   5   6
ATOM      6  C   UNL A   1      31.081  24.741  26.279  1.00  0.00     0.202 C 
BRANCH   6   7
ATOM      7  C   UNL A   1      31.739  25.944  25.599  1.00  0.00     0.261 C 
BRANCH   7   8
ATOM      8  O   UNL A   1      30.798  26.976  25.270  1.00  0.00    -0.460 OA
BRANCH   8   9
ATOM      9  C   UNL A   1      30.157  26.883  24.078  1.00  0.00     0.342 C 
ATOM     10  O   UNL A   1      29.373  25.993  23.779  1.00  0.00    -0.246 OA
BRANCH   9  11
ATOM     11  C   UNL A   1      30.439  28.033  23.241  1.00  0.00     0.111 A 
ATOM     12  C   UNL A   1      28.010  28.938  22.747  1.00  0.00     0.070 C 
ATOM     13  C   UNL A   1      29.494  28.926  22.645  1.00  0.00     0.074 A 
ATOM     14  N   UNL A   1      30.100  29.867  21.912  1.00  0.00    -0.180 NA
ATOM     15  N   UNL A   1      31.397  29.570  22.001  1.00  0.00    -0.274 N 
ATOM     16  C   UNL A   1      31.671  28.461  22.754  1.00  0.00     0.135 A 
ATOM     17  H   UNL A   1      32.098  30.105  21.562  1.00  0.00     0.190 HD
BRANCH  16  18
ATOM     18  C   UNL A   1      33.088  28.026  22.794  1.00  0.00     0.365 C 
ATOM     19  F   UNL A   1      33.123  26.680  22.560  1.00  0.00    -0.181 F 
ATOM     20  F   UNL A   1      33.764  28.579  21.749  1.00  0.00    -0.181 F 
ATOM     21  Cl  UNL A   1      33.978  28.325  24.278  1.00  0.00    -0.040 Cl
ENDBRANCH  16  18
ENDBRANCH   9  11
ENDBRANCH   8   9
ENDBRANCH   7   8
ENDBRANCH   6   7
ENDBRANCH   5   6
ENDBRANCH   4   5
ENDBRANCH   3   4
ENDBRANCH   2   3
ENDBRANCH   1   2
BRANCH   1  22
ATOM     22  C   UNL A   1      33.745  19.683  24.640  1.00  0.00     0.188 C 
BRANCH  22  23
ATOM     23  O   UNL A   1      35.118  19.519  24.989  1.00  0.00    -0.376 OA
BRANCH  23  24
ATOM     24  C   UNL A   1      35.883  20.712  25.115  1.00  0.00     0.202 C 
BRANCH  24  25
ATOM     25  C   UNL A   1      37.389  20.453  25.015  1.00  0.00     0.261 C 
BRANCH  25  26
ATOM     26  O   UNL A   1      38.197  21.599  25.318  1.00  0.00    -0.460 OA
BRANCH  26  27
ATOM     27  C   UNL A   1      39.262  21.388  26.121  1.00  0.00     0.338 C 
ATOM     28  O   UNL A   1      39.899  20.359  26.255  1.00  0.00    -0.246 OA
BRANCH  27  29
ATOM     29  C   UNL A   1      39.652  22.682  26.704  1.00  0.00     0.060 A 
ATOM     30  C   UNL A   1      38.933  23.826  26.335  1.00  0.00     0.016 A 
ATOM     31  C   UNL A   1      40.720  22.765  27.603  1.00  0.00     0.016 A 
ATOM     32  C   UNL A   1      39.315  25.070  26.832  1.00  0.00     0.010 A 
ATOM     33  C   UNL A   1      41.111  24.013  28.085  1.00  0.00     0.010 A 
ATOM     34  C   UNL A   1      40.433  25.171  27.672  1.00  0.00    -0.014 A 
BRANCH  34  35
ATOM     35  C   UNL A   1      41.030  26.496  27.946  1.00  0.00     0.031 A 
ATOM     36  C   UNL A   1      42.463  26.720  27.551  1.00  0.00     0.074 A 
ATOM     37  C   UNL A   1      40.324  27.471  28.542  1.00  0.00     0.049 A 
ATOM     38  N   UNL A   1      43.216  27.776  27.716  1.00  0.00    -0.248 NA
ATOM     39  C   UNL A   1      43.137  25.596  26.881  1.00  0.00     0.031 C 
ATOM     40  C   UNL A   1      38.926  27.375  28.953  1.00  0.00     0.029 A 
ATOM     41  N   UNL A   1      40.703  28.735  28.917  1.00  0.00    -0.354 N 
ATOM     42  C   UNL A   1      44.446  27.445  27.165  1.00  0.00     0.074 A 
ATOM     43  C   UNL A   1      44.352  26.084  26.688  1.00  0.00     0.031 C 
ATOM     44  C   UNL A   1      38.566  28.530  29.540  1.00  0.00     0.029 A 
ATOM     45  C   UNL A   1      39.715  29.434  29.562  1.00  0.00     0.049 A 
ATOM     46  H   UNL A   1      41.598  29.105  28.741  1.00  0.00     0.167 HD
ATOM     47  C   UNL A   1      45.556  28.212  27.063  1.00  0.00     0.037 A 
ATOM     48  C   UNL A   1      39.749  30.660  30.121  1.00  0.00     0.037 A 
ATOM     49  C   UNL A   1      45.657  29.558  27.554  1.00  0.00     0.049 A 
ATOM     50  C   UNL A   1      41.019  31.469  30.054  1.00  0.00     0.074 A 
ATOM     51  C   UNL A   1      46.732  30.425  27.485  1.00  0.00     0.029 A 
ATOM     52  N   UNL A   1      44.641  30.227  28.220  1.00  0.00    -0.354 N 
ATOM     53  N   UNL A   1      42.166  31.168  29.493  1.00  0.00    -0.248 NA
ATOM     54  C   UNL A   1      40.999  32.790  30.700  1.00  0.00     0.031 C 
ATOM     55  C   UNL A   1      46.380  31.607  28.145  1.00  0.00     0.029 A 
ATOM     56  C   UNL A   1      45.073  31.490  28.590  1.00  0.00     0.049 A 
ATOM     57  H   UNL A   1      43.747  29.859  28.404  1.00  0.00     0.167 HD
ATOM     58  C   UNL A   1      42.990  32.267  29.692  1.00  0.00     0.074 A 
ATOM     59  C   UNL A   1      42.212  33.247  30.421  1.00  0.00     0.031 C 
ATOM     60  C   UNL A   1      44.277  32.451  29.306  1.00  0.00     0.037 A 
BRANCH  47  61
ATOM     61  C   UNL A   1      46.753  27.597  26.407  1.00  0.00     0.064 A 
ATOM     62  C   UNL A   1      46.922  27.631  25.015  1.00  0.00     0.173 A 
ATOM     63  C   UNL A   1      47.746  26.977  27.178  1.00  0.00     0.173 A 
ATOM     64  F   UNL A   1      45.987  28.195  24.236  1.00  0.00    -0.203 F 
ATOM     65  C   UNL A   1      48.034  27.048  24.417  1.00  0.00     0.198 A 
ATOM     66  C   UNL A   1      48.868  26.413  26.577  1.00  0.00     0.198 A 
ATOM     67  F   UNL A   1      47.625  26.915  28.513  1.00  0.00    -0.203 F 
ATOM     68  F   UNL A   1      48.157  27.056  23.082  1.00  0.00    -0.200 F 
ATOM     69  C   UNL A   1      49.008  26.444  25.198  1.00  0.00     0.200 A 
ATOM     70  F   UNL A   1      49.811  25.834  27.333  1.00  0.00    -0.200 F 
ATOM     71  F   UNL A   1      50.081  25.883  24.620  1.00  0.00    -0.200 F 
ENDBRANCH  47  61
BRANCH  48  72
ATOM     72  C   UNL A   1      38.544  31.203  30.797  1.00  0.00     0.064 A 
ATOM     73  C   UNL A   1      38.355  31.036  32.176  1.00  0.00     0.173 A 
ATOM     74  C   UNL A   1      37.547  31.875  30.077  1.00  0.00     0.173 A 
ATOM     75  F   UNL A   1      39.270  30.375  32.901  1.00  0.00    -0.203 F 
ATOM     76  C   UNL A   1      37.206  31.507  32.806  1.00  0.00     0.198 A 
ATOM     77  C   UNL A   1      36.408  32.365  30.712  1.00  0.00     0.198 A 
ATOM     78  F   UNL A   1      37.679  32.054  28.755  1.00  0.00    -0.203 F 
ATOM     79  F   UNL A   1      37.029  31.297  34.117  1.00  0.00    -0.200 F 
ATOM     80  C   UNL A   1      36.235  32.175  32.074  1.00  0.00     0.200 A 
ATOM     81  F   UNL A   1      35.475  33.014  30.002  1.00  0.00    -0.200 F 
ATOM     82  F   UNL A   1      35.128  32.625  32.680  1.00  0.00    -0.200 F 
ENDBRANCH  48  72
BRANCH  60  83
ATOM     83  C   UNL A   1      44.912  33.769  29.634  1.00  0.00     0.064 A 
ATOM     84  C   UNL A   1      44.813  34.866  28.767  1.00  0.00     0.173 A 
ATOM     85  C   UNL A   1      45.579  33.950  30.855  1.00  0.00     0.173 A 
ATOM     86  F   UNL A   1      44.197  34.736  27.583  1.00  0.00    -0.203 F 
ATOM     87  C   UNL A   1      45.375  36.095  29.103  1.00  0.00     0.198 A 
ATOM     88  C   UNL A   1      46.119  35.186  31.198  1.00  0.00     0.198 A 
ATOM     89  F   UNL A   1      45.693  32.932  31.720  1.00  0.00    -0.203 F 
ATOM     90  F   UNL A   1      45.299  37.121  28.245  1.00  0.00    -0.200 F 
ATOM     91  C   UNL A   1      46.019  36.255  30.321  1.00  0.00     0.200 A 
ATOM     92  F   UNL A   1      46.732  35.343  32.379  1.00  0.00    -0.200 F 
ATOM     93  F   UNL A   1      46.552  37.442  30.646  1.00  0.00    -0.200 F 
ENDBRANCH  60  83
ENDBRANCH  34  35
ENDBRANCH  27  29
ENDBRANCH  26  27
ENDBRANCH  25  26
ENDBRANCH  24  25
ENDBRANCH  23  24
ENDBRANCH  22  23
ENDBRANCH   1  22
TORSDOF 21
ENDMDL
MODEL 3
REMARK VINA RESULT:     -10.0      4.437      6.595
REMARK SMILES Cc1n[nH]c(C(F)(F)Cl)c1C(=O)OCCOCCOCCOCCOC(=O)c1ccc(-c2c3nc(c(-c4c(F)c(F)c(F)c(F)c4F)c4ccc([nH]4)c(-c4c(F)c(F)c(F)c(F)c4F)c4nc(c(-c5c(F)c(F)c(F)c(F)c5F)c5ccc2[nH]5)C=C4)C=C3)cc1
REMARK SMILES IDX 20 1 19 2 18 3 17 4 16 5 15 6 14 7 13 8 11 9 12 10 10 11
REMARK SMILES IDX 1 12 2 13 3 14 4 15 5 16 6 18 7 19 8 20 9 21 21 22 22 23
REMARK SMILES IDX 23 24 24 25 25 26 26 27 27 28 28 29 29 30 90 31 30 32 89 33
REMARK SMILES IDX 31 34 32 35 33 36 83 37 34 38 88 39 82 40 84 41 35 42 87 43
REMARK SMILES IDX 81 44 80 45 36 47 68 48 48 49 67 50 49 51 52 52 66 53 85 54
REMARK SMILES IDX 50 55 51 56 65 58 86 59 53 60 37 61 38 62 46 63 39 64 40 65
REMARK SMILES IDX 44 66 47 67 41 68 42 69 45 70 43 71 69 72 70 73 78 74 71 75
REMARK SMILES IDX 72 76 76 77 79 78 73 79 74 80 77 81 75 82 54 83 55 84 63 85
REMARK SMILES IDX 56 86 57 87 61 88 64 89 58 90 59 91 62 92 60 93
REMARK H PARENT 4 17 84 46 52 57
REMARK Flexibility Score: inf
ROOT
ATOM      1  C   UNL A   1      33.786  31.202  27.957  1.00  0.00     0.188 C 
ENDROOT
BRANCH   1   2
ATOM      2  O   UNL A   1      33.030  30.270  27.191  1.00  0.00    -0.377 OA
BRANCH   2   3
ATOM      3  C   UNL A   1      33.662  29.593  26.123  1.00  0.00     0.188 C 
BRANCH   3   4
ATOM      4  C   UNL A   1      32.714  29.045  25.045  1.00  0.00     0.188 C 
BRANCH   4   5
ATOM      5  O   UNL A   1      32.675  27.617  24.985  1.00  0.00    -0.376 OA
BRANCH   5   6
ATOM      6  C   UNL A   1      33.527  27.023  24.008  1.00  0.00     0.202 C 
BRANCH   6   7
ATOM      7  C   UNL A   1      32.755  26.217  22.959  1.00  0.00     0.261 C 
BRANCH   7   8
ATOM      8  O   UNL A   1      32.418  24.899  23.414  1.00  0.00    -0.460 OA
BRANCH   8   9
ATOM      9  C   UNL A   1      33.289  23.898  23.132  1.00  0.00     0.342 C 
ATOM     10  O   UNL A   1      34.240  23.999  22.369  1.00  0.00    -0.246 OA
BRANCH   9  11
ATOM     11  C   UNL A   1      33.010  22.720  23.932  1.00  0.00     0.111 A 
ATOM     12  C   UNL A   1      31.900  21.121  22.150  1.00  0.00     0.070 C 
ATOM     13  C   UNL A   1      32.387  21.507  23.502  1.00  0.00     0.074 A 
ATOM     14  N   UNL A   1      32.262  20.634  24.508  1.00  0.00    -0.180 NA
ATOM     15  N   UNL A   1      32.758  21.277  25.567  1.00  0.00    -0.274 N 
ATOM     16  C   UNL A   1      33.193  22.547  25.300  1.00  0.00     0.135 A 
ATOM     17  H   UNL A   1      32.808  20.872  26.462  1.00  0.00     0.190 HD
BRANCH  16  18
ATOM     18  C   UNL A   1      33.651  23.343  26.465  1.00  0.00     0.365 C 
ATOM     19  F   UNL A   1      34.923  23.774  26.208  1.00  0.00    -0.181 F 
ATOM     20  F   UNL A   1      32.910  24.481  26.559  1.00  0.00    -0.181 F 
ATOM     21  Cl  UNL A   1      33.674  22.539  28.026  1.00  0.00    -0.040 Cl
ENDBRANCH  16  18
ENDBRANCH   9  11
ENDBRANCH   8   9
ENDBRANCH   7   8
ENDBRANCH   6   7
ENDBRANCH   5   6
ENDBRANCH   4   5
ENDBRANCH   3   4
ENDBRANCH   2   3
ENDBRANCH   1   2
BRANCH   1  22
ATOM     22  C   UNL A   1      33.692  32.724  27.728  1.00  0.00     0.188 C 
BRANCH  22  23
ATOM     23  O   UNL A   1      34.519  33.504  28.589  1.00  0.00    -0.376 OA
BRANCH  23  24
ATOM     24  C   UNL A   1      33.852  34.240  29.608  1.00  0.00     0.202 C 
BRANCH  24  25
ATOM     25  C   UNL A   1      34.457  33.997  30.994  1.00  0.00     0.261 C 
BRANCH  25  26
ATOM     26  O   UNL A   1      34.546  32.610  31.353  1.00  0.00    -0.460 OA
BRANCH  26  27
ATOM     27  C   UNL A   1      35.448  32.294  32.307  1.00  0.00     0.338 C 
ATOM     28  O   UNL A   1      35.364  32.494  33.506  1.00  0.00    -0.246 OA
BRANCH  27  29
ATOM     29  C   UNL A   1      36.511  31.494  31.677  1.00  0.00     0.060 A 
ATOM     30  C   UNL A   1      37.522  30.965  32.490  1.00  0.00     0.016 A 
ATOM     31  C   UNL A   1      36.511  31.272  30.297  1.00  0.00     0.016 A 
ATOM     32  C   UNL A   1      38.567  30.248  31.911  1.00  0.00     0.010 A 
ATOM     33  C   UNL A   1      37.567  30.570  29.719  1.00  0.00     0.010 A 
ATOM     34  C   UNL A   1      38.615  30.089  30.520  1.00  0.00    -0.014 A 
BRANCH  34  35
ATOM     35  C   UNL A   1      39.860  29.615  29.877  1.00  0.00     0.031 A 
ATOM     36  C   UNL A   1      40.987  30.596  29.712  1.00  0.00     0.074 A 
ATOM     37  C   UNL A   1      39.982  28.352  29.437  1.00  0.00     0.049 A 
ATOM     38  N   UNL A   1      42.157  30.432  29.152  1.00  0.00    -0.248 NA
ATOM     39  C   UNL A   1      40.758  31.947  30.251  1.00  0.00     0.031 C 
ATOM     40  C   UNL A   1      38.966  27.311  29.558  1.00  0.00     0.029 A 
ATOM     41  N   UNL A   1      41.022  27.740  28.785  1.00  0.00    -0.354 N 
ATOM     42  C   UNL A   1      42.804  31.654  29.278  1.00  0.00     0.074 A 
ATOM     43  C   UNL A   1      41.890  32.558  29.939  1.00  0.00     0.031 C 
ATOM     44  C   UNL A   1      39.427  26.186  28.981  1.00  0.00     0.029 A 
ATOM     45  C   UNL A   1      40.760  26.439  28.436  1.00  0.00     0.049 A 
ATOM     46  H   UNL A   1      41.874  28.189  28.585  1.00  0.00     0.167 HD
ATOM     47  C   UNL A   1      44.053  31.989  28.881  1.00  0.00     0.037 A 
ATOM     48  C   UNL A   1      41.510  25.564  27.739  1.00  0.00     0.037 A 
ATOM     49  C   UNL A   1      44.954  31.098  28.206  1.00  0.00     0.049 A 
ATOM     50  C   UNL A   1      42.872  25.984  27.247  1.00  0.00     0.074 A 
ATOM     51  C   UNL A   1      46.246  31.337  27.776  1.00  0.00     0.029 A 
ATOM     52  N   UNL A   1      44.646  29.793  27.852  1.00  0.00    -0.354 N 
ATOM     53  N   UNL A   1      43.496  27.126  27.408  1.00  0.00    -0.248 NA
ATOM     54  C   UNL A   1      43.633  24.991  26.475  1.00  0.00     0.031 C 
ATOM     55  C   UNL A   1      46.708  30.188  27.126  1.00  0.00     0.029 A 
ATOM     56  C   UNL A   1      45.717  29.221  27.186  1.00  0.00     0.049 A 
ATOM     57  H   UNL A   1      43.793  29.341  28.044  1.00  0.00     0.167 HD
ATOM     58  C   UNL A   1      44.728  26.980  26.785  1.00  0.00     0.074 A 
ATOM     59  C   UNL A   1      44.769  25.636  26.248  1.00  0.00     0.031 C 
ATOM     60  C   UNL A   1      45.738  27.878  26.669  1.00  0.00     0.037 A 
BRANCH  47  61
ATOM     61  C   UNL A   1      44.503  33.391  29.155  1.00  0.00     0.064 A 
ATOM     62  C   UNL A   1      45.169  33.725  30.343  1.00  0.00     0.173 A 
ATOM     63  C   UNL A   1      44.275  34.407  28.216  1.00  0.00     0.173 A 
ATOM     64  F   UNL A   1      45.389  32.791  31.279  1.00  0.00    -0.203 F 
ATOM     65  C   UNL A   1      45.574  35.034  30.590  1.00  0.00     0.198 A 
ATOM     66  C   UNL A   1      44.701  35.710  28.458  1.00  0.00     0.198 A 
ATOM     67  F   UNL A   1      43.637  34.136  27.067  1.00  0.00    -0.203 F 
ATOM     68  F   UNL A   1      46.173  35.341  31.749  1.00  0.00    -0.200 F 
ATOM     69  C   UNL A   1      45.344  36.023  29.645  1.00  0.00     0.200 A 
ATOM     70  F   UNL A   1      44.483  36.666  27.543  1.00  0.00    -0.200 F 
ATOM     71  F   UNL A   1      45.737  37.283  29.884  1.00  0.00    -0.200 F 
ENDBRANCH  47  61
BRANCH  48  72
ATOM     72  C   UNL A   1      40.995  24.200  27.458  1.00  0.00     0.064 A 
ATOM     73  C   UNL A   1      41.564  23.075  28.069  1.00  0.00     0.173 A 
ATOM     74  C   UNL A   1      39.941  23.992  26.557  1.00  0.00     0.173 A 
ATOM     75  F   UNL A   1      42.593  23.223  28.918  1.00  0.00    -0.203 F 
ATOM     76  C   UNL A   1      41.112  21.791  27.776  1.00  0.00     0.198 A 
ATOM     77  C   UNL A   1      39.475  22.709  26.281  1.00  0.00     0.198 A 
ATOM     78  F   UNL A   1      39.368  25.037  25.943  1.00  0.00    -0.203 F 
ATOM     79  F   UNL A   1      41.702  20.729  28.340  1.00  0.00    -0.200 F 
ATOM     80  C   UNL A   1      40.064  21.610  26.885  1.00  0.00     0.200 A 
ATOM     81  F   UNL A   1      38.459  22.539  25.424  1.00  0.00    -0.200 F 
ATOM     82  F   UNL A   1      39.630  20.374  26.601  1.00  0.00    -0.200 F 
ENDBRANCH  48  72
BRANCH  60  83
ATOM     83  C   UNL A   1      46.981  27.428  25.964  1.00  0.00     0.064 A 
ATOM     84  C   UNL A   1      47.134  27.578  24.578  1.00  0.00     0.173 A 
ATOM     85  C   UNL A   1      48.054  26.893  26.692  1.00  0.00     0.173 A 
ATOM     86  F   UNL A   1      46.129  28.073  23.839  1.00  0.00    -0.203 F 
ATOM     87  C   UNL A   1      48.311  27.192  23.943  1.00  0.00     0.198 A 
ATOM     88  C   UNL A   1      49.238  26.530  26.057  1.00  0.00     0.198 A 
ATOM     89  F   UNL A   1      47.959  26.736  28.020  1.00  0.00    -0.203 F 
ATOM     90  F   UNL A   1      48.423  27.313  22.613  1.00  0.00    -0.200 F 
ATOM     91  C   UNL A   1      49.364  26.676  24.684  1.00  0.00     0.200 A 
ATOM     92  F   UNL A   1      50.260  26.041  26.774  1.00  0.00    -0.200 F 
ATOM     93  F   UNL A   1      50.500  26.313  24.071  1.00  0.00    -0.200 F 
ENDBRANCH  60  83
ENDBRANCH  34  35
ENDBRANCH  27  29
ENDBRANCH  26  27
ENDBRANCH  25  26
ENDBRANCH  24  25
ENDBRANCH  23  24
ENDBRANCH  22  23
ENDBRANCH   1  22
TORSDOF 21
ENDMDL
