MODEL 1
REMARK VINA RESULT:     -10.4      0.000      0.000
REMARK SMILES C[C@@H]1CCC[C@]1(Sc1ccc(F)cc1)C(=O)OCCOCCOCCOCCOC(=O)c1ccc(-c2c3nc(c(-c4c(F)c(F)c(F)c(F)c4F)c4ccc([nH]4)c(-c4c(F)c(F)c(F)c(F)c4F)c4nc(c(-c5c(F)c(F)c(F)c(F)c5F)c5ccc2[nH]5)C=C4)C=C3)cc1
REMARK SMILES IDX 23 1 22 2 21 3 20 4 19 5 18 6 17 7 15 8 16 9 6 10 1 11 2 12
REMARK SMILES IDX 3 13 4 14 5 15 7 16 8 17 9 18 14 19 10 20 13 21 11 22 12 23
REMARK SMILES IDX 24 24 25 25 26 26 27 27 28 28 29 29 30 30 31 31 32 32 33 33
REMARK SMILES IDX 94 34 34 35 93 36 35 37 36 38 37 39 87 40 38 41 92 42 86 43
REMARK SMILES IDX 88 44 39 45 91 46 85 47 84 48 40 50 72 51 52 52 71 53 53 54
REMARK SMILES IDX 56 55 70 56 89 57 54 58 55 59 69 61 90 62 57 63 41 64 42 65
REMARK SMILES IDX 50 66 43 67 44 68 48 69 51 70 45 71 46 72 49 73 47 74 73 75
REMARK SMILES IDX 74 76 82 77 75 78 76 79 80 80 83 81 77 82 78 83 81 84 79 85
REMARK SMILES IDX 58 86 59 87 67 88 60 89 61 90 65 91 68 92 62 93 63 94 66 95
REMARK SMILES IDX 64 96
REMARK H PARENT 88 49 56 60
REMARK Flexibility Score: inf
ROOT
ATOM      1  O   UNL A   1      32.660  28.497  24.496  1.00  0.00    -0.377 OA
ENDROOT
BRANCH   1   2
ATOM      2  C   UNL A   1      31.244  28.556  24.493  1.00  0.00     0.188 C 
BRANCH   2   3
ATOM      3  C   UNL A   1      30.601  27.304  23.900  1.00  0.00     0.188 C 
BRANCH   3   4
ATOM      4  O   UNL A   1      31.202  26.744  22.744  1.00  0.00    -0.376 OA
BRANCH   4   5
ATOM      5  C   UNL A   1      31.951  25.538  22.862  1.00  0.00     0.202 C 
BRANCH   5   6
ATOM      6  C   UNL A   1      33.310  25.369  22.149  1.00  0.00     0.261 C 
BRANCH   6   7
ATOM      7  O   UNL A   1      34.188  24.304  22.611  1.00  0.00    -0.462 OA
BRANCH   7   8
ATOM      8  C   UNL A   1      33.553  23.145  22.910  1.00  0.00     0.322 C 
ATOM      9  O   UNL A   1      32.851  22.554  22.082  1.00  0.00    -0.251 OA
BRANCH   8  10
ATOM     10  C   UNL A   1      33.623  22.618  24.378  1.00  0.00     0.120 C 
ATOM     11  C   UNL A   1      34.438  24.799  25.670  1.00  0.00     0.010 C 
ATOM     12  C   UNL A   1      33.781  23.432  25.695  1.00  0.00     0.014 C 
ATOM     13  C   UNL A   1      34.641  22.542  26.623  1.00  0.00     0.005 C 
ATOM     14  C   UNL A   1      35.532  21.717  25.725  1.00  0.00     0.002 C 
ATOM     15  C   UNL A   1      34.874  21.699  24.360  1.00  0.00     0.030 C 
BRANCH  10  16
ATOM     16  S   UNL A   1      31.945  21.685  24.429  1.00  0.00    -0.107 SA
BRANCH  16  17
ATOM     17  C   UNL A   1      32.360  19.973  24.287  1.00  0.00     0.009 A 
ATOM     18  C   UNL A   1      32.375  19.346  23.034  1.00  0.00     0.018 A 
ATOM     19  C   UNL A   1      32.769  19.263  25.419  1.00  0.00     0.018 A 
ATOM     20  C   UNL A   1      32.709  17.996  22.929  1.00  0.00     0.040 A 
ATOM     21  C   UNL A   1      33.134  17.921  25.310  1.00  0.00     0.040 A 
ATOM     22  C   UNL A   1      33.085  17.297  24.068  1.00  0.00     0.123 A 
ATOM     23  F   UNL A   1      33.412  16.003  23.969  1.00  0.00    -0.207 F 
ENDBRANCH  16  17
ENDBRANCH  10  16
ENDBRANCH   8  10
ENDBRANCH   7   8
ENDBRANCH   6   7
ENDBRANCH   5   6
ENDBRANCH   4   5
ENDBRANCH   3   4
ENDBRANCH   2   3
ENDBRANCH   1   2
BRANCH   1  24
ATOM     24  C   UNL A   1      33.415  28.858  25.649  1.00  0.00     0.188 C 
BRANCH  24  25
ATOM     25  C   UNL A   1      32.645  29.364  26.861  1.00  0.00     0.188 C 
BRANCH  25  26
ATOM     26  O   UNL A   1      32.703  30.770  27.115  1.00  0.00    -0.376 OA
BRANCH  26  27
ATOM     27  C   UNL A   1      31.647  31.598  26.631  1.00  0.00     0.202 C 
BRANCH  27  28
ATOM     28  C   UNL A   1      31.785  33.083  26.961  1.00  0.00     0.261 C 
BRANCH  28  29
ATOM     29  O   UNL A   1      33.131  33.435  27.320  1.00  0.00    -0.460 OA
BRANCH  29  30
ATOM     30  C   UNL A   1      33.240  34.302  28.347  1.00  0.00     0.338 C 
ATOM     31  O   UNL A   1      32.509  35.252  28.608  1.00  0.00    -0.246 OA
BRANCH  30  32
ATOM     32  C   UNL A   1      34.323  33.871  29.243  1.00  0.00     0.060 A 
ATOM     33  C   UNL A   1      35.624  34.324  28.985  1.00  0.00     0.016 A 
ATOM     34  C   UNL A   1      34.075  32.949  30.262  1.00  0.00     0.016 A 
ATOM     35  C   UNL A   1      36.693  33.812  29.712  1.00  0.00     0.010 A 
ATOM     36  C   UNL A   1      35.148  32.426  30.981  1.00  0.00     0.010 A 
ATOM     37  C   UNL A   1      36.462  32.823  30.674  1.00  0.00    -0.014 A 
BRANCH  37  38
ATOM     38  C   UNL A   1      37.603  32.055  31.216  1.00  0.00     0.031 A 
ATOM     39  C   UNL A   1      38.069  32.362  32.611  1.00  0.00     0.074 A 
ATOM     40  C   UNL A   1      38.187  31.087  30.489  1.00  0.00     0.049 A 
ATOM     41  N   UNL A   1      39.089  31.877  33.270  1.00  0.00    -0.248 NA
ATOM     42  C   UNL A   1      37.279  33.350  33.366  1.00  0.00     0.031 C 
ATOM     43  C   UNL A   1      37.770  30.673  29.151  1.00  0.00     0.029 A 
ATOM     44  N   UNL A   1      39.260  30.285  30.776  1.00  0.00    -0.354 N 
ATOM     45  C   UNL A   1      39.064  32.503  34.510  1.00  0.00     0.074 A 
ATOM     46  C   UNL A   1      37.952  33.427  34.504  1.00  0.00     0.031 C 
ATOM     47  C   UNL A   1      38.585  29.692  28.728  1.00  0.00     0.029 A 
ATOM     48  C   UNL A   1      39.603  29.442  29.749  1.00  0.00     0.049 A 
ATOM     49  H   UNL A   1      39.738  30.310  31.636  1.00  0.00     0.167 HD
ATOM     50  C   UNL A   1      39.893  32.311  35.561  1.00  0.00     0.037 A 
ATOM     51  C   UNL A   1      40.638  28.587  29.642  1.00  0.00     0.037 A 
ATOM     52  C   UNL A   1      40.992  31.384  35.555  1.00  0.00     0.049 A 
ATOM     53  C   UNL A   1      41.599  28.456  30.796  1.00  0.00     0.074 A 
ATOM     54  C   UNL A   1      41.895  31.113  36.566  1.00  0.00     0.029 A 
ATOM     55  N   UNL A   1      41.335  30.576  34.480  1.00  0.00    -0.354 N 
ATOM     56  N   UNL A   1      41.576  29.053  31.964  1.00  0.00    -0.248 NA
ATOM     57  C   UNL A   1      42.729  27.533  30.619  1.00  0.00     0.031 C 
ATOM     58  C   UNL A   1      42.818  30.181  36.085  1.00  0.00     0.029 A 
ATOM     59  C   UNL A   1      42.451  29.821  34.798  1.00  0.00     0.049 A 
ATOM     60  H   UNL A   1      40.856  30.544  33.620  1.00  0.00     0.167 HD
ATOM     61  C   UNL A   1      42.663  28.555  32.671  1.00  0.00     0.074 A 
ATOM     62  C   UNL A   1      43.321  27.600  31.804  1.00  0.00     0.031 C 
ATOM     63  C   UNL A   1      43.078  28.861  33.925  1.00  0.00     0.037 A 
BRANCH  50  64
ATOM     64  C   UNL A   1      39.658  33.117  36.804  1.00  0.00     0.064 A 
ATOM     65  C   UNL A   1      38.689  32.717  37.737  1.00  0.00     0.173 A 
ATOM     66  C   UNL A   1      40.329  34.327  37.034  1.00  0.00     0.173 A 
ATOM     67  F   UNL A   1      38.019  31.568  37.564  1.00  0.00    -0.203 F 
ATOM     68  C   UNL A   1      38.382  33.511  38.838  1.00  0.00     0.198 A 
ATOM     69  C   UNL A   1      40.040  35.105  38.152  1.00  0.00     0.198 A 
ATOM     70  F   UNL A   1      41.277  34.746  36.182  1.00  0.00    -0.203 F 
ATOM     71  F   UNL A   1      37.423  33.128  39.693  1.00  0.00    -0.200 F 
ATOM     72  C   UNL A   1      39.058  34.704  39.045  1.00  0.00     0.200 A 
ATOM     73  F   UNL A   1      40.712  36.245  38.365  1.00  0.00    -0.200 F 
ATOM     74  F   UNL A   1      38.764  35.466  40.107  1.00  0.00    -0.200 F 
ENDBRANCH  50  64
BRANCH  51  75
ATOM     75  C   UNL A   1      40.814  27.789  28.400  1.00  0.00     0.064 A 
ATOM     76  C   UNL A   1      41.584  28.267  27.328  1.00  0.00     0.173 A 
ATOM     77  C   UNL A   1      40.209  26.533  28.258  1.00  0.00     0.173 A 
ATOM     78  F   UNL A   1      42.184  29.462  27.411  1.00  0.00    -0.203 F 
ATOM     79  C   UNL A   1      41.723  27.526  26.156  1.00  0.00     0.198 A 
ATOM     80  C   UNL A   1      40.375  25.780  27.096  1.00  0.00     0.198 A 
ATOM     81  F   UNL A   1      39.482  26.022  29.263  1.00  0.00    -0.203 F 
ATOM     82  F   UNL A   1      42.436  28.022  25.135  1.00  0.00    -0.200 F 
ATOM     83  C   UNL A   1      41.126  26.281  26.044  1.00  0.00     0.200 A 
ATOM     84  F   UNL A   1      39.818  24.565  27.004  1.00  0.00    -0.200 F 
ATOM     85  F   UNL A   1      41.275  25.562  24.923  1.00  0.00    -0.200 F 
ENDBRANCH  51  75
BRANCH  63  86
ATOM     86  C   UNL A   1      44.276  28.133  34.462  1.00  0.00     0.064 A 
ATOM     87  C   UNL A   1      44.115  26.920  35.150  1.00  0.00     0.173 A 
ATOM     88  C   UNL A   1      45.566  28.675  34.380  1.00  0.00     0.173 A 
ATOM     89  F   UNL A   1      42.900  26.365  35.269  1.00  0.00    -0.203 F 
ATOM     90  C   UNL A   1      45.199  26.288  35.754  1.00  0.00     0.198 A 
ATOM     91  C   UNL A   1      46.654  28.022  34.955  1.00  0.00     0.198 A 
ATOM     92  F   UNL A   1      45.774  29.827  33.725  1.00  0.00    -0.203 F 
ATOM     93  F   UNL A   1      45.013  25.155  36.444  1.00  0.00    -0.200 F 
ATOM     94  C   UNL A   1      46.467  26.837  35.651  1.00  0.00     0.200 A 
ATOM     95  F   UNL A   1      47.884  28.541  34.835  1.00  0.00    -0.200 F 
ATOM     96  F   UNL A   1      47.512  26.224  36.224  1.00  0.00    -0.200 F 
ENDBRANCH  63  86
ENDBRANCH  37  38
ENDBRANCH  30  32
ENDBRANCH  29  30
ENDBRANCH  28  29
ENDBRANCH  27  28
ENDBRANCH  26  27
ENDBRANCH  25  26
ENDBRANCH  24  25
ENDBRANCH   1  24
TORSDOF 22
ENDMDL
MODEL 2
REMARK VINA RESULT:     -10.1      1.732      2.847
REMARK SMILES C[C@@H]1CCC[C@]1(Sc1ccc(F)cc1)C(=O)OCCOCCOCCOCCOC(=O)c1ccc(-c2c3nc(c(-c4c(F)c(F)c(F)c(F)c4F)c4ccc([nH]4)c(-c4c(F)c(F)c(F)c(F)c4F)c4nc(c(-c5c(F)c(F)c(F)c(F)c5F)c5ccc2[nH]5)C=C4)C=C3)cc1
REMARK SMILES IDX 23 1 22 2 21 3 20 4 19 5 18 6 17 7 15 8 16 9 6 10 1 11 2 12
REMARK SMILES IDX 3 13 4 14 5 15 7 16 8 17 9 18 14 19 10 20 13 21 11 22 12 23
REMARK SMILES IDX 24 24 25 25 26 26 27 27 28 28 29 29 30 30 31 31 32 32 33 33
REMARK SMILES IDX 94 34 34 35 93 36 35 37 36 38 37 39 87 40 38 41 92 42 86 43
REMARK SMILES IDX 88 44 39 45 91 46 85 47 84 48 40 50 72 51 52 52 71 53 53 54
REMARK SMILES IDX 56 55 70 56 89 57 54 58 55 59 69 61 90 62 57 63 41 64 42 65
REMARK SMILES IDX 50 66 43 67 44 68 48 69 51 70 45 71 46 72 49 73 47 74 73 75
REMARK SMILES IDX 74 76 82 77 75 78 76 79 80 80 83 81 77 82 78 83 81 84 79 85
REMARK SMILES IDX 58 86 59 87 67 88 60 89 61 90 65 91 68 92 62 93 63 94 66 95
REMARK SMILES IDX 64 96
REMARK H PARENT 88 49 56 60
REMARK Flexibility Score: inf
ROOT
ATOM      1  O   UNL A   1      31.830  27.482  25.669  1.00  0.00    -0.377 OA
ENDROOT
BRANCH   1   2
ATOM      2  C   UNL A   1      30.860  26.871  24.838  1.00  0.00     0.188 C 
BRANCH   2   3
ATOM      3  C   UNL A   1      31.466  26.238  23.586  1.00  0.00     0.188 C 
BRANCH   3   4
ATOM      4  O   UNL A   1      32.689  26.775  23.108  1.00  0.00    -0.376 OA
BRANCH   4   5
ATOM      5  C   UNL A   1      33.453  26.032  22.163  1.00  0.00     0.202 C 
BRANCH   5   6
ATOM      6  C   UNL A   1      32.955  24.673  21.626  1.00  0.00     0.261 C 
BRANCH   6   7
ATOM      7  O   UNL A   1      33.699  23.481  22.007  1.00  0.00    -0.462 OA
BRANCH   7   8
ATOM      8  C   UNL A   1      33.224  22.853  23.109  1.00  0.00     0.322 C 
ATOM      9  O   UNL A   1      32.027  22.571  23.234  1.00  0.00    -0.251 OA
BRANCH   8  10
ATOM     10  C   UNL A   1      34.206  22.592  24.294  1.00  0.00     0.120 C 
ATOM     11  C   UNL A   1      33.238  20.313  25.272  1.00  0.00     0.010 C 
ATOM     12  C   UNL A   1      34.384  21.298  25.140  1.00  0.00     0.014 C 
ATOM     13  C   UNL A   1      34.715  21.789  26.570  1.00  0.00     0.005 C 
ATOM     14  C   UNL A   1      34.035  23.128  26.735  1.00  0.00     0.002 C 
ATOM     15  C   UNL A   1      33.784  23.661  25.339  1.00  0.00     0.030 C 
BRANCH  10  16
ATOM     16  S   UNL A   1      35.858  22.967  23.388  1.00  0.00    -0.107 SA
BRANCH  16  17
ATOM     17  C   UNL A   1      37.117  22.755  24.610  1.00  0.00     0.009 A 
ATOM     18  C   UNL A   1      37.464  23.811  25.463  1.00  0.00     0.018 A 
ATOM     19  C   UNL A   1      37.704  21.500  24.789  1.00  0.00     0.018 A 
ATOM     20  C   UNL A   1      38.455  23.635  26.428  1.00  0.00     0.040 A 
ATOM     21  C   UNL A   1      38.672  21.315  25.776  1.00  0.00     0.040 A 
ATOM     22  C   UNL A   1      39.050  22.389  26.575  1.00  0.00     0.123 A 
ATOM     23  F   UNL A   1      39.997  22.216  27.506  1.00  0.00    -0.207 F 
ENDBRANCH  16  17
ENDBRANCH  10  16
ENDBRANCH   8  10
ENDBRANCH   7   8
ENDBRANCH   6   7
ENDBRANCH   5   6
ENDBRANCH   4   5
ENDBRANCH   3   4
ENDBRANCH   2   3
ENDBRANCH   1   2
BRANCH   1  24
ATOM     24  C   UNL A   1      32.162  28.861  25.534  1.00  0.00     0.188 C 
BRANCH  24  25
ATOM     25  C   UNL A   1      32.282  29.680  26.812  1.00  0.00     0.188 C 
BRANCH  25  26
ATOM     26  O   UNL A   1      32.548  31.076  26.654  1.00  0.00    -0.376 OA
BRANCH  26  27
ATOM     27  C   UNL A   1      31.571  32.014  27.104  1.00  0.00     0.202 C 
BRANCH  27  28
ATOM     28  C   UNL A   1      32.018  33.476  27.079  1.00  0.00     0.261 C 
BRANCH  28  29
ATOM     29  O   UNL A   1      33.444  33.608  27.184  1.00  0.00    -0.460 OA
BRANCH  29  30
ATOM     30  C   UNL A   1      33.906  33.850  28.428  1.00  0.00     0.338 C 
ATOM     31  O   UNL A   1      33.382  34.532  29.303  1.00  0.00    -0.246 OA
BRANCH  30  32
ATOM     32  C   UNL A   1      35.113  33.048  28.669  1.00  0.00     0.060 A 
ATOM     33  C   UNL A   1      34.963  31.690  28.981  1.00  0.00     0.016 A 
ATOM     34  C   UNL A   1      36.373  33.651  28.689  1.00  0.00     0.016 A 
ATOM     35  C   UNL A   1      36.068  30.942  29.370  1.00  0.00     0.010 A 
ATOM     36  C   UNL A   1      37.478  32.904  29.093  1.00  0.00     0.010 A 
ATOM     37  C   UNL A   1      37.318  31.561  29.478  1.00  0.00    -0.014 A 
BRANCH  37  38
ATOM     38  C   UNL A   1      38.415  30.868  30.186  1.00  0.00     0.031 A 
ATOM     39  C   UNL A   1      38.627  31.175  31.642  1.00  0.00     0.074 A 
ATOM     40  C   UNL A   1      39.181  29.967  29.551  1.00  0.00     0.049 A 
ATOM     41  N   UNL A   1      39.562  30.752  32.451  1.00  0.00    -0.248 NA
ATOM     42  C   UNL A   1      37.650  32.081  32.272  1.00  0.00     0.031 C 
ATOM     43  C   UNL A   1      39.017  29.555  28.159  1.00  0.00     0.029 A 
ATOM     44  N   UNL A   1      40.254  29.241  29.997  1.00  0.00    -0.354 N 
ATOM     45  C   UNL A   1      39.291  31.344  33.678  1.00  0.00     0.074 A 
ATOM     46  C   UNL A   1      38.125  32.180  33.505  1.00  0.00     0.031 C 
ATOM     47  C   UNL A   1      39.964  28.650  27.860  1.00  0.00     0.029 A 
ATOM     48  C   UNL A   1      40.823  28.452  29.028  1.00  0.00     0.049 A 
ATOM     49  H   UNL A   1      40.586  29.280  30.923  1.00  0.00     0.167 HD
ATOM     50  C   UNL A   1      39.954  31.189  34.847  1.00  0.00     0.037 A 
ATOM     51  C   UNL A   1      41.925  27.681  29.078  1.00  0.00     0.037 A 
ATOM     52  C   UNL A   1      41.110  30.348  35.006  1.00  0.00     0.049 A 
ATOM     53  C   UNL A   1      42.697  27.595  30.371  1.00  0.00     0.074 A 
ATOM     54  C   UNL A   1      41.858  30.121  36.146  1.00  0.00     0.029 A 
ATOM     55  N   UNL A   1      41.682  29.596  33.990  1.00  0.00    -0.354 N 
ATOM     56  N   UNL A   1      42.441  28.159  31.527  1.00  0.00    -0.248 NA
ATOM     57  C   UNL A   1      43.910  26.765  30.367  1.00  0.00     0.031 C 
ATOM     58  C   UNL A   1      42.917  29.274  35.808  1.00  0.00     0.029 A 
ATOM     59  C   UNL A   1      42.789  28.920  34.474  1.00  0.00     0.049 A 
ATOM     60  H   UNL A   1      41.351  29.549  33.064  1.00  0.00     0.167 HD
ATOM     61  C   UNL A   1      43.437  27.727  32.394  1.00  0.00     0.074 A 
ATOM     62  C   UNL A   1      44.298  26.846  31.632  1.00  0.00     0.031 C 
ATOM     63  C   UNL A   1      43.622  28.032  33.702  1.00  0.00     0.037 A 
BRANCH  50  64
ATOM     64  C   UNL A   1      39.461  31.943  36.045  1.00  0.00     0.064 A 
ATOM     65  C   UNL A   1      38.418  31.426  36.830  1.00  0.00     0.173 A 
ATOM     66  C   UNL A   1      39.959  33.213  36.371  1.00  0.00     0.173 A 
ATOM     67  F   UNL A   1      37.906  30.216  36.561  1.00  0.00    -0.203 F 
ATOM     68  C   UNL A   1      37.875  32.164  37.878  1.00  0.00     0.198 A 
ATOM     69  C   UNL A   1      39.433  33.936  37.440  1.00  0.00     0.198 A 
ATOM     70  F   UNL A   1      40.968  33.745  35.664  1.00  0.00    -0.203 F 
ATOM     71  F   UNL A   1      36.852  31.666  38.587  1.00  0.00    -0.200 F 
ATOM     72  C   UNL A   1      38.384  33.418  38.183  1.00  0.00     0.200 A 
ATOM     73  F   UNL A   1      39.943  35.137  37.748  1.00  0.00    -0.200 F 
ATOM     74  F   UNL A   1      37.863  34.125  39.194  1.00  0.00    -0.200 F 
ENDBRANCH  50  64
BRANCH  51  75
ATOM     75  C   UNL A   1      42.360  26.930  27.872  1.00  0.00     0.064 A 
ATOM     76  C   UNL A   1      41.949  25.608  27.645  1.00  0.00     0.173 A 
ATOM     77  C   UNL A   1      43.205  27.521  26.921  1.00  0.00     0.173 A 
ATOM     78  F   UNL A   1      41.141  24.996  28.523  1.00  0.00    -0.203 F 
ATOM     79  C   UNL A   1      42.382  24.900  26.526  1.00  0.00     0.198 A 
ATOM     80  C   UNL A   1      43.612  26.821  25.786  1.00  0.00     0.198 A 
ATOM     81  F   UNL A   1      43.607  28.790  27.080  1.00  0.00    -0.203 F 
ATOM     82  F   UNL A   1      42.000  23.627  26.353  1.00  0.00    -0.200 F 
ATOM     83  C   UNL A   1      43.206  25.509  25.594  1.00  0.00     0.200 A 
ATOM     84  F   UNL A   1      44.387  27.424  24.874  1.00  0.00    -0.200 F 
ATOM     85  F   UNL A   1      43.608  24.834  24.508  1.00  0.00    -0.200 F 
ENDBRANCH  51  75
BRANCH  63  86
ATOM     86  C   UNL A   1      44.772  27.384  34.416  1.00  0.00     0.064 A 
ATOM     87  C   UNL A   1      44.600  26.143  35.050  1.00  0.00     0.173 A 
ATOM     88  C   UNL A   1      46.010  28.026  34.553  1.00  0.00     0.173 A 
ATOM     89  F   UNL A   1      43.431  25.493  34.961  1.00  0.00    -0.203 F 
ATOM     90  C   UNL A   1      45.620  25.580  35.812  1.00  0.00     0.198 A 
ATOM     91  C   UNL A   1      47.041  27.443  35.288  1.00  0.00     0.198 A 
ATOM     92  F   UNL A   1      46.227  29.208  33.958  1.00  0.00    -0.203 F 
ATOM     93  F   UNL A   1      45.417  24.416  36.445  1.00  0.00    -0.200 F 
ATOM     94  C   UNL A   1      46.840  26.227  35.926  1.00  0.00     0.200 A 
ATOM     95  F   UNL A   1      48.227  28.058  35.377  1.00  0.00    -0.200 F 
ATOM     96  F   UNL A   1      47.825  25.681  36.652  1.00  0.00    -0.200 F 
ENDBRANCH  63  86
ENDBRANCH  37  38
ENDBRANCH  30  32
ENDBRANCH  29  30
ENDBRANCH  28  29
ENDBRANCH  27  28
ENDBRANCH  26  27
ENDBRANCH  25  26
ENDBRANCH  24  25
ENDBRANCH   1  24
TORSDOF 22
ENDMDL
MODEL 3
REMARK VINA RESULT:      -9.9      6.150     11.670
REMARK SMILES C[C@@H]1CCC[C@]1(Sc1ccc(F)cc1)C(=O)OCCOCCOCCOCCOC(=O)c1ccc(-c2c3nc(c(-c4c(F)c(F)c(F)c(F)c4F)c4ccc([nH]4)c(-c4c(F)c(F)c(F)c(F)c4F)c4nc(c(-c5c(F)c(F)c(F)c(F)c5F)c5ccc2[nH]5)C=C4)C=C3)cc1
REMARK SMILES IDX 23 1 22 2 21 3 20 4 19 5 18 6 17 7 15 8 16 9 6 10 1 11 2 12
REMARK SMILES IDX 3 13 4 14 5 15 7 16 8 17 9 18 14 19 10 20 13 21 11 22 12 23
REMARK SMILES IDX 24 24 25 25 26 26 27 27 28 28 29 29 30 30 31 31 32 32 33 33
REMARK SMILES IDX 94 34 34 35 93 36 35 37 36 38 37 39 87 40 38 41 92 42 86 43
REMARK SMILES IDX 88 44 39 45 91 46 85 47 84 48 40 50 72 51 52 52 71 53 53 54
REMARK SMILES IDX 56 55 70 56 89 57 54 58 55 59 69 61 90 62 57 63 41 64 42 65
REMARK SMILES IDX 50 66 43 67 44 68 48 69 51 70 45 71 46 72 49 73 47 74 73 75
REMARK SMILES IDX 74 76 82 77 75 78 76 79 80 80 83 81 77 82 78 83 81 84 79 85
REMARK SMILES IDX 58 86 59 87 67 88 60 89 61 90 65 91 68 92 62 93 63 94 66 95
REMARK SMILES IDX 64 96
REMARK H PARENT 88 49 56 60
REMARK Flexibility Score: inf
ROOT
ATOM      1  O   UNL A   1      37.004  21.698  26.129  1.00  0.00    -0.377 OA
ENDROOT
BRANCH   1   2
ATOM      2  C   UNL A   1      35.788  22.309  25.735  1.00  0.00     0.188 C 
BRANCH   2   3
ATOM      3  C   UNL A   1      34.614  21.923  26.633  1.00  0.00     0.188 C 
BRANCH   3   4
ATOM      4  O   UNL A   1      33.373  21.644  26.004  1.00  0.00    -0.376 OA
BRANCH   4   5
ATOM      5  C   UNL A   1      32.368  22.652  25.970  1.00  0.00     0.202 C 
BRANCH   5   6
ATOM      6  C   UNL A   1      31.411  22.784  24.765  1.00  0.00     0.261 C 
BRANCH   6   7
ATOM      7  O   UNL A   1      31.382  24.058  24.060  1.00  0.00    -0.462 OA
BRANCH   7   8
ATOM      8  C   UNL A   1      31.052  25.118  24.835  1.00  0.00     0.322 C 
ATOM      9  O   UNL A   1      30.155  25.053  25.683  1.00  0.00    -0.251 OA
BRANCH   8  10
ATOM     10  C   UNL A   1      31.750  26.486  24.556  1.00  0.00     0.120 C 
ATOM     11  C   UNL A   1      34.151  26.067  25.626  1.00  0.00     0.010 C 
ATOM     12  C   UNL A   1      33.257  26.851  24.684  1.00  0.00     0.014 C 
ATOM     13  C   UNL A   1      33.281  28.320  25.168  1.00  0.00     0.005 C 
ATOM     14  C   UNL A   1      32.026  28.527  25.982  1.00  0.00     0.002 C 
ATOM     15  C   UNL A   1      31.052  27.446  25.558  1.00  0.00     0.030 C 
BRANCH  10  16
ATOM     16  S   UNL A   1      31.215  26.714  22.725  1.00  0.00    -0.107 SA
BRANCH  16  17
ATOM     17  C   UNL A   1      30.024  28.020  22.747  1.00  0.00     0.009 A 
ATOM     18  C   UNL A   1      28.699  27.767  23.129  1.00  0.00     0.018 A 
ATOM     19  C   UNL A   1      30.426  29.329  22.474  1.00  0.00     0.018 A 
ATOM     20  C   UNL A   1      27.766  28.803  23.149  1.00  0.00     0.040 A 
ATOM     21  C   UNL A   1      29.500  30.371  22.526  1.00  0.00     0.040 A 
ATOM     22  C   UNL A   1      28.175  30.095  22.847  1.00  0.00     0.123 A 
ATOM     23  F   UNL A   1      27.282  31.091  22.872  1.00  0.00    -0.207 F 
ENDBRANCH  16  17
ENDBRANCH  10  16
ENDBRANCH   8  10
ENDBRANCH   7   8
ENDBRANCH   6   7
ENDBRANCH   5   6
ENDBRANCH   4   5
ENDBRANCH   3   4
ENDBRANCH   2   3
ENDBRANCH   1   2
BRANCH   1  24
ATOM     24  C   UNL A   1      38.206  21.890  25.388  1.00  0.00     0.188 C 
BRANCH  24  25
ATOM     25  C   UNL A   1      39.523  21.679  26.123  1.00  0.00     0.188 C 
BRANCH  25  26
ATOM     26  O   UNL A   1      40.087  20.367  26.061  1.00  0.00    -0.376 OA
BRANCH  26  27
ATOM     27  C   UNL A   1      41.152  20.037  26.951  1.00  0.00     0.202 C 
BRANCH  27  28
ATOM     28  C   UNL A   1      42.247  19.154  26.352  1.00  0.00     0.261 C 
BRANCH  28  29
ATOM     29  O   UNL A   1      42.621  19.577  25.031  1.00  0.00    -0.460 OA
BRANCH  29  30
ATOM     30  C   UNL A   1      43.946  19.568  24.782  1.00  0.00     0.338 C 
ATOM     31  O   UNL A   1      44.624  18.637  24.359  1.00  0.00    -0.246 OA
BRANCH  30  32
ATOM     32  C   UNL A   1      44.490  20.921  24.963  1.00  0.00     0.060 A 
ATOM     33  C   UNL A   1      45.234  21.194  26.119  1.00  0.00     0.016 A 
ATOM     34  C   UNL A   1      44.184  21.936  24.054  1.00  0.00     0.016 A 
ATOM     35  C   UNL A   1      45.626  22.498  26.399  1.00  0.00     0.010 A 
ATOM     36  C   UNL A   1      44.565  23.245  24.342  1.00  0.00     0.010 A 
ATOM     37  C   UNL A   1      45.246  23.533  25.538  1.00  0.00    -0.014 A 
BRANCH  37  38
ATOM     38  C   UNL A   1      45.379  24.936  25.984  1.00  0.00     0.031 A 
ATOM     39  C   UNL A   1      46.721  25.599  25.859  1.00  0.00     0.074 A 
ATOM     40  C   UNL A   1      44.318  25.608  26.461  1.00  0.00     0.049 A 
ATOM     41  N   UNL A   1      47.099  26.788  26.248  1.00  0.00    -0.248 NA
ATOM     42  C   UNL A   1      47.783  24.814  25.205  1.00  0.00     0.031 C 
ATOM     43  C   UNL A   1      42.961  25.075  26.565  1.00  0.00     0.029 A 
ATOM     44  N   UNL A   1      44.221  26.884  26.952  1.00  0.00    -0.354 N 
ATOM     45  C   UNL A   1      48.438  26.890  25.893  1.00  0.00     0.074 A 
ATOM     46  C   UNL A   1      48.820  25.635  25.287  1.00  0.00     0.031 C 
ATOM     47  C   UNL A   1      42.165  26.018  27.095  1.00  0.00     0.029 A 
ATOM     48  C   UNL A   1      42.965  27.203  27.403  1.00  0.00     0.049 A 
ATOM     49  H   UNL A   1      44.979  27.512  26.977  1.00  0.00     0.167 HD
ATOM     50  C   UNL A   1      49.267  27.947  26.051  1.00  0.00     0.037 A 
ATOM     51  C   UNL A   1      42.525  28.317  28.019  1.00  0.00     0.037 A 
ATOM     52  C   UNL A   1      48.871  29.193  26.651  1.00  0.00     0.049 A 
ATOM     53  C   UNL A   1      43.494  29.448  28.261  1.00  0.00     0.074 A 
ATOM     54  C   UNL A   1      49.633  30.327  26.861  1.00  0.00     0.029 A 
ATOM     55  N   UNL A   1      47.600  29.465  27.135  1.00  0.00    -0.354 N 
ATOM     56  N   UNL A   1      44.759  29.539  27.929  1.00  0.00    -0.248 NA
ATOM     57  C   UNL A   1      42.973  30.629  28.964  1.00  0.00     0.031 C 
ATOM     58  C   UNL A   1      48.839  31.267  27.522  1.00  0.00     0.029 A 
ATOM     59  C   UNL A   1      47.563  30.744  27.664  1.00  0.00     0.049 A 
ATOM     60  H   UNL A   1      46.838  28.842  27.107  1.00  0.00     0.167 HD
ATOM     61  C   UNL A   1      45.177  30.795  28.349  1.00  0.00     0.074 A 
ATOM     62  C   UNL A   1      44.026  31.435  28.954  1.00  0.00     0.031 C 
ATOM     63  C   UNL A   1      46.401  31.368  28.244  1.00  0.00     0.037 A 
BRANCH  50  64
ATOM     64  C   UNL A   1      50.685  27.810  25.581  1.00  0.00     0.064 A 
ATOM     65  C   UNL A   1      51.720  27.587  26.502  1.00  0.00     0.173 A 
ATOM     66  C   UNL A   1      51.032  27.981  24.232  1.00  0.00     0.173 A 
ATOM     67  F   UNL A   1      51.441  27.417  27.803  1.00  0.00    -0.203 F 
ATOM     68  C   UNL A   1      53.051  27.569  26.095  1.00  0.00     0.198 A 
ATOM     69  C   UNL A   1      52.363  27.932  23.824  1.00  0.00     0.198 A 
ATOM     70  F   UNL A   1      50.079  28.178  23.309  1.00  0.00    -0.203 F 
ATOM     71  F   UNL A   1      54.025  27.396  26.999  1.00  0.00    -0.200 F 
ATOM     72  C   UNL A   1      53.371  27.740  24.756  1.00  0.00     0.200 A 
ATOM     73  F   UNL A   1      52.669  28.072  22.527  1.00  0.00    -0.200 F 
ATOM     74  F   UNL A   1      54.652  27.718  24.366  1.00  0.00    -0.200 F 
ENDBRANCH  50  64
BRANCH  51  75
ATOM     75  C   UNL A   1      41.104  28.417  28.443  1.00  0.00     0.064 A 
ATOM     76  C   UNL A   1      40.122  28.947  27.591  1.00  0.00     0.173 A 
ATOM     77  C   UNL A   1      40.700  27.991  29.716  1.00  0.00     0.173 A 
ATOM     78  F   UNL A   1      40.455  29.370  26.363  1.00  0.00    -0.203 F 
ATOM     79  C   UNL A   1      38.797  29.064  28.004  1.00  0.00     0.198 A 
ATOM     80  C   UNL A   1      39.368  28.079  30.116  1.00  0.00     0.198 A 
ATOM     81  F   UNL A   1      41.596  27.456  30.558  1.00  0.00    -0.203 F 
ATOM     82  F   UNL A   1      37.888  29.605  27.182  1.00  0.00    -0.200 F 
ATOM     83  C   UNL A   1      38.419  28.623  29.263  1.00  0.00     0.200 A 
ATOM     84  F   UNL A   1      39.003  27.627  31.323  1.00  0.00    -0.200 F 
ATOM     85  F   UNL A   1      37.141  28.719  29.653  1.00  0.00    -0.200 F 
ENDBRANCH  51  75
BRANCH  63  86
ATOM     86  C   UNL A   1      46.564  32.771  28.753  1.00  0.00     0.064 A 
ATOM     87  C   UNL A   1      46.375  33.861  27.889  1.00  0.00     0.173 A 
ATOM     88  C   UNL A   1      46.994  33.035  30.060  1.00  0.00     0.173 A 
ATOM     89  F   UNL A   1      45.975  33.662  26.624  1.00  0.00    -0.203 F 
ATOM     90  C   UNL A   1      46.631  35.163  28.311  1.00  0.00     0.198 A 
ATOM     91  C   UNL A   1      47.216  34.342  30.489  1.00  0.00     0.198 A 
ATOM     92  F   UNL A   1      47.180  32.028  30.926  1.00  0.00    -0.203 F 
ATOM     93  F   UNL A   1      46.487  36.184  27.455  1.00  0.00    -0.200 F 
ATOM     94  C   UNL A   1      47.047  35.402  29.611  1.00  0.00     0.200 A 
ATOM     95  F   UNL A   1      47.595  34.573  31.754  1.00  0.00    -0.200 F 
ATOM     96  F   UNL A   1      47.284  36.656  30.020  1.00  0.00    -0.200 F 
ENDBRANCH  63  86
ENDBRANCH  37  38
ENDBRANCH  30  32
ENDBRANCH  29  30
ENDBRANCH  28  29
ENDBRANCH  27  28
ENDBRANCH  26  27
ENDBRANCH  25  26
ENDBRANCH  24  25
ENDBRANCH   1  24
TORSDOF 22
ENDMDL
