MODEL 1
REMARK VINA RESULT:     -10.4      0.000      0.000
REMARK SMILES Cc1ccc(-c2c[nH]c(=O)cc2C(=O)OCCOCCOCCOCCOC(=O)c2ccc(-c3c4nc(c(-c5c(F)c(F)c(F)c(F)c5F)c5ccc([nH]5)c(-c5c(F)c(F)c(F)c(F)c5F)c5nc(c(-c6c(F)c(F)c(F)c(F)c6F)c6ccc3[nH]6)C=C5)C=C4)cc2)cc1Cl
REMARK SMILES IDX 22 1 21 2 20 3 19 4 18 5 17 6 16 7 15 8 13 9 14 10 12 11
REMARK SMILES IDX 6 12 7 13 8 14 11 15 9 16 10 18 5 19 1 20 2 21 3 22 94 23
REMARK SMILES IDX 4 24 93 25 95 26 23 27 24 28 25 29 26 30 27 31 28 32 29 33
REMARK SMILES IDX 30 34 31 35 92 36 32 37 91 38 33 39 34 40 35 41 85 42 36 43
REMARK SMILES IDX 90 44 84 45 86 46 37 47 89 48 83 49 82 50 38 52 70 53 50 54
REMARK SMILES IDX 69 55 51 56 54 57 68 58 87 59 52 60 53 61 67 63 88 64 55 65
REMARK SMILES IDX 39 66 40 67 48 68 41 69 42 70 46 71 49 72 43 73 44 74 47 75
REMARK SMILES IDX 45 76 71 77 72 78 80 79 73 80 74 81 78 82 81 83 75 84 76 85
REMARK SMILES IDX 79 86 77 87 56 88 57 89 65 90 58 91 59 92 63 93 66 94 60 95
REMARK SMILES IDX 61 96 64 97 62 98
REMARK H PARENT 8 17 86 51 54 62
REMARK Flexibility Score: inf
ROOT
ATOM      1  C   UNL A   1      42.878  19.127  25.831  1.00  0.00     0.188 C 
ENDROOT
BRANCH   1   2
ATOM      2  O   UNL A   1      41.584  19.668  26.062  1.00  0.00    -0.377 OA
BRANCH   2   3
ATOM      3  C   UNL A   1      41.438  21.074  26.199  1.00  0.00     0.188 C 
BRANCH   3   4
ATOM      4  C   UNL A   1      40.212  21.666  26.934  1.00  0.00     0.188 C 
BRANCH   4   5
ATOM      5  O   UNL A   1      39.088  21.891  26.098  1.00  0.00    -0.376 OA
BRANCH   5   6
ATOM      6  C   UNL A   1      38.464  23.155  26.213  1.00  0.00     0.202 C 
BRANCH   6   7
ATOM      7  C   UNL A   1      37.002  23.201  25.756  1.00  0.00     0.261 C 
BRANCH   7   8
ATOM      8  O   UNL A   1      36.656  22.267  24.720  1.00  0.00    -0.460 OA
BRANCH   8   9
ATOM      9  C   UNL A   1      35.621  22.569  23.893  1.00  0.00     0.339 C 
ATOM     10  O   UNL A   1      35.721  22.994  22.755  1.00  0.00    -0.246 OA
BRANCH   9  11
ATOM     11  C   UNL A   1      34.341  22.203  24.568  1.00  0.00     0.074 A 
ATOM     12  C   UNL A   1      33.399  23.207  25.088  1.00  0.00     0.013 A 
ATOM     13  C   UNL A   1      32.279  22.767  25.695  1.00  0.00     0.095 A 
ATOM     14  N   UNL A   1      32.000  21.427  25.781  1.00  0.00    -0.328 N 
ATOM     15  C   UNL A   1      34.045  20.891  24.618  1.00  0.00     0.087 A 
ATOM     16  C   UNL A   1      32.786  20.441  25.247  1.00  0.00     0.248 A 
ATOM     17  H   UNL A   1      31.181  21.157  26.257  1.00  0.00     0.169 HD
ATOM     18  O   UNL A   1      32.482  19.256  25.283  1.00  0.00    -0.270 OA
BRANCH  12  19
ATOM     19  C   UNL A   1      33.498  24.666  24.884  1.00  0.00    -0.015 A 
ATOM     20  C   UNL A   1      33.476  28.975  24.467  1.00  0.00     0.046 C 
ATOM     21  C   UNL A   1      33.518  27.477  24.581  1.00  0.00    -0.032 A 
ATOM     22  C   UNL A   1      33.755  26.894  25.833  1.00  0.00     0.005 A 
ATOM     23  C   UNL A   1      33.347  26.631  23.473  1.00  0.00     0.044 A 
ATOM     24  C   UNL A   1      33.767  25.505  25.976  1.00  0.00     0.009 A 
ATOM     25  C   UNL A   1      33.319  25.238  23.624  1.00  0.00     0.029 A 
ATOM     26  Cl  UNL A   1      33.167  27.269  21.876  1.00  0.00    -0.084 Cl
ENDBRANCH  12  19
ENDBRANCH   9  11
ENDBRANCH   8   9
ENDBRANCH   7   8
ENDBRANCH   6   7
ENDBRANCH   5   6
ENDBRANCH   4   5
ENDBRANCH   3   4
ENDBRANCH   2   3
ENDBRANCH   1   2
BRANCH   1  27
ATOM     27  C   UNL A   1      43.807  19.822  24.813  1.00  0.00     0.188 C 
BRANCH  27  28
ATOM     28  O   UNL A   1      44.979  20.383  25.386  1.00  0.00    -0.376 OA
BRANCH  28  29
ATOM     29  C   UNL A   1      44.893  21.700  25.904  1.00  0.00     0.202 C 
BRANCH  29  30
ATOM     30  C   UNL A   1      45.787  22.764  25.253  1.00  0.00     0.261 C 
BRANCH  30  31
ATOM     31  O   UNL A   1      45.179  24.042  25.013  1.00  0.00    -0.460 OA
BRANCH  31  32
ATOM     32  C   UNL A   1      43.836  24.131  25.092  1.00  0.00     0.338 C 
ATOM     33  O   UNL A   1      43.010  23.522  24.434  1.00  0.00    -0.246 OA
BRANCH  32  34
ATOM     34  C   UNL A   1      43.531  24.968  26.270  1.00  0.00     0.060 A 
ATOM     35  C   UNL A   1      42.712  24.457  27.288  1.00  0.00     0.016 A 
ATOM     36  C   UNL A   1      44.104  26.235  26.388  1.00  0.00     0.016 A 
ATOM     37  C   UNL A   1      42.448  25.226  28.422  1.00  0.00     0.010 A 
ATOM     38  C   UNL A   1      43.815  27.015  27.507  1.00  0.00     0.010 A 
ATOM     39  C   UNL A   1      42.962  26.526  28.513  1.00  0.00    -0.014 A 
BRANCH  39  40
ATOM     40  C   UNL A   1      42.427  27.469  29.522  1.00  0.00     0.031 A 
ATOM     41  C   UNL A   1      43.156  27.571  30.832  1.00  0.00     0.074 A 
ATOM     42  C   UNL A   1      41.324  28.201  29.296  1.00  0.00     0.049 A 
ATOM     43  N   UNL A   1      42.839  28.228  31.917  1.00  0.00    -0.248 NA
ATOM     44  C   UNL A   1      44.419  26.818  30.930  1.00  0.00     0.031 C 
ATOM     45  C   UNL A   1      40.564  28.228  28.050  1.00  0.00     0.029 A 
ATOM     46  N   UNL A   1      40.644  29.056  30.127  1.00  0.00    -0.354 N 
ATOM     47  C   UNL A   1      43.854  27.960  32.825  1.00  0.00     0.074 A 
ATOM     48  C   UNL A   1      44.779  27.056  32.181  1.00  0.00     0.031 C 
ATOM     49  C   UNL A   1      39.508  29.047  28.203  1.00  0.00     0.029 A 
ATOM     50  C   UNL A   1      39.498  29.567  29.570  1.00  0.00     0.049 A 
ATOM     51  H   UNL A   1      40.949  29.282  31.036  1.00  0.00     0.167 HD
ATOM     52  C   UNL A   1      44.002  28.430  34.085  1.00  0.00     0.037 A 
ATOM     53  C   UNL A   1      38.540  30.339  30.118  1.00  0.00     0.037 A 
ATOM     54  C   UNL A   1      43.069  29.316  34.727  1.00  0.00     0.049 A 
ATOM     55  C   UNL A   1      38.675  30.770  31.559  1.00  0.00     0.074 A 
ATOM     56  C   UNL A   1      43.123  29.853  35.999  1.00  0.00     0.029 A 
ATOM     57  N   UNL A   1      41.901  29.786  34.142  1.00  0.00    -0.354 N 
ATOM     58  N   UNL A   1      39.641  30.529  32.413  1.00  0.00    -0.248 NA
ATOM     59  C   UNL A   1      37.579  31.580  32.115  1.00  0.00     0.031 C 
ATOM     60  C   UNL A   1      41.961  30.601  36.206  1.00  0.00     0.029 A 
ATOM     61  C   UNL A   1      41.213  30.586  35.038  1.00  0.00     0.049 A 
ATOM     62  H   UNL A   1      41.607  29.580  33.225  1.00  0.00     0.167 HD
ATOM     63  C   UNL A   1      39.294  31.188  33.586  1.00  0.00     0.074 A 
ATOM     64  C   UNL A   1      38.027  31.843  33.335  1.00  0.00     0.031 C 
ATOM     65  C   UNL A   1      39.964  31.249  34.764  1.00  0.00     0.037 A 
BRANCH  52  66
ATOM     66  C   UNL A   1      45.200  27.962  34.860  1.00  0.00     0.064 A 
ATOM     67  C   UNL A   1      46.428  28.639  34.803  1.00  0.00     0.173 A 
ATOM     68  C   UNL A   1      45.116  26.824  35.676  1.00  0.00     0.173 A 
ATOM     69  F   UNL A   1      46.567  29.722  34.021  1.00  0.00    -0.203 F 
ATOM     70  C   UNL A   1      47.535  28.176  35.508  1.00  0.00     0.198 A 
ATOM     71  C   UNL A   1      46.217  26.384  36.407  1.00  0.00     0.198 A 
ATOM     72  F   UNL A   1      43.967  26.139  35.766  1.00  0.00    -0.203 F 
ATOM     73  F   UNL A   1      48.713  28.805  35.391  1.00  0.00    -0.200 F 
ATOM     74  C   UNL A   1      47.426  27.054  36.315  1.00  0.00     0.200 A 
ATOM     75  F   UNL A   1      46.105  25.307  37.196  1.00  0.00    -0.200 F 
ATOM     76  F   UNL A   1      48.491  26.612  36.997  1.00  0.00    -0.200 F 
ENDBRANCH  52  66
BRANCH  53  77
ATOM     77  C   UNL A   1      37.359  30.753  29.314  1.00  0.00     0.064 A 
ATOM     78  C   UNL A   1      36.331  29.845  29.023  1.00  0.00     0.173 A 
ATOM     79  C   UNL A   1      37.245  32.052  28.797  1.00  0.00     0.173 A 
ATOM     80  F   UNL A   1      36.406  28.583  29.469  1.00  0.00    -0.203 F 
ATOM     81  C   UNL A   1      35.246  30.214  28.230  1.00  0.00     0.198 A 
ATOM     82  C   UNL A   1      36.144  32.429  28.030  1.00  0.00     0.198 A 
ATOM     83  F   UNL A   1      38.202  32.959  29.040  1.00  0.00    -0.203 F 
ATOM     84  F   UNL A   1      34.304  29.311  27.924  1.00  0.00    -0.200 F 
ATOM     85  C   UNL A   1      35.150  31.508  27.739  1.00  0.00     0.200 A 
ATOM     86  F   UNL A   1      36.050  33.683  27.566  1.00  0.00    -0.200 F 
ATOM     87  F   UNL A   1      34.106  31.861  26.978  1.00  0.00    -0.200 F 
ENDBRANCH  53  77
BRANCH  65  88
ATOM     88  C   UNL A   1      39.381  32.100  35.856  1.00  0.00     0.064 A 
ATOM     89  C   UNL A   1      38.460  31.592  36.783  1.00  0.00     0.173 A 
ATOM     90  C   UNL A   1      39.805  33.429  36.013  1.00  0.00     0.173 A 
ATOM     91  F   UNL A   1      38.014  30.332  36.670  1.00  0.00    -0.203 F 
ATOM     92  C   UNL A   1      37.971  32.389  37.815  1.00  0.00     0.198 A 
ATOM     93  C   UNL A   1      39.339  34.212  37.066  1.00  0.00     0.198 A 
ATOM     94  F   UNL A   1      40.691  33.963  35.159  1.00  0.00    -0.203 F 
ATOM     95  F   UNL A   1      37.059  31.895  38.665  1.00  0.00    -0.200 F 
ATOM     96  C   UNL A   1      38.418  33.694  37.962  1.00  0.00     0.200 A 
ATOM     97  F   UNL A   1      39.787  35.467  37.216  1.00  0.00    -0.200 F 
ATOM     98  F   UNL A   1      37.957  34.453  38.966  1.00  0.00    -0.200 F 
ENDBRANCH  65  88
ENDBRANCH  39  40
ENDBRANCH  32  34
ENDBRANCH  31  32
ENDBRANCH  30  31
ENDBRANCH  29  30
ENDBRANCH  28  29
ENDBRANCH  27  28
ENDBRANCH   1  27
TORSDOF 21
ENDMDL
MODEL 2
REMARK VINA RESULT:     -10.4      1.712      7.532
REMARK SMILES Cc1ccc(-c2c[nH]c(=O)cc2C(=O)OCCOCCOCCOCCOC(=O)c2ccc(-c3c4nc(c(-c5c(F)c(F)c(F)c(F)c5F)c5ccc([nH]5)c(-c5c(F)c(F)c(F)c(F)c5F)c5nc(c(-c6c(F)c(F)c(F)c(F)c6F)c6ccc3[nH]6)C=C5)C=C4)cc2)cc1Cl
REMARK SMILES IDX 22 1 21 2 20 3 19 4 18 5 17 6 16 7 15 8 13 9 14 10 12 11
REMARK SMILES IDX 6 12 7 13 8 14 11 15 9 16 10 18 5 19 1 20 2 21 3 22 94 23
REMARK SMILES IDX 4 24 93 25 95 26 23 27 24 28 25 29 26 30 27 31 28 32 29 33
REMARK SMILES IDX 30 34 31 35 92 36 32 37 91 38 33 39 34 40 35 41 85 42 36 43
REMARK SMILES IDX 90 44 84 45 86 46 37 47 89 48 83 49 82 50 38 52 70 53 50 54
REMARK SMILES IDX 69 55 51 56 54 57 68 58 87 59 52 60 53 61 67 63 88 64 55 65
REMARK SMILES IDX 39 66 40 67 48 68 41 69 42 70 46 71 49 72 43 73 44 74 47 75
REMARK SMILES IDX 45 76 71 77 72 78 80 79 73 80 74 81 78 82 81 83 75 84 76 85
REMARK SMILES IDX 79 86 77 87 56 88 57 89 65 90 58 91 59 92 63 93 66 94 60 95
REMARK SMILES IDX 61 96 64 97 62 98
REMARK H PARENT 8 17 86 51 54 62
REMARK Flexibility Score: inf
ROOT
ATOM      1  C   UNL A   1      42.185  21.238  26.120  1.00  0.00     0.188 C 
ENDROOT
BRANCH   1   2
ATOM      2  O   UNL A   1      40.766  21.170  26.125  1.00  0.00    -0.377 OA
BRANCH   2   3
ATOM      3  C   UNL A   1      40.029  22.156  26.834  1.00  0.00     0.188 C 
BRANCH   3   4
ATOM      4  C   UNL A   1      38.758  22.781  26.214  1.00  0.00     0.188 C 
BRANCH   4   5
ATOM      5  O   UNL A   1      38.139  21.973  25.225  1.00  0.00    -0.376 OA
BRANCH   5   6
ATOM      6  C   UNL A   1      36.744  21.779  25.357  1.00  0.00     0.202 C 
BRANCH   6   7
ATOM      7  C   UNL A   1      35.885  22.531  24.335  1.00  0.00     0.261 C 
BRANCH   7   8
ATOM      8  O   UNL A   1      35.289  23.748  24.814  1.00  0.00    -0.460 OA
BRANCH   8   9
ATOM      9  C   UNL A   1      34.315  24.332  24.069  1.00  0.00     0.339 C 
ATOM     10  O   UNL A   1      34.413  24.654  22.898  1.00  0.00    -0.246 OA
BRANCH   9  11
ATOM     11  C   UNL A   1      33.071  24.427  24.888  1.00  0.00     0.074 A 
ATOM     12  C   UNL A   1      32.074  23.346  24.951  1.00  0.00     0.013 A 
ATOM     13  C   UNL A   1      30.978  23.542  25.709  1.00  0.00     0.095 A 
ATOM     14  N   UNL A   1      30.819  24.691  26.442  1.00  0.00    -0.328 N 
ATOM     15  C   UNL A   1      32.932  25.536  25.638  1.00  0.00     0.087 A 
ATOM     16  C   UNL A   1      31.742  25.701  26.499  1.00  0.00     0.248 A 
ATOM     17  H   UNL A   1      29.988  24.796  26.960  1.00  0.00     0.169 HD
ATOM     18  O   UNL A   1      31.604  26.688  27.210  1.00  0.00    -0.270 OA
BRANCH  12  19
ATOM     19  C   UNL A   1      32.228  21.999  24.365  1.00  0.00    -0.015 A 
ATOM     20  C   UNL A   1      32.326  18.060  22.573  1.00  0.00     0.046 C 
ATOM     21  C   UNL A   1      32.333  19.421  23.212  1.00  0.00    -0.032 A 
ATOM     22  C   UNL A   1      32.156  20.554  22.408  1.00  0.00     0.005 A 
ATOM     23  C   UNL A   1      32.534  19.605  24.590  1.00  0.00     0.044 A 
ATOM     24  C   UNL A   1      32.125  21.829  22.977  1.00  0.00     0.009 A 
ATOM     25  C   UNL A   1      32.464  20.881  25.165  1.00  0.00     0.029 A 
ATOM     26  Cl  UNL A   1      32.878  18.271  25.634  1.00  0.00    -0.084 Cl
ENDBRANCH  12  19
ENDBRANCH   9  11
ENDBRANCH   8   9
ENDBRANCH   7   8
ENDBRANCH   6   7
ENDBRANCH   5   6
ENDBRANCH   4   5
ENDBRANCH   3   4
ENDBRANCH   2   3
ENDBRANCH   1   2
BRANCH   1  27
ATOM     27  C   UNL A   1      42.869  22.549  25.673  1.00  0.00     0.188 C 
BRANCH  27  28
ATOM     28  O   UNL A   1      43.136  22.617  24.280  1.00  0.00    -0.376 OA
BRANCH  28  29
ATOM     29  C   UNL A   1      44.494  22.631  23.871  1.00  0.00     0.202 C 
BRANCH  29  30
ATOM     30  C   UNL A   1      45.421  23.634  24.571  1.00  0.00     0.261 C 
BRANCH  30  31
ATOM     31  O   UNL A   1      44.853  24.917  24.874  1.00  0.00    -0.460 OA
BRANCH  31  32
ATOM     32  C   UNL A   1      45.619  25.810  25.535  1.00  0.00     0.338 C 
ATOM     33  O   UNL A   1      46.741  26.187  25.244  1.00  0.00    -0.246 OA
BRANCH  32  34
ATOM     34  C   UNL A   1      44.770  26.407  26.585  1.00  0.00     0.060 A 
ATOM     35  C   UNL A   1      44.698  27.803  26.706  1.00  0.00     0.016 A 
ATOM     36  C   UNL A   1      44.003  25.583  27.410  1.00  0.00     0.016 A 
ATOM     37  C   UNL A   1      43.870  28.377  27.672  1.00  0.00     0.010 A 
ATOM     38  C   UNL A   1      43.200  26.156  28.395  1.00  0.00     0.010 A 
ATOM     39  C   UNL A   1      43.154  27.554  28.549  1.00  0.00    -0.014 A 
BRANCH  39  40
ATOM     40  C   UNL A   1      42.551  28.121  29.777  1.00  0.00     0.031 A 
ATOM     41  C   UNL A   1      41.200  28.769  29.652  1.00  0.00     0.074 A 
ATOM     42  C   UNL A   1      43.180  28.080  30.962  1.00  0.00     0.049 A 
ATOM     43  N   UNL A   1      40.507  29.435  30.538  1.00  0.00    -0.248 NA
ATOM     44  C   UNL A   1      40.547  28.653  28.337  1.00  0.00     0.031 C 
ATOM     45  C   UNL A   1      44.464  27.434  31.219  1.00  0.00     0.029 A 
ATOM     46  N   UNL A   1      42.820  28.613  32.175  1.00  0.00    -0.354 N 
ATOM     47  C   UNL A   1      39.344  29.823  29.885  1.00  0.00     0.074 A 
ATOM     48  C   UNL A   1      39.438  29.350  28.523  1.00  0.00     0.031 C 
ATOM     49  C   UNL A   1      44.795  27.624  32.509  1.00  0.00     0.029 A 
ATOM     50  C   UNL A   1      43.766  28.439  33.155  1.00  0.00     0.049 A 
ATOM     51  H   UNL A   1      41.964  29.077  32.328  1.00  0.00     0.167 HD
ATOM     52  C   UNL A   1      38.290  30.511  30.382  1.00  0.00     0.037 A 
ATOM     53  C   UNL A   1      43.804  28.913  34.415  1.00  0.00     0.037 A 
ATOM     54  C   UNL A   1      38.210  30.993  31.734  1.00  0.00     0.049 A 
ATOM     55  C   UNL A   1      42.662  29.765  34.917  1.00  0.00     0.074 A 
ATOM     56  C   UNL A   1      37.188  31.699  32.340  1.00  0.00     0.029 A 
ATOM     57  N   UNL A   1      39.204  30.825  32.688  1.00  0.00    -0.354 N 
ATOM     58  N   UNL A   1      41.557  30.119  34.306  1.00  0.00    -0.248 NA
ATOM     59  C   UNL A   1      42.776  30.287  36.288  1.00  0.00     0.031 C 
ATOM     60  C   UNL A   1      37.587  32.010  33.643  1.00  0.00     0.029 A 
ATOM     61  C   UNL A   1      38.830  31.439  33.871  1.00  0.00     0.049 A 
ATOM     62  H   UNL A   1      40.049  30.342  32.544  1.00  0.00     0.167 HD
ATOM     63  C   UNL A   1      40.829  30.865  35.224  1.00  0.00     0.074 A 
ATOM     64  C   UNL A   1      41.616  30.911  36.438  1.00  0.00     0.031 C 
ATOM     65  C   UNL A   1      39.616  31.455  35.079  1.00  0.00     0.037 A 
BRANCH  52  66
ATOM     66  C   UNL A   1      37.158  30.811  29.442  1.00  0.00     0.064 A 
ATOM     67  C   UNL A   1      36.990  32.081  28.870  1.00  0.00     0.173 A 
ATOM     68  C   UNL A   1      36.234  29.811  29.102  1.00  0.00     0.173 A 
ATOM     69  F   UNL A   1      37.835  33.078  29.177  1.00  0.00    -0.203 F 
ATOM     70  C   UNL A   1      35.921  32.348  28.019  1.00  0.00     0.198 A 
ATOM     71  C   UNL A   1      35.186  30.073  28.224  1.00  0.00     0.198 A 
ATOM     72  F   UNL A   1      36.348  28.580  29.621  1.00  0.00    -0.203 F 
ATOM     73  F   UNL A   1      35.747  33.585  27.532  1.00  0.00    -0.200 F 
ATOM     74  C   UNL A   1      35.024  31.342  27.692  1.00  0.00     0.200 A 
ATOM     75  F   UNL A   1      34.328  29.096  27.899  1.00  0.00    -0.200 F 
ATOM     76  F   UNL A   1      33.998  31.599  26.869  1.00  0.00    -0.200 F 
ENDBRANCH  52  66
BRANCH  53  77
ATOM     77  C   UNL A   1      44.962  28.609  35.296  1.00  0.00     0.064 A 
ATOM     78  C   UNL A   1      44.958  27.483  36.130  1.00  0.00     0.173 A 
ATOM     79  C   UNL A   1      46.085  29.450  35.345  1.00  0.00     0.173 A 
ATOM     80  F   UNL A   1      43.897  26.662  36.143  1.00  0.00    -0.203 F 
ATOM     81  C   UNL A   1      46.021  27.220  36.993  1.00  0.00     0.198 A 
ATOM     82  C   UNL A   1      47.161  29.169  36.185  1.00  0.00     0.198 A 
ATOM     83  F   UNL A   1      46.139  30.545  34.573  1.00  0.00    -0.203 F 
ATOM     84  F   UNL A   1      45.967  26.165  37.817  1.00  0.00    -0.200 F 
ATOM     85  C   UNL A   1      47.124  28.060  37.016  1.00  0.00     0.200 A 
ATOM     86  F   UNL A   1      48.229  29.978  36.197  1.00  0.00    -0.200 F 
ATOM     87  F   UNL A   1      48.145  27.805  37.844  1.00  0.00    -0.200 F 
ENDBRANCH  53  77
BRANCH  65  88
ATOM     88  C   UNL A   1      39.030  32.150  36.274  1.00  0.00     0.064 A 
ATOM     89  C   UNL A   1      38.166  31.496  37.165  1.00  0.00     0.173 A 
ATOM     90  C   UNL A   1      39.393  33.475  36.566  1.00  0.00     0.173 A 
ATOM     91  F   UNL A   1      37.779  30.234  36.925  1.00  0.00    -0.203 F 
ATOM     92  C   UNL A   1      37.673  32.149  38.292  1.00  0.00     0.198 A 
ATOM     93  C   UNL A   1      38.925  34.112  37.711  1.00  0.00     0.198 A 
ATOM     94  F   UNL A   1      40.223  34.144  35.752  1.00  0.00    -0.203 F 
ATOM     95  F   UNL A   1      36.816  31.517  39.107  1.00  0.00    -0.200 F 
ATOM     96  C   UNL A   1      38.060  33.451  38.570  1.00  0.00     0.200 A 
ATOM     97  F   UNL A   1      39.315  35.365  37.987  1.00  0.00    -0.200 F 
ATOM     98  F   UNL A   1      37.597  34.071  39.665  1.00  0.00    -0.200 F 
ENDBRANCH  65  88
ENDBRANCH  39  40
ENDBRANCH  32  34
ENDBRANCH  31  32
ENDBRANCH  30  31
ENDBRANCH  29  30
ENDBRANCH  28  29
ENDBRANCH  27  28
ENDBRANCH   1  27
TORSDOF 21
ENDMDL
MODEL 3
REMARK VINA RESULT:     -10.1      5.888     11.339
REMARK SMILES Cc1ccc(-c2c[nH]c(=O)cc2C(=O)OCCOCCOCCOCCOC(=O)c2ccc(-c3c4nc(c(-c5c(F)c(F)c(F)c(F)c5F)c5ccc([nH]5)c(-c5c(F)c(F)c(F)c(F)c5F)c5nc(c(-c6c(F)c(F)c(F)c(F)c6F)c6ccc3[nH]6)C=C5)C=C4)cc2)cc1Cl
REMARK SMILES IDX 22 1 21 2 20 3 19 4 18 5 17 6 16 7 15 8 13 9 14 10 12 11
REMARK SMILES IDX 6 12 7 13 8 14 11 15 9 16 10 18 5 19 1 20 2 21 3 22 94 23
REMARK SMILES IDX 4 24 93 25 95 26 23 27 24 28 25 29 26 30 27 31 28 32 29 33
REMARK SMILES IDX 30 34 31 35 92 36 32 37 91 38 33 39 34 40 35 41 85 42 36 43
REMARK SMILES IDX 90 44 84 45 86 46 37 47 89 48 83 49 82 50 38 52 70 53 50 54
REMARK SMILES IDX 69 55 51 56 54 57 68 58 87 59 52 60 53 61 67 63 88 64 55 65
REMARK SMILES IDX 39 66 40 67 48 68 41 69 42 70 46 71 49 72 43 73 44 74 47 75
REMARK SMILES IDX 45 76 71 77 72 78 80 79 73 80 74 81 78 82 81 83 75 84 76 85
REMARK SMILES IDX 79 86 77 87 56 88 57 89 65 90 58 91 59 92 63 93 66 94 60 95
REMARK SMILES IDX 61 96 64 97 62 98
REMARK H PARENT 8 17 86 51 54 62
REMARK Flexibility Score: inf
ROOT
ATOM      1  C   UNL A   1      33.268  35.712  29.647  1.00  0.00     0.188 C 
ENDROOT
BRANCH   1   2
ATOM      2  O   UNL A   1      32.595  34.719  28.885  1.00  0.00    -0.377 OA
BRANCH   2   3
ATOM      3  C   UNL A   1      33.350  33.876  28.026  1.00  0.00     0.188 C 
BRANCH   3   4
ATOM      4  C   UNL A   1      34.475  32.982  28.599  1.00  0.00     0.188 C 
BRANCH   4   5
ATOM      5  O   UNL A   1      34.119  31.614  28.726  1.00  0.00    -0.376 OA
BRANCH   5   6
ATOM      6  C   UNL A   1      34.416  30.783  27.620  1.00  0.00     0.202 C 
BRANCH   6   7
ATOM      7  C   UNL A   1      33.202  30.346  26.794  1.00  0.00     0.261 C 
BRANCH   7   8
ATOM      8  O   UNL A   1      33.091  28.930  26.570  1.00  0.00    -0.460 OA
BRANCH   8   9
ATOM      9  C   UNL A   1      33.315  28.451  25.319  1.00  0.00     0.339 C 
ATOM     10  O   UNL A   1      33.900  29.039  24.427  1.00  0.00    -0.246 OA
BRANCH   9  11
ATOM     11  C   UNL A   1      32.816  27.046  25.244  1.00  0.00     0.074 A 
ATOM     12  C   UNL A   1      31.571  26.680  24.549  1.00  0.00     0.013 A 
ATOM     13  C   UNL A   1      31.203  25.383  24.556  1.00  0.00     0.095 A 
ATOM     14  N   UNL A   1      31.989  24.427  25.148  1.00  0.00    -0.328 N 
ATOM     15  C   UNL A   1      33.604  26.101  25.789  1.00  0.00     0.087 A 
ATOM     16  C   UNL A   1      33.198  24.681  25.738  1.00  0.00     0.248 A 
ATOM     17  H   UNL A   1      31.662  23.498  25.147  1.00  0.00     0.169 HD
ATOM     18  O   UNL A   1      33.909  23.799  26.203  1.00  0.00    -0.270 OA
BRANCH  12  19
ATOM     19  C   UNL A   1      30.750  27.584  23.720  1.00  0.00    -0.015 A 
ATOM     20  C   UNL A   1      28.491  30.510  21.467  1.00  0.00     0.046 C 
ATOM     21  C   UNL A   1      29.250  29.461  22.231  1.00  0.00    -0.032 A 
ATOM     22  C   UNL A   1      30.632  29.340  22.037  1.00  0.00     0.005 A 
ATOM     23  C   UNL A   1      28.621  28.577  23.124  1.00  0.00     0.044 A 
ATOM     24  C   UNL A   1      31.368  28.397  22.757  1.00  0.00     0.009 A 
ATOM     25  C   UNL A   1      29.366  27.659  23.875  1.00  0.00     0.029 A 
ATOM     26  Cl  UNL A   1      26.905  28.581  23.332  1.00  0.00    -0.084 Cl
ENDBRANCH  12  19
ENDBRANCH   9  11
ENDBRANCH   8   9
ENDBRANCH   7   8
ENDBRANCH   6   7
ENDBRANCH   5   6
ENDBRANCH   4   5
ENDBRANCH   3   4
ENDBRANCH   2   3
ENDBRANCH   1   2
BRANCH   1  27
ATOM     27  C   UNL A   1      32.863  35.922  31.122  1.00  0.00     0.188 C 
BRANCH  27  28
ATOM     28  O   UNL A   1      33.898  35.642  32.053  1.00  0.00    -0.376 OA
BRANCH  28  29
ATOM     29  C   UNL A   1      34.167  34.283  32.349  1.00  0.00     0.202 C 
BRANCH  29  30
ATOM     30  C   UNL A   1      35.617  33.808  32.182  1.00  0.00     0.261 C 
BRANCH  30  31
ATOM     31  O   UNL A   1      35.839  32.395  32.304  1.00  0.00    -0.460 OA
BRANCH  31  32
ATOM     32  C   UNL A   1      36.841  31.977  33.105  1.00  0.00     0.338 C 
ATOM     33  O   UNL A   1      36.851  31.935  34.323  1.00  0.00    -0.246 OA
BRANCH  32  34
ATOM     34  C   UNL A   1      37.871  31.386  32.227  1.00  0.00     0.060 A 
ATOM     35  C   UNL A   1      39.025  30.827  32.796  1.00  0.00     0.016 A 
ATOM     36  C   UNL A   1      37.664  31.338  30.848  1.00  0.00     0.016 A 
ATOM     37  C   UNL A   1      39.988  30.233  31.977  1.00  0.00     0.010 A 
ATOM     38  C   UNL A   1      38.640  30.773  30.028  1.00  0.00     0.010 A 
ATOM     39  C   UNL A   1      39.819  30.246  30.587  1.00  0.00    -0.014 A 
BRANCH  39  40
ATOM     40  C   UNL A   1      40.961  29.938  29.696  1.00  0.00     0.031 A 
ATOM     41  C   UNL A   1      41.014  28.567  29.083  1.00  0.00     0.074 A 
ATOM     42  C   UNL A   1      41.929  30.835  29.446  1.00  0.00     0.049 A 
ATOM     43  N   UNL A   1      41.952  28.008  28.365  1.00  0.00    -0.248 NA
ATOM     44  C   UNL A   1      39.844  27.705  29.326  1.00  0.00     0.031 C 
ATOM     45  C   UNL A   1      41.959  32.209  29.936  1.00  0.00     0.029 A 
ATOM     46  N   UNL A   1      43.088  30.707  28.721  1.00  0.00    -0.354 N 
ATOM     47  C   UNL A   1      41.490  26.730  28.079  1.00  0.00     0.074 A 
ATOM     48  C   UNL A   1      40.207  26.582  28.726  1.00  0.00     0.031 C 
ATOM     49  C   UNL A   1      43.093  32.797  29.512  1.00  0.00     0.029 A 
ATOM     50  C   UNL A   1      43.883  31.826  28.756  1.00  0.00     0.049 A 
ATOM     51  H   UNL A   1      43.325  29.892  28.222  1.00  0.00     0.167 HD
ATOM     52  C   UNL A   1      42.084  25.766  27.337  1.00  0.00     0.037 A 
ATOM     53  C   UNL A   1      45.120  32.023  28.261  1.00  0.00     0.037 A 
ATOM     54  C   UNL A   1      43.369  25.913  26.709  1.00  0.00     0.049 A 
ATOM     55  C   UNL A   1      45.807  30.899  27.522  1.00  0.00     0.074 A 
ATOM     56  C   UNL A   1      44.062  25.001  25.936  1.00  0.00     0.029 A 
ATOM     57  N   UNL A   1      44.160  27.050  26.796  1.00  0.00    -0.354 N 
ATOM     58  N   UNL A   1      45.364  29.697  27.239  1.00  0.00    -0.248 NA
ATOM     59  C   UNL A   1      47.171  31.159  27.037  1.00  0.00     0.031 C 
ATOM     60  C   UNL A   1      45.297  25.563  25.602  1.00  0.00     0.029 A 
ATOM     61  C   UNL A   1      45.347  26.852  26.111  1.00  0.00     0.049 A 
ATOM     62  H   UNL A   1      43.914  27.875  27.274  1.00  0.00     0.167 HD
ATOM     63  C   UNL A   1      46.372  29.076  26.511  1.00  0.00     0.074 A 
ATOM     64  C   UNL A   1      47.450  30.035  26.392  1.00  0.00     0.031 C 
ATOM     65  C   UNL A   1      46.401  27.826  25.984  1.00  0.00     0.037 A 
BRANCH  52  66
ATOM     66  C   UNL A   1      41.360  24.458  27.200  1.00  0.00     0.064 A 
ATOM     67  C   UNL A   1      40.204  24.332  26.415  1.00  0.00     0.173 A 
ATOM     68  C   UNL A   1      41.835  23.313  27.857  1.00  0.00     0.173 A 
ATOM     69  F   UNL A   1      39.697  25.401  25.781  1.00  0.00    -0.203 F 
ATOM     70  C   UNL A   1      39.532  23.116  26.319  1.00  0.00     0.198 A 
ATOM     71  C   UNL A   1      41.180  22.091  27.731  1.00  0.00     0.198 A 
ATOM     72  F   UNL A   1      42.936  23.378  28.621  1.00  0.00    -0.203 F 
ATOM     73  F   UNL A   1      38.397  23.034  25.612  1.00  0.00    -0.200 F 
ATOM     74  C   UNL A   1      40.025  21.996  26.971  1.00  0.00     0.200 A 
ATOM     75  F   UNL A   1      41.665  21.007  28.352  1.00  0.00    -0.200 F 
ATOM     76  F   UNL A   1      39.380  20.825  26.875  1.00  0.00    -0.200 F 
ENDBRANCH  52  66
BRANCH  53  77
ATOM     77  C   UNL A   1      45.803  33.330  28.449  1.00  0.00     0.064 A 
ATOM     78  C   UNL A   1      45.644  34.368  27.520  1.00  0.00     0.173 A 
ATOM     79  C   UNL A   1      46.651  33.562  29.543  1.00  0.00     0.173 A 
ATOM     80  F   UNL A   1      44.867  34.188  26.441  1.00  0.00    -0.203 F 
ATOM     81  C   UNL A   1      46.320  35.578  27.666  1.00  0.00     0.198 A 
ATOM     82  C   UNL A   1      47.302  34.784  29.705  1.00  0.00     0.198 A 
ATOM     83  F   UNL A   1      46.845  32.602  30.459  1.00  0.00    -0.203 F 
ATOM     84  F   UNL A   1      46.190  36.533  26.735  1.00  0.00    -0.200 F 
ATOM     85  C   UNL A   1      47.144  35.788  28.762  1.00  0.00     0.200 A 
ATOM     86  F   UNL A   1      48.090  34.986  30.770  1.00  0.00    -0.200 F 
ATOM     87  F   UNL A   1      47.792  36.951  28.902  1.00  0.00    -0.200 F 
ENDBRANCH  53  77
BRANCH  65  88
ATOM     88  C   UNL A   1      47.606  27.437  25.175  1.00  0.00     0.064 A 
ATOM     89  C   UNL A   1      47.695  27.698  23.801  1.00  0.00     0.173 A 
ATOM     90  C   UNL A   1      48.716  26.851  25.805  1.00  0.00     0.173 A 
ATOM     91  F   UNL A   1      46.657  28.245  23.149  1.00  0.00    -0.203 F 
ATOM     92  C   UNL A   1      48.843  27.370  23.083  1.00  0.00     0.198 A 
ATOM     93  C   UNL A   1      49.874  26.556  25.092  1.00  0.00     0.198 A 
ATOM     94  F   UNL A   1      48.687  26.588  27.120  1.00  0.00    -0.203 F 
ATOM     95  F   UNL A   1      48.890  27.590  21.762  1.00  0.00    -0.200 F 
ATOM     96  C   UNL A   1      49.934  26.809  23.731  1.00  0.00     0.200 A 
ATOM     97  F   UNL A   1      50.933  26.031  25.723  1.00  0.00    -0.200 F 
ATOM     98  F   UNL A   1      51.044  26.509  23.040  1.00  0.00    -0.200 F 
ENDBRANCH  65  88
ENDBRANCH  39  40
ENDBRANCH  32  34
ENDBRANCH  31  32
ENDBRANCH  30  31
ENDBRANCH  29  30
ENDBRANCH  28  29
ENDBRANCH  27  28
ENDBRANCH   1  27
TORSDOF 21
ENDMDL
