MODEL 1
REMARK VINA RESULT:     -11.8      0.000      0.000
REMARK SMILES [NH3+][C@@H](Cc1cn(-c2nc(Cl)nc(N3CCOCC3)n2)c2ccccc12)C(=O)OCCOCCOCCOCCOC(=O)c1ccc(-c2c3nc(c(-c4c(F)c(F)c(F)c(F)c4F)c4ccc([nH]4)c(-c4c(F)c(F)c(F)c(F)c4F)c4nc(c(-c5c(F)c(F)c(F)c(F)c5F)c5ccc2[nH]5)C=C4)C=C3)cc1
REMARK SMILES IDX 33 1 32 2 31 3 30 4 29 5 28 6 26 7 27 8 2 9 1 10 3 14 4 15
REMARK SMILES IDX 5 16 25 17 6 18 20 19 24 20 21 21 23 22 22 23 7 24 8 25
REMARK SMILES IDX 19 26 9 27 12 28 10 29 11 30 13 31 14 32 18 33 15 34 17 35
REMARK SMILES IDX 16 36 34 37 35 38 36 39 37 40 38 41 39 42 40 43 41 44 42 45
REMARK SMILES IDX 43 46 44 47 105 48 45 49 104 50 46 51 47 52 48 53 98 54
REMARK SMILES IDX 49 55 103 56 97 57 99 58 50 59 102 60 96 61 95 62 51 64
REMARK SMILES IDX 83 65 63 66 82 67 64 68 67 69 81 70 100 71 65 72 66 73 80 75
REMARK SMILES IDX 101 76 68 77 52 78 53 79 61 80 54 81 55 82 59 83 62 84 56 85
REMARK SMILES IDX 57 86 60 87 58 88 84 89 85 90 93 91 86 92 87 93 91 94 94 95
REMARK SMILES IDX 88 96 89 97 92 98 90 99 69 100 70 101 78 102 71 103 72 104
REMARK SMILES IDX 76 105 79 106 73 107 74 108 77 109 75 110
REMARK H PARENT 1 11 1 12 1 13 99 63 67 74
REMARK Flexibility Score: inf
ROOT
ATOM      1  C   UNL A   1      42.955  18.221  26.124  1.00  0.00     0.188 C 
ENDROOT
BRANCH   1   2
ATOM      2  C   UNL A   1      42.087  19.485  26.176  1.00  0.00     0.188 C 
BRANCH   2   3
ATOM      3  O   UNL A   1      42.640  20.725  26.601  1.00  0.00    -0.376 OA
BRANCH   3   4
ATOM      4  C   UNL A   1      42.041  21.505  27.632  1.00  0.00     0.202 C 
BRANCH   4   5
ATOM      5  C   UNL A   1      40.580  21.978  27.610  1.00  0.00     0.261 C 
BRANCH   5   6
ATOM      6  O   UNL A   1      40.015  22.166  26.315  1.00  0.00    -0.459 OA
BRANCH   6   7
ATOM      7  C   UNL A   1      39.017  23.088  26.213  1.00  0.00     0.365 C 
ATOM      8  O   UNL A   1      39.047  24.219  26.684  1.00  0.00    -0.245 OA
BRANCH   7   9
ATOM      9  C   UNL A   1      37.815  22.531  25.436  1.00  0.00     0.296 C 
BRANCH   9  10
ATOM     10  N   UNL A   1      37.975  21.103  25.095  1.00  0.00    -0.346 N 
ATOM     11  H   UNL A   1      38.737  20.706  25.642  1.00  0.00     0.345 HD
ATOM     12  H   UNL A   1      38.187  21.014  24.100  1.00  0.00     0.345 HD
ATOM     13  H   UNL A   1      37.110  20.606  25.303  1.00  0.00     0.345 HD
ENDBRANCH   9  10
BRANCH   9  14
ATOM     14  C   UNL A   1      36.495  22.788  26.162  1.00  0.00     0.115 C 
BRANCH  14  15
ATOM     15  C   UNL A   1      35.244  22.748  25.333  1.00  0.00    -0.015 A 
ATOM     16  C   UNL A   1      34.673  23.885  24.811  1.00  0.00     0.099 A 
ATOM     17  C   UNL A   1      34.440  21.654  24.866  1.00  0.00     0.004 A 
ATOM     18  N   UNL A   1      33.599  23.557  24.014  1.00  0.00    -0.285 N 
ATOM     19  C   UNL A   1      33.378  22.189  24.108  1.00  0.00     0.056 A 
ATOM     20  C   UNL A   1      34.523  20.248  24.990  1.00  0.00     0.010 A 
ATOM     21  C   UNL A   1      32.408  21.360  23.511  1.00  0.00     0.027 A 
ATOM     22  C   UNL A   1      33.556  19.424  24.404  1.00  0.00     0.001 A 
ATOM     23  C   UNL A   1      32.511  19.976  23.677  1.00  0.00     0.002 A 
BRANCH  18  24
ATOM     24  C   UNL A   1      32.987  24.508  23.142  1.00  0.00     0.240 A 
ATOM     25  N   UNL A   1      33.081  24.414  21.823  1.00  0.00    -0.181 NA
ATOM     26  N   UNL A   1      32.436  25.543  23.776  1.00  0.00    -0.176 NA
ATOM     27  C   UNL A   1      32.541  25.462  21.201  1.00  0.00     0.228 A 
ATOM     28  C   UNL A   1      32.053  26.573  23.047  1.00  0.00     0.231 A 
ATOM     29  Cl  UNL A   1      32.612  25.454  19.495  1.00  0.00    -0.041 Cl
ATOM     30  N   UNL A   1      32.037  26.568  21.732  1.00  0.00    -0.182 NA
BRANCH  28  31
ATOM     31  N   UNL A   1      31.886  27.732  23.748  1.00  0.00    -0.336 N 
ATOM     32  C   UNL A   1      30.518  28.244  23.787  1.00  0.00     0.148 C 
ATOM     33  C   UNL A   1      32.671  27.975  24.944  1.00  0.00     0.148 C 
ATOM     34  C   UNL A   1      30.571  29.745  24.101  1.00  0.00     0.181 C 
ATOM     35  C   UNL A   1      32.659  29.494  25.198  1.00  0.00     0.181 C 
ATOM     36  O   UNL A   1      31.313  30.003  25.309  1.00  0.00    -0.378 OA
ENDBRANCH  28  31
ENDBRANCH  18  24
ENDBRANCH  14  15
ENDBRANCH   9  14
ENDBRANCH   7   9
ENDBRANCH   6   7
ENDBRANCH   5   6
ENDBRANCH   4   5
ENDBRANCH   3   4
ENDBRANCH   2   3
ENDBRANCH   1   2
BRANCH   1  37
ATOM     37  O   UNL A   1      43.871  18.221  25.054  1.00  0.00    -0.377 OA
BRANCH  37  38
ATOM     38  C   UNL A   1      45.180  18.698  25.344  1.00  0.00     0.188 C 
BRANCH  38  39
ATOM     39  C   UNL A   1      45.940  19.530  24.283  1.00  0.00     0.188 C 
BRANCH  39  40
ATOM     40  O   UNL A   1      46.688  20.617  24.817  1.00  0.00    -0.376 OA
BRANCH  40  41
ATOM     41  C   UNL A   1      46.253  21.943  24.542  1.00  0.00     0.202 C 
BRANCH  41  42
ATOM     42  C   UNL A   1      45.496  22.671  25.662  1.00  0.00     0.261 C 
BRANCH  42  43
ATOM     43  O   UNL A   1      44.841  23.870  25.213  1.00  0.00    -0.460 OA
BRANCH  43  44
ATOM     44  C   UNL A   1      43.522  23.802  24.919  1.00  0.00     0.338 C 
ATOM     45  O   UNL A   1      42.961  22.930  24.279  1.00  0.00    -0.246 OA
BRANCH  44  46
ATOM     46  C   UNL A   1      42.859  24.747  25.851  1.00  0.00     0.060 A 
ATOM     47  C   UNL A   1      41.998  25.749  25.388  1.00  0.00     0.016 A 
ATOM     48  C   UNL A   1      43.383  24.809  27.151  1.00  0.00     0.016 A 
ATOM     49  C   UNL A   1      41.762  26.866  26.188  1.00  0.00     0.010 A 
ATOM     50  C   UNL A   1      43.164  25.939  27.938  1.00  0.00     0.010 A 
ATOM     51  C   UNL A   1      42.388  26.989  27.443  1.00  0.00    -0.014 A 
BRANCH  51  52
ATOM     52  C   UNL A   1      42.024  28.138  28.282  1.00  0.00     0.031 A 
ATOM     53  C   UNL A   1      42.979  29.277  28.172  1.00  0.00     0.074 A 
ATOM     54  C   UNL A   1      40.876  28.327  28.969  1.00  0.00     0.049 A 
ATOM     55  N   UNL A   1      43.586  29.911  29.121  1.00  0.00    -0.248 NA
ATOM     56  C   UNL A   1      43.348  29.720  26.818  1.00  0.00     0.031 C 
ATOM     57  C   UNL A   1      39.665  27.507  28.957  1.00  0.00     0.029 A 
ATOM     58  N   UNL A   1      40.518  29.394  29.754  1.00  0.00    -0.354 N 
ATOM     59  C   UNL A   1      44.320  30.917  28.500  1.00  0.00     0.074 A 
ATOM     60  C   UNL A   1      44.210  30.699  27.080  1.00  0.00     0.031 C 
ATOM     61  C   UNL A   1      38.648  28.211  29.510  1.00  0.00     0.029 A 
ATOM     62  C   UNL A   1      39.156  29.479  30.012  1.00  0.00     0.049 A 
ATOM     63  H   UNL A   1      41.170  30.045  30.103  1.00  0.00     0.167 HD
ATOM     64  C   UNL A   1      44.852  31.962  29.187  1.00  0.00     0.037 A 
ATOM     65  C   UNL A   1      38.483  30.544  30.520  1.00  0.00     0.037 A 
ATOM     66  C   UNL A   1      45.000  31.668  30.585  1.00  0.00     0.049 A 
ATOM     67  C   UNL A   1      39.454  31.438  31.194  1.00  0.00     0.074 A 
ATOM     68  C   UNL A   1      45.618  30.631  31.260  1.00  0.00     0.029 A 
ATOM     69  N   UNL A   1      44.167  32.262  31.501  1.00  0.00    -0.354 N 
ATOM     70  N   UNL A   1      40.035  31.176  32.329  1.00  0.00    -0.248 NA
ATOM     71  C   UNL A   1      40.053  32.508  30.409  1.00  0.00     0.031 C 
ATOM     72  C   UNL A   1      44.726  30.311  32.319  1.00  0.00     0.029 A 
ATOM     73  C   UNL A   1      43.700  31.249  32.301  1.00  0.00     0.049 A 
ATOM     74  H   UNL A   1      43.949  33.220  31.569  1.00  0.00     0.167 HD
ATOM     75  C   UNL A   1      41.295  31.733  32.197  1.00  0.00     0.074 A 
ATOM     76  C   UNL A   1      41.214  32.627  31.051  1.00  0.00     0.031 C 
ATOM     77  C   UNL A   1      42.368  31.192  32.836  1.00  0.00     0.037 A 
BRANCH  64  78
ATOM     78  C   UNL A   1      45.000  33.335  28.606  1.00  0.00     0.064 A 
ATOM     79  C   UNL A   1      43.866  34.116  28.326  1.00  0.00     0.173 A 
ATOM     80  C   UNL A   1      46.222  33.804  28.076  1.00  0.00     0.173 A 
ATOM     81  F   UNL A   1      42.652  33.730  28.743  1.00  0.00    -0.203 F 
ATOM     82  C   UNL A   1      43.948  35.271  27.544  1.00  0.00     0.198 A 
ATOM     83  C   UNL A   1      46.309  34.984  27.342  1.00  0.00     0.198 A 
ATOM     84  F   UNL A   1      47.349  33.085  28.164  1.00  0.00    -0.203 F 
ATOM     85  F   UNL A   1      42.831  35.934  27.217  1.00  0.00    -0.200 F 
ATOM     86  C   UNL A   1      45.169  35.705  27.057  1.00  0.00     0.200 A 
ATOM     87  F   UNL A   1      47.496  35.374  26.858  1.00  0.00    -0.200 F 
ATOM     88  F   UNL A   1      45.242  36.786  26.270  1.00  0.00    -0.200 F 
ENDBRANCH  64  78
BRANCH  65  89
ATOM     89  C   UNL A   1      37.099  31.003  30.239  1.00  0.00     0.064 A 
ATOM     90  C   UNL A   1      36.266  31.484  31.267  1.00  0.00     0.173 A 
ATOM     91  C   UNL A   1      36.673  31.258  28.922  1.00  0.00     0.173 A 
ATOM     92  F   UNL A   1      36.618  31.328  32.552  1.00  0.00    -0.203 F 
ATOM     93  C   UNL A   1      35.096  32.201  30.991  1.00  0.00     0.198 A 
ATOM     94  C   UNL A   1      35.500  31.964  28.649  1.00  0.00     0.198 A 
ATOM     95  F   UNL A   1      37.437  30.918  27.875  1.00  0.00    -0.203 F 
ATOM     96  F   UNL A   1      34.368  32.706  31.996  1.00  0.00    -0.200 F 
ATOM     97  C   UNL A   1      34.721  32.449  29.682  1.00  0.00     0.200 A 
ATOM     98  F   UNL A   1      35.169  32.230  27.377  1.00  0.00    -0.200 F 
ATOM     99  F   UNL A   1      33.637  33.193  29.416  1.00  0.00    -0.200 F 
ENDBRANCH  65  89
BRANCH  77 100
ATOM    100  C   UNL A   1      42.127  30.215  33.942  1.00  0.00     0.064 A 
ATOM    101  C   UNL A   1      41.771  28.874  33.727  1.00  0.00     0.173 A 
ATOM    102  C   UNL A   1      42.446  30.605  35.250  1.00  0.00     0.173 A 
ATOM    103  F   UNL A   1      41.553  28.408  32.489  1.00  0.00    -0.203 F 
ATOM    104  C   UNL A   1      41.711  27.972  34.787  1.00  0.00     0.198 A 
ATOM    105  C   UNL A   1      42.411  29.694  36.301  1.00  0.00     0.198 A 
ATOM    106  F   UNL A   1      42.845  31.863  35.498  1.00  0.00    -0.203 F 
ATOM    107  F   UNL A   1      41.378  26.694  34.558  1.00  0.00    -0.200 F 
ATOM    108  C   UNL A   1      42.039  28.379  36.070  1.00  0.00     0.200 A 
ATOM    109  F   UNL A   1      42.774  30.080  37.533  1.00  0.00    -0.200 F 
ATOM    110  F   UNL A   1      42.028  27.499  37.081  1.00  0.00    -0.200 F 
ENDBRANCH  77 100
ENDBRANCH  51  52
ENDBRANCH  44  46
ENDBRANCH  43  44
ENDBRANCH  42  43
ENDBRANCH  41  42
ENDBRANCH  40  41
ENDBRANCH  39  40
ENDBRANCH  38  39
ENDBRANCH  37  38
ENDBRANCH   1  37
TORSDOF 25
ENDMDL
MODEL 2
REMARK VINA RESULT:     -10.4      4.630     10.752
REMARK SMILES [NH3+][C@@H](Cc1cn(-c2nc(Cl)nc(N3CCOCC3)n2)c2ccccc12)C(=O)OCCOCCOCCOCCOC(=O)c1ccc(-c2c3nc(c(-c4c(F)c(F)c(F)c(F)c4F)c4ccc([nH]4)c(-c4c(F)c(F)c(F)c(F)c4F)c4nc(c(-c5c(F)c(F)c(F)c(F)c5F)c5ccc2[nH]5)C=C4)C=C3)cc1
REMARK SMILES IDX 33 1 32 2 31 3 30 4 29 5 28 6 26 7 27 8 2 9 1 10 3 14 4 15
REMARK SMILES IDX 5 16 25 17 6 18 20 19 24 20 21 21 23 22 22 23 7 24 8 25
REMARK SMILES IDX 19 26 9 27 12 28 10 29 11 30 13 31 14 32 18 33 15 34 17 35
REMARK SMILES IDX 16 36 34 37 35 38 36 39 37 40 38 41 39 42 40 43 41 44 42 45
REMARK SMILES IDX 43 46 44 47 105 48 45 49 104 50 46 51 47 52 48 53 98 54
REMARK SMILES IDX 49 55 103 56 97 57 99 58 50 59 102 60 96 61 95 62 51 64
REMARK SMILES IDX 83 65 63 66 82 67 64 68 67 69 81 70 100 71 65 72 66 73 80 75
REMARK SMILES IDX 101 76 68 77 52 78 53 79 61 80 54 81 55 82 59 83 62 84 56 85
REMARK SMILES IDX 57 86 60 87 58 88 84 89 85 90 93 91 86 92 87 93 91 94 94 95
REMARK SMILES IDX 88 96 89 97 92 98 90 99 69 100 70 101 78 102 71 103 72 104
REMARK SMILES IDX 76 105 79 106 73 107 74 108 77 109 75 110
REMARK H PARENT 1 11 1 12 1 13 99 63 67 74
REMARK Flexibility Score: inf
ROOT
ATOM      1  C   UNL A   1      32.647  24.265  26.052  1.00  0.00     0.188 C 
ENDROOT
BRANCH   1   2
ATOM      2  C   UNL A   1      31.213  24.807  26.080  1.00  0.00     0.188 C 
BRANCH   2   3
ATOM      3  O   UNL A   1      30.402  24.768  24.911  1.00  0.00    -0.376 OA
BRANCH   3   4
ATOM      4  C   UNL A   1      30.460  25.787  23.917  1.00  0.00     0.202 C 
BRANCH   4   5
ATOM      5  C   UNL A   1      30.443  27.291  24.228  1.00  0.00     0.261 C 
BRANCH   5   6
ATOM      6  O   UNL A   1      31.491  28.052  23.632  1.00  0.00    -0.459 OA
BRANCH   6   7
ATOM      7  C   UNL A   1      32.660  28.127  24.327  1.00  0.00     0.365 C 
ATOM      8  O   UNL A   1      33.525  27.259  24.354  1.00  0.00    -0.245 OA
BRANCH   7   9
ATOM      9  C   UNL A   1      32.767  29.446  25.106  1.00  0.00     0.296 C 
BRANCH   9  10
ATOM     10  N   UNL A   1      31.566  30.292  24.954  1.00  0.00    -0.346 N 
ATOM     11  H   UNL A   1      31.411  30.487  23.966  1.00  0.00     0.345 HD
ATOM     12  H   UNL A   1      31.702  31.169  25.458  1.00  0.00     0.345 HD
ATOM     13  H   UNL A   1      30.757  29.803  25.336  1.00  0.00     0.345 HD
ENDBRANCH   9  10
BRANCH   9  14
ATOM     14  C   UNL A   1      33.107  29.217  26.578  1.00  0.00     0.115 C 
BRANCH  14  15
ATOM     15  C   UNL A   1      33.962  30.253  27.249  1.00  0.00    -0.015 A 
ATOM     16  C   UNL A   1      33.462  31.469  27.652  1.00  0.00     0.099 A 
ATOM     17  C   UNL A   1      35.338  30.238  27.657  1.00  0.00     0.004 A 
ATOM     18  N   UNL A   1      34.429  32.184  28.324  1.00  0.00    -0.285 N 
ATOM     19  C   UNL A   1      35.625  31.482  28.258  1.00  0.00     0.056 A 
ATOM     20  C   UNL A   1      36.372  29.276  27.600  1.00  0.00     0.010 A 
ATOM     21  C   UNL A   1      36.906  31.777  28.765  1.00  0.00     0.027 A 
ATOM     22  C   UNL A   1      37.647  29.571  28.096  1.00  0.00     0.001 A 
ATOM     23  C   UNL A   1      37.909  30.808  28.667  1.00  0.00     0.002 A 
BRANCH  18  24
ATOM     24  C   UNL A   1      34.115  33.356  29.077  1.00  0.00     0.240 A 
ATOM     25  N   UNL A   1      33.653  34.457  28.502  1.00  0.00    -0.181 NA
ATOM     26  N   UNL A   1      34.447  33.273  30.365  1.00  0.00    -0.176 NA
ATOM     27  C   UNL A   1      33.537  35.467  29.364  1.00  0.00     0.228 A 
ATOM     28  C   UNL A   1      34.405  34.380  31.080  1.00  0.00     0.231 A 
ATOM     29  Cl  UNL A   1      32.959  36.944  28.731  1.00  0.00    -0.041 Cl
ATOM     30  N   UNL A   1      33.904  35.513  30.638  1.00  0.00    -0.182 NA
BRANCH  28  31
ATOM     31  N   UNL A   1      35.123  34.334  32.239  1.00  0.00    -0.336 N 
ATOM     32  C   UNL A   1      36.574  34.334  32.073  1.00  0.00     0.148 C 
ATOM     33  C   UNL A   1      34.637  35.023  33.421  1.00  0.00     0.148 C 
ATOM     34  C   UNL A   1      37.207  33.744  33.339  1.00  0.00     0.181 C 
ATOM     35  C   UNL A   1      35.331  34.386  34.640  1.00  0.00     0.181 C 
ATOM     36  O   UNL A   1      36.768  34.441  34.520  1.00  0.00    -0.378 OA
ENDBRANCH  28  31
ENDBRANCH  18  24
ENDBRANCH  14  15
ENDBRANCH   9  14
ENDBRANCH   7   9
ENDBRANCH   6   7
ENDBRANCH   5   6
ENDBRANCH   4   5
ENDBRANCH   3   4
ENDBRANCH   2   3
ENDBRANCH   1   2
BRANCH   1  37
ATOM     37  O   UNL A   1      32.862  23.318  25.030  1.00  0.00    -0.377 OA
BRANCH  37  38
ATOM     38  C   UNL A   1      33.079  21.976  25.449  1.00  0.00     0.188 C 
BRANCH  38  39
ATOM     39  C   UNL A   1      34.173  21.129  24.756  1.00  0.00     0.188 C 
BRANCH  39  40
ATOM     40  O   UNL A   1      35.221  21.893  24.170  1.00  0.00    -0.376 OA
BRANCH  40  41
ATOM     41  C   UNL A   1      36.344  22.236  24.972  1.00  0.00     0.202 C 
BRANCH  41  42
ATOM     42  C   UNL A   1      37.461  21.188  25.088  1.00  0.00     0.261 C 
BRANCH  42  43
ATOM     43  O   UNL A   1      38.643  21.693  25.732  1.00  0.00    -0.460 OA
BRANCH  43  44
ATOM     44  C   UNL A   1      39.571  20.800  26.147  1.00  0.00     0.338 C 
ATOM     45  O   UNL A   1      39.740  19.671  25.721  1.00  0.00    -0.246 OA
BRANCH  44  46
ATOM     46  C   UNL A   1      40.573  21.593  26.904  1.00  0.00     0.060 A 
ATOM     47  C   UNL A   1      40.270  22.863  27.409  1.00  0.00     0.016 A 
ATOM     48  C   UNL A   1      41.907  21.171  26.799  1.00  0.00     0.016 A 
ATOM     49  C   UNL A   1      41.310  23.745  27.696  1.00  0.00     0.010 A 
ATOM     50  C   UNL A   1      42.943  22.065  27.065  1.00  0.00     0.010 A 
ATOM     51  C   UNL A   1      42.647  23.368  27.473  1.00  0.00    -0.014 A 
BRANCH  51  52
ATOM     52  C   UNL A   1      43.703  24.302  27.887  1.00  0.00     0.031 A 
ATOM     53  C   UNL A   1      43.911  24.345  29.362  1.00  0.00     0.074 A 
ATOM     54  C   UNL A   1      44.581  24.955  27.094  1.00  0.00     0.049 A 
ATOM     55  N   UNL A   1      43.929  25.376  30.140  1.00  0.00    -0.248 NA
ATOM     56  C   UNL A   1      44.053  23.058  30.061  1.00  0.00     0.031 C 
ATOM     57  C   UNL A   1      44.787  24.812  25.654  1.00  0.00     0.029 A 
ATOM     58  N   UNL A   1      45.576  25.827  27.463  1.00  0.00    -0.354 N 
ATOM     59  C   UNL A   1      44.211  24.889  31.413  1.00  0.00     0.074 A 
ATOM     60  C   UNL A   1      44.189  23.452  31.325  1.00  0.00     0.031 C 
ATOM     61  C   UNL A   1      45.965  25.390  25.315  1.00  0.00     0.029 A 
ATOM     62  C   UNL A   1      46.540  26.036  26.485  1.00  0.00     0.049 A 
ATOM     63  H   UNL A   1      45.603  26.266  28.344  1.00  0.00     0.167 HD
ATOM     64  C   UNL A   1      44.596  25.698  32.435  1.00  0.00     0.037 A 
ATOM     65  C   UNL A   1      47.756  26.619  26.645  1.00  0.00     0.037 A 
ATOM     66  C   UNL A   1      44.215  27.064  32.213  1.00  0.00     0.049 A 
ATOM     67  C   UNL A   1      47.736  27.418  27.893  1.00  0.00     0.074 A 
ATOM     68  C   UNL A   1      43.002  27.658  31.916  1.00  0.00     0.029 A 
ATOM     69  N   UNL A   1      45.171  28.000  31.902  1.00  0.00    -0.354 N 
ATOM     70  N   UNL A   1      47.100  28.544  28.040  1.00  0.00    -0.248 NA
ATOM     71  C   UNL A   1      48.162  26.768  29.124  1.00  0.00     0.031 C 
ATOM     72  C   UNL A   1      43.314  28.642  30.940  1.00  0.00     0.029 A 
ATOM     73  C   UNL A   1      44.698  28.675  30.805  1.00  0.00     0.049 A 
ATOM     74  H   UNL A   1      46.023  28.154  32.371  1.00  0.00     0.167 HD
ATOM     75  C   UNL A   1      46.673  28.521  29.356  1.00  0.00     0.074 A 
ATOM     76  C   UNL A   1      47.443  27.467  30.002  1.00  0.00     0.031 C 
ATOM     77  C   UNL A   1      45.524  29.147  29.728  1.00  0.00     0.037 A 
BRANCH  64  78
ATOM     78  C   UNL A   1      45.540  25.263  33.514  1.00  0.00     0.064 A 
ATOM     79  C   UNL A   1      46.917  25.149  33.253  1.00  0.00     0.173 A 
ATOM     80  C   UNL A   1      45.092  24.705  34.731  1.00  0.00     0.173 A 
ATOM     81  F   UNL A   1      47.433  25.603  32.102  1.00  0.00    -0.203 F 
ATOM     82  C   UNL A   1      47.777  24.495  34.138  1.00  0.00     0.198 A 
ATOM     83  C   UNL A   1      45.961  24.102  35.636  1.00  0.00     0.198 A 
ATOM     84  F   UNL A   1      43.790  24.636  35.036  1.00  0.00    -0.203 F 
ATOM     85  F   UNL A   1      49.064  24.320  33.808  1.00  0.00    -0.200 F 
ATOM     86  C   UNL A   1      47.299  23.976  35.330  1.00  0.00     0.200 A 
ATOM     87  F   UNL A   1      45.475  23.583  36.772  1.00  0.00    -0.200 F 
ATOM     88  F   UNL A   1      48.115  23.310  36.157  1.00  0.00    -0.200 F 
ENDBRANCH  64  78
BRANCH  65  89
ATOM     89  C   UNL A   1      49.037  26.327  25.952  1.00  0.00     0.064 A 
ATOM     90  C   UNL A   1      49.417  27.032  24.794  1.00  0.00     0.173 A 
ATOM     91  C   UNL A   1      50.044  25.569  26.578  1.00  0.00     0.173 A 
ATOM     92  F   UNL A   1      48.535  27.819  24.160  1.00  0.00    -0.203 F 
ATOM     93  C   UNL A   1      50.731  27.001  24.312  1.00  0.00     0.198 A 
ATOM     94  C   UNL A   1      51.350  25.529  26.089  1.00  0.00     0.198 A 
ATOM     95  F   UNL A   1      49.806  24.932  27.733  1.00  0.00    -0.203 F 
ATOM     96  F   UNL A   1      51.071  27.742  23.249  1.00  0.00    -0.200 F 
ATOM     97  C   UNL A   1      51.697  26.257  24.967  1.00  0.00     0.200 A 
ATOM     98  F   UNL A   1      52.285  24.836  26.754  1.00  0.00    -0.200 F 
ATOM     99  F   UNL A   1      52.970  26.279  24.545  1.00  0.00    -0.200 F 
ENDBRANCH  65  89
BRANCH  77 100
ATOM    100  C   UNL A   1      44.911  30.140  28.793  1.00  0.00     0.064 A 
ATOM    101  C   UNL A   1      45.270  31.497  28.762  1.00  0.00     0.173 A 
ATOM    102  C   UNL A   1      44.071  29.661  27.779  1.00  0.00     0.173 A 
ATOM    103  F   UNL A   1      46.150  32.000  29.640  1.00  0.00    -0.203 F 
ATOM    104  C   UNL A   1      44.779  32.342  27.769  1.00  0.00     0.198 A 
ATOM    105  C   UNL A   1      43.606  30.503  26.773  1.00  0.00     0.198 A 
ATOM    106  F   UNL A   1      43.745  28.360  27.735  1.00  0.00    -0.203 F 
ATOM    107  F   UNL A   1      45.140  33.633  27.752  1.00  0.00    -0.200 F 
ATOM    108  C   UNL A   1      43.956  31.844  26.772  1.00  0.00     0.200 A 
ATOM    109  F   UNL A   1      42.848  30.008  25.784  1.00  0.00    -0.200 F 
ATOM    110  F   UNL A   1      43.525  32.647  25.789  1.00  0.00    -0.200 F 
ENDBRANCH  77 100
ENDBRANCH  51  52
ENDBRANCH  44  46
ENDBRANCH  43  44
ENDBRANCH  42  43
ENDBRANCH  41  42
ENDBRANCH  40  41
ENDBRANCH  39  40
ENDBRANCH  38  39
ENDBRANCH  37  38
ENDBRANCH   1  37
TORSDOF 25
ENDMDL
MODEL 3
REMARK VINA RESULT:     -10.1      1.658      2.764
REMARK SMILES [NH3+][C@@H](Cc1cn(-c2nc(Cl)nc(N3CCOCC3)n2)c2ccccc12)C(=O)OCCOCCOCCOCCOC(=O)c1ccc(-c2c3nc(c(-c4c(F)c(F)c(F)c(F)c4F)c4ccc([nH]4)c(-c4c(F)c(F)c(F)c(F)c4F)c4nc(c(-c5c(F)c(F)c(F)c(F)c5F)c5ccc2[nH]5)C=C4)C=C3)cc1
REMARK SMILES IDX 33 1 32 2 31 3 30 4 29 5 28 6 26 7 27 8 2 9 1 10 3 14 4 15
REMARK SMILES IDX 5 16 25 17 6 18 20 19 24 20 21 21 23 22 22 23 7 24 8 25
REMARK SMILES IDX 19 26 9 27 12 28 10 29 11 30 13 31 14 32 18 33 15 34 17 35
REMARK SMILES IDX 16 36 34 37 35 38 36 39 37 40 38 41 39 42 40 43 41 44 42 45
REMARK SMILES IDX 43 46 44 47 105 48 45 49 104 50 46 51 47 52 48 53 98 54
REMARK SMILES IDX 49 55 103 56 97 57 99 58 50 59 102 60 96 61 95 62 51 64
REMARK SMILES IDX 83 65 63 66 82 67 64 68 67 69 81 70 100 71 65 72 66 73 80 75
REMARK SMILES IDX 101 76 68 77 52 78 53 79 61 80 54 81 55 82 59 83 62 84 56 85
REMARK SMILES IDX 57 86 60 87 58 88 84 89 85 90 93 91 86 92 87 93 91 94 94 95
REMARK SMILES IDX 88 96 89 97 92 98 90 99 69 100 70 101 78 102 71 103 72 104
REMARK SMILES IDX 76 105 79 106 73 107 74 108 77 109 75 110
REMARK H PARENT 1 11 1 12 1 13 99 63 67 74
REMARK Flexibility Score: inf
ROOT
ATOM      1  C   UNL A   1      43.528  18.502  25.808  1.00  0.00     0.188 C 
ENDROOT
BRANCH   1   2
ATOM      2  C   UNL A   1      42.163  19.108  26.154  1.00  0.00     0.188 C 
BRANCH   2   3
ATOM      3  O   UNL A   1      41.850  20.447  25.786  1.00  0.00    -0.376 OA
BRANCH   3   4
ATOM      4  C   UNL A   1      41.608  21.460  26.758  1.00  0.00     0.202 C 
BRANCH   4   5
ATOM      5  C   UNL A   1      40.207  21.930  27.176  1.00  0.00     0.261 C 
BRANCH   5   6
ATOM      6  O   UNL A   1      39.254  22.030  26.120  1.00  0.00    -0.459 OA
BRANCH   6   7
ATOM      7  C   UNL A   1      38.450  23.129  26.128  1.00  0.00     0.365 C 
ATOM      8  O   UNL A   1      38.720  24.201  26.657  1.00  0.00    -0.245 OA
BRANCH   7   9
ATOM      9  C   UNL A   1      37.127  22.863  25.394  1.00  0.00     0.296 C 
BRANCH   9  10
ATOM     10  N   UNL A   1      37.177  21.642  24.565  1.00  0.00    -0.346 N 
ATOM     11  H   UNL A   1      37.216  21.901  23.580  1.00  0.00     0.345 HD
ATOM     12  H   UNL A   1      36.342  21.081  24.736  1.00  0.00     0.345 HD
ATOM     13  H   UNL A   1      38.006  21.101  24.807  1.00  0.00     0.345 HD
ENDBRANCH   9  10
BRANCH   9  14
ATOM     14  C   UNL A   1      35.936  22.842  26.349  1.00  0.00     0.115 C 
BRANCH  14  15
ATOM     15  C   UNL A   1      34.597  23.211  25.776  1.00  0.00    -0.015 A 
ATOM     16  C   UNL A   1      33.969  24.395  26.082  1.00  0.00     0.099 A 
ATOM     17  C   UNL A   1      33.746  22.547  24.829  1.00  0.00     0.004 A 
ATOM     18  N   UNL A   1      32.811  24.525  25.348  1.00  0.00    -0.285 N 
ATOM     19  C   UNL A   1      32.604  23.351  24.636  1.00  0.00     0.056 A 
ATOM     20  C   UNL A   1      33.844  21.346  24.091  1.00  0.00     0.010 A 
ATOM     21  C   UNL A   1      31.572  22.966  23.757  1.00  0.00     0.027 A 
ATOM     22  C   UNL A   1      32.817  20.959  23.223  1.00  0.00     0.001 A 
ATOM     23  C   UNL A   1      31.694  21.760  23.063  1.00  0.00     0.002 A 
BRANCH  18  24
ATOM     24  C   UNL A   1      32.103  25.762  25.267  1.00  0.00     0.240 A 
ATOM     25  N   UNL A   1      31.132  25.960  24.386  1.00  0.00    -0.181 NA
ATOM     26  N   UNL A   1      32.592  26.715  26.061  1.00  0.00    -0.176 NA
ATOM     27  C   UNL A   1      30.685  27.215  24.400  1.00  0.00     0.228 A 
ATOM     28  C   UNL A   1      32.148  27.945  25.886  1.00  0.00     0.231 A 
ATOM     29  Cl  UNL A   1      29.437  27.590  23.296  1.00  0.00    -0.041 Cl
ATOM     30  N   UNL A   1      31.145  28.250  25.091  1.00  0.00    -0.182 NA
BRANCH  28  31
ATOM     31  N   UNL A   1      32.947  28.916  26.414  1.00  0.00    -0.336 N 
ATOM     32  C   UNL A   1      34.370  28.593  26.464  1.00  0.00     0.148 C 
ATOM     33  C   UNL A   1      32.639  30.315  26.178  1.00  0.00     0.148 C 
ATOM     34  C   UNL A   1      35.032  29.476  27.529  1.00  0.00     0.181 C 
ATOM     35  C   UNL A   1      33.352  31.131  27.274  1.00  0.00     0.181 C 
ATOM     36  O   UNL A   1      34.772  30.872  27.289  1.00  0.00    -0.378 OA
ENDBRANCH  28  31
ENDBRANCH  18  24
ENDBRANCH  14  15
ENDBRANCH   9  14
ENDBRANCH   7   9
ENDBRANCH   6   7
ENDBRANCH   5   6
ENDBRANCH   4   5
ENDBRANCH   3   4
ENDBRANCH   2   3
ENDBRANCH   1   2
BRANCH   1  37
ATOM     37  O   UNL A   1      44.210  19.212  24.799  1.00  0.00    -0.377 OA
BRANCH  37  38
ATOM     38  C   UNL A   1      45.511  19.685  25.129  1.00  0.00     0.188 C 
BRANCH  38  39
ATOM     39  C   UNL A   1      46.173  20.772  24.249  1.00  0.00     0.188 C 
BRANCH  39  40
ATOM     40  O   UNL A   1      46.720  21.863  24.979  1.00  0.00    -0.376 OA
BRANCH  40  41
ATOM     41  C   UNL A   1      46.107  23.141  24.855  1.00  0.00     0.202 C 
BRANCH  41  42
ATOM     42  C   UNL A   1      45.283  23.634  26.054  1.00  0.00     0.261 C 
BRANCH  42  43
ATOM     43  O   UNL A   1      44.660  24.910  25.823  1.00  0.00    -0.460 OA
BRANCH  43  44
ATOM     44  C   UNL A   1      43.339  24.930  25.535  1.00  0.00     0.338 C 
ATOM     45  O   UNL A   1      42.694  24.044  25.003  1.00  0.00    -0.246 OA
BRANCH  44  46
ATOM     46  C   UNL A   1      42.773  26.037  26.347  1.00  0.00     0.060 A 
ATOM     47  C   UNL A   1      42.078  27.098  25.754  1.00  0.00     0.016 A 
ATOM     48  C   UNL A   1      43.246  26.147  27.663  1.00  0.00     0.016 A 
ATOM     49  C   UNL A   1      41.966  28.305  26.442  1.00  0.00     0.010 A 
ATOM     50  C   UNL A   1      43.151  27.363  28.338  1.00  0.00     0.010 A 
ATOM     51  C   UNL A   1      42.549  28.458  27.714  1.00  0.00    -0.014 A 
BRANCH  51  52
ATOM     52  C   UNL A   1      42.313  29.717  28.431  1.00  0.00     0.031 A 
ATOM     53  C   UNL A   1      43.271  30.798  28.062  1.00  0.00     0.074 A 
ATOM     54  C   UNL A   1      41.259  30.033  29.216  1.00  0.00     0.049 A 
ATOM     55  N   UNL A   1      44.000  31.525  28.843  1.00  0.00    -0.248 NA
ATOM     56  C   UNL A   1      43.484  31.049  26.628  1.00  0.00     0.031 C 
ATOM     57  C   UNL A   1      40.039  29.263  29.453  1.00  0.00     0.029 A 
ATOM     58  N   UNL A   1      41.019  31.205  29.891  1.00  0.00    -0.354 N 
ATOM     59  C   UNL A   1      44.674  32.417  28.014  1.00  0.00     0.074 A 
ATOM     60  C   UNL A   1      44.390  32.023  26.658  1.00  0.00     0.031 C 
ATOM     61  C   UNL A   1      39.110  30.068  30.023  1.00  0.00     0.029 A 
ATOM     62  C   UNL A   1      39.700  31.371  30.292  1.00  0.00     0.049 A 
ATOM     63  H   UNL A   1      41.722  31.870  30.074  1.00  0.00     0.167 HD
ATOM     64  C   UNL A   1      45.306  33.521  28.492  1.00  0.00     0.037 A 
ATOM     65  C   UNL A   1      39.115  32.515  30.730  1.00  0.00     0.037 A 
ATOM     66  C   UNL A   1      45.615  33.403  29.889  1.00  0.00     0.049 A 
ATOM     67  C   UNL A   1      40.178  33.452  31.164  1.00  0.00     0.074 A 
ATOM     68  C   UNL A   1      46.288  32.440  30.618  1.00  0.00     0.029 A 
ATOM     69  N   UNL A   1      44.910  34.139  30.810  1.00  0.00    -0.354 N 
ATOM     70  N   UNL A   1      40.886  33.318  32.248  1.00  0.00    -0.248 NA
ATOM     71  C   UNL A   1      40.701  34.391  30.180  1.00  0.00     0.031 C 
ATOM     72  C   UNL A   1      45.523  32.291  31.806  1.00  0.00     0.029 A 
ATOM     73  C   UNL A   1      44.521  33.255  31.785  1.00  0.00     0.049 A 
ATOM     74  H   UNL A   1      44.722  35.105  30.777  1.00  0.00     0.167 HD
ATOM     75  C   UNL A   1      42.132  33.807  31.899  1.00  0.00     0.074 A 
ATOM     76  C   UNL A   1      41.933  34.550  30.662  1.00  0.00     0.031 C 
ATOM     77  C   UNL A   1      43.262  33.315  32.474  1.00  0.00     0.037 A 
BRANCH  64  78
ATOM     78  C   UNL A   1      45.412  34.802  27.722  1.00  0.00     0.064 A 
ATOM     79  C   UNL A   1      46.664  35.405  27.510  1.00  0.00     0.173 A 
ATOM     80  C   UNL A   1      44.283  35.591  27.407  1.00  0.00     0.173 A 
ATOM     81  F   UNL A   1      47.794  34.757  27.825  1.00  0.00    -0.203 F 
ATOM     82  C   UNL A   1      46.774  36.717  27.043  1.00  0.00     0.198 A 
ATOM     83  C   UNL A   1      44.398  36.879  26.892  1.00  0.00     0.198 A 
ATOM     84  F   UNL A   1      43.039  35.180  27.684  1.00  0.00    -0.203 F 
ATOM     85  F   UNL A   1      47.982  37.290  26.949  1.00  0.00    -0.200 F 
ATOM     86  C   UNL A   1      45.642  37.450  26.732  1.00  0.00     0.200 A 
ATOM     87  F   UNL A   1      43.290  37.582  26.619  1.00  0.00    -0.200 F 
ATOM     88  F   UNL A   1      45.747  38.723  26.327  1.00  0.00    -0.200 F 
ENDBRANCH  64  78
BRANCH  65  89
ATOM     89  C   UNL A   1      37.717  32.984  30.554  1.00  0.00     0.064 A 
ATOM     90  C   UNL A   1      37.274  33.514  29.328  1.00  0.00     0.173 A 
ATOM     91  C   UNL A   1      36.716  32.645  31.483  1.00  0.00     0.173 A 
ATOM     92  F   UNL A   1      38.155  33.820  28.364  1.00  0.00    -0.203 F 
ATOM     93  C   UNL A   1      35.912  33.667  29.041  1.00  0.00     0.198 A 
ATOM     94  C   UNL A   1      35.359  32.809  31.201  1.00  0.00     0.198 A 
ATOM     95  F   UNL A   1      37.029  32.053  32.644  1.00  0.00    -0.203 F 
ATOM     96  F   UNL A   1      35.527  34.107  27.835  1.00  0.00    -0.200 F 
ATOM     97  C   UNL A   1      34.957  33.304  29.974  1.00  0.00     0.200 A 
ATOM     98  F   UNL A   1      34.444  32.418  32.099  1.00  0.00    -0.200 F 
ATOM     99  F   UNL A   1      33.652  33.388  29.678  1.00  0.00    -0.200 F 
ENDBRANCH  65  89
BRANCH  77 100
ATOM    100  C   UNL A   1      43.136  32.497  33.719  1.00  0.00     0.064 A 
ATOM    101  C   UNL A   1      43.172  33.044  35.012  1.00  0.00     0.173 A 
ATOM    102  C   UNL A   1      42.785  31.146  33.591  1.00  0.00     0.173 A 
ATOM    103  F   UNL A   1      43.400  34.351  35.203  1.00  0.00    -0.203 F 
ATOM    104  C   UNL A   1      42.896  32.258  36.129  1.00  0.00     0.198 A 
ATOM    105  C   UNL A   1      42.483  30.372  34.707  1.00  0.00     0.198 A 
ATOM    106  F   UNL A   1      42.683  30.591  32.372  1.00  0.00    -0.203 F 
ATOM    107  F   UNL A   1      42.928  32.802  37.353  1.00  0.00    -0.200 F 
ATOM    108  C   UNL A   1      42.543  30.927  35.975  1.00  0.00     0.200 A 
ATOM    109  F   UNL A   1      42.097  29.097  34.551  1.00  0.00    -0.200 F 
ATOM    110  F   UNL A   1      42.230  30.184  37.046  1.00  0.00    -0.200 F 
ENDBRANCH  77 100
ENDBRANCH  51  52
ENDBRANCH  44  46
ENDBRANCH  43  44
ENDBRANCH  42  43
ENDBRANCH  41  42
ENDBRANCH  40  41
ENDBRANCH  39  40
ENDBRANCH  38  39
ENDBRANCH  37  38
ENDBRANCH   1  37
TORSDOF 25
ENDMDL
