MODEL 1
REMARK VINA RESULT:     -10.3      0.000      0.000
REMARK SMILES O=C(NCC(=O)OCCOCCOCCOCCOC(=O)c1ccc(-c2c3nc(c(-c4c(F)c(F)c(F)c(F)c4F)c4ccc([nH]4)c(-c4c(F)c(F)c(F)c(F)c4F)c4nc(c(-c5c(F)c(F)c(F)c(F)c5F)c5ccc2[nH]5)C=C4)C=C3)cc1)Nc1cccc2c1CCCC2
REMARK SMILES IDX 13 1 12 2 11 3 10 4 9 5 8 6 7 7 5 8 6 9 4 10 3 11 1 12 2 13
REMARK SMILES IDX 85 14 86 17 87 18 91 19 88 20 90 21 92 22 89 23 95 24 93 25
REMARK SMILES IDX 94 26 14 27 15 28 16 29 17 30 18 31 19 32 20 33 21 34 22 35
REMARK SMILES IDX 23 36 84 37 24 38 83 39 25 40 26 41 27 42 77 43 28 44 82 45
REMARK SMILES IDX 76 46 78 47 29 48 81 49 75 50 74 51 30 53 62 54 42 55 61 56
REMARK SMILES IDX 43 57 46 58 60 59 79 60 44 61 45 62 59 64 80 65 47 66 31 67
REMARK SMILES IDX 32 68 40 69 33 70 34 71 38 72 41 73 35 74 36 75 39 76 37 77
REMARK SMILES IDX 63 78 64 79 72 80 65 81 66 82 70 83 73 84 67 85 68 86 71 87
REMARK SMILES IDX 69 88 48 89 49 90 57 91 50 92 51 93 55 94 58 95 52 96 53 97
REMARK SMILES IDX 56 98 54 99
REMARK H PARENT 3 15 85 16 78 52 46 63
REMARK Flexibility Score: inf
ROOT
ATOM      1  O   UNL A   1      40.140  20.659  26.490  1.00  0.00    -0.377 OA
ENDROOT
BRANCH   1   2
ATOM      2  C   UNL A   1      39.085  21.349  25.852  1.00  0.00     0.188 C 
BRANCH   2   3
ATOM      3  C   UNL A   1      38.861  22.781  26.372  1.00  0.00     0.188 C 
BRANCH   3   4
ATOM      4  O   UNL A   1      37.866  23.615  25.797  1.00  0.00    -0.376 OA
BRANCH   4   5
ATOM      5  C   UNL A   1      36.488  23.266  25.848  1.00  0.00     0.202 C 
BRANCH   5   6
ATOM      6  C   UNL A   1      35.866  22.223  24.906  1.00  0.00     0.261 C 
BRANCH   6   7
ATOM      7  O   UNL A   1      34.550  22.528  24.426  1.00  0.00    -0.462 OA
BRANCH   7   8
ATOM      8  C   UNL A   1      33.577  21.630  24.721  1.00  0.00     0.325 C 
ATOM      9  O   UNL A   1      33.061  20.866  23.912  1.00  0.00    -0.250 OA
BRANCH   8  10
ATOM     10  C   UNL A   1      33.313  21.515  26.219  1.00  0.00     0.240 C 
BRANCH  10  11
ATOM     11  N   UNL A   1      32.231  22.323  26.756  1.00  0.00    -0.327 N 
ATOM     12  O   UNL A   1      30.927  24.044  27.196  1.00  0.00    -0.248 OA
ATOM     13  C   UNL A   1      31.992  23.662  26.718  1.00  0.00     0.319 C 
ATOM     14  N   UNL A   1      32.931  24.439  26.074  1.00  0.00    -0.308 N 
ATOM     15  H   UNL A   1      31.543  21.807  27.238  1.00  0.00     0.166 HD
ATOM     16  H   UNL A   1      33.836  24.079  25.927  1.00  0.00     0.171 HD
BRANCH  14  17
ATOM     17  C   UNL A   1      32.623  25.750  25.617  1.00  0.00     0.046 A 
ATOM     18  C   UNL A   1      33.214  26.760  26.368  1.00  0.00     0.026 A 
ATOM     19  C   UNL A   1      32.363  26.007  24.274  1.00  0.00    -0.021 A 
ATOM     20  C   UNL A   1      33.891  27.777  25.690  1.00  0.00     0.002 A 
ATOM     21  C   UNL A   1      33.249  26.822  23.563  1.00  0.00    -0.043 A 
ATOM     22  C   UNL A   1      30.916  26.355  23.881  1.00  0.00     0.038 C 
ATOM     23  C   UNL A   1      34.003  27.738  24.292  1.00  0.00     0.004 A 
ATOM     24  C   UNL A   1      33.190  26.780  22.060  1.00  0.00     0.036 C 
ATOM     25  C   UNL A   1      30.683  26.378  22.366  1.00  0.00     0.005 C 
ATOM     26  C   UNL A   1      31.934  26.048  21.552  1.00  0.00     0.005 C 
ENDBRANCH  14  17
ENDBRANCH  10  11
ENDBRANCH   8  10
ENDBRANCH   7   8
ENDBRANCH   6   7
ENDBRANCH   5   6
ENDBRANCH   4   5
ENDBRANCH   3   4
ENDBRANCH   2   3
ENDBRANCH   1   2
BRANCH   1  27
ATOM     27  C   UNL A   1      41.001  21.415  27.341  1.00  0.00     0.188 C 
BRANCH  27  28
ATOM     28  C   UNL A   1      42.496  21.554  26.979  1.00  0.00     0.188 C 
BRANCH  28  29
ATOM     29  O   UNL A   1      42.800  21.249  25.624  1.00  0.00    -0.376 OA
BRANCH  29  30
ATOM     30  C   UNL A   1      44.071  21.635  25.119  1.00  0.00     0.202 C 
BRANCH  30  31
ATOM     31  C   UNL A   1      44.106  22.866  24.197  1.00  0.00     0.261 C 
BRANCH  31  32
ATOM     32  O   UNL A   1      43.456  24.046  24.701  1.00  0.00    -0.460 OA
BRANCH  32  33
ATOM     33  C   UNL A   1      44.250  25.037  25.161  1.00  0.00     0.338 C 
ATOM     34  O   UNL A   1      45.344  25.349  24.746  1.00  0.00    -0.246 OA
BRANCH  33  35
ATOM     35  C   UNL A   1      43.478  25.833  26.143  1.00  0.00     0.060 A 
ATOM     36  C   UNL A   1      43.706  27.213  26.194  1.00  0.00     0.016 A 
ATOM     37  C   UNL A   1      42.577  25.233  27.026  1.00  0.00     0.016 A 
ATOM     38  C   UNL A   1      43.083  27.987  27.171  1.00  0.00     0.010 A 
ATOM     39  C   UNL A   1      41.961  26.009  28.015  1.00  0.00     0.010 A 
ATOM     40  C   UNL A   1      42.249  27.382  28.123  1.00  0.00    -0.014 A 
BRANCH  40  41
ATOM     41  C   UNL A   1      41.846  28.167  29.318  1.00  0.00     0.031 A 
ATOM     42  C   UNL A   1      40.563  28.954  29.270  1.00  0.00     0.074 A 
ATOM     43  C   UNL A   1      42.558  28.111  30.458  1.00  0.00     0.049 A 
ATOM     44  N   UNL A   1      39.972  29.644  30.213  1.00  0.00    -0.248 NA
ATOM     45  C   UNL A   1      39.848  28.962  27.985  1.00  0.00     0.031 C 
ATOM     46  C   UNL A   1      43.799  27.364  30.640  1.00  0.00     0.029 A 
ATOM     47  N   UNL A   1      42.327  28.688  31.682  1.00  0.00    -0.354 N 
ATOM     48  C   UNL A   1      38.818  30.162  29.637  1.00  0.00     0.074 A 
ATOM     49  C   UNL A   1      38.813  29.744  28.253  1.00  0.00     0.031 C 
ATOM     50  C   UNL A   1      44.219  27.522  31.907  1.00  0.00     0.029 A 
ATOM     51  C   UNL A   1      43.291  28.401  32.616  1.00  0.00     0.049 A 
ATOM     52  H   UNL A   1      41.544  29.255  31.871  1.00  0.00     0.167 HD
ATOM     53  C   UNL A   1      37.844  30.906  30.213  1.00  0.00     0.037 A 
ATOM     54  C   UNL A   1      43.411  28.808  33.895  1.00  0.00     0.037 A 
ATOM     55  C   UNL A   1      37.852  31.328  31.591  1.00  0.00     0.049 A 
ATOM     56  C   UNL A   1      42.342  29.686  34.495  1.00  0.00     0.074 A 
ATOM     57  C   UNL A   1      36.904  32.072  32.272  1.00  0.00     0.029 A 
ATOM     58  N   UNL A   1      38.868  31.053  32.496  1.00  0.00    -0.354 N 
ATOM     59  N   UNL A   1      41.237  30.139  33.955  1.00  0.00    -0.248 NA
ATOM     60  C   UNL A   1      42.534  30.096  35.893  1.00  0.00     0.031 C 
ATOM     61  C   UNL A   1      37.376  32.301  33.569  1.00  0.00     0.029 A 
ATOM     62  C   UNL A   1      38.583  31.637  33.721  1.00  0.00     0.049 A 
ATOM     63  H   UNL A   1      39.672  30.522  32.296  1.00  0.00     0.167 HD
ATOM     64  C   UNL A   1      40.587  30.857  34.953  1.00  0.00     0.074 A 
ATOM     65  C   UNL A   1      41.413  30.758  36.138  1.00  0.00     0.031 C 
ATOM     66  C   UNL A   1      39.412  31.534  34.895  1.00  0.00     0.037 A 
BRANCH  53  67
ATOM     67  C   UNL A   1      36.697  31.341  29.343  1.00  0.00     0.064 A 
ATOM     68  C   UNL A   1      35.662  30.463  28.986  1.00  0.00     0.173 A 
ATOM     69  C   UNL A   1      36.618  32.666  28.886  1.00  0.00     0.173 A 
ATOM     70  F   UNL A   1      35.694  29.182  29.385  1.00  0.00    -0.203 F 
ATOM     71  C   UNL A   1      34.607  30.887  28.180  1.00  0.00     0.198 A 
ATOM     72  C   UNL A   1      35.544  33.094  28.108  1.00  0.00     0.198 A 
ATOM     73  F   UNL A   1      37.577  33.548  29.199  1.00  0.00    -0.203 F 
ATOM     74  F   UNL A   1      33.658  30.016  27.808  1.00  0.00    -0.200 F 
ATOM     75  C   UNL A   1      34.545  32.203  27.750  1.00  0.00     0.200 A 
ATOM     76  F   UNL A   1      35.479  34.372  27.706  1.00  0.00    -0.200 F 
ATOM     77  F   UNL A   1      33.525  32.613  26.982  1.00  0.00    -0.200 F 
ENDBRANCH  53  67
BRANCH  54  78
ATOM     78  C   UNL A   1      44.591  28.391  34.702  1.00  0.00     0.064 A 
ATOM     79  C   UNL A   1      44.526  27.297  35.576  1.00  0.00     0.173 A 
ATOM     80  C   UNL A   1      45.799  29.100  34.635  1.00  0.00     0.173 A 
ATOM     81  F   UNL A   1      43.385  26.603  35.698  1.00  0.00    -0.203 F 
ATOM     82  C   UNL A   1      45.615  26.944  36.371  1.00  0.00     0.198 A 
ATOM     83  C   UNL A   1      46.899  28.725  35.404  1.00  0.00     0.198 A 
ATOM     84  F   UNL A   1      45.915  30.157  33.818  1.00  0.00    -0.203 F 
ATOM     85  F   UNL A   1      45.506  25.930  37.240  1.00  0.00    -0.200 F 
ATOM     86  C   UNL A   1      46.803  27.653  36.279  1.00  0.00     0.200 A 
ATOM     87  F   UNL A   1      48.049  29.404  35.302  1.00  0.00    -0.200 F 
ATOM     88  F   UNL A   1      47.851  27.312  37.041  1.00  0.00    -0.200 F 
ENDBRANCH  54  78
BRANCH  66  89
ATOM     89  C   UNL A   1      38.929  32.183  36.164  1.00  0.00     0.064 A 
ATOM     90  C   UNL A   1      39.264  33.504  36.500  1.00  0.00     0.173 A 
ATOM     91  C   UNL A   1      38.115  31.470  37.059  1.00  0.00     0.173 A 
ATOM     92  F   UNL A   1      40.047  34.230  35.687  1.00  0.00    -0.203 F 
ATOM     93  C   UNL A   1      38.850  34.064  37.707  1.00  0.00     0.198 A 
ATOM     94  C   UNL A   1      37.667  32.048  38.244  1.00  0.00     0.198 A 
ATOM     95  F   UNL A   1      37.750  30.208  36.785  1.00  0.00    -0.203 F 
ATOM     96  F   UNL A   1      39.250  35.300  38.040  1.00  0.00    -0.200 F 
ATOM     97  C   UNL A   1      38.049  33.339  38.575  1.00  0.00     0.200 A 
ATOM     98  F   UNL A   1      36.878  31.351  39.072  1.00  0.00    -0.200 F 
ATOM     99  F   UNL A   1      37.655  33.879  39.736  1.00  0.00    -0.200 F 
ENDBRANCH  66  89
ENDBRANCH  40  41
ENDBRANCH  33  35
ENDBRANCH  32  33
ENDBRANCH  31  32
ENDBRANCH  30  31
ENDBRANCH  29  30
ENDBRANCH  28  29
ENDBRANCH  27  28
ENDBRANCH   1  27
TORSDOF 22
ENDMDL
MODEL 2
REMARK VINA RESULT:      -9.8      5.318     11.615
REMARK SMILES O=C(NCC(=O)OCCOCCOCCOCCOC(=O)c1ccc(-c2c3nc(c(-c4c(F)c(F)c(F)c(F)c4F)c4ccc([nH]4)c(-c4c(F)c(F)c(F)c(F)c4F)c4nc(c(-c5c(F)c(F)c(F)c(F)c5F)c5ccc2[nH]5)C=C4)C=C3)cc1)Nc1cccc2c1CCCC2
REMARK SMILES IDX 13 1 12 2 11 3 10 4 9 5 8 6 7 7 5 8 6 9 4 10 3 11 1 12 2 13
REMARK SMILES IDX 85 14 86 17 87 18 91 19 88 20 90 21 92 22 89 23 95 24 93 25
REMARK SMILES IDX 94 26 14 27 15 28 16 29 17 30 18 31 19 32 20 33 21 34 22 35
REMARK SMILES IDX 23 36 84 37 24 38 83 39 25 40 26 41 27 42 77 43 28 44 82 45
REMARK SMILES IDX 76 46 78 47 29 48 81 49 75 50 74 51 30 53 62 54 42 55 61 56
REMARK SMILES IDX 43 57 46 58 60 59 79 60 44 61 45 62 59 64 80 65 47 66 31 67
REMARK SMILES IDX 32 68 40 69 33 70 34 71 38 72 41 73 35 74 36 75 39 76 37 77
REMARK SMILES IDX 63 78 64 79 72 80 65 81 66 82 70 83 73 84 67 85 68 86 71 87
REMARK SMILES IDX 69 88 48 89 49 90 57 91 50 92 51 93 55 94 58 95 52 96 53 97
REMARK SMILES IDX 56 98 54 99
REMARK H PARENT 3 15 85 16 78 52 46 63
REMARK Flexibility Score: inf
ROOT
ATOM      1  O   UNL A   1      33.605  36.570  31.684  1.00  0.00    -0.377 OA
ENDROOT
BRANCH   1   2
ATOM      2  C   UNL A   1      33.851  35.570  32.652  1.00  0.00     0.188 C 
BRANCH   2   3
ATOM      3  C   UNL A   1      34.935  34.554  32.250  1.00  0.00     0.188 C 
BRANCH   3   4
ATOM      4  O   UNL A   1      34.611  33.186  32.052  1.00  0.00    -0.376 OA
BRANCH   4   5
ATOM      5  C   UNL A   1      35.613  32.177  32.080  1.00  0.00     0.202 C 
BRANCH   5   6
ATOM      6  C   UNL A   1      36.650  32.077  33.210  1.00  0.00     0.261 C 
BRANCH   6   7
ATOM      7  O   UNL A   1      37.962  32.560  32.893  1.00  0.00    -0.462 OA
BRANCH   7   8
ATOM      8  C   UNL A   1      38.411  33.612  33.624  1.00  0.00     0.325 C 
ATOM      9  O   UNL A   1      37.922  34.736  33.609  1.00  0.00    -0.250 OA
BRANCH   8  10
ATOM     10  C   UNL A   1      39.481  33.213  34.636  1.00  0.00     0.240 C 
BRANCH  10  11
ATOM     11  N   UNL A   1      39.162  32.106  35.522  1.00  0.00    -0.327 N 
ATOM     12  O   UNL A   1      39.060  30.080  36.384  1.00  0.00    -0.248 OA
ATOM     13  C   UNL A   1      39.368  30.765  35.411  1.00  0.00     0.319 C 
ATOM     14  N   UNL A   1      39.973  30.327  34.253  1.00  0.00    -0.308 N 
ATOM     15  H   UNL A   1      38.713  32.375  36.358  1.00  0.00     0.166 HD
ATOM     16  H   UNL A   1      39.974  30.909  33.459  1.00  0.00     0.171 HD
BRANCH  14  17
ATOM     17  C   UNL A   1      40.597  29.051  34.179  1.00  0.00     0.046 A 
ATOM     18  C   UNL A   1      40.225  28.308  33.064  1.00  0.00     0.026 A 
ATOM     19  C   UNL A   1      41.865  28.832  34.713  1.00  0.00    -0.021 A 
ATOM     20  C   UNL A   1      41.234  27.721  32.296  1.00  0.00     0.002 A 
ATOM     21  C   UNL A   1      42.913  28.517  33.843  1.00  0.00    -0.043 A 
ATOM     22  C   UNL A   1      41.966  27.960  35.977  1.00  0.00     0.038 C 
ATOM     23  C   UNL A   1      42.582  27.928  32.625  1.00  0.00     0.004 A 
ATOM     24  C   UNL A   1      44.320  28.667  34.356  1.00  0.00     0.036 C 
ATOM     25  C   UNL A   1      43.355  27.980  36.624  1.00  0.00     0.005 C 
ATOM     26  C   UNL A   1      44.359  28.863  35.883  1.00  0.00     0.005 C 
ENDBRANCH  14  17
ENDBRANCH  10  11
ENDBRANCH   8  10
ENDBRANCH   7   8
ENDBRANCH   6   7
ENDBRANCH   5   6
ENDBRANCH   4   5
ENDBRANCH   3   4
ENDBRANCH   2   3
ENDBRANCH   1   2
BRANCH   1  27
ATOM     27  C   UNL A   1      32.648  36.279  30.666  1.00  0.00     0.188 C 
BRANCH  27  28
ATOM     28  C   UNL A   1      32.956  35.178  29.627  1.00  0.00     0.188 C 
BRANCH  28  29
ATOM     29  O   UNL A   1      33.968  35.525  28.690  1.00  0.00    -0.376 OA
BRANCH  29  30
ATOM     30  C   UNL A   1      34.738  34.477  28.118  1.00  0.00     0.202 C 
BRANCH  30  31
ATOM     31  C   UNL A   1      34.280  33.039  28.414  1.00  0.00     0.261 C 
BRANCH  31  32
ATOM     32  O   UNL A   1      34.619  32.056  27.421  1.00  0.00    -0.460 OA
BRANCH  32  33
ATOM     33  C   UNL A   1      34.476  30.757  27.765  1.00  0.00     0.338 C 
ATOM     34  O   UNL A   1      33.461  30.099  27.727  1.00  0.00    -0.246 OA
BRANCH  33  35
ATOM     35  C   UNL A   1      35.822  30.192  28.013  1.00  0.00     0.060 A 
ATOM     36  C   UNL A   1      36.121  29.749  29.307  1.00  0.00     0.016 A 
ATOM     37  C   UNL A   1      36.789  30.133  27.006  1.00  0.00     0.016 A 
ATOM     38  C   UNL A   1      37.407  29.309  29.613  1.00  0.00     0.010 A 
ATOM     39  C   UNL A   1      38.084  29.701  27.317  1.00  0.00     0.010 A 
ATOM     40  C   UNL A   1      38.412  29.333  28.635  1.00  0.00    -0.014 A 
BRANCH  40  41
ATOM     41  C   UNL A   1      39.824  29.150  29.060  1.00  0.00     0.031 A 
ATOM     42  C   UNL A   1      40.562  27.915  28.612  1.00  0.00     0.074 A 
ATOM     43  C   UNL A   1      40.469  30.103  29.755  1.00  0.00     0.049 A 
ATOM     44  N   UNL A   1      41.815  27.583  28.791  1.00  0.00    -0.248 NA
ATOM     45  C   UNL A   1      39.781  26.924  27.857  1.00  0.00     0.031 C 
ATOM     46  C   UNL A   1      39.875  31.352  30.222  1.00  0.00     0.029 A 
ATOM     47  N   UNL A   1      41.773  30.169  30.178  1.00  0.00    -0.354 N 
ATOM     48  C   UNL A   1      41.972  26.349  28.169  1.00  0.00     0.074 A 
ATOM     49  C   UNL A   1      40.678  25.972  27.646  1.00  0.00     0.031 C 
ATOM     50  C   UNL A   1      40.816  32.067  30.864  1.00  0.00     0.029 A 
ATOM     51  C   UNL A   1      42.069  31.315  30.873  1.00  0.00     0.049 A 
ATOM     52  H   UNL A   1      42.434  29.460  30.000  1.00  0.00     0.167 HD
ATOM     53  C   UNL A   1      43.095  25.605  28.033  1.00  0.00     0.037 A 
ATOM     54  C   UNL A   1      43.220  31.706  31.456  1.00  0.00     0.037 A 
ATOM     55  C   UNL A   1      44.384  25.977  28.561  1.00  0.00     0.049 A 
ATOM     56  C   UNL A   1      44.442  30.830  31.342  1.00  0.00     0.074 A 
ATOM     57  C   UNL A   1      45.586  25.297  28.463  1.00  0.00     0.029 A 
ATOM     58  N   UNL A   1      44.635  27.127  29.296  1.00  0.00    -0.354 N 
ATOM     59  N   UNL A   1      44.590  29.686  30.720  1.00  0.00    -0.248 NA
ATOM     60  C   UNL A   1      45.663  31.314  32.000  1.00  0.00     0.031 C 
ATOM     61  C   UNL A   1      46.548  26.002  29.194  1.00  0.00     0.029 A 
ATOM     62  C   UNL A   1      45.966  27.161  29.684  1.00  0.00     0.049 A 
ATOM     63  H   UNL A   1      43.966  27.815  29.512  1.00  0.00     0.167 HD
ATOM     64  C   UNL A   1      45.924  29.330  30.883  1.00  0.00     0.074 A 
ATOM     65  C   UNL A   1      46.546  30.393  31.643  1.00  0.00     0.031 C 
ATOM     66  C   UNL A   1      46.576  28.224  30.442  1.00  0.00     0.037 A 
BRANCH  53  67
ATOM     67  C   UNL A   1      42.975  24.292  27.310  1.00  0.00     0.064 A 
ATOM     68  C   UNL A   1      43.277  24.166  25.946  1.00  0.00     0.173 A 
ATOM     69  C   UNL A   1      42.582  23.136  28.002  1.00  0.00     0.173 A 
ATOM     70  F   UNL A   1      43.645  25.242  25.232  1.00  0.00    -0.203 F 
ATOM     71  C   UNL A   1      43.160  22.940  25.294  1.00  0.00     0.198 A 
ATOM     72  C   UNL A   1      42.500  21.905  27.356  1.00  0.00     0.198 A 
ATOM     73  F   UNL A   1      42.285  23.197  29.308  1.00  0.00    -0.203 F 
ATOM     74  F   UNL A   1      43.402  22.856  23.979  1.00  0.00    -0.200 F 
ATOM     75  C   UNL A   1      42.781  21.809  26.001  1.00  0.00     0.200 A 
ATOM     76  F   UNL A   1      42.147  20.810  28.045  1.00  0.00    -0.200 F 
ATOM     77  F   UNL A   1      42.678  20.628  25.377  1.00  0.00    -0.200 F 
ENDBRANCH  53  67
BRANCH  54  78
ATOM     78  C   UNL A   1      43.276  32.992  32.204  1.00  0.00     0.064 A 
ATOM     79  C   UNL A   1      43.555  34.202  31.553  1.00  0.00     0.173 A 
ATOM     80  C   UNL A   1      43.082  33.030  33.592  1.00  0.00     0.173 A 
ATOM     81  F   UNL A   1      43.776  34.216  30.230  1.00  0.00    -0.203 F 
ATOM     82  C   UNL A   1      43.662  35.396  32.265  1.00  0.00     0.198 A 
ATOM     83  C   UNL A   1      43.154  34.229  34.299  1.00  0.00     0.198 A 
ATOM     84  F   UNL A   1      42.816  31.901  34.266  1.00  0.00    -0.203 F 
ATOM     85  F   UNL A   1      43.986  36.528  31.625  1.00  0.00    -0.200 F 
ATOM     86  C   UNL A   1      43.453  35.410  33.636  1.00  0.00     0.200 A 
ATOM     87  F   UNL A   1      42.939  34.240  35.621  1.00  0.00    -0.200 F 
ATOM     88  F   UNL A   1      43.553  36.558  34.319  1.00  0.00    -0.200 F 
ENDBRANCH  54  78
BRANCH  66  89
ATOM     89  C   UNL A   1      48.050  28.133  30.733  1.00  0.00     0.064 A 
ATOM     90  C   UNL A   1      49.013  28.693  29.879  1.00  0.00     0.173 A 
ATOM     91  C   UNL A   1      48.506  27.476  31.886  1.00  0.00     0.173 A 
ATOM     92  F   UNL A   1      48.636  29.325  28.757  1.00  0.00    -0.203 F 
ATOM     93  C   UNL A   1      50.375  28.548  30.140  1.00  0.00     0.198 A 
ATOM     94  C   UNL A   1      49.866  27.371  32.166  1.00  0.00     0.198 A 
ATOM     95  F   UNL A   1      47.632  26.934  32.747  1.00  0.00    -0.203 F 
ATOM     96  F   UNL A   1      51.276  29.023  29.267  1.00  0.00    -0.200 F 
ATOM     97  C   UNL A   1      50.799  27.892  31.285  1.00  0.00     0.200 A 
ATOM     98  F   UNL A   1      50.273  26.753  33.283  1.00  0.00    -0.200 F 
ATOM     99  F   UNL A   1      52.109  27.752  31.532  1.00  0.00    -0.200 F 
ENDBRANCH  66  89
ENDBRANCH  40  41
ENDBRANCH  33  35
ENDBRANCH  32  33
ENDBRANCH  31  32
ENDBRANCH  30  31
ENDBRANCH  29  30
ENDBRANCH  28  29
ENDBRANCH  27  28
ENDBRANCH   1  27
TORSDOF 22
ENDMDL
MODEL 3
REMARK VINA RESULT:      -9.7      1.519      7.785
REMARK SMILES O=C(NCC(=O)OCCOCCOCCOCCOC(=O)c1ccc(-c2c3nc(c(-c4c(F)c(F)c(F)c(F)c4F)c4ccc([nH]4)c(-c4c(F)c(F)c(F)c(F)c4F)c4nc(c(-c5c(F)c(F)c(F)c(F)c5F)c5ccc2[nH]5)C=C4)C=C3)cc1)Nc1cccc2c1CCCC2
REMARK SMILES IDX 13 1 12 2 11 3 10 4 9 5 8 6 7 7 5 8 6 9 4 10 3 11 1 12 2 13
REMARK SMILES IDX 85 14 86 17 87 18 91 19 88 20 90 21 92 22 89 23 95 24 93 25
REMARK SMILES IDX 94 26 14 27 15 28 16 29 17 30 18 31 19 32 20 33 21 34 22 35
REMARK SMILES IDX 23 36 84 37 24 38 83 39 25 40 26 41 27 42 77 43 28 44 82 45
REMARK SMILES IDX 76 46 78 47 29 48 81 49 75 50 74 51 30 53 62 54 42 55 61 56
REMARK SMILES IDX 43 57 46 58 60 59 79 60 44 61 45 62 59 64 80 65 47 66 31 67
REMARK SMILES IDX 32 68 40 69 33 70 34 71 38 72 41 73 35 74 36 75 39 76 37 77
REMARK SMILES IDX 63 78 64 79 72 80 65 81 66 82 70 83 73 84 67 85 68 86 71 87
REMARK SMILES IDX 69 88 48 89 49 90 57 91 50 92 51 93 55 94 58 95 52 96 53 97
REMARK SMILES IDX 56 98 54 99
REMARK H PARENT 3 15 85 16 78 52 46 63
REMARK Flexibility Score: inf
ROOT
ATOM      1  O   UNL A   1      37.730  22.653  26.224  1.00  0.00    -0.377 OA
ENDROOT
BRANCH   1   2
ATOM      2  C   UNL A   1      37.455  23.967  25.784  1.00  0.00     0.188 C 
BRANCH   2   3
ATOM      3  C   UNL A   1      36.022  24.171  25.261  1.00  0.00     0.188 C 
BRANCH   3   4
ATOM      4  O   UNL A   1      35.089  24.958  25.987  1.00  0.00    -0.376 OA
BRANCH   4   5
ATOM      5  C   UNL A   1      33.942  25.515  25.356  1.00  0.00     0.202 C 
BRANCH   5   6
ATOM      6  C   UNL A   1      34.011  26.788  24.498  1.00  0.00     0.261 C 
BRANCH   6   7
ATOM      7  O   UNL A   1      32.837  27.081  23.729  1.00  0.00    -0.462 OA
BRANCH   7   8
ATOM      8  C   UNL A   1      33.024  27.318  22.406  1.00  0.00     0.325 C 
ATOM      9  O   UNL A   1      33.827  28.123  21.946  1.00  0.00    -0.250 OA
BRANCH   8  10
ATOM     10  C   UNL A   1      32.270  26.334  21.518  1.00  0.00     0.240 C 
BRANCH  10  11
ATOM     11  N   UNL A   1      32.915  25.057  21.262  1.00  0.00    -0.327 N 
ATOM     12  O   UNL A   1      33.545  22.955  21.468  1.00  0.00    -0.248 OA
ATOM     13  C   UNL A   1      32.993  23.916  21.999  1.00  0.00     0.319 C 
ATOM     14  N   UNL A   1      32.375  23.932  23.231  1.00  0.00    -0.308 N 
ATOM     15  H   UNL A   1      33.383  25.008  20.396  1.00  0.00     0.166 HD
ATOM     16  H   UNL A   1      32.162  24.796  23.652  1.00  0.00     0.171 HD
BRANCH  14  17
ATOM     17  C   UNL A   1      32.037  22.728  23.908  1.00  0.00     0.046 A 
ATOM     18  C   UNL A   1      31.664  21.692  23.059  1.00  0.00     0.026 A 
ATOM     19  C   UNL A   1      32.624  22.391  25.125  1.00  0.00    -0.021 A 
ATOM     20  C   UNL A   1      32.254  20.440  23.246  1.00  0.00     0.002 A 
ATOM     21  C   UNL A   1      33.446  21.262  25.183  1.00  0.00    -0.043 A 
ATOM     22  C   UNL A   1      31.740  22.448  26.384  1.00  0.00     0.038 C 
ATOM     23  C   UNL A   1      33.232  20.262  24.236  1.00  0.00     0.004 A 
ATOM     24  C   UNL A   1      34.370  21.126  26.362  1.00  0.00     0.036 C 
ATOM     25  C   UNL A   1      32.528  22.302  27.690  1.00  0.00     0.005 C 
ATOM     26  C   UNL A   1      34.032  22.130  27.479  1.00  0.00     0.005 C 
ENDBRANCH  14  17
ENDBRANCH  10  11
ENDBRANCH   8  10
ENDBRANCH   7   8
ENDBRANCH   6   7
ENDBRANCH   5   6
ENDBRANCH   4   5
ENDBRANCH   3   4
ENDBRANCH   2   3
ENDBRANCH   1   2
BRANCH   1  27
ATOM     27  C   UNL A   1      38.875  22.002  25.675  1.00  0.00     0.188 C 
BRANCH  27  28
ATOM     28  C   UNL A   1      40.097  21.724  26.579  1.00  0.00     0.188 C 
BRANCH  28  29
ATOM     29  O   UNL A   1      41.146  21.007  25.941  1.00  0.00    -0.376 OA
BRANCH  29  30
ATOM     30  C   UNL A   1      42.474  21.215  26.400  1.00  0.00     0.202 C 
BRANCH  30  31
ATOM     31  C   UNL A   1      43.458  21.858  25.407  1.00  0.00     0.261 C 
BRANCH  31  32
ATOM     32  O   UNL A   1      43.024  23.090  24.806  1.00  0.00    -0.460 OA
BRANCH  32  33
ATOM     33  C   UNL A   1      43.801  24.179  25.002  1.00  0.00     0.338 C 
ATOM     34  O   UNL A   1      44.834  24.451  24.434  1.00  0.00    -0.246 OA
BRANCH  33  35
ATOM     35  C   UNL A   1      43.077  25.110  25.897  1.00  0.00     0.060 A 
ATOM     36  C   UNL A   1      43.754  26.251  26.345  1.00  0.00     0.016 A 
ATOM     37  C   UNL A   1      41.772  24.852  26.323  1.00  0.00     0.016 A 
ATOM     38  C   UNL A   1      43.153  27.100  27.272  1.00  0.00     0.010 A 
ATOM     39  C   UNL A   1      41.172  25.699  27.264  1.00  0.00     0.010 A 
ATOM     40  C   UNL A   1      41.880  26.800  27.779  1.00  0.00    -0.014 A 
BRANCH  40  41
ATOM     41  C   UNL A   1      41.396  27.543  28.972  1.00  0.00     0.031 A 
ATOM     42  C   UNL A   1      42.163  27.422  30.263  1.00  0.00     0.074 A 
ATOM     43  C   UNL A   1      40.350  28.383  28.889  1.00  0.00     0.049 A 
ATOM     44  N   UNL A   1      41.978  28.036  31.403  1.00  0.00    -0.248 NA
ATOM     45  C   UNL A   1      43.294  26.481  30.265  1.00  0.00     0.031 C 
ATOM     46  C   UNL A   1      39.545  28.610  27.692  1.00  0.00     0.029 A 
ATOM     47  N   UNL A   1      39.793  29.209  29.833  1.00  0.00    -0.354 N 
ATOM     48  C   UNL A   1      42.967  27.560  32.255  1.00  0.00     0.074 A 
ATOM     49  C   UNL A   1      43.724  26.575  31.515  1.00  0.00     0.031 C 
ATOM     50  C   UNL A   1      38.599  29.524  27.971  1.00  0.00     0.029 A 
ATOM     51  C   UNL A   1      38.717  29.926  29.372  1.00  0.00     0.049 A 
ATOM     52  H   UNL A   1      40.134  29.281  30.755  1.00  0.00     0.167 HD
ATOM     53  C   UNL A   1      43.232  27.922  33.533  1.00  0.00     0.037 A 
ATOM     54  C   UNL A   1      37.915  30.800  30.012  1.00  0.00     0.037 A 
ATOM     55  C   UNL A   1      42.474  28.899  34.274  1.00  0.00     0.049 A 
ATOM     56  C   UNL A   1      38.195  31.140  31.454  1.00  0.00     0.074 A 
ATOM     57  C   UNL A   1      42.672  29.344  35.569  1.00  0.00     0.029 A 
ATOM     58  N   UNL A   1      41.363  29.572  33.786  1.00  0.00    -0.354 N 
ATOM     59  N   UNL A   1      39.155  30.715  32.239  1.00  0.00    -0.248 NA
ATOM     60  C   UNL A   1      37.283  32.099  32.093  1.00  0.00     0.031 C 
ATOM     61  C   UNL A   1      41.643  30.238  35.887  1.00  0.00     0.029 A 
ATOM     62  C   UNL A   1      40.847  30.409  34.765  1.00  0.00     0.049 A 
ATOM     63  H   UNL A   1      40.995  29.470  32.879  1.00  0.00     0.167 HD
ATOM     64  C   UNL A   1      38.983  31.377  33.449  1.00  0.00     0.074 A 
ATOM     65  C   UNL A   1      37.840  32.249  33.286  1.00  0.00     0.031 C 
ATOM     66  C   UNL A   1      39.707  31.274  34.593  1.00  0.00     0.037 A 
BRANCH  53  67
ATOM     67  C   UNL A   1      44.373  27.232  34.228  1.00  0.00     0.064 A 
ATOM     68  C   UNL A   1      45.666  27.778  34.251  1.00  0.00     0.173 A 
ATOM     69  C   UNL A   1      44.162  26.022  34.908  1.00  0.00     0.173 A 
ATOM     70  F   UNL A   1      45.928  28.925  33.606  1.00  0.00    -0.203 F 
ATOM     71  C   UNL A   1      46.710  27.123  34.902  1.00  0.00     0.198 A 
ATOM     72  C   UNL A   1      45.200  25.389  35.586  1.00  0.00     0.198 A 
ATOM     73  F   UNL A   1      42.946  25.457  34.921  1.00  0.00    -0.203 F 
ATOM     74  F   UNL A   1      47.948  27.636  34.864  1.00  0.00    -0.200 F 
ATOM     75  C   UNL A   1      46.475  25.935  35.576  1.00  0.00     0.200 A 
ATOM     76  F   UNL A   1      44.966  24.247  36.250  1.00  0.00    -0.200 F 
ATOM     77  F   UNL A   1      47.477  25.310  36.209  1.00  0.00    -0.200 F 
ENDBRANCH  53  67
BRANCH  54  78
ATOM     78  C   UNL A   1      36.767  31.420  29.296  1.00  0.00     0.064 A 
ATOM     79  C   UNL A   1      36.757  32.785  28.977  1.00  0.00     0.173 A 
ATOM     80  C   UNL A   1      35.641  30.661  28.941  1.00  0.00     0.173 A 
ATOM     81  F   UNL A   1      37.797  33.560  29.318  1.00  0.00    -0.203 F 
ATOM     82  C   UNL A   1      35.657  33.373  28.356  1.00  0.00     0.198 A 
ATOM     83  C   UNL A   1      34.556  31.242  28.289  1.00  0.00     0.198 A 
ATOM     84  F   UNL A   1      35.596  29.351  29.226  1.00  0.00    -0.203 F 
ATOM     85  F   UNL A   1      35.651  34.691  28.116  1.00  0.00    -0.200 F 
ATOM     86  C   UNL A   1      34.560  32.600  28.005  1.00  0.00     0.200 A 
ATOM     87  F   UNL A   1      33.504  30.489  27.940  1.00  0.00    -0.200 F 
ATOM     88  F   UNL A   1      33.503  33.164  27.406  1.00  0.00    -0.200 F 
ENDBRANCH  54  78
BRANCH  66  89
ATOM     89  C   UNL A   1      39.311  32.162  35.741  1.00  0.00     0.064 A 
ATOM     90  C   UNL A   1      38.396  31.747  36.722  1.00  0.00     0.173 A 
ATOM     91  C   UNL A   1      39.857  33.449  35.862  1.00  0.00     0.173 A 
ATOM     92  F   UNL A   1      37.835  30.530  36.652  1.00  0.00    -0.203 F 
ATOM     93  C   UNL A   1      38.003  32.607  37.745  1.00  0.00     0.198 A 
ATOM     94  C   UNL A   1      39.494  34.290  36.910  1.00  0.00     0.198 A 
ATOM     95  F   UNL A   1      40.747  33.896  34.963  1.00  0.00    -0.203 F 
ATOM     96  F   UNL A   1      37.068  32.216  38.623  1.00  0.00    -0.200 F 
ATOM     97  C   UNL A   1      38.554  33.875  37.842  1.00  0.00     0.200 A 
ATOM     98  F   UNL A   1      40.043  35.508  37.012  1.00  0.00    -0.200 F 
ATOM     99  F   UNL A   1      38.172  34.702  38.825  1.00  0.00    -0.200 F 
ENDBRANCH  66  89
ENDBRANCH  40  41
ENDBRANCH  33  35
ENDBRANCH  32  33
ENDBRANCH  31  32
ENDBRANCH  30  31
ENDBRANCH  29  30
ENDBRANCH  28  29
ENDBRANCH  27  28
ENDBRANCH   1  27
TORSDOF 22
ENDMDL
