MODEL 1
REMARK VINA RESULT:      -9.9      0.000      0.000
REMARK SMILES CC(C)=CC[N@@H+]1CC[C@@H](C(=O)OCCOCCOCCOCCOC(=O)c2ccc(-c3c4nc(c(-c5c(F)c(F)c(F)c(F)c5F)c5ccc([nH]5)c(-c5c(F)c(F)c(F)c(F)c5F)c5nc(c(-c6c(F)c(F)c(F)c(F)c6F)c6ccc3[nH]6)C=C5)C=C4)cc2)[C@H]1C
REMARK SMILES IDX 18 1 17 2 16 3 15 4 14 5 13 6 12 7 10 8 11 9 9 10 6 11 7 12
REMARK SMILES IDX 90 13 8 15 91 16 5 17 4 18 1 19 2 20 3 21 19 22 20 23 21 24
REMARK SMILES IDX 22 25 23 26 24 27 25 28 26 29 27 30 28 31 89 32 29 33 88 34
REMARK SMILES IDX 30 35 31 36 32 37 82 38 33 39 87 40 81 41 83 42 34 43 86 44
REMARK SMILES IDX 80 45 79 46 35 48 67 49 47 50 66 51 48 52 51 53 65 54 84 55
REMARK SMILES IDX 49 56 50 57 64 59 85 60 52 61 36 62 37 63 45 64 38 65 39 66
REMARK SMILES IDX 43 67 46 68 40 69 41 70 44 71 42 72 68 73 69 74 77 75 70 76
REMARK SMILES IDX 71 77 75 78 78 79 72 80 73 81 76 82 74 83 53 84 54 85 62 86
REMARK SMILES IDX 55 87 56 88 60 89 63 90 57 91 58 92 61 93 59 94
REMARK H PARENT 6 14 83 47 51 58
REMARK Flexibility Score: inf
ROOT
ATOM      1  O   UNL A   1      38.789  20.990  25.964  1.00  0.00    -0.377 OA
ENDROOT
BRANCH   1   2
ATOM      2  C   UNL A   1      38.028  22.079  25.452  1.00  0.00     0.188 C 
BRANCH   2   3
ATOM      3  C   UNL A   1      38.139  23.512  26.025  1.00  0.00     0.188 C 
BRANCH   3   4
ATOM      4  O   UNL A   1      36.904  24.184  26.153  1.00  0.00    -0.376 OA
BRANCH   4   5
ATOM      5  C   UNL A   1      35.736  23.624  25.590  1.00  0.00     0.202 C 
BRANCH   5   6
ATOM      6  C   UNL A   1      34.722  24.522  24.868  1.00  0.00     0.261 C 
BRANCH   6   7
ATOM      7  O   UNL A   1      33.470  23.906  24.559  1.00  0.00    -0.463 OA
BRANCH   7   8
ATOM      8  C   UNL A   1      32.681  23.555  25.592  1.00  0.00     0.315 C 
ATOM      9  O   UNL A   1      32.148  24.365  26.344  1.00  0.00    -0.252 OA
BRANCH   8  10
ATOM     10  C   UNL A   1      32.394  22.070  25.663  1.00  0.00     0.162 C 
ATOM     11  N   UNL A   1      33.098  20.010  24.712  1.00  0.00    -0.329 N 
ATOM     12  C   UNL A   1      33.270  19.925  26.155  1.00  0.00     0.263 C 
ATOM     13  C   UNL A   1      32.203  21.148  24.427  1.00  0.00     0.195 C 
ATOM     14  H   UNL A   1      34.009  20.193  24.290  1.00  0.00     0.348 HD
ATOM     15  C   UNL A   1      33.507  21.387  26.456  1.00  0.00     0.083 C 
ATOM     16  C   UNL A   1      32.545  21.648  23.028  1.00  0.00     0.076 C 
BRANCH  11  17
ATOM     17  C   UNL A   1      32.793  18.765  24.018  1.00  0.00     0.291 C 
BRANCH  17  18
ATOM     18  C   UNL A   1      33.911  17.792  24.240  1.00  0.00     0.032 C 
ATOM     19  C   UNL A   1      32.600  16.084  25.507  1.00  0.00     0.039 C 
ATOM     20  C   UNL A   1      33.870  16.647  24.944  1.00  0.00    -0.075 C 
ATOM     21  C   UNL A   1      35.145  15.888  25.162  1.00  0.00     0.039 C 
ENDBRANCH  17  18
ENDBRANCH  11  17
ENDBRANCH   8  10
ENDBRANCH   7   8
ENDBRANCH   6   7
ENDBRANCH   5   6
ENDBRANCH   4   5
ENDBRANCH   3   4
ENDBRANCH   2   3
ENDBRANCH   1   2
BRANCH   1  22
ATOM     22  C   UNL A   1      40.209  21.074  26.026  1.00  0.00     0.188 C 
BRANCH  22  23
ATOM     23  C   UNL A   1      40.902  20.559  27.302  1.00  0.00     0.188 C 
BRANCH  23  24
ATOM     24  O   UNL A   1      42.311  20.713  27.273  1.00  0.00    -0.376 OA
BRANCH  24  25
ATOM     25  C   UNL A   1      42.959  20.502  26.027  1.00  0.00     0.202 C 
BRANCH  25  26
ATOM     26  C   UNL A   1      44.222  21.314  25.681  1.00  0.00     0.261 C 
BRANCH  26  27
ATOM     27  O   UNL A   1      44.288  22.673  26.147  1.00  0.00    -0.460 OA
BRANCH  27  28
ATOM     28  C   UNL A   1      43.836  23.652  25.340  1.00  0.00     0.338 C 
ATOM     29  O   UNL A   1      43.832  23.663  24.117  1.00  0.00    -0.246 OA
BRANCH  28  30
ATOM     30  C   UNL A   1      43.168  24.660  26.191  1.00  0.00     0.060 A 
ATOM     31  C   UNL A   1      43.690  25.960  26.256  1.00  0.00     0.016 A 
ATOM     32  C   UNL A   1      42.031  24.321  26.926  1.00  0.00     0.016 A 
ATOM     33  C   UNL A   1      43.096  26.914  27.085  1.00  0.00     0.010 A 
ATOM     34  C   UNL A   1      41.449  25.271  27.774  1.00  0.00     0.010 A 
ATOM     35  C   UNL A   1      42.000  26.560  27.885  1.00  0.00    -0.014 A 
BRANCH  35  36
ATOM     36  C   UNL A   1      41.573  27.461  28.985  1.00  0.00     0.031 A 
ATOM     37  C   UNL A   1      42.337  27.409  30.281  1.00  0.00     0.074 A 
ATOM     38  C   UNL A   1      40.560  28.333  28.834  1.00  0.00     0.049 A 
ATOM     39  N   UNL A   1      42.122  28.044  31.405  1.00  0.00    -0.248 NA
ATOM     40  C   UNL A   1      43.507  26.514  30.311  1.00  0.00     0.031 C 
ATOM     41  C   UNL A   1      39.778  28.520  27.614  1.00  0.00     0.029 A 
ATOM     42  N   UNL A   1      40.008  29.220  29.727  1.00  0.00    -0.354 N 
ATOM     43  C   UNL A   1      43.130  27.633  32.269  1.00  0.00     0.074 A 
ATOM     44  C   UNL A   1      43.931  26.660  31.558  1.00  0.00     0.031 C 
ATOM     45  C   UNL A   1      38.837  29.454  27.839  1.00  0.00     0.029 A 
ATOM     46  C   UNL A   1      38.925  29.901  29.228  1.00  0.00     0.049 A 
ATOM     47  H   UNL A   1      40.358  29.355  30.637  1.00  0.00     0.167 HD
ATOM     48  C   UNL A   1      43.378  28.042  33.535  1.00  0.00     0.037 A 
ATOM     49  C   UNL A   1      38.085  30.762  29.840  1.00  0.00     0.037 A 
ATOM     50  C   UNL A   1      42.574  28.999  34.246  1.00  0.00     0.049 A 
ATOM     51  C   UNL A   1      38.317  31.113  31.291  1.00  0.00     0.074 A 
ATOM     52  C   UNL A   1      42.727  29.461  35.542  1.00  0.00     0.029 A 
ATOM     53  N   UNL A   1      41.461  29.639  33.721  1.00  0.00    -0.354 N 
ATOM     54  N   UNL A   1      39.276  30.729  32.098  1.00  0.00    -0.248 NA
ATOM     55  C   UNL A   1      37.347  32.026  31.916  1.00  0.00     0.031 C 
ATOM     56  C   UNL A   1      41.676  30.343  35.817  1.00  0.00     0.029 A 
ATOM     57  C   UNL A   1      40.908  30.479  34.672  1.00  0.00     0.049 A 
ATOM     58  H   UNL A   1      41.117  29.514  32.807  1.00  0.00     0.167 HD
ATOM     59  C   UNL A   1      39.049  31.382  33.304  1.00  0.00     0.074 A 
ATOM     60  C   UNL A   1      37.871  32.200  33.119  1.00  0.00     0.031 C 
ATOM     61  C   UNL A   1      39.751  31.310  34.463  1.00  0.00     0.037 A 
BRANCH  48  62
ATOM     62  C   UNL A   1      44.563  27.447  34.238  1.00  0.00     0.064 A 
ATOM     63  C   UNL A   1      44.466  26.240  34.948  1.00  0.00     0.173 A 
ATOM     64  C   UNL A   1      45.821  28.064  34.165  1.00  0.00     0.173 A 
ATOM     65  F   UNL A   1      43.283  25.618  35.062  1.00  0.00    -0.203 F 
ATOM     66  C   UNL A   1      45.579  25.685  35.574  1.00  0.00     0.198 A 
ATOM     67  C   UNL A   1      46.938  27.490  34.766  1.00  0.00     0.198 A 
ATOM     68  F   UNL A   1      45.971  29.218  33.497  1.00  0.00    -0.203 F 
ATOM     69  F   UNL A   1      45.452  24.554  36.282  1.00  0.00    -0.200 F 
ATOM     70  C   UNL A   1      46.815  26.304  35.474  1.00  0.00     0.200 A 
ATOM     71  F   UNL A   1      48.136  28.082  34.654  1.00  0.00    -0.200 F 
ATOM     72  F   UNL A   1      47.888  25.761  36.065  1.00  0.00    -0.200 F 
ENDBRANCH  48  62
BRANCH  49  73
ATOM     73  C   UNL A   1      36.920  31.336  29.108  1.00  0.00     0.064 A 
ATOM     74  C   UNL A   1      36.878  32.694  28.760  1.00  0.00     0.173 A 
ATOM     75  C   UNL A   1      35.793  30.556  28.810  1.00  0.00     0.173 A 
ATOM     76  F   UNL A   1      37.919  33.492  29.045  1.00  0.00    -0.203 F 
ATOM     77  C   UNL A   1      35.740  33.257  28.184  1.00  0.00     0.198 A 
ATOM     78  C   UNL A   1      34.670  31.112  28.199  1.00  0.00     0.198 A 
ATOM     79  F   UNL A   1      35.774  29.252  29.124  1.00  0.00    -0.203 F 
ATOM     80  F   UNL A   1      35.700  34.574  27.936  1.00  0.00    -0.200 F 
ATOM     81  C   UNL A   1      34.638  32.465  27.901  1.00  0.00     0.200 A 
ATOM     82  F   UNL A   1      33.613  30.340  27.917  1.00  0.00    -0.200 F 
ATOM     83  F   UNL A   1      33.540  33.009  27.359  1.00  0.00    -0.200 F 
ENDBRANCH  49  73
BRANCH  61  84
ATOM     84  C   UNL A   1      39.305  32.186  35.601  1.00  0.00     0.064 A 
ATOM     85  C   UNL A   1      38.446  31.719  36.606  1.00  0.00     0.173 A 
ATOM     86  C   UNL A   1      39.781  33.503  35.706  1.00  0.00     0.173 A 
ATOM     87  F   UNL A   1      37.953  30.472  36.548  1.00  0.00    -0.203 F 
ATOM     88  C   UNL A   1      38.054  32.547  37.656  1.00  0.00     0.198 A 
ATOM     89  C   UNL A   1      39.417  34.315  36.776  1.00  0.00     0.198 A 
ATOM     90  F   UNL A   1      40.614  33.998  34.778  1.00  0.00    -0.203 F 
ATOM     91  F   UNL A   1      37.187  32.097  38.574  1.00  0.00    -0.200 F 
ATOM     92  C   UNL A   1      38.546  33.840  37.745  1.00  0.00     0.200 A 
ATOM     93  F   UNL A   1      39.909  35.558  36.870  1.00  0.00    -0.200 F 
ATOM     94  F   UNL A   1      38.175  34.632  38.760  1.00  0.00    -0.200 F 
ENDBRANCH  61  84
ENDBRANCH  35  36
ENDBRANCH  28  30
ENDBRANCH  27  28
ENDBRANCH  26  27
ENDBRANCH  25  26
ENDBRANCH  24  25
ENDBRANCH  23  24
ENDBRANCH  22  23
ENDBRANCH   1  22
TORSDOF 22
ENDMDL
MODEL 2
REMARK VINA RESULT:      -9.8      2.187      3.945
REMARK SMILES CC(C)=CC[N@@H+]1CC[C@@H](C(=O)OCCOCCOCCOCCOC(=O)c2ccc(-c3c4nc(c(-c5c(F)c(F)c(F)c(F)c5F)c5ccc([nH]5)c(-c5c(F)c(F)c(F)c(F)c5F)c5nc(c(-c6c(F)c(F)c(F)c(F)c6F)c6ccc3[nH]6)C=C5)C=C4)cc2)[C@H]1C
REMARK SMILES IDX 18 1 17 2 16 3 15 4 14 5 13 6 12 7 10 8 11 9 9 10 6 11 7 12
REMARK SMILES IDX 90 13 8 15 91 16 5 17 4 18 1 19 2 20 3 21 19 22 20 23 21 24
REMARK SMILES IDX 22 25 23 26 24 27 25 28 26 29 27 30 28 31 89 32 29 33 88 34
REMARK SMILES IDX 30 35 31 36 32 37 82 38 33 39 87 40 81 41 83 42 34 43 86 44
REMARK SMILES IDX 80 45 79 46 35 48 67 49 47 50 66 51 48 52 51 53 65 54 84 55
REMARK SMILES IDX 49 56 50 57 64 59 85 60 52 61 36 62 37 63 45 64 38 65 39 66
REMARK SMILES IDX 43 67 46 68 40 69 41 70 44 71 42 72 68 73 69 74 77 75 70 76
REMARK SMILES IDX 71 77 75 78 78 79 72 80 73 81 76 82 74 83 53 84 54 85 62 86
REMARK SMILES IDX 55 87 56 88 60 89 63 90 57 91 58 92 61 93 59 94
REMARK H PARENT 6 14 83 47 51 58
REMARK Flexibility Score: inf
ROOT
ATOM      1  O   UNL A   1      38.733  20.928  26.210  1.00  0.00    -0.377 OA
ENDROOT
BRANCH   1   2
ATOM      2  C   UNL A   1      37.870  21.786  25.470  1.00  0.00     0.188 C 
BRANCH   2   3
ATOM      3  C   UNL A   1      36.346  21.854  25.729  1.00  0.00     0.188 C 
BRANCH   3   4
ATOM      4  O   UNL A   1      35.638  22.671  24.820  1.00  0.00    -0.376 OA
BRANCH   4   5
ATOM      5  C   UNL A   1      34.373  23.186  25.176  1.00  0.00     0.202 C 
BRANCH   5   6
ATOM      6  C   UNL A   1      33.113  22.717  24.435  1.00  0.00     0.261 C 
BRANCH   6   7
ATOM      7  O   UNL A   1      33.017  23.126  23.069  1.00  0.00    -0.463 OA
BRANCH   7   8
ATOM      8  C   UNL A   1      33.250  24.424  22.794  1.00  0.00     0.315 C 
ATOM      9  O   UNL A   1      34.327  24.849  22.388  1.00  0.00    -0.252 OA
BRANCH   8  10
ATOM     10  C   UNL A   1      32.019  25.300  22.898  1.00  0.00     0.162 C 
ATOM     11  N   UNL A   1      31.387  27.546  23.341  1.00  0.00    -0.329 N 
ATOM     12  C   UNL A   1      30.872  27.181  22.029  1.00  0.00     0.263 C 
ATOM     13  C   UNL A   1      31.744  26.303  24.051  1.00  0.00     0.195 C 
ATOM     14  H   UNL A   1      32.230  28.105  23.210  1.00  0.00     0.348 HD
ATOM     15  C   UNL A   1      31.912  26.157  21.638  1.00  0.00     0.083 C 
ATOM     16  C   UNL A   1      32.842  26.655  25.048  1.00  0.00     0.076 C 
BRANCH  11  17
ATOM     17  C   UNL A   1      30.608  28.517  24.099  1.00  0.00     0.291 C 
BRANCH  17  18
ATOM     18  C   UNL A   1      29.517  29.060  23.227  1.00  0.00     0.032 C 
ATOM     19  C   UNL A   1      29.483  31.376  24.166  1.00  0.00     0.039 C 
ATOM     20  C   UNL A   1      28.961  30.284  23.282  1.00  0.00    -0.075 C 
ATOM     21  C   UNL A   1      27.777  30.578  22.408  1.00  0.00     0.039 C 
ENDBRANCH  17  18
ENDBRANCH  11  17
ENDBRANCH   8  10
ENDBRANCH   7   8
ENDBRANCH   6   7
ENDBRANCH   5   6
ENDBRANCH   4   5
ENDBRANCH   3   4
ENDBRANCH   2   3
ENDBRANCH   1   2
BRANCH   1  22
ATOM     22  C   UNL A   1      40.145  21.093  26.133  1.00  0.00     0.188 C 
BRANCH  22  23
ATOM     23  C   UNL A   1      41.006  20.416  27.216  1.00  0.00     0.188 C 
BRANCH  23  24
ATOM     24  O   UNL A   1      42.350  20.867  27.225  1.00  0.00    -0.376 OA
BRANCH  24  25
ATOM     25  C   UNL A   1      43.049  20.835  25.990  1.00  0.00     0.202 C 
BRANCH  25  26
ATOM     26  C   UNL A   1      44.400  21.566  25.863  1.00  0.00     0.261 C 
BRANCH  26  27
ATOM     27  O   UNL A   1      44.408  22.990  26.065  1.00  0.00    -0.460 OA
BRANCH  27  28
ATOM     28  C   UNL A   1      43.635  23.756  25.272  1.00  0.00     0.338 C 
ATOM     29  O   UNL A   1      43.383  23.581  24.089  1.00  0.00    -0.246 OA
BRANCH  28  30
ATOM     30  C   UNL A   1      42.983  24.770  26.128  1.00  0.00     0.060 A 
ATOM     31  C   UNL A   1      43.432  26.098  26.085  1.00  0.00     0.016 A 
ATOM     32  C   UNL A   1      41.931  24.409  26.973  1.00  0.00     0.016 A 
ATOM     33  C   UNL A   1      42.853  27.060  26.916  1.00  0.00     0.010 A 
ATOM     34  C   UNL A   1      41.368  25.369  27.821  1.00  0.00     0.010 A 
ATOM     35  C   UNL A   1      41.851  26.690  27.823  1.00  0.00    -0.014 A 
BRANCH  35  36
ATOM     36  C   UNL A   1      41.464  27.624  28.912  1.00  0.00     0.031 A 
ATOM     37  C   UNL A   1      42.276  27.608  30.179  1.00  0.00     0.074 A 
ATOM     38  C   UNL A   1      40.446  28.492  28.773  1.00  0.00     0.049 A 
ATOM     39  N   UNL A   1      42.103  28.276  31.292  1.00  0.00    -0.248 NA
ATOM     40  C   UNL A   1      43.446  26.714  30.193  1.00  0.00     0.031 C 
ATOM     41  C   UNL A   1      39.620  28.644  27.577  1.00  0.00     0.029 A 
ATOM     42  N   UNL A   1      39.929  29.406  29.659  1.00  0.00    -0.354 N 
ATOM     43  C   UNL A   1      43.142  27.890  32.129  1.00  0.00     0.074 A 
ATOM     44  C   UNL A   1      43.915  26.896  31.418  1.00  0.00     0.031 C 
ATOM     45  C   UNL A   1      38.689  29.586  27.810  1.00  0.00     0.029 A 
ATOM     46  C   UNL A   1      38.828  30.073  29.181  1.00  0.00     0.049 A 
ATOM     47  H   UNL A   1      40.311  29.567  30.551  1.00  0.00     0.167 HD
ATOM     48  C   UNL A   1      43.437  28.335  33.372  1.00  0.00     0.037 A 
ATOM     49  C   UNL A   1      38.011  30.953  29.797  1.00  0.00     0.037 A 
ATOM     50  C   UNL A   1      42.660  29.314  34.085  1.00  0.00     0.049 A 
ATOM     51  C   UNL A   1      38.296  31.346  31.228  1.00  0.00     0.074 A 
ATOM     52  C   UNL A   1      42.860  29.813  35.360  1.00  0.00     0.029 A 
ATOM     53  N   UNL A   1      41.528  29.939  33.582  1.00  0.00    -0.354 N 
ATOM     54  N   UNL A   1      39.284  30.984  32.011  1.00  0.00    -0.248 NA
ATOM     55  C   UNL A   1      37.350  32.277  31.862  1.00  0.00     0.031 C 
ATOM     56  C   UNL A   1      41.820  30.703  35.648  1.00  0.00     0.029 A 
ATOM     57  C   UNL A   1      41.010  30.807  34.529  1.00  0.00     0.049 A 
ATOM     58  H   UNL A   1      41.150  29.788  32.686  1.00  0.00     0.167 HD
ATOM     59  C   UNL A   1      39.102  31.672  33.205  1.00  0.00     0.074 A 
ATOM     60  C   UNL A   1      37.919  32.486  33.039  1.00  0.00     0.031 C 
ATOM     61  C   UNL A   1      39.846  31.634  34.338  1.00  0.00     0.037 A 
BRANCH  48  62
ATOM     62  C   UNL A   1      44.647  27.759  34.048  1.00  0.00     0.064 A 
ATOM     63  C   UNL A   1      45.910  28.359  33.928  1.00  0.00     0.173 A 
ATOM     64  C   UNL A   1      44.536  26.622  34.863  1.00  0.00     0.173 A 
ATOM     65  F   UNL A   1      46.073  29.438  33.148  1.00  0.00    -0.203 F 
ATOM     66  C   UNL A   1      47.020  27.830  34.581  1.00  0.00     0.198 A 
ATOM     67  C   UNL A   1      45.642  26.115  35.541  1.00  0.00     0.198 A 
ATOM     68  F   UNL A   1      43.352  26.011  35.016  1.00  0.00    -0.203 F 
ATOM     69  F   UNL A   1      48.224  28.395  34.416  1.00  0.00    -0.200 F 
ATOM     70  C   UNL A   1      46.884  26.716  35.395  1.00  0.00     0.200 A 
ATOM     71  F   UNL A   1      45.505  25.047  36.339  1.00  0.00    -0.200 F 
ATOM     72  F   UNL A   1      47.950  26.216  36.034  1.00  0.00    -0.200 F 
ENDBRANCH  48  62
BRANCH  49  73
ATOM     73  C   UNL A   1      36.820  31.506  29.093  1.00  0.00     0.064 A 
ATOM     74  C   UNL A   1      36.738  32.867  28.762  1.00  0.00     0.173 A 
ATOM     75  C   UNL A   1      35.707  30.703  28.805  1.00  0.00     0.173 A 
ATOM     76  F   UNL A   1      37.765  33.687  29.040  1.00  0.00    -0.203 F 
ATOM     77  C   UNL A   1      35.577  33.409  28.213  1.00  0.00     0.198 A 
ATOM     78  C   UNL A   1      34.560  31.238  28.220  1.00  0.00     0.198 A 
ATOM     79  F   UNL A   1      35.726  29.395  29.103  1.00  0.00    -0.203 F 
ATOM     80  F   UNL A   1      35.501  34.727  27.982  1.00  0.00    -0.200 F 
ATOM     81  C   UNL A   1      34.491  32.594  27.939  1.00  0.00     0.200 A 
ATOM     82  F   UNL A   1      33.517  30.443  27.947  1.00  0.00    -0.200 F 
ATOM     83  F   UNL A   1      33.370  33.116  27.423  1.00  0.00    -0.200 F 
ENDBRANCH  49  73
BRANCH  61  84
ATOM     84  C   UNL A   1      39.443  32.543  35.466  1.00  0.00     0.064 A 
ATOM     85  C   UNL A   1      38.531  32.143  36.453  1.00  0.00     0.173 A 
ATOM     86  C   UNL A   1      40.013  33.821  35.580  1.00  0.00     0.173 A 
ATOM     87  F   UNL A   1      37.948  30.936  36.386  1.00  0.00    -0.203 F 
ATOM     88  C   UNL A   1      38.180  33.000  37.494  1.00  0.00     0.198 A 
ATOM     89  C   UNL A   1      39.688  34.661  36.641  1.00  0.00     0.198 A 
ATOM     90  F   UNL A   1      40.900  34.251  34.669  1.00  0.00    -0.203 F 
ATOM     91  F   UNL A   1      37.263  32.618  38.393  1.00  0.00    -0.200 F 
ATOM     92  C   UNL A   1      38.764  34.253  37.592  1.00  0.00     0.200 A 
ATOM     93  F   UNL A   1      40.269  35.864  36.744  1.00  0.00    -0.200 F 
ATOM     94  F   UNL A   1      38.432  35.074  38.598  1.00  0.00    -0.200 F 
ENDBRANCH  61  84
ENDBRANCH  35  36
ENDBRANCH  28  30
ENDBRANCH  27  28
ENDBRANCH  26  27
ENDBRANCH  25  26
ENDBRANCH  24  25
ENDBRANCH  23  24
ENDBRANCH  22  23
ENDBRANCH   1  22
TORSDOF 22
ENDMDL
MODEL 3
REMARK VINA RESULT:      -9.6      2.637      8.166
REMARK SMILES CC(C)=CC[N@@H+]1CC[C@@H](C(=O)OCCOCCOCCOCCOC(=O)c2ccc(-c3c4nc(c(-c5c(F)c(F)c(F)c(F)c5F)c5ccc([nH]5)c(-c5c(F)c(F)c(F)c(F)c5F)c5nc(c(-c6c(F)c(F)c(F)c(F)c6F)c6ccc3[nH]6)C=C5)C=C4)cc2)[C@H]1C
REMARK SMILES IDX 18 1 17 2 16 3 15 4 14 5 13 6 12 7 10 8 11 9 9 10 6 11 7 12
REMARK SMILES IDX 90 13 8 15 91 16 5 17 4 18 1 19 2 20 3 21 19 22 20 23 21 24
REMARK SMILES IDX 22 25 23 26 24 27 25 28 26 29 27 30 28 31 89 32 29 33 88 34
REMARK SMILES IDX 30 35 31 36 32 37 82 38 33 39 87 40 81 41 83 42 34 43 86 44
REMARK SMILES IDX 80 45 79 46 35 48 67 49 47 50 66 51 48 52 51 53 65 54 84 55
REMARK SMILES IDX 49 56 50 57 64 59 85 60 52 61 36 62 37 63 45 64 38 65 39 66
REMARK SMILES IDX 43 67 46 68 40 69 41 70 44 71 42 72 68 73 69 74 77 75 70 76
REMARK SMILES IDX 71 77 75 78 78 79 72 80 73 81 76 82 74 83 53 84 54 85 62 86
REMARK SMILES IDX 55 87 56 88 60 89 63 90 57 91 58 92 61 93 59 94
REMARK H PARENT 6 14 83 47 51 58
REMARK Flexibility Score: inf
ROOT
ATOM      1  O   UNL A   1      33.842  24.785  26.125  1.00  0.00    -0.377 OA
ENDROOT
BRANCH   1   2
ATOM      2  C   UNL A   1      35.200  24.595  25.737  1.00  0.00     0.188 C 
BRANCH   2   3
ATOM      3  C   UNL A   1      36.023  23.361  26.175  1.00  0.00     0.188 C 
BRANCH   3   4
ATOM      4  O   UNL A   1      36.570  22.618  25.105  1.00  0.00    -0.376 OA
BRANCH   4   5
ATOM      5  C   UNL A   1      36.551  23.149  23.797  1.00  0.00     0.202 C 
BRANCH   5   6
ATOM      6  C   UNL A   1      35.528  22.638  22.772  1.00  0.00     0.261 C 
BRANCH   6   7
ATOM      7  O   UNL A   1      34.330  23.409  22.666  1.00  0.00    -0.463 OA
BRANCH   7   8
ATOM      8  C   UNL A   1      33.180  22.823  23.051  1.00  0.00     0.315 C 
ATOM      9  O   UNL A   1      32.101  23.407  23.092  1.00  0.00    -0.252 OA
BRANCH   8  10
ATOM     10  C   UNL A   1      33.308  21.335  23.299  1.00  0.00     0.162 C 
ATOM     11  N   UNL A   1      32.313  19.585  24.561  1.00  0.00    -0.329 N 
ATOM     12  C   UNL A   1      32.243  19.224  23.152  1.00  0.00     0.263 C 
ATOM     13  C   UNL A   1      33.302  20.670  24.703  1.00  0.00     0.195 C 
ATOM     14  H   UNL A   1      31.398  19.932  24.849  1.00  0.00     0.348 HD
ATOM     15  C   UNL A   1      32.191  20.610  22.551  1.00  0.00     0.083 C 
ATOM     16  C   UNL A   1      32.911  21.474  25.938  1.00  0.00     0.076 C 
BRANCH  11  17
ATOM     17  C   UNL A   1      32.427  18.485  25.510  1.00  0.00     0.291 C 
BRANCH  17  18
ATOM     18  C   UNL A   1      33.689  17.725  25.232  1.00  0.00     0.032 C 
ATOM     19  C   UNL A   1      32.732  15.427  25.451  1.00  0.00     0.039 C 
ATOM     20  C   UNL A   1      33.864  16.392  25.267  1.00  0.00    -0.075 C 
ATOM     21  C   UNL A   1      35.249  15.841  25.097  1.00  0.00     0.039 C 
ENDBRANCH  17  18
ENDBRANCH  11  17
ENDBRANCH   8  10
ENDBRANCH   7   8
ENDBRANCH   6   7
ENDBRANCH   5   6
ENDBRANCH   4   5
ENDBRANCH   3   4
ENDBRANCH   2   3
ENDBRANCH   1   2
BRANCH   1  22
ATOM     22  C   UNL A   1      33.033  25.745  25.455  1.00  0.00     0.188 C 
BRANCH  22  23
ATOM     23  C   UNL A   1      33.390  27.232  25.631  1.00  0.00     0.188 C 
BRANCH  23  24
ATOM     24  O   UNL A   1      32.318  28.106  25.317  1.00  0.00    -0.376 OA
BRANCH  24  25
ATOM     25  C   UNL A   1      32.639  29.474  25.113  1.00  0.00     0.202 C 
BRANCH  25  26
ATOM     26  C   UNL A   1      32.036  30.543  26.045  1.00  0.00     0.261 C 
BRANCH  26  27
ATOM     27  O   UNL A   1      32.644  30.718  27.337  1.00  0.00    -0.460 OA
BRANCH  27  28
ATOM     28  C   UNL A   1      33.439  31.787  27.534  1.00  0.00     0.338 C 
ATOM     29  O   UNL A   1      33.114  32.966  27.516  1.00  0.00    -0.246 OA
BRANCH  28  30
ATOM     30  C   UNL A   1      34.763  31.288  27.960  1.00  0.00     0.060 A 
ATOM     31  C   UNL A   1      34.947  29.913  28.167  1.00  0.00     0.016 A 
ATOM     32  C   UNL A   1      35.822  32.177  28.159  1.00  0.00     0.016 A 
ATOM     33  C   UNL A   1      36.180  29.429  28.608  1.00  0.00     0.010 A 
ATOM     34  C   UNL A   1      37.050  31.694  28.623  1.00  0.00     0.010 A 
ATOM     35  C   UNL A   1      37.224  30.323  28.884  1.00  0.00    -0.014 A 
BRANCH  35  36
ATOM     36  C   UNL A   1      38.411  29.853  29.644  1.00  0.00     0.031 A 
ATOM     37  C   UNL A   1      38.643  30.423  31.018  1.00  0.00     0.074 A 
ATOM     38  C   UNL A   1      39.244  28.919  29.151  1.00  0.00     0.049 A 
ATOM     39  N   UNL A   1      39.634  30.224  31.849  1.00  0.00    -0.248 NA
ATOM     40  C   UNL A   1      37.612  31.346  31.523  1.00  0.00     0.031 C 
ATOM     41  C   UNL A   1      39.099  28.250  27.861  1.00  0.00     0.029 A 
ATOM     42  N   UNL A   1      40.390  28.379  29.683  1.00  0.00    -0.354 N 
ATOM     43  C   UNL A   1      39.342  30.988  32.973  1.00  0.00     0.074 A 
ATOM     44  C   UNL A   1      38.107  31.689  32.702  1.00  0.00     0.031 C 
ATOM     45  C   UNL A   1      40.126  27.399  27.693  1.00  0.00     0.029 A 
ATOM     46  C   UNL A   1      41.021  27.492  28.846  1.00  0.00     0.049 A 
ATOM     47  H   UNL A   1      40.727  28.607  30.579  1.00  0.00     0.167 HD
ATOM     48  C   UNL A   1      40.031  31.082  34.134  1.00  0.00     0.037 A 
ATOM     49  C   UNL A   1      42.202  26.855  28.987  1.00  0.00     0.037 A 
ATOM     50  C   UNL A   1      41.267  30.394  34.398  1.00  0.00     0.049 A 
ATOM     51  C   UNL A   1      43.009  27.069  30.246  1.00  0.00     0.074 A 
ATOM     52  C   UNL A   1      42.057  30.444  35.533  1.00  0.00     0.029 A 
ATOM     53  N   UNL A   1      41.895  29.534  33.509  1.00  0.00    -0.354 N 
ATOM     54  N   UNL A   1      42.723  27.784  31.308  1.00  0.00    -0.248 NA
ATOM     55  C   UNL A   1      44.307  26.380  30.327  1.00  0.00     0.031 C 
ATOM     56  C   UNL A   1      43.188  29.652  35.312  1.00  0.00     0.029 A 
ATOM     57  C   UNL A   1      43.071  29.059  34.066  1.00  0.00     0.049 A 
ATOM     58  H   UNL A   1      41.554  29.296  32.617  1.00  0.00     0.167 HD
ATOM     59  C   UNL A   1      43.779  27.598  32.193  1.00  0.00     0.074 A 
ATOM     60  C   UNL A   1      44.703  26.689  31.553  1.00  0.00     0.031 C 
ATOM     61  C   UNL A   1      43.967  28.131  33.426  1.00  0.00     0.037 A 
BRANCH  48  62
ATOM     62  C   UNL A   1      39.470  31.971  35.205  1.00  0.00     0.064 A 
ATOM     63  C   UNL A   1      38.627  31.468  36.208  1.00  0.00     0.173 A 
ATOM     64  C   UNL A   1      39.813  33.330  35.258  1.00  0.00     0.173 A 
ATOM     65  F   UNL A   1      38.254  30.179  36.194  1.00  0.00    -0.203 F 
ATOM     66  C   UNL A   1      38.133  32.298  37.212  1.00  0.00     0.198 A 
ATOM     67  C   UNL A   1      39.344  34.149  36.282  1.00  0.00     0.198 A 
ATOM     68  F   UNL A   1      40.619  33.862  34.326  1.00  0.00    -0.203 F 
ATOM     69  F   UNL A   1      37.295  31.804  38.134  1.00  0.00    -0.200 F 
ATOM     70  C   UNL A   1      38.500  33.634  37.254  1.00  0.00     0.200 A 
ATOM     71  F   UNL A   1      39.712  35.437  36.329  1.00  0.00    -0.200 F 
ATOM     72  F   UNL A   1      38.035  34.428  38.229  1.00  0.00    -0.200 F 
ENDBRANCH  48  62
BRANCH  49  73
ATOM     73  C   UNL A   1      42.726  25.977  27.903  1.00  0.00     0.064 A 
ATOM     74  C   UNL A   1      43.494  26.499  26.851  1.00  0.00     0.173 A 
ATOM     75  C   UNL A   1      42.407  24.612  27.854  1.00  0.00     0.173 A 
ATOM     76  F   UNL A   1      43.807  27.805  26.835  1.00  0.00    -0.203 F 
ATOM     77  C   UNL A   1      43.883  25.703  25.775  1.00  0.00     0.198 A 
ATOM     78  C   UNL A   1      42.829  23.808  26.796  1.00  0.00     0.198 A 
ATOM     79  F   UNL A   1      41.671  24.058  28.829  1.00  0.00    -0.203 F 
ATOM     80  F   UNL A   1      44.547  26.249  24.747  1.00  0.00    -0.200 F 
ATOM     81  C   UNL A   1      43.553  24.357  25.750  1.00  0.00     0.200 A 
ATOM     82  F   UNL A   1      42.517  22.505  26.783  1.00  0.00    -0.200 F 
ATOM     83  F   UNL A   1      43.916  23.595  24.710  1.00  0.00    -0.200 F 
ENDBRANCH  49  73
BRANCH  61  84
ATOM     84  C   UNL A   1      45.187  27.698  34.192  1.00  0.00     0.064 A 
ATOM     85  C   UNL A   1      46.422  28.346  34.050  1.00  0.00     0.173 A 
ATOM     86  C   UNL A   1      45.102  26.642  35.114  1.00  0.00     0.173 A 
ATOM     87  F   UNL A   1      46.561  29.353  33.174  1.00  0.00    -0.203 F 
ATOM     88  C   UNL A   1      47.536  27.932  34.777  1.00  0.00     0.198 A 
ATOM     89  C   UNL A   1      46.208  26.255  35.866  1.00  0.00     0.198 A 
ATOM     90  F   UNL A   1      43.942  25.994  35.297  1.00  0.00    -0.203 F 
ATOM     91  F   UNL A   1      48.720  28.528  34.583  1.00  0.00    -0.200 F 
ATOM     92  C   UNL A   1      47.426  26.894  35.690  1.00  0.00     0.200 A 
ATOM     93  F   UNL A   1      46.094  25.265  36.761  1.00  0.00    -0.200 F 
ATOM     94  F   UNL A   1      48.496  26.502  36.395  1.00  0.00    -0.200 F 
ENDBRANCH  61  84
ENDBRANCH  35  36
ENDBRANCH  28  30
ENDBRANCH  27  28
ENDBRANCH  26  27
ENDBRANCH  25  26
ENDBRANCH  24  25
ENDBRANCH  23  24
ENDBRANCH  22  23
ENDBRANCH   1  22
TORSDOF 22
ENDMDL
