MODEL 1
REMARK VINA RESULT:     -11.4      0.000      0.000
REMARK SMILES Cc1ccc(C)c(-c2cc(C(=O)OCCOCCOCCOCCOC(=O)c3ccc(-c4c5nc(c(-c6c(F)c(F)c(F)c(F)c6F)c6ccc([nH]6)c(-c6c(F)c(F)c(F)c(F)c6F)c6nc(c(-c7c(F)c(F)c(F)c(F)c7F)c7ccc4[nH]7)C=C6)C=C5)cc3)c3cc(C)ccc3n2)c1
REMARK SMILES IDX 20 1 19 2 18 3 17 4 16 5 15 6 14 7 13 8 11 9 12 10 10 11
REMARK SMILES IDX 8 12 9 13 98 14 97 15 91 16 96 17 92 18 95 19 93 20 94 21
REMARK SMILES IDX 7 22 1 23 2 24 3 25 99 26 4 27 5 28 6 29 21 30 22 31 23 32
REMARK SMILES IDX 24 33 25 34 26 35 27 36 28 37 29 38 90 39 30 40 89 41 31 42
REMARK SMILES IDX 32 43 33 44 83 45 34 46 88 47 82 48 84 49 35 50 87 51 81 52
REMARK SMILES IDX 80 53 36 55 68 56 48 57 67 58 49 59 52 60 66 61 85 62 50 63
REMARK SMILES IDX 51 64 65 66 86 67 53 68 37 69 38 70 46 71 39 72 40 73 44 74
REMARK SMILES IDX 47 75 41 76 42 77 45 78 43 79 69 80 70 81 78 82 71 83 72 84
REMARK SMILES IDX 76 85 79 86 73 87 74 88 77 89 75 90 54 91 55 92 63 93 56 94
REMARK SMILES IDX 57 95 61 96 64 97 58 98 59 99 62 100 60 101
REMARK H PARENT 84 54 52 65
REMARK Flexibility Score: inf
ROOT
ATOM      1  C   UNL A   1      42.588  18.446  26.423  1.00  0.00     0.188 C 
ENDROOT
BRANCH   1   2
ATOM      2  O   UNL A   1      41.811  19.539  26.890  1.00  0.00    -0.377 OA
BRANCH   2   3
ATOM      3  C   UNL A   1      42.317  20.828  26.529  1.00  0.00     0.188 C 
BRANCH   3   4
ATOM      4  C   UNL A   1      41.453  22.055  26.896  1.00  0.00     0.188 C 
BRANCH   4   5
ATOM      5  O   UNL A   1      40.131  21.600  27.157  1.00  0.00    -0.376 OA
BRANCH   5   6
ATOM      6  C   UNL A   1      39.211  21.785  26.096  1.00  0.00     0.202 C 
BRANCH   6   7
ATOM      7  C   UNL A   1      38.434  23.109  26.126  1.00  0.00     0.261 C 
BRANCH   7   8
ATOM      8  O   UNL A   1      37.007  22.966  25.974  1.00  0.00    -0.460 OA
BRANCH   8   9
ATOM      9  C   UNL A   1      36.478  22.965  24.725  1.00  0.00     0.338 C 
ATOM     10  O   UNL A   1      37.085  22.975  23.664  1.00  0.00    -0.246 OA
BRANCH   9  11
ATOM     11  C   UNL A   1      35.016  23.002  24.664  1.00  0.00     0.071 A 
ATOM     12  C   UNL A   1      33.105  24.440  24.662  1.00  0.00     0.072 A 
ATOM     13  C   UNL A   1      34.466  24.280  24.600  1.00  0.00     0.045 A 
ATOM     14  N   UNL A   1      32.292  23.347  24.714  1.00  0.00    -0.248 NA
ATOM     15  C   UNL A   1      32.832  22.087  24.702  1.00  0.00     0.072 A 
ATOM     16  C   UNL A   1      34.213  21.869  24.638  1.00  0.00     0.015 A 
ATOM     17  C   UNL A   1      32.044  20.935  24.772  1.00  0.00     0.029 A 
ATOM     18  C   UNL A   1      34.744  20.563  24.532  1.00  0.00     0.014 A 
ATOM     19  C   UNL A   1      32.585  19.627  24.763  1.00  0.00     0.005 A 
ATOM     20  C   UNL A   1      33.952  19.435  24.625  1.00  0.00    -0.050 A 
ATOM     21  C   UNL A   1      34.641  18.104  24.618  1.00  0.00     0.044 C 
BRANCH  12  22
ATOM     22  C   UNL A   1      32.545  25.818  24.777  1.00  0.00     0.003 A 
ATOM     23  C   UNL A   1      31.569  28.228  27.633  1.00  0.00     0.044 C 
ATOM     24  C   UNL A   1      31.846  27.694  26.256  1.00  0.00    -0.050 A 
ATOM     25  C   UNL A   1      31.385  28.392  25.145  1.00  0.00     0.004 A 
ATOM     26  C   UNL A   1      32.464  26.446  26.056  1.00  0.00     0.014 A 
ATOM     27  C   UNL A   1      31.418  27.795  23.886  1.00  0.00     0.004 A 
ATOM     28  C   UNL A   1      31.934  26.494  23.702  1.00  0.00    -0.042 A 
ATOM     29  C   UNL A   1      31.610  25.828  22.390  1.00  0.00     0.045 C 
ENDBRANCH  12  22
ENDBRANCH   9  11
ENDBRANCH   8   9
ENDBRANCH   7   8
ENDBRANCH   6   7
ENDBRANCH   5   6
ENDBRANCH   4   5
ENDBRANCH   3   4
ENDBRANCH   2   3
ENDBRANCH   1   2
BRANCH   1  30
ATOM     30  C   UNL A   1      43.599  18.856  25.348  1.00  0.00     0.188 C 
BRANCH  30  31
ATOM     31  O   UNL A   1      44.787  18.077  25.450  1.00  0.00    -0.376 OA
BRANCH  31  32
ATOM     32  C   UNL A   1      45.973  18.797  25.734  1.00  0.00     0.202 C 
BRANCH  32  33
ATOM     33  C   UNL A   1      46.186  19.847  24.648  1.00  0.00     0.261 C 
BRANCH  33  34
ATOM     34  O   UNL A   1      45.912  21.200  25.092  1.00  0.00    -0.460 OA
BRANCH  34  35
ATOM     35  C   UNL A   1      45.018  21.927  24.370  1.00  0.00     0.338 C 
ATOM     36  O   UNL A   1      44.527  21.576  23.303  1.00  0.00    -0.246 OA
BRANCH  35  37
ATOM     37  C   UNL A   1      44.750  23.229  25.056  1.00  0.00     0.060 A 
ATOM     38  C   UNL A   1      45.462  23.602  26.200  1.00  0.00     0.016 A 
ATOM     39  C   UNL A   1      43.683  24.031  24.634  1.00  0.00     0.016 A 
ATOM     40  C   UNL A   1      45.043  24.724  26.944  1.00  0.00     0.010 A 
ATOM     41  C   UNL A   1      43.225  25.093  25.410  1.00  0.00     0.010 A 
ATOM     42  C   UNL A   1      43.885  25.455  26.586  1.00  0.00    -0.014 A 
BRANCH  42  43
ATOM     43  C   UNL A   1      43.579  26.846  27.033  1.00  0.00     0.031 A 
ATOM     44  C   UNL A   1      44.776  27.630  26.736  1.00  0.00     0.074 A 
ATOM     45  C   UNL A   1      42.849  27.400  28.041  1.00  0.00     0.049 A 
ATOM     46  N   UNL A   1      45.705  27.833  27.614  1.00  0.00    -0.248 NA
ATOM     47  C   UNL A   1      45.142  27.951  25.356  1.00  0.00     0.031 C 
ATOM     48  C   UNL A   1      42.687  26.884  29.370  1.00  0.00     0.029 A 
ATOM     49  N   UNL A   1      42.031  28.535  28.087  1.00  0.00    -0.354 N 
ATOM     50  C   UNL A   1      46.552  28.708  26.989  1.00  0.00     0.074 A 
ATOM     51  C   UNL A   1      46.313  28.561  25.566  1.00  0.00     0.031 C 
ATOM     52  C   UNL A   1      41.642  27.447  29.988  1.00  0.00     0.029 A 
ATOM     53  C   UNL A   1      41.107  28.517  29.157  1.00  0.00     0.049 A 
ATOM     54  H   UNL A   1      42.093  29.273  27.439  1.00  0.00     0.167 HD
ATOM     55  C   UNL A   1      46.856  29.814  27.711  1.00  0.00     0.037 A 
ATOM     56  C   UNL A   1      40.507  29.532  29.833  1.00  0.00     0.037 A 
ATOM     57  C   UNL A   1      46.856  29.585  29.137  1.00  0.00     0.049 A 
ATOM     58  C   UNL A   1      41.541  30.229  30.644  1.00  0.00     0.074 A 
ATOM     59  C   UNL A   1      47.682  28.941  30.039  1.00  0.00     0.029 A 
ATOM     60  N   UNL A   1      45.646  29.724  29.768  1.00  0.00    -0.354 N 
ATOM     61  N   UNL A   1      42.140  29.755  31.703  1.00  0.00    -0.248 NA
ATOM     62  C   UNL A   1      42.207  31.357  29.992  1.00  0.00     0.031 C 
ATOM     63  C   UNL A   1      46.957  28.794  31.259  1.00  0.00     0.029 A 
ATOM     64  C   UNL A   1      45.702  29.362  31.093  1.00  0.00     0.049 A 
ATOM     65  H   UNL A   1      44.829  30.046  29.321  1.00  0.00     0.167 HD
ATOM     66  C   UNL A   1      43.444  30.190  31.545  1.00  0.00     0.074 A 
ATOM     67  C   UNL A   1      43.399  31.274  30.576  1.00  0.00     0.031 C 
ATOM     68  C   UNL A   1      44.503  29.410  31.894  1.00  0.00     0.037 A 
BRANCH  55  69
ATOM     69  C   UNL A   1      46.539  31.146  27.107  1.00  0.00     0.064 A 
ATOM     70  C   UNL A   1      47.516  32.138  27.028  1.00  0.00     0.173 A 
ATOM     71  C   UNL A   1      45.219  31.534  26.772  1.00  0.00     0.173 A 
ATOM     72  F   UNL A   1      48.765  31.889  27.446  1.00  0.00    -0.203 F 
ATOM     73  C   UNL A   1      47.200  33.418  26.570  1.00  0.00     0.198 A 
ATOM     74  C   UNL A   1      44.924  32.776  26.233  1.00  0.00     0.198 A 
ATOM     75  F   UNL A   1      44.162  30.761  27.062  1.00  0.00    -0.203 F 
ATOM     76  F   UNL A   1      48.138  34.374  26.577  1.00  0.00    -0.200 F 
ATOM     77  C   UNL A   1      45.916  33.725  26.139  1.00  0.00     0.200 A 
ATOM     78  F   UNL A   1      43.665  33.058  25.870  1.00  0.00    -0.200 F 
ATOM     79  F   UNL A   1      45.620  34.952  25.694  1.00  0.00    -0.200 F 
ENDBRANCH  55  69
BRANCH  56  80
ATOM     80  C   UNL A   1      39.190  30.123  29.529  1.00  0.00     0.064 A 
ATOM     81  C   UNL A   1      38.530  29.800  28.328  1.00  0.00     0.173 A 
ATOM     82  C   UNL A   1      38.564  31.053  30.365  1.00  0.00     0.173 A 
ATOM     83  F   UNL A   1      39.085  28.937  27.463  1.00  0.00    -0.203 F 
ATOM     84  C   UNL A   1      37.303  30.376  27.988  1.00  0.00     0.198 A 
ATOM     85  C   UNL A   1      37.334  31.622  30.028  1.00  0.00     0.198 A 
ATOM     86  F   UNL A   1      39.130  31.410  31.526  1.00  0.00    -0.203 F 
ATOM     87  F   UNL A   1      36.702  30.049  26.834  1.00  0.00    -0.200 F 
ATOM     88  C   UNL A   1      36.704  31.286  28.841  1.00  0.00     0.200 A 
ATOM     89  F   UNL A   1      36.767  32.515  30.854  1.00  0.00    -0.200 F 
ATOM     90  F   UNL A   1      35.528  31.844  28.520  1.00  0.00    -0.200 F 
ENDBRANCH  56  80
BRANCH  68  91
ATOM     91  C   UNL A   1      44.387  28.613  33.147  1.00  0.00     0.064 A 
ATOM     92  C   UNL A   1      44.135  27.239  33.222  1.00  0.00     0.173 A 
ATOM     93  C   UNL A   1      44.594  29.297  34.353  1.00  0.00     0.173 A 
ATOM     94  F   UNL A   1      44.003  26.500  32.118  1.00  0.00    -0.203 F 
ATOM     95  C   UNL A   1      44.065  26.583  34.451  1.00  0.00     0.198 A 
ATOM     96  C   UNL A   1      44.549  28.638  35.579  1.00  0.00     0.198 A 
ATOM     97  F   UNL A   1      44.874  30.610  34.340  1.00  0.00    -0.203 F 
ATOM     98  F   UNL A   1      43.823  25.264  34.495  1.00  0.00    -0.200 F 
ATOM     99  C   UNL A   1      44.276  27.282  35.628  1.00  0.00     0.200 A 
ATOM    100  F   UNL A   1      44.792  29.317  36.709  1.00  0.00    -0.200 F 
ATOM    101  F   UNL A   1      44.239  26.646  36.808  1.00  0.00    -0.200 F 
ENDBRANCH  68  91
ENDBRANCH  42  43
ENDBRANCH  35  37
ENDBRANCH  34  35
ENDBRANCH  33  34
ENDBRANCH  32  33
ENDBRANCH  31  32
ENDBRANCH  30  31
ENDBRANCH   1  30
TORSDOF 21
ENDMDL
MODEL 2
REMARK VINA RESULT:     -11.4      1.773      2.928
REMARK SMILES Cc1ccc(C)c(-c2cc(C(=O)OCCOCCOCCOCCOC(=O)c3ccc(-c4c5nc(c(-c6c(F)c(F)c(F)c(F)c6F)c6ccc([nH]6)c(-c6c(F)c(F)c(F)c(F)c6F)c6nc(c(-c7c(F)c(F)c(F)c(F)c7F)c7ccc4[nH]7)C=C6)C=C5)cc3)c3cc(C)ccc3n2)c1
REMARK SMILES IDX 20 1 19 2 18 3 17 4 16 5 15 6 14 7 13 8 11 9 12 10 10 11
REMARK SMILES IDX 8 12 9 13 98 14 97 15 91 16 96 17 92 18 95 19 93 20 94 21
REMARK SMILES IDX 7 22 1 23 2 24 3 25 99 26 4 27 5 28 6 29 21 30 22 31 23 32
REMARK SMILES IDX 24 33 25 34 26 35 27 36 28 37 29 38 90 39 30 40 89 41 31 42
REMARK SMILES IDX 32 43 33 44 83 45 34 46 88 47 82 48 84 49 35 50 87 51 81 52
REMARK SMILES IDX 80 53 36 55 68 56 48 57 67 58 49 59 52 60 66 61 85 62 50 63
REMARK SMILES IDX 51 64 65 66 86 67 53 68 37 69 38 70 46 71 39 72 40 73 44 74
REMARK SMILES IDX 47 75 41 76 42 77 45 78 43 79 69 80 70 81 78 82 71 83 72 84
REMARK SMILES IDX 76 85 79 86 73 87 74 88 77 89 75 90 54 91 55 92 63 93 56 94
REMARK SMILES IDX 57 95 61 96 64 97 58 98 59 99 62 100 60 101
REMARK H PARENT 84 54 52 65
REMARK Flexibility Score: inf
ROOT
ATOM      1  C   UNL A   1      38.841  22.914  26.471  1.00  0.00     0.188 C 
ENDROOT
BRANCH   1   2
ATOM      2  O   UNL A   1      38.236  21.839  25.767  1.00  0.00    -0.377 OA
BRANCH   2   3
ATOM      3  C   UNL A   1      37.000  22.169  25.123  1.00  0.00     0.188 C 
BRANCH   3   4
ATOM      4  C   UNL A   1      35.708  21.580  25.730  1.00  0.00     0.188 C 
BRANCH   4   5
ATOM      5  O   UNL A   1      34.944  22.653  26.267  1.00  0.00    -0.376 OA
BRANCH   5   6
ATOM      6  C   UNL A   1      34.624  22.534  27.642  1.00  0.00     0.202 C 
BRANCH   6   7
ATOM      7  C   UNL A   1      33.140  22.294  27.950  1.00  0.00     0.261 C 
BRANCH   7   8
ATOM      8  O   UNL A   1      32.294  23.444  27.741  1.00  0.00    -0.460 OA
BRANCH   8   9
ATOM      9  C   UNL A   1      31.177  23.306  26.983  1.00  0.00     0.338 C 
ATOM     10  O   UNL A   1      30.071  22.942  27.355  1.00  0.00    -0.246 OA
BRANCH   9  11
ATOM     11  C   UNL A   1      31.350  23.585  25.557  1.00  0.00     0.071 A 
ATOM     12  C   UNL A   1      31.182  25.274  23.871  1.00  0.00     0.072 A 
ATOM     13  C   UNL A   1      31.165  24.918  25.196  1.00  0.00     0.045 A 
ATOM     14  N   UNL A   1      31.449  24.338  22.918  1.00  0.00    -0.248 NA
ATOM     15  C   UNL A   1      31.705  23.040  23.280  1.00  0.00     0.072 A 
ATOM     16  C   UNL A   1      31.701  22.625  24.617  1.00  0.00     0.015 A 
ATOM     17  C   UNL A   1      31.965  22.039  22.340  1.00  0.00     0.029 A 
ATOM     18  C   UNL A   1      32.058  21.306  24.974  1.00  0.00     0.014 A 
ATOM     19  C   UNL A   1      32.228  20.694  22.696  1.00  0.00     0.005 A 
ATOM     20  C   UNL A   1      32.293  20.323  24.031  1.00  0.00    -0.050 A 
ATOM     21  C   UNL A   1      32.547  18.933  24.530  1.00  0.00     0.044 C 
BRANCH  12  22
ATOM     22  C   UNL A   1      30.801  26.666  23.494  1.00  0.00     0.003 A 
ATOM     23  C   UNL A   1      27.525  28.654  23.008  1.00  0.00     0.044 C 
ATOM     24  C   UNL A   1      28.989  28.332  23.127  1.00  0.00    -0.050 A 
ATOM     25  C   UNL A   1      29.932  29.253  22.684  1.00  0.00     0.004 A 
ATOM     26  C   UNL A   1      29.437  27.075  23.573  1.00  0.00     0.014 A 
ATOM     27  C   UNL A   1      31.268  28.877  22.562  1.00  0.00     0.004 A 
ATOM     28  C   UNL A   1      31.700  27.577  22.902  1.00  0.00    -0.042 A 
ATOM     29  C   UNL A   1      33.070  27.181  22.414  1.00  0.00     0.045 C 
ENDBRANCH  12  22
ENDBRANCH   9  11
ENDBRANCH   8   9
ENDBRANCH   7   8
ENDBRANCH   6   7
ENDBRANCH   5   6
ENDBRANCH   4   5
ENDBRANCH   3   4
ENDBRANCH   2   3
ENDBRANCH   1   2
BRANCH   1  30
ATOM     30  C   UNL A   1      40.274  22.600  26.911  1.00  0.00     0.188 C 
BRANCH  30  31
ATOM     31  O   UNL A   1      40.336  21.330  27.552  1.00  0.00    -0.376 OA
BRANCH  31  32
ATOM     32  C   UNL A   1      41.598  20.687  27.525  1.00  0.00     0.202 C 
BRANCH  32  33
ATOM     33  C   UNL A   1      42.125  20.693  26.094  1.00  0.00     0.261 C 
BRANCH  33  34
ATOM     34  O   UNL A   1      43.558  20.904  26.007  1.00  0.00    -0.460 OA
BRANCH  34  35
ATOM     35  C   UNL A   1      43.998  21.876  25.163  1.00  0.00     0.338 C 
ATOM     36  O   UNL A   1      44.560  21.674  24.093  1.00  0.00    -0.246 OA
BRANCH  35  37
ATOM     37  C   UNL A   1      43.722  23.224  25.752  1.00  0.00     0.060 A 
ATOM     38  C   UNL A   1      44.029  23.504  27.086  1.00  0.00     0.016 A 
ATOM     39  C   UNL A   1      43.025  24.180  25.004  1.00  0.00     0.016 A 
ATOM     40  C   UNL A   1      43.564  24.700  27.670  1.00  0.00     0.010 A 
ATOM     41  C   UNL A   1      42.503  25.325  25.601  1.00  0.00     0.010 A 
ATOM     42  C   UNL A   1      42.749  25.604  26.947  1.00  0.00    -0.014 A 
BRANCH  42  43
ATOM     43  C   UNL A   1      42.539  27.039  27.302  1.00  0.00     0.031 A 
ATOM     44  C   UNL A   1      43.837  27.686  27.126  1.00  0.00     0.074 A 
ATOM     45  C   UNL A   1      41.757  27.710  28.192  1.00  0.00     0.049 A 
ATOM     46  N   UNL A   1      44.672  27.839  28.102  1.00  0.00    -0.248 NA
ATOM     47  C   UNL A   1      44.395  27.901  25.790  1.00  0.00     0.031 C 
ATOM     48  C   UNL A   1      41.386  27.278  29.509  1.00  0.00     0.029 A 
ATOM     49  N   UNL A   1      41.061  28.922  28.097  1.00  0.00    -0.354 N 
ATOM     50  C   UNL A   1      45.674  28.594  27.554  1.00  0.00     0.074 A 
ATOM     51  C   UNL A   1      45.590  28.402  26.119  1.00  0.00     0.031 C 
ATOM     52  C   UNL A   1      40.340  27.971  29.974  1.00  0.00     0.029 A 
ATOM     53  C   UNL A   1      40.020  29.047  29.045  1.00  0.00     0.049 A 
ATOM     54  H   UNL A   1      41.275  29.618  27.434  1.00  0.00     0.167 HD
ATOM     55  C   UNL A   1      46.003  29.698  28.268  1.00  0.00     0.037 A 
ATOM     56  C   UNL A   1      39.453  30.148  29.606  1.00  0.00     0.037 A 
ATOM     57  C   UNL A   1      45.811  29.541  29.691  1.00  0.00     0.049 A 
ATOM     58  C   UNL A   1      40.451  30.778  30.511  1.00  0.00     0.074 A 
ATOM     59  C   UNL A   1      46.453  28.863  30.710  1.00  0.00     0.029 A 
ATOM     60  N   UNL A   1      44.555  29.828  30.163  1.00  0.00    -0.354 N 
ATOM     61  N   UNL A   1      40.868  30.299  31.652  1.00  0.00    -0.248 NA
ATOM     62  C   UNL A   1      41.303  31.802  29.905  1.00  0.00     0.031 C 
ATOM     63  C   UNL A   1      45.578  28.848  31.836  1.00  0.00     0.029 A 
ATOM     64  C   UNL A   1      44.417  29.527  31.498  1.00  0.00     0.049 A 
ATOM     65  H   UNL A   1      43.836  30.207  29.608  1.00  0.00     0.167 HD
ATOM     66  C   UNL A   1      42.219  30.595  31.639  1.00  0.00     0.074 A 
ATOM     67  C   UNL A   1      42.403  31.630  30.633  1.00  0.00     0.031 C 
ATOM     68  C   UNL A   1      43.144  29.733  32.143  1.00  0.00     0.037 A 
BRANCH  55  69
ATOM     69  C   UNL A   1      45.899  31.024  27.581  1.00  0.00     0.064 A 
ATOM     70  C   UNL A   1      44.661  31.507  27.159  1.00  0.00     0.173 A 
ATOM     71  C   UNL A   1      47.037  31.751  27.155  1.00  0.00     0.173 A 
ATOM     72  F   UNL A   1      43.544  30.810  27.412  1.00  0.00    -0.203 F 
ATOM     73  C   UNL A   1      44.568  32.688  26.420  1.00  0.00     0.198 A 
ATOM     74  C   UNL A   1      46.939  32.968  26.500  1.00  0.00     0.198 A 
ATOM     75  F   UNL A   1      48.275  31.249  27.263  1.00  0.00    -0.203 F 
ATOM     76  F   UNL A   1      43.375  33.089  25.960  1.00  0.00    -0.200 F 
ATOM     77  C   UNL A   1      45.700  33.435  26.123  1.00  0.00     0.200 A 
ATOM     78  F   UNL A   1      48.054  33.643  26.186  1.00  0.00    -0.200 F 
ATOM     79  F   UNL A   1      45.604  34.570  25.420  1.00  0.00    -0.200 F 
ENDBRANCH  55  69
BRANCH  56  80
ATOM     80  C   UNL A   1      38.250  30.850  29.121  1.00  0.00     0.064 A 
ATOM     81  C   UNL A   1      37.264  30.151  28.399  1.00  0.00     0.173 A 
ATOM     82  C   UNL A   1      38.050  32.224  29.297  1.00  0.00     0.173 A 
ATOM     83  F   UNL A   1      37.403  28.836  28.167  1.00  0.00    -0.203 F 
ATOM     84  C   UNL A   1      36.134  30.795  27.888  1.00  0.00     0.198 A 
ATOM     85  C   UNL A   1      36.917  32.865  28.792  1.00  0.00     0.198 A 
ATOM     86  F   UNL A   1      38.944  32.958  29.974  1.00  0.00    -0.203 F 
ATOM     87  F   UNL A   1      35.216  30.099  27.201  1.00  0.00    -0.200 F 
ATOM     88  C   UNL A   1      35.961  32.153  28.087  1.00  0.00     0.200 A 
ATOM     89  F   UNL A   1      36.763  34.185  28.977  1.00  0.00    -0.200 F 
ATOM     90  F   UNL A   1      34.881  32.777  27.597  1.00  0.00    -0.200 F 
ENDBRANCH  56  80
BRANCH  68  91
ATOM     91  C   UNL A   1      42.798  29.013  33.400  1.00  0.00     0.064 A 
ATOM     92  C   UNL A   1      42.577  27.637  33.521  1.00  0.00     0.173 A 
ATOM     93  C   UNL A   1      42.735  29.780  34.572  1.00  0.00     0.173 A 
ATOM     94  F   UNL A   1      42.694  26.823  32.469  1.00  0.00    -0.203 F 
ATOM     95  C   UNL A   1      42.278  27.058  34.755  1.00  0.00     0.198 A 
ATOM     96  C   UNL A   1      42.460  29.200  35.807  1.00  0.00     0.198 A 
ATOM     97  F   UNL A   1      42.973  31.101  34.522  1.00  0.00    -0.203 F 
ATOM     98  F   UNL A   1      42.071  25.736  34.843  1.00  0.00    -0.200 F 
ATOM     99  C   UNL A   1      42.223  27.839  35.897  1.00  0.00     0.200 A 
ATOM    100  F   UNL A   1      42.448  29.959  36.912  1.00  0.00    -0.200 F 
ATOM    101  F   UNL A   1      41.966  27.279  37.087  1.00  0.00    -0.200 F 
ENDBRANCH  68  91
ENDBRANCH  42  43
ENDBRANCH  35  37
ENDBRANCH  34  35
ENDBRANCH  33  34
ENDBRANCH  32  33
ENDBRANCH  31  32
ENDBRANCH  30  31
ENDBRANCH   1  30
TORSDOF 21
ENDMDL
MODEL 3
REMARK VINA RESULT:     -11.3      0.838      3.255
REMARK SMILES Cc1ccc(C)c(-c2cc(C(=O)OCCOCCOCCOCCOC(=O)c3ccc(-c4c5nc(c(-c6c(F)c(F)c(F)c(F)c6F)c6ccc([nH]6)c(-c6c(F)c(F)c(F)c(F)c6F)c6nc(c(-c7c(F)c(F)c(F)c(F)c7F)c7ccc4[nH]7)C=C6)C=C5)cc3)c3cc(C)ccc3n2)c1
REMARK SMILES IDX 20 1 19 2 18 3 17 4 16 5 15 6 14 7 13 8 11 9 12 10 10 11
REMARK SMILES IDX 8 12 9 13 98 14 97 15 91 16 96 17 92 18 95 19 93 20 94 21
REMARK SMILES IDX 7 22 1 23 2 24 3 25 99 26 4 27 5 28 6 29 21 30 22 31 23 32
REMARK SMILES IDX 24 33 25 34 26 35 27 36 28 37 29 38 90 39 30 40 89 41 31 42
REMARK SMILES IDX 32 43 33 44 83 45 34 46 88 47 82 48 84 49 35 50 87 51 81 52
REMARK SMILES IDX 80 53 36 55 68 56 48 57 67 58 49 59 52 60 66 61 85 62 50 63
REMARK SMILES IDX 51 64 65 66 86 67 53 68 37 69 38 70 46 71 39 72 40 73 44 74
REMARK SMILES IDX 47 75 41 76 42 77 45 78 43 79 69 80 70 81 78 82 71 83 72 84
REMARK SMILES IDX 76 85 79 86 73 87 74 88 77 89 75 90 54 91 55 92 63 93 56 94
REMARK SMILES IDX 57 95 61 96 64 97 58 98 59 99 62 100 60 101
REMARK H PARENT 84 54 52 65
REMARK Flexibility Score: inf
ROOT
ATOM      1  C   UNL A   1      42.642  18.593  26.623  1.00  0.00     0.188 C 
ENDROOT
BRANCH   1   2
ATOM      2  O   UNL A   1      41.576  19.529  26.562  1.00  0.00    -0.377 OA
BRANCH   2   3
ATOM      3  C   UNL A   1      41.948  20.828  26.088  1.00  0.00     0.188 C 
BRANCH   3   4
ATOM      4  C   UNL A   1      40.926  21.970  26.279  1.00  0.00     0.188 C 
BRANCH   4   5
ATOM      5  O   UNL A   1      39.651  21.385  26.514  1.00  0.00    -0.376 OA
BRANCH   5   6
ATOM      6  C   UNL A   1      38.604  21.882  25.699  1.00  0.00     0.202 C 
BRANCH   6   7
ATOM      7  C   UNL A   1      38.103  23.287  26.060  1.00  0.00     0.261 C 
BRANCH   7   8
ATOM      8  O   UNL A   1      36.668  23.405  26.149  1.00  0.00    -0.460 OA
BRANCH   8   9
ATOM      9  C   UNL A   1      35.948  23.525  25.006  1.00  0.00     0.338 C 
ATOM     10  O   UNL A   1      36.306  24.039  23.957  1.00  0.00    -0.246 OA
BRANCH   9  11
ATOM     11  C   UNL A   1      34.578  23.014  25.072  1.00  0.00     0.071 A 
ATOM     12  C   UNL A   1      33.188  21.114  24.654  1.00  0.00     0.072 A 
ATOM     13  C   UNL A   1      34.440  21.668  24.744  1.00  0.00     0.045 A 
ATOM     14  N   UNL A   1      32.089  21.861  24.954  1.00  0.00    -0.248 NA
ATOM     15  C   UNL A   1      32.231  23.166  25.350  1.00  0.00     0.072 A 
ATOM     16  C   UNL A   1      33.485  23.779  25.459  1.00  0.00     0.015 A 
ATOM     17  C   UNL A   1      31.136  23.981  25.650  1.00  0.00     0.029 A 
ATOM     18  C   UNL A   1      33.616  25.094  25.958  1.00  0.00     0.014 A 
ATOM     19  C   UNL A   1      31.265  25.330  26.058  1.00  0.00     0.005 A 
ATOM     20  C   UNL A   1      32.521  25.892  26.231  1.00  0.00    -0.050 A 
ATOM     21  C   UNL A   1      32.783  27.310  26.641  1.00  0.00     0.044 C 
BRANCH  12  22
ATOM     22  C   UNL A   1      33.050  19.726  24.124  1.00  0.00     0.003 A 
ATOM     23  C   UNL A   1      34.631  16.273  24.831  1.00  0.00     0.044 C 
ATOM     24  C   UNL A   1      33.732  17.336  24.264  1.00  0.00    -0.050 A 
ATOM     25  C   UNL A   1      32.966  17.056  23.138  1.00  0.00     0.004 A 
ATOM     26  C   UNL A   1      33.725  18.648  24.772  1.00  0.00     0.014 A 
ATOM     27  C   UNL A   1      32.321  18.090  22.461  1.00  0.00     0.004 A 
ATOM     28  C   UNL A   1      32.407  19.427  22.906  1.00  0.00    -0.042 A 
ATOM     29  C   UNL A   1      31.969  20.485  21.926  1.00  0.00     0.045 C 
ENDBRANCH  12  22
ENDBRANCH   9  11
ENDBRANCH   8   9
ENDBRANCH   7   8
ENDBRANCH   6   7
ENDBRANCH   5   6
ENDBRANCH   4   5
ENDBRANCH   3   4
ENDBRANCH   2   3
ENDBRANCH   1   2
BRANCH   1  30
ATOM     30  C   UNL A   1      43.572  18.676  25.408  1.00  0.00     0.188 C 
BRANCH  30  31
ATOM     31  O   UNL A   1      44.798  17.999  25.667  1.00  0.00    -0.376 OA
BRANCH  31  32
ATOM     32  C   UNL A   1      45.966  18.799  25.618  1.00  0.00     0.202 C 
BRANCH  32  33
ATOM     33  C   UNL A   1      45.827  19.808  24.483  1.00  0.00     0.261 C 
BRANCH  33  34
ATOM     34  O   UNL A   1      45.676  21.176  24.942  1.00  0.00    -0.460 OA
BRANCH  34  35
ATOM     35  C   UNL A   1      44.894  22.003  24.197  1.00  0.00     0.338 C 
ATOM     36  O   UNL A   1      44.471  21.748  23.076  1.00  0.00    -0.246 OA
BRANCH  35  37
ATOM     37  C   UNL A   1      44.656  23.280  24.939  1.00  0.00     0.060 A 
ATOM     38  C   UNL A   1      45.427  23.622  26.054  1.00  0.00     0.016 A 
ATOM     39  C   UNL A   1      43.561  24.086  24.602  1.00  0.00     0.016 A 
ATOM     40  C   UNL A   1      45.042  24.715  26.856  1.00  0.00     0.010 A 
ATOM     41  C   UNL A   1      43.140  25.119  25.436  1.00  0.00     0.010 A 
ATOM     42  C   UNL A   1      43.861  25.448  26.586  1.00  0.00    -0.014 A 
BRANCH  42  43
ATOM     43  C   UNL A   1      43.571  26.822  27.094  1.00  0.00     0.031 A 
ATOM     44  C   UNL A   1      44.797  27.589  26.885  1.00  0.00     0.074 A 
ATOM     45  C   UNL A   1      42.816  27.341  28.101  1.00  0.00     0.049 A 
ATOM     46  N   UNL A   1      45.695  27.722  27.807  1.00  0.00    -0.248 NA
ATOM     47  C   UNL A   1      45.226  27.972  25.539  1.00  0.00     0.031 C 
ATOM     48  C   UNL A   1      42.589  26.761  29.393  1.00  0.00     0.029 A 
ATOM     49  N   UNL A   1      42.024  28.493  28.176  1.00  0.00    -0.354 N 
ATOM     50  C   UNL A   1      46.588  28.605  27.262  1.00  0.00     0.074 A 
ATOM     51  C   UNL A   1      46.401  28.539  25.826  1.00  0.00     0.031 C 
ATOM     52  C   UNL A   1      41.534  27.318  30.000  1.00  0.00     0.029 A 
ATOM     53  C   UNL A   1      41.057  28.444  29.207  1.00  0.00     0.049 A 
ATOM     54  H   UNL A   1      42.129  29.262  27.571  1.00  0.00     0.167 HD
ATOM     55  C   UNL A   1      46.889  29.664  28.053  1.00  0.00     0.037 A 
ATOM     56  C   UNL A   1      40.455  29.437  29.913  1.00  0.00     0.037 A 
ATOM     57  C   UNL A   1      46.827  29.362  29.465  1.00  0.00     0.049 A 
ATOM     58  C   UNL A   1      41.473  30.064  30.799  1.00  0.00     0.074 A 
ATOM     59  C   UNL A   1      47.600  28.650  30.362  1.00  0.00     0.029 A 
ATOM     60  N   UNL A   1      45.596  29.498  30.055  1.00  0.00    -0.354 N 
ATOM     61  N   UNL A   1      42.018  29.519  31.854  1.00  0.00    -0.248 NA
ATOM     62  C   UNL A   1      42.191  31.206  30.233  1.00  0.00     0.031 C 
ATOM     63  C   UNL A   1      46.824  28.459  31.544  1.00  0.00     0.029 A 
ATOM     64  C   UNL A   1      45.591  29.066  31.360  1.00  0.00     0.049 A 
ATOM     65  H   UNL A   1      44.806  29.864  29.594  1.00  0.00     0.167 HD
ATOM     66  C   UNL A   1      43.337  29.928  31.769  1.00  0.00     0.074 A 
ATOM     67  C   UNL A   1      43.357  31.062  30.858  1.00  0.00     0.031 C 
ATOM     68  C   UNL A   1      44.363  29.105  32.116  1.00  0.00     0.037 A 
BRANCH  55  69
ATOM     69  C   UNL A   1      46.628  31.034  27.509  1.00  0.00     0.064 A 
ATOM     70  C   UNL A   1      45.321  31.474  27.300  1.00  0.00     0.173 A 
ATOM     71  C   UNL A   1      47.659  31.861  27.003  1.00  0.00     0.173 A 
ATOM     72  F   UNL A   1      44.285  30.693  27.635  1.00  0.00    -0.203 F 
ATOM     73  C   UNL A   1      45.070  32.704  26.689  1.00  0.00     0.198 A 
ATOM     74  C   UNL A   1      47.413  33.119  26.479  1.00  0.00     0.198 A 
ATOM     75  F   UNL A   1      48.924  31.427  26.901  1.00  0.00    -0.203 F 
ATOM     76  F   UNL A   1      43.808  33.069  26.430  1.00  0.00    -0.200 F 
ATOM     77  C   UNL A   1      46.113  33.540  26.314  1.00  0.00     0.200 A 
ATOM     78  F   UNL A   1      48.440  33.884  26.082  1.00  0.00    -0.200 F 
ATOM     79  F   UNL A   1      45.867  34.722  25.735  1.00  0.00    -0.200 F 
ENDBRANCH  55  69
BRANCH  56  80
ATOM     80  C   UNL A   1      39.167  30.077  29.590  1.00  0.00     0.064 A 
ATOM     81  C   UNL A   1      38.509  29.774  28.382  1.00  0.00     0.173 A 
ATOM     82  C   UNL A   1      38.567  31.035  30.415  1.00  0.00     0.173 A 
ATOM     83  F   UNL A   1      39.040  28.886  27.528  1.00  0.00    -0.203 F 
ATOM     84  C   UNL A   1      37.309  30.395  28.026  1.00  0.00     0.198 A 
ATOM     85  C   UNL A   1      37.364  31.649  30.061  1.00  0.00     0.198 A 
ATOM     86  F   UNL A   1      39.132  31.375  31.581  1.00  0.00    -0.203 F 
ATOM     87  F   UNL A   1      36.710  30.087  26.866  1.00  0.00    -0.200 F 
ATOM     88  C   UNL A   1      36.735  31.332  28.867  1.00  0.00     0.200 A 
ATOM     89  F   UNL A   1      36.822  32.567  30.875  1.00  0.00    -0.200 F 
ATOM     90  F   UNL A   1      35.587  31.933  28.530  1.00  0.00    -0.200 F 
ENDBRANCH  56  80
BRANCH  68  91
ATOM     91  C   UNL A   1      44.178  28.246  33.319  1.00  0.00     0.064 A 
ATOM     92  C   UNL A   1      43.915  26.873  33.312  1.00  0.00     0.173 A 
ATOM     93  C   UNL A   1      44.328  28.867  34.568  1.00  0.00     0.173 A 
ATOM     94  F   UNL A   1      43.834  26.191  32.167  1.00  0.00    -0.203 F 
ATOM     95  C   UNL A   1      43.779  26.156  34.501  1.00  0.00     0.198 A 
ATOM     96  C   UNL A   1      44.216  28.148  35.754  1.00  0.00     0.198 A 
ATOM     97  F   UNL A   1      44.616  30.176  34.635  1.00  0.00    -0.203 F 
ATOM     98  F   UNL A   1      43.526  24.839  34.466  1.00  0.00    -0.200 F 
ATOM     99  C   UNL A   1      43.932  26.793  35.721  1.00  0.00     0.200 A 
ATOM    100  F   UNL A   1      44.405  28.767  36.928  1.00  0.00    -0.200 F 
ATOM    101  F   UNL A   1      43.832  26.100  36.864  1.00  0.00    -0.200 F 
ENDBRANCH  68  91
ENDBRANCH  42  43
ENDBRANCH  35  37
ENDBRANCH  34  35
ENDBRANCH  33  34
ENDBRANCH  32  33
ENDBRANCH  31  32
ENDBRANCH  30  31
ENDBRANCH   1  30
TORSDOF 21
ENDMDL
