MODEL 1
REMARK VINA RESULT:     -12.0      0.000      0.000
REMARK SMILES O=C(Cn1c(-c2nc(-c3ccc(C(F)(F)F)cc3)no2)cc2ccccc21)OCCOCCOCCOCCOC(=O)c1ccc(-c2c3nc(c(-c4c(F)c(F)c(F)c(F)c4F)c4ccc([nH]4)c(-c4c(F)c(F)c(F)c(F)c4F)c4nc(c(-c5c(F)c(F)c(F)c(F)c5F)c5ccc2[nH]5)C=C4)C=C3)cc1
REMARK SMILES IDX 33 1 32 2 31 3 30 4 29 5 28 6 2 7 1 8 3 9 4 10 5 11 27 12
REMARK SMILES IDX 21 13 22 14 26 15 23 16 25 17 24 18 6 19 7 20 20 21 8 22
REMARK SMILES IDX 19 23 9 24 10 25 18 26 11 27 17 28 12 29 13 30 14 31 15 32
REMARK SMILES IDX 16 33 34 34 35 35 36 36 37 37 38 38 39 39 40 40 41 41 42 42
REMARK SMILES IDX 43 43 44 44 105 45 45 46 104 47 46 48 47 49 48 50 98 51
REMARK SMILES IDX 49 52 103 53 97 54 99 55 50 56 102 57 96 58 95 59 51 61
REMARK SMILES IDX 83 62 63 63 82 64 64 65 67 66 81 67 100 68 65 69 66 70 80 72
REMARK SMILES IDX 101 73 68 74 52 75 53 76 61 77 54 78 55 79 59 80 62 81 56 82
REMARK SMILES IDX 57 83 60 84 58 85 84 86 85 87 93 88 86 89 87 90 91 91 94 92
REMARK SMILES IDX 88 93 89 94 92 95 90 96 69 97 70 98 78 99 71 100 72 101
REMARK SMILES IDX 76 102 79 103 73 104 74 105 77 106 75 107
REMARK H PARENT 99 60 67 71
REMARK Flexibility Score: inf
ROOT
ATOM      1  C   UNL A   1      36.785  23.537  25.551  1.00  0.00     0.188 C 
ENDROOT
BRANCH   1   2
ATOM      2  C   UNL A   1      35.366  23.897  25.896  1.00  0.00     0.188 C 
BRANCH   2   3
ATOM      3  O   UNL A   1      34.949  25.166  25.391  1.00  0.00    -0.376 OA
BRANCH   3   4
ATOM      4  C   UNL A   1      33.721  25.815  25.774  1.00  0.00     0.202 C 
BRANCH   4   5
ATOM      5  C   UNL A   1      33.651  27.206  26.387  1.00  0.00     0.261 C 
BRANCH   5   6
ATOM      6  O   UNL A   1      32.573  27.982  25.953  1.00  0.00    -0.462 OA
BRANCH   6   7
ATOM      7  C   UNL A   1      31.387  27.533  26.422  1.00  0.00     0.326 C 
ATOM      8  O   UNL A   1      31.255  27.404  27.637  1.00  0.00    -0.250 OA
BRANCH   7   9
ATOM      9  C   UNL A   1      30.409  26.953  25.396  1.00  0.00     0.245 C 
BRANCH   9  10
ATOM     10  N   UNL A   1      30.663  26.865  23.926  1.00  0.00    -0.325 N 
ATOM     11  C   UNL A   1      31.444  26.143  22.918  1.00  0.00     0.109 A 
ATOM     12  C   UNL A   1      29.892  27.837  23.252  1.00  0.00     0.049 A 
ATOM     13  C   UNL A   1      31.560  27.176  21.952  1.00  0.00     0.042 A 
ATOM     14  C   UNL A   1      30.692  28.269  22.223  1.00  0.00     0.000 A 
ATOM     15  C   UNL A   1      28.707  28.505  23.642  1.00  0.00     0.027 A 
ATOM     16  C   UNL A   1      30.412  29.531  21.667  1.00  0.00     0.010 A 
ATOM     17  C   UNL A   1      28.471  29.765  23.119  1.00  0.00     0.002 A 
ATOM     18  C   UNL A   1      29.334  30.288  22.166  1.00  0.00     0.001 A 
BRANCH  11  19
ATOM     19  C   UNL A   1      32.050  24.689  22.543  1.00  0.00     0.274 A 
ATOM     20  N   UNL A   1      31.632  23.416  22.757  1.00  0.00    -0.185 NA
ATOM     21  O   UNL A   1      33.437  24.604  22.345  1.00  0.00    -0.332 OA
ATOM     22  C   UNL A   1      32.838  22.575  22.931  1.00  0.00     0.202 A 
ATOM     23  N   UNL A   1      33.905  23.295  22.562  1.00  0.00    -0.057 NA
BRANCH  22  24
ATOM     24  C   UNL A   1      32.978  21.110  23.556  1.00  0.00     0.023 A 
ATOM     25  C   UNL A   1      33.858  20.716  24.573  1.00  0.00     0.013 A 
ATOM     26  C   UNL A   1      32.221  19.991  23.154  1.00  0.00     0.013 A 
ATOM     27  C   UNL A   1      34.143  19.318  24.872  1.00  0.00     0.014 A 
ATOM     28  C   UNL A   1      32.508  18.607  23.367  1.00  0.00     0.014 A 
ATOM     29  C   UNL A   1      33.566  18.246  24.168  1.00  0.00     0.056 A 
BRANCH  29  30
ATOM     30  C   UNL A   1      34.107  16.824  24.194  1.00  0.00     0.416 C 
ATOM     31  F   UNL A   1      33.277  15.922  24.784  1.00  0.00    -0.166 F 
ATOM     32  F   UNL A   1      34.400  16.297  22.970  1.00  0.00    -0.166 F 
ATOM     33  F   UNL A   1      35.283  16.746  24.890  1.00  0.00    -0.166 F 
ENDBRANCH  29  30
ENDBRANCH  22  24
ENDBRANCH  11  19
ENDBRANCH   9  10
ENDBRANCH   7   9
ENDBRANCH   6   7
ENDBRANCH   5   6
ENDBRANCH   4   5
ENDBRANCH   3   4
ENDBRANCH   2   3
ENDBRANCH   1   2
BRANCH   1  34
ATOM     34  O   UNL A   1      36.922  22.161  25.748  1.00  0.00    -0.377 OA
BRANCH  34  35
ATOM     35  C   UNL A   1      38.227  21.659  25.534  1.00  0.00     0.188 C 
BRANCH  35  36
ATOM     36  C   UNL A   1      39.586  21.812  26.318  1.00  0.00     0.188 C 
BRANCH  36  37
ATOM     37  O   UNL A   1      40.581  20.834  26.141  1.00  0.00    -0.376 OA
BRANCH  37  38
ATOM     38  C   UNL A   1      41.819  21.117  26.758  1.00  0.00     0.202 C 
BRANCH  38  39
ATOM     39  C   UNL A   1      42.984  21.716  25.903  1.00  0.00     0.261 C 
BRANCH  39  40
ATOM     40  O   UNL A   1      42.678  22.949  25.156  1.00  0.00    -0.460 OA
BRANCH  40  41
ATOM     41  C   UNL A   1      43.505  24.053  25.248  1.00  0.00     0.338 C 
ATOM     42  O   UNL A   1      44.458  24.232  24.572  1.00  0.00    -0.246 OA
BRANCH  41  43
ATOM     43  C   UNL A   1      42.814  25.188  26.055  1.00  0.00     0.060 A 
ATOM     44  C   UNL A   1      41.762  26.037  25.651  1.00  0.00     0.016 A 
ATOM     45  C   UNL A   1      43.510  25.606  27.188  1.00  0.00     0.016 A 
ATOM     46  C   UNL A   1      41.534  27.335  26.288  1.00  0.00     0.010 A 
ATOM     47  C   UNL A   1      43.276  26.887  27.772  1.00  0.00     0.010 A 
ATOM     48  C   UNL A   1      42.336  27.836  27.346  1.00  0.00    -0.014 A 
BRANCH  48  49
ATOM     49  C   UNL A   1      41.955  29.058  28.259  1.00  0.00     0.031 A 
ATOM     50  C   UNL A   1      42.887  30.207  28.036  1.00  0.00     0.074 A 
ATOM     51  C   UNL A   1      40.835  29.391  29.027  1.00  0.00     0.049 A 
ATOM     52  N   UNL A   1      43.145  31.131  28.898  1.00  0.00    -0.248 NA
ATOM     53  C   UNL A   1      43.627  30.372  26.771  1.00  0.00     0.031 C 
ATOM     54  C   UNL A   1      39.754  28.521  29.409  1.00  0.00     0.029 A 
ATOM     55  N   UNL A   1      40.259  30.635  29.472  1.00  0.00    -0.354 N 
ATOM     56  C   UNL A   1      43.880  32.095  28.231  1.00  0.00     0.074 A 
ATOM     57  C   UNL A   1      44.167  31.583  26.920  1.00  0.00     0.031 C 
ATOM     58  C   UNL A   1      38.594  29.172  29.660  1.00  0.00     0.029 A 
ATOM     59  C   UNL A   1      38.809  30.580  29.653  1.00  0.00     0.049 A 
ATOM     60  H   UNL A   1      40.791  31.446  29.639  1.00  0.00     0.167 HD
ATOM     61  C   UNL A   1      44.071  33.308  28.799  1.00  0.00     0.037 A 
ATOM     62  C   UNL A   1      37.820  31.532  29.781  1.00  0.00     0.037 A 
ATOM     63  C   UNL A   1      44.033  33.221  30.232  1.00  0.00     0.049 A 
ATOM     64  C   UNL A   1      38.460  32.656  30.455  1.00  0.00     0.074 A 
ATOM     65  C   UNL A   1      44.704  32.397  31.115  1.00  0.00     0.029 A 
ATOM     66  N   UNL A   1      42.982  33.736  30.941  1.00  0.00    -0.354 N 
ATOM     67  N   UNL A   1      38.910  32.571  31.670  1.00  0.00    -0.248 NA
ATOM     68  C   UNL A   1      38.992  33.705  29.621  1.00  0.00     0.031 C 
ATOM     69  C   UNL A   1      43.731  32.031  32.080  1.00  0.00     0.029 A 
ATOM     70  C   UNL A   1      42.575  32.765  31.829  1.00  0.00     0.049 A 
ATOM     71  H   UNL A   1      42.590  34.634  30.837  1.00  0.00     0.167 HD
ATOM     72  C   UNL A   1      40.163  33.115  31.551  1.00  0.00     0.074 A 
ATOM     73  C   UNL A   1      40.114  33.909  30.312  1.00  0.00     0.031 C 
ATOM     74  C   UNL A   1      41.204  32.586  32.256  1.00  0.00     0.037 A 
BRANCH  61  75
ATOM     75  C   UNL A   1      44.015  34.584  28.038  1.00  0.00     0.064 A 
ATOM     76  C   UNL A   1      45.171  35.362  27.893  1.00  0.00     0.173 A 
ATOM     77  C   UNL A   1      42.788  35.210  27.740  1.00  0.00     0.173 A 
ATOM     78  F   UNL A   1      46.370  34.849  28.203  1.00  0.00    -0.203 F 
ATOM     79  C   UNL A   1      45.101  36.704  27.522  1.00  0.00     0.198 A 
ATOM     80  C   UNL A   1      42.722  36.538  27.321  1.00  0.00     0.198 A 
ATOM     81  F   UNL A   1      41.627  34.588  27.988  1.00  0.00    -0.203 F 
ATOM     82  F   UNL A   1      46.214  37.448  27.515  1.00  0.00    -0.200 F 
ATOM     83  C   UNL A   1      43.878  37.292  27.239  1.00  0.00     0.200 A 
ATOM     84  F   UNL A   1      41.531  37.108  27.090  1.00  0.00    -0.200 F 
ATOM     85  F   UNL A   1      43.808  38.598  26.949  1.00  0.00    -0.200 F 
ENDBRANCH  61  75
BRANCH  62  86
ATOM     86  C   UNL A   1      36.354  31.692  29.413  1.00  0.00     0.064 A 
ATOM     87  C   UNL A   1      35.565  32.742  29.944  1.00  0.00     0.173 A 
ATOM     88  C   UNL A   1      35.806  31.084  28.268  1.00  0.00     0.173 A 
ATOM     89  F   UNL A   1      35.999  33.437  31.005  1.00  0.00    -0.203 F 
ATOM     90  C   UNL A   1      34.356  33.165  29.357  1.00  0.00     0.198 A 
ATOM     91  C   UNL A   1      34.587  31.494  27.686  1.00  0.00     0.198 A 
ATOM     92  F   UNL A   1      36.505  30.160  27.608  1.00  0.00    -0.203 F 
ATOM     93  F   UNL A   1      33.699  34.222  29.860  1.00  0.00    -0.200 F 
ATOM     94  C   UNL A   1      33.873  32.547  28.220  1.00  0.00     0.200 A 
ATOM     95  F   UNL A   1      34.154  30.915  26.555  1.00  0.00    -0.200 F 
ATOM     96  F   UNL A   1      32.761  32.997  27.617  1.00  0.00    -0.200 F 
ENDBRANCH  62  86
BRANCH  74  97
ATOM     97  C   UNL A   1      40.954  31.508  33.323  1.00  0.00     0.064 A 
ATOM     98  C   UNL A   1      41.167  30.121  33.167  1.00  0.00     0.173 A 
ATOM     99  C   UNL A   1      40.719  31.926  34.640  1.00  0.00     0.173 A 
ATOM    100  F   UNL A   1      41.368  29.573  31.976  1.00  0.00    -0.203 F 
ATOM    101  C   UNL A   1      41.222  29.232  34.243  1.00  0.00     0.198 A 
ATOM    102  C   UNL A   1      40.783  31.041  35.722  1.00  0.00     0.198 A 
ATOM    103  F   UNL A   1      40.499  33.224  34.897  1.00  0.00    -0.203 F 
ATOM    104  F   UNL A   1      41.491  27.935  34.023  1.00  0.00    -0.200 F 
ATOM    105  C   UNL A   1      41.050  29.697  35.526  1.00  0.00     0.200 A 
ATOM    106  F   UNL A   1      40.632  31.509  36.968  1.00  0.00    -0.200 F 
ATOM    107  F   UNL A   1      41.156  28.863  36.568  1.00  0.00    -0.200 F 
ENDBRANCH  74  97
ENDBRANCH  48  49
ENDBRANCH  41  43
ENDBRANCH  40  41
ENDBRANCH  39  40
ENDBRANCH  38  39
ENDBRANCH  37  38
ENDBRANCH  36  37
ENDBRANCH  35  36
ENDBRANCH  34  35
ENDBRANCH   1  34
TORSDOF 24
ENDMDL
MODEL 2
REMARK VINA RESULT:     -11.5      3.535      5.910
REMARK SMILES O=C(Cn1c(-c2nc(-c3ccc(C(F)(F)F)cc3)no2)cc2ccccc21)OCCOCCOCCOCCOC(=O)c1ccc(-c2c3nc(c(-c4c(F)c(F)c(F)c(F)c4F)c4ccc([nH]4)c(-c4c(F)c(F)c(F)c(F)c4F)c4nc(c(-c5c(F)c(F)c(F)c(F)c5F)c5ccc2[nH]5)C=C4)C=C3)cc1
REMARK SMILES IDX 33 1 32 2 31 3 30 4 29 5 28 6 2 7 1 8 3 9 4 10 5 11 27 12
REMARK SMILES IDX 21 13 22 14 26 15 23 16 25 17 24 18 6 19 7 20 20 21 8 22
REMARK SMILES IDX 19 23 9 24 10 25 18 26 11 27 17 28 12 29 13 30 14 31 15 32
REMARK SMILES IDX 16 33 34 34 35 35 36 36 37 37 38 38 39 39 40 40 41 41 42 42
REMARK SMILES IDX 43 43 44 44 105 45 45 46 104 47 46 48 47 49 48 50 98 51
REMARK SMILES IDX 49 52 103 53 97 54 99 55 50 56 102 57 96 58 95 59 51 61
REMARK SMILES IDX 83 62 63 63 82 64 64 65 67 66 81 67 100 68 65 69 66 70 80 72
REMARK SMILES IDX 101 73 68 74 52 75 53 76 61 77 54 78 55 79 59 80 62 81 56 82
REMARK SMILES IDX 57 83 60 84 58 85 84 86 85 87 93 88 86 89 87 90 91 91 94 92
REMARK SMILES IDX 88 93 89 94 92 95 90 96 69 97 70 98 78 99 71 100 72 101
REMARK SMILES IDX 76 102 79 103 73 104 74 105 77 106 75 107
REMARK H PARENT 99 60 67 71
REMARK Flexibility Score: inf
ROOT
ATOM      1  C   UNL A   1      40.258  24.145  26.454  1.00  0.00     0.188 C 
ENDROOT
BRANCH   1   2
ATOM      2  C   UNL A   1      38.839  24.342  26.913  1.00  0.00     0.188 C 
BRANCH   2   3
ATOM      3  O   UNL A   1      37.862  23.772  26.042  1.00  0.00    -0.376 OA
BRANCH   3   4
ATOM      4  C   UNL A   1      37.600  22.358  25.950  1.00  0.00     0.202 C 
BRANCH   4   5
ATOM      5  C   UNL A   1      36.229  21.764  25.661  1.00  0.00     0.261 C 
BRANCH   5   6
ATOM      6  O   UNL A   1      35.154  22.510  26.153  1.00  0.00    -0.462 OA
BRANCH   6   7
ATOM      7  C   UNL A   1      34.305  21.768  26.898  1.00  0.00     0.326 C 
ATOM      8  O   UNL A   1      34.352  21.885  28.120  1.00  0.00    -0.250 OA
BRANCH   7   9
ATOM      9  C   UNL A   1      33.557  20.640  26.181  1.00  0.00     0.245 C 
BRANCH   9  10
ATOM     10  N   UNL A   1      33.178  20.647  24.736  1.00  0.00    -0.325 N 
ATOM     11  C   UNL A   1      32.492  21.443  23.714  1.00  0.00     0.109 A 
ATOM     12  C   UNL A   1      33.614  19.453  24.123  1.00  0.00     0.049 A 
ATOM     13  C   UNL A   1      32.027  20.385  22.890  1.00  0.00     0.042 A 
ATOM     14  C   UNL A   1      32.629  19.140  23.220  1.00  0.00     0.000 A 
ATOM     15  C   UNL A   1      34.638  18.549  24.496  1.00  0.00     0.027 A 
ATOM     16  C   UNL A   1      32.535  17.800  22.798  1.00  0.00     0.010 A 
ATOM     17  C   UNL A   1      34.505  17.225  24.110  1.00  0.00     0.002 A 
ATOM     18  C   UNL A   1      33.445  16.848  23.296  1.00  0.00     0.001 A 
BRANCH  11  19
ATOM     19  C   UNL A   1      32.218  22.959  23.218  1.00  0.00     0.274 A 
ATOM     20  N   UNL A   1      32.933  24.112  23.289  1.00  0.00    -0.185 NA
ATOM     21  O   UNL A   1      30.879  23.352  23.063  1.00  0.00    -0.332 OA
ATOM     22  C   UNL A   1      31.966  25.226  23.420  1.00  0.00     0.202 A 
ATOM     23  N   UNL A   1      30.742  24.749  23.165  1.00  0.00    -0.057 NA
BRANCH  22  24
ATOM     24  C   UNL A   1      32.208  26.732  23.901  1.00  0.00     0.023 A 
ATOM     25  C   UNL A   1      33.416  27.283  24.346  1.00  0.00     0.013 A 
ATOM     26  C   UNL A   1      31.211  27.727  23.950  1.00  0.00     0.013 A 
ATOM     27  C   UNL A   1      33.490  28.558  25.051  1.00  0.00     0.014 A 
ATOM     28  C   UNL A   1      31.220  28.952  24.686  1.00  0.00     0.014 A 
ATOM     29  C   UNL A   1      32.360  29.340  25.349  1.00  0.00     0.056 A 
BRANCH  29  30
ATOM     30  C   UNL A   1      32.349  30.456  26.384  1.00  0.00     0.416 C 
ATOM     31  F   UNL A   1      33.540  31.098  26.526  1.00  0.00    -0.166 F 
ATOM     32  F   UNL A   1      31.433  31.442  26.159  1.00  0.00    -0.166 F 
ATOM     33  F   UNL A   1      32.041  29.981  27.631  1.00  0.00    -0.166 F 
ENDBRANCH  29  30
ENDBRANCH  22  24
ENDBRANCH  11  19
ENDBRANCH   9  10
ENDBRANCH   7   9
ENDBRANCH   6   7
ENDBRANCH   5   6
ENDBRANCH   4   5
ENDBRANCH   3   4
ENDBRANCH   2   3
ENDBRANCH   1   2
BRANCH   1  34
ATOM     34  O   UNL A   1      40.809  23.129  27.238  1.00  0.00    -0.377 OA
BRANCH  34  35
ATOM     35  C   UNL A   1      41.060  21.919  26.549  1.00  0.00     0.188 C 
BRANCH  35  36
ATOM     36  C   UNL A   1      42.283  20.926  26.522  1.00  0.00     0.188 C 
BRANCH  36  37
ATOM     37  O   UNL A   1      42.493  20.143  25.372  1.00  0.00    -0.376 OA
BRANCH  37  38
ATOM     38  C   UNL A   1      43.526  19.188  25.473  1.00  0.00     0.202 C 
BRANCH  38  39
ATOM     39  C   UNL A   1      44.719  19.237  24.462  1.00  0.00     0.261 C 
BRANCH  39  40
ATOM     40  O   UNL A   1      45.533  20.464  24.472  1.00  0.00    -0.460 OA
BRANCH  40  41
ATOM     41  C   UNL A   1      45.110  21.598  23.803  1.00  0.00     0.338 C 
ATOM     42  O   UNL A   1      44.490  21.586  22.796  1.00  0.00    -0.246 OA
BRANCH  41  43
ATOM     43  C   UNL A   1      45.204  22.845  24.726  1.00  0.00     0.060 A 
ATOM     44  C   UNL A   1      45.966  23.012  25.901  1.00  0.00     0.016 A 
ATOM     45  C   UNL A   1      44.198  23.790  24.534  1.00  0.00     0.016 A 
ATOM     46  C   UNL A   1      45.613  24.011  26.911  1.00  0.00     0.010 A 
ATOM     47  C   UNL A   1      43.866  24.738  25.548  1.00  0.00     0.010 A 
ATOM     48  C   UNL A   1      44.496  24.878  26.793  1.00  0.00    -0.014 A 
BRANCH  48  49
ATOM     49  C   UNL A   1      44.254  26.154  27.679  1.00  0.00     0.031 A 
ATOM     50  C   UNL A   1      45.169  27.268  27.278  1.00  0.00     0.074 A 
ATOM     51  C   UNL A   1      43.247  26.551  28.564  1.00  0.00     0.049 A 
ATOM     52  N   UNL A   1      45.550  28.230  28.049  1.00  0.00    -0.248 NA
ATOM     53  C   UNL A   1      45.744  27.350  25.923  1.00  0.00     0.031 C 
ATOM     54  C   UNL A   1      42.209  25.727  29.126  1.00  0.00     0.029 A 
ATOM     55  N   UNL A   1      42.753  27.830  29.010  1.00  0.00    -0.354 N 
ATOM     56  C   UNL A   1      46.209  29.140  27.243  1.00  0.00     0.074 A 
ATOM     57  C   UNL A   1      46.318  28.555  25.936  1.00  0.00     0.031 C 
ATOM     58  C   UNL A   1      41.102  26.417  29.486  1.00  0.00     0.029 A 
ATOM     59  C   UNL A   1      41.337  27.817  29.376  1.00  0.00     0.049 A 
ATOM     60  H   UNL A   1      43.315  28.636  29.064  1.00  0.00     0.167 HD
ATOM     61  C   UNL A   1      46.490  30.377  27.716  1.00  0.00     0.037 A 
ATOM     62  C   UNL A   1      40.388  28.797  29.576  1.00  0.00     0.037 A 
ATOM     63  C   UNL A   1      46.634  30.364  29.145  1.00  0.00     0.049 A 
ATOM     64  C   UNL A   1      41.127  29.939  30.102  1.00  0.00     0.074 A 
ATOM     65  C   UNL A   1      47.399  29.572  29.979  1.00  0.00     0.029 A 
ATOM     66  N   UNL A   1      45.691  30.940  29.953  1.00  0.00    -0.354 N 
ATOM     67  N   UNL A   1      41.726  29.907  31.253  1.00  0.00    -0.248 NA
ATOM     68  C   UNL A   1      41.565  30.931  29.152  1.00  0.00     0.031 C 
ATOM     69  C   UNL A   1      46.551  29.279  31.078  1.00  0.00     0.029 A 
ATOM     70  C   UNL A   1      45.384  30.025  30.936  1.00  0.00     0.049 A 
ATOM     71  H   UNL A   1      45.303  31.839  29.851  1.00  0.00     0.167 HD
ATOM     72  C   UNL A   1      42.962  30.415  30.947  1.00  0.00     0.074 A 
ATOM     73  C   UNL A   1      42.769  31.145  29.684  1.00  0.00     0.031 C 
ATOM     74  C   UNL A   1      44.077  29.899  31.543  1.00  0.00     0.037 A 
BRANCH  61  75
ATOM     75  C   UNL A   1      46.358  31.613  26.901  1.00  0.00     0.064 A 
ATOM     76  C   UNL A   1      47.429  32.512  26.818  1.00  0.00     0.173 A 
ATOM     77  C   UNL A   1      45.099  32.084  26.478  1.00  0.00     0.173 A 
ATOM     78  F   UNL A   1      48.647  32.150  27.245  1.00  0.00    -0.203 F 
ATOM     79  C   UNL A   1      47.242  33.825  26.386  1.00  0.00     0.198 A 
ATOM     80  C   UNL A   1      44.922  33.382  25.999  1.00  0.00     0.198 A 
ATOM     81  F   UNL A   1      43.997  31.343  26.656  1.00  0.00    -0.203 F 
ATOM     82  F   UNL A   1      48.262  34.691  26.438  1.00  0.00    -0.200 F 
ATOM     83  C   UNL A   1      45.991  34.260  25.980  1.00  0.00     0.200 A 
ATOM     84  F   UNL A   1      43.700  33.804  25.648  1.00  0.00    -0.200 F 
ATOM     85  F   UNL A   1      45.801  35.540  25.631  1.00  0.00    -0.200 F 
ENDBRANCH  61  75
BRANCH  62  86
ATOM     86  C   UNL A   1      38.890  28.972  29.389  1.00  0.00     0.064 A 
ATOM     87  C   UNL A   1      38.024  29.193  30.488  1.00  0.00     0.173 A 
ATOM     88  C   UNL A   1      38.333  29.311  28.141  1.00  0.00     0.173 A 
ATOM     89  F   UNL A   1      38.451  28.959  31.736  1.00  0.00    -0.203 F 
ATOM     90  C   UNL A   1      36.733  29.740  30.349  1.00  0.00     0.198 A 
ATOM     91  C   UNL A   1      37.034  29.843  27.996  1.00  0.00     0.198 A 
ATOM     92  F   UNL A   1      39.085  29.255  27.041  1.00  0.00    -0.203 F 
ATOM     93  F   UNL A   1      35.995  30.006  31.439  1.00  0.00    -0.200 F 
ATOM     94  C   UNL A   1      36.242  30.075  29.102  1.00  0.00     0.200 A 
ATOM     95  F   UNL A   1      36.588  30.207  26.783  1.00  0.00    -0.200 F 
ATOM     96  F   UNL A   1      35.043  30.665  28.975  1.00  0.00    -0.200 F 
ENDBRANCH  62  86
BRANCH  74  97
ATOM     97  C   UNL A   1      43.947  28.884  32.690  1.00  0.00     0.064 A 
ATOM     98  C   UNL A   1      44.157  27.492  32.592  1.00  0.00     0.173 A 
ATOM     99  C   UNL A   1      43.845  29.377  33.997  1.00  0.00     0.173 A 
ATOM    100  F   UNL A   1      44.240  26.876  31.420  1.00  0.00    -0.203 F 
ATOM    101  C   UNL A   1      44.330  26.666  33.705  1.00  0.00     0.198 A 
ATOM    102  C   UNL A   1      44.028  28.556  35.116  1.00  0.00     0.198 A 
ATOM    103  F   UNL A   1      43.640  30.687  34.201  1.00  0.00    -0.203 F 
ATOM    104  F   UNL A   1      44.587  25.360  33.533  1.00  0.00    -0.200 F 
ATOM    105  C   UNL A   1      44.286  27.204  34.971  1.00  0.00     0.200 A 
ATOM    106  F   UNL A   1      44.001  29.095  36.342  1.00  0.00    -0.200 F 
ATOM    107  F   UNL A   1      44.507  26.432  36.042  1.00  0.00    -0.200 F 
ENDBRANCH  74  97
ENDBRANCH  48  49
ENDBRANCH  41  43
ENDBRANCH  40  41
ENDBRANCH  39  40
ENDBRANCH  38  39
ENDBRANCH  37  38
ENDBRANCH  36  37
ENDBRANCH  35  36
ENDBRANCH  34  35
ENDBRANCH   1  34
TORSDOF 24
ENDMDL
MODEL 3
REMARK VINA RESULT:     -11.4      1.703      2.777
REMARK SMILES O=C(Cn1c(-c2nc(-c3ccc(C(F)(F)F)cc3)no2)cc2ccccc21)OCCOCCOCCOCCOC(=O)c1ccc(-c2c3nc(c(-c4c(F)c(F)c(F)c(F)c4F)c4ccc([nH]4)c(-c4c(F)c(F)c(F)c(F)c4F)c4nc(c(-c5c(F)c(F)c(F)c(F)c5F)c5ccc2[nH]5)C=C4)C=C3)cc1
REMARK SMILES IDX 33 1 32 2 31 3 30 4 29 5 28 6 2 7 1 8 3 9 4 10 5 11 27 12
REMARK SMILES IDX 21 13 22 14 26 15 23 16 25 17 24 18 6 19 7 20 20 21 8 22
REMARK SMILES IDX 19 23 9 24 10 25 18 26 11 27 17 28 12 29 13 30 14 31 15 32
REMARK SMILES IDX 16 33 34 34 35 35 36 36 37 37 38 38 39 39 40 40 41 41 42 42
REMARK SMILES IDX 43 43 44 44 105 45 45 46 104 47 46 48 47 49 48 50 98 51
REMARK SMILES IDX 49 52 103 53 97 54 99 55 50 56 102 57 96 58 95 59 51 61
REMARK SMILES IDX 83 62 63 63 82 64 64 65 67 66 81 67 100 68 65 69 66 70 80 72
REMARK SMILES IDX 101 73 68 74 52 75 53 76 61 77 54 78 55 79 59 80 62 81 56 82
REMARK SMILES IDX 57 83 60 84 58 85 84 86 85 87 93 88 86 89 87 90 91 91 94 92
REMARK SMILES IDX 88 93 89 94 92 95 90 96 69 97 70 98 78 99 71 100 72 101
REMARK SMILES IDX 76 102 79 103 73 104 74 105 77 106 75 107
REMARK H PARENT 99 60 67 71
REMARK Flexibility Score: inf
ROOT
ATOM      1  C   UNL A   1      32.487  23.281  27.655  1.00  0.00     0.188 C 
ENDROOT
BRANCH   1   2
ATOM      2  C   UNL A   1      31.241  22.683  27.063  1.00  0.00     0.188 C 
BRANCH   2   3
ATOM      3  O   UNL A   1      30.118  23.565  27.062  1.00  0.00    -0.376 OA
BRANCH   3   4
ATOM      4  C   UNL A   1      30.154  24.906  26.537  1.00  0.00     0.202 C 
BRANCH   4   5
ATOM      5  C   UNL A   1      29.055  25.512  25.677  1.00  0.00     0.261 C 
BRANCH   5   6
ATOM      6  O   UNL A   1      29.415  25.745  24.346  1.00  0.00    -0.462 OA
BRANCH   6   7
ATOM      7  C   UNL A   1      29.381  27.057  24.021  1.00  0.00     0.326 C 
ATOM      8  O   UNL A   1      28.452  27.458  23.323  1.00  0.00    -0.250 OA
BRANCH   7   9
ATOM      9  C   UNL A   1      30.643  27.876  24.307  1.00  0.00     0.245 C 
BRANCH   9  10
ATOM     10  N   UNL A   1      31.978  27.300  24.649  1.00  0.00    -0.325 N 
ATOM     11  C   UNL A   1      32.731  26.043  24.689  1.00  0.00     0.109 A 
ATOM     12  C   UNL A   1      32.829  28.320  25.125  1.00  0.00     0.049 A 
ATOM     13  C   UNL A   1      33.603  26.346  25.766  1.00  0.00     0.042 A 
ATOM     14  C   UNL A   1      33.576  27.725  26.112  1.00  0.00     0.000 A 
ATOM     15  C   UNL A   1      32.785  29.721  24.928  1.00  0.00     0.027 A 
ATOM     16  C   UNL A   1      34.166  28.562  27.076  1.00  0.00     0.010 A 
ATOM     17  C   UNL A   1      33.332  30.531  25.909  1.00  0.00     0.002 A 
ATOM     18  C   UNL A   1      33.986  29.957  26.991  1.00  0.00     0.001 A 
BRANCH  11  19
ATOM     19  C   UNL A   1      32.940  24.631  23.924  1.00  0.00     0.274 A 
ATOM     20  N   UNL A   1      32.364  23.407  24.040  1.00  0.00    -0.185 NA
ATOM     21  O   UNL A   1      34.189  24.406  23.324  1.00  0.00    -0.332 OA
ATOM     22  C   UNL A   1      33.397  22.397  23.720  1.00  0.00     0.202 A 
ATOM     23  N   UNL A   1      34.447  23.029  23.181  1.00  0.00    -0.057 NA
BRANCH  22  24
ATOM     24  C   UNL A   1      33.420  20.828  24.032  1.00  0.00     0.023 A 
ATOM     25  C   UNL A   1      34.378  20.142  24.790  1.00  0.00     0.013 A 
ATOM     26  C   UNL A   1      32.462  19.905  23.569  1.00  0.00     0.013 A 
ATOM     27  C   UNL A   1      34.504  18.690  24.774  1.00  0.00     0.014 A 
ATOM     28  C   UNL A   1      32.579  18.483  23.472  1.00  0.00     0.014 A 
ATOM     29  C   UNL A   1      33.682  17.853  23.997  1.00  0.00     0.056 A 
BRANCH  29  30
ATOM     30  C   UNL A   1      34.015  16.405  23.667  1.00  0.00     0.416 C 
ATOM     31  F   UNL A   1      34.410  16.203  22.381  1.00  0.00    -0.166 F 
ATOM     32  F   UNL A   1      34.994  15.849  24.437  1.00  0.00    -0.166 F 
ATOM     33  F   UNL A   1      32.932  15.587  23.847  1.00  0.00    -0.166 F 
ENDBRANCH  29  30
ENDBRANCH  22  24
ENDBRANCH  11  19
ENDBRANCH   9  10
ENDBRANCH   7   9
ENDBRANCH   6   7
ENDBRANCH   5   6
ENDBRANCH   4   5
ENDBRANCH   3   4
ENDBRANCH   2   3
ENDBRANCH   1   2
BRANCH   1  34
ATOM     34  O   UNL A   1      33.567  22.519  27.203  1.00  0.00    -0.377 OA
BRANCH  34  35
ATOM     35  C   UNL A   1      34.719  23.266  26.862  1.00  0.00     0.188 C 
BRANCH  35  36
ATOM     36  C   UNL A   1      36.044  22.914  26.086  1.00  0.00     0.188 C 
BRANCH  36  37
ATOM     37  O   UNL A   1      37.258  23.467  26.535  1.00  0.00    -0.376 OA
BRANCH  37  38
ATOM     38  C   UNL A   1      38.404  23.071  25.814  1.00  0.00     0.202 C 
BRANCH  38  39
ATOM     39  C   UNL A   1      39.464  22.149  26.502  1.00  0.00     0.261 C 
BRANCH  39  40
ATOM     40  O   UNL A   1      40.376  22.803  27.456  1.00  0.00    -0.460 OA
BRANCH  40  41
ATOM     41  C   UNL A   1      41.238  23.800  27.039  1.00  0.00     0.338 C 
ATOM     42  O   UNL A   1      41.984  23.700  26.126  1.00  0.00    -0.246 OA
BRANCH  41  43
ATOM     43  C   UNL A   1      40.829  25.169  27.653  1.00  0.00     0.060 A 
ATOM     44  C   UNL A   1      39.997  26.165  27.101  1.00  0.00     0.016 A 
ATOM     45  C   UNL A   1      41.609  25.580  28.732  1.00  0.00     0.016 A 
ATOM     46  C   UNL A   1      40.074  27.560  27.537  1.00  0.00     0.010 A 
ATOM     47  C   UNL A   1      41.677  26.953  29.118  1.00  0.00     0.010 A 
ATOM     48  C   UNL A   1      40.976  28.016  28.533  1.00  0.00    -0.014 A 
BRANCH  48  49
ATOM     49  C   UNL A   1      40.889  29.414  29.247  1.00  0.00     0.031 A 
ATOM     50  C   UNL A   1      42.043  30.287  28.864  1.00  0.00     0.074 A 
ATOM     51  C   UNL A   1      39.885  30.093  29.945  1.00  0.00     0.049 A 
ATOM     52  N   UNL A   1      42.515  31.251  29.580  1.00  0.00    -0.248 NA
ATOM     53  C   UNL A   1      42.772  30.096  27.597  1.00  0.00     0.031 C 
ATOM     54  C   UNL A   1      38.650  29.546  30.442  1.00  0.00     0.029 A 
ATOM     55  N   UNL A   1      39.603  31.485  30.192  1.00  0.00    -0.354 N 
ATOM     56  C   UNL A   1      43.425  31.921  28.784  1.00  0.00     0.074 A 
ATOM     57  C   UNL A   1      43.565  31.170  27.568  1.00  0.00     0.031 C 
ATOM     58  C   UNL A   1      37.666  30.464  30.581  1.00  0.00     0.029 A 
ATOM     59  C   UNL A   1      38.180  31.774  30.364  1.00  0.00     0.049 A 
ATOM     60  H   UNL A   1      40.302  32.177  30.241  1.00  0.00     0.167 HD
ATOM     61  C   UNL A   1      43.887  33.135  29.165  1.00  0.00     0.037 A 
ATOM     62  C   UNL A   1      37.424  32.927  30.338  1.00  0.00     0.037 A 
ATOM     63  C   UNL A   1      43.864  33.272  30.595  1.00  0.00     0.049 A 
ATOM     64  C   UNL A   1      38.308  33.972  30.842  1.00  0.00     0.074 A 
ATOM     65  C   UNL A   1      44.360  32.462  31.598  1.00  0.00     0.029 A 
ATOM     66  N   UNL A   1      42.966  34.103  31.207  1.00  0.00    -0.354 N 
ATOM     67  N   UNL A   1      38.755  33.973  32.060  1.00  0.00    -0.248 NA
ATOM     68  C   UNL A   1      39.035  34.744  29.866  1.00  0.00     0.031 C 
ATOM     69  C   UNL A   1      43.353  32.465  32.597  1.00  0.00     0.029 A 
ATOM     70  C   UNL A   1      42.378  33.387  32.227  1.00  0.00     0.049 A 
ATOM     71  H   UNL A   1      42.775  35.038  30.966  1.00  0.00     0.167 HD
ATOM     72  C   UNL A   1      40.093  34.208  31.874  1.00  0.00     0.074 A 
ATOM     73  C   UNL A   1      40.189  34.800  30.530  1.00  0.00     0.031 C 
ATOM     74  C   UNL A   1      41.011  33.575  32.662  1.00  0.00     0.037 A 
BRANCH  61  75
ATOM     75  C   UNL A   1      44.092  34.264  28.221  1.00  0.00     0.064 A 
ATOM     76  C   UNL A   1      45.382  34.757  27.991  1.00  0.00     0.173 A 
ATOM     77  C   UNL A   1      43.019  35.075  27.801  1.00  0.00     0.173 A 
ATOM     78  F   UNL A   1      46.452  34.062  28.405  1.00  0.00    -0.203 F 
ATOM     79  C   UNL A   1      45.589  36.013  27.421  1.00  0.00     0.198 A 
ATOM     80  C   UNL A   1      43.226  36.310  27.185  1.00  0.00     0.198 A 
ATOM     81  F   UNL A   1      41.756  34.750  28.109  1.00  0.00    -0.203 F 
ATOM     82  F   UNL A   1      46.832  36.503  27.331  1.00  0.00    -0.200 F 
ATOM     83  C   UNL A   1      44.513  36.789  27.022  1.00  0.00     0.200 A 
ATOM     84  F   UNL A   1      42.177  37.069  26.841  1.00  0.00    -0.200 F 
ATOM     85  F   UNL A   1      44.712  38.023  26.538  1.00  0.00    -0.200 F 
ENDBRANCH  61  75
BRANCH  62  86
ATOM     86  C   UNL A   1      36.020  33.345  29.935  1.00  0.00     0.064 A 
ATOM     87  C   UNL A   1      35.125  33.936  30.861  1.00  0.00     0.173 A 
ATOM     88  C   UNL A   1      35.661  33.538  28.587  1.00  0.00     0.173 A 
ATOM     89  F   UNL A   1      35.380  33.869  32.175  1.00  0.00    -0.203 F 
ATOM     90  C   UNL A   1      33.997  34.683  30.469  1.00  0.00     0.198 A 
ATOM     91  C   UNL A   1      34.522  34.271  28.189  1.00  0.00     0.198 A 
ATOM     92  F   UNL A   1      36.480  33.129  27.617  1.00  0.00    -0.203 F 
ATOM     93  F   UNL A   1      33.237  35.289  31.394  1.00  0.00    -0.200 F 
ATOM     94  C   UNL A   1      33.701  34.859  29.131  1.00  0.00     0.200 A 
ATOM     95  F   UNL A   1      34.274  34.474  26.886  1.00  0.00    -0.200 F 
ATOM     96  F   UNL A   1      32.670  35.632  28.754  1.00  0.00    -0.200 F 
ENDBRANCH  62  86
BRANCH  74  97
ATOM     97  C   UNL A   1      40.557  32.749  33.876  1.00  0.00     0.064 A 
ATOM     98  C   UNL A   1      40.062  33.267  35.092  1.00  0.00     0.173 A 
ATOM     99  C   UNL A   1      40.388  31.369  33.708  1.00  0.00     0.173 A 
ATOM    100  F   UNL A   1      40.180  34.550  35.408  1.00  0.00    -0.203 F 
ATOM    101  C   UNL A   1      39.382  32.489  36.032  1.00  0.00     0.198 A 
ATOM    102  C   UNL A   1      39.699  30.587  34.642  1.00  0.00     0.198 A 
ATOM    103  F   UNL A   1      40.828  30.776  32.589  1.00  0.00    -0.203 F 
ATOM    104  F   UNL A   1      38.885  33.064  37.139  1.00  0.00    -0.200 F 
ATOM    105  C   UNL A   1      39.182  31.148  35.796  1.00  0.00     0.200 A 
ATOM    106  F   UNL A   1      39.495  29.286  34.392  1.00  0.00    -0.200 F 
ATOM    107  F   UNL A   1      38.483  30.406  36.664  1.00  0.00    -0.200 F 
ENDBRANCH  74  97
ENDBRANCH  48  49
ENDBRANCH  41  43
ENDBRANCH  40  41
ENDBRANCH  39  40
ENDBRANCH  38  39
ENDBRANCH  37  38
ENDBRANCH  36  37
ENDBRANCH  35  36
ENDBRANCH  34  35
ENDBRANCH   1  34
TORSDOF 24
ENDMDL
