MODEL 1
REMARK VINA RESULT:     -10.6      0.000      0.000
REMARK SMILES Cc1ccc(OCC(=O)NNC(=O)[C@H]2CCCC[C@@H]2C(=O)OCCOCCOCCOCCOC(=O)c2ccc(-c3c4nc(c(-c5c(F)c(F)c(F)c(F)c5F)c5ccc([nH]5)c(-c5c(F)c(F)c(F)c(F)c5F)c5nc(c(-c6c(F)c(F)c(F)c(F)c6F)c6ccc3[nH]6)C=C5)C=C4)cc2)cc1
REMARK SMILES IDX 26 1 25 2 24 3 23 4 22 5 20 6 21 7 19 8 14 9 15 10 16 11
REMARK SMILES IDX 18 12 17 13 12 14 11 15 13 17 10 18 8 19 9 20 7 22 6 23 5 24
REMARK SMILES IDX 1 25 2 26 3 27 101 28 4 29 100 30 27 31 28 32 29 33 30 34
REMARK SMILES IDX 31 35 32 36 33 37 34 38 35 39 36 40 37 41 38 42 99 43 39 44
REMARK SMILES IDX 98 45 40 46 41 47 42 48 92 49 43 50 97 51 91 52 93 53 44 54
REMARK SMILES IDX 96 55 90 56 89 57 45 59 77 60 57 61 76 62 58 63 61 64 75 65
REMARK SMILES IDX 94 66 59 67 60 68 74 70 95 71 62 72 46 73 47 74 55 75 48 76
REMARK SMILES IDX 49 77 53 78 56 79 50 80 51 81 54 82 52 83 78 84 79 85 87 86
REMARK SMILES IDX 80 87 81 88 85 89 88 90 82 91 83 92 86 93 84 94 63 95 64 96
REMARK SMILES IDX 72 97 65 98 66 99 70 100 73 101 67 102 68 103 71 104 69 105
REMARK H PARENT 11 16 10 21 93 58 61 69
REMARK Flexibility Score: inf
ROOT
ATOM      1  C   UNL A   1      32.939  21.211  25.745  1.00  0.00     0.188 C 
ENDROOT
BRANCH   1   2
ATOM      2  O   UNL A   1      32.744  22.221  26.715  1.00  0.00    -0.376 OA
BRANCH   2   3
ATOM      3  C   UNL A   1      31.425  22.717  26.891  1.00  0.00     0.202 C 
BRANCH   3   4
ATOM      4  C   UNL A   1      31.006  23.991  26.173  1.00  0.00     0.261 C 
BRANCH   4   5
ATOM      5  O   UNL A   1      31.441  25.154  26.884  1.00  0.00    -0.463 OA
BRANCH   5   6
ATOM      6  C   UNL A   1      32.531  25.718  26.356  1.00  0.00     0.309 C 
ATOM      7  O   UNL A   1      33.575  25.117  26.099  1.00  0.00    -0.252 OA
BRANCH   6   8
ATOM      8  C   UNL A   1      32.308  27.125  25.850  1.00  0.00     0.111 C 
ATOM      9  C   UNL A   1      33.687  27.578  25.395  1.00  0.00     0.094 C 
ATOM     10  C   UNL A   1      34.329  28.420  26.498  1.00  0.00     0.014 C 
ATOM     11  C   UNL A   1      33.531  29.653  26.868  1.00  0.00     0.001 C 
ATOM     12  C   UNL A   1      31.436  28.174  26.547  1.00  0.00     0.016 C 
ATOM     13  C   UNL A   1      32.102  29.337  27.273  1.00  0.00     0.001 C 
BRANCH   9  14
ATOM     14  C   UNL A   1      33.597  28.136  23.982  1.00  0.00     0.242 C 
ATOM     15  N   UNL A   1      33.573  27.257  22.908  1.00  0.00    -0.267 N 
ATOM     16  H   UNL A   1      33.536  27.659  22.010  1.00  0.00     0.191 HD
ATOM     17  O   UNL A   1      33.584  29.347  23.762  1.00  0.00    -0.273 OA
BRANCH  15  18
ATOM     18  N   UNL A   1      33.597  25.850  22.971  1.00  0.00    -0.265 N 
ATOM     19  C   UNL A   1      32.473  25.055  22.846  1.00  0.00     0.276 C 
ATOM     20  O   UNL A   1      32.541  23.840  23.038  1.00  0.00    -0.269 OA
ATOM     21  H   UNL A   1      34.465  25.406  23.112  1.00  0.00     0.191 HD
BRANCH  19  22
ATOM     22  C   UNL A   1      31.164  25.698  22.397  1.00  0.00     0.331 C 
BRANCH  22  23
ATOM     23  O   UNL A   1      30.484  26.417  23.410  1.00  0.00    -0.484 OA
BRANCH  23  24
ATOM     24  C   UNL A   1      29.755  27.520  23.066  1.00  0.00     0.120 A 
ATOM     25  C   UNL A   1      27.912  31.226  21.819  1.00  0.00     0.044 C 
ATOM     26  C   UNL A   1      28.542  29.938  22.262  1.00  0.00    -0.051 A 
ATOM     27  C   UNL A   1      29.900  29.713  22.025  1.00  0.00     0.007 A 
ATOM     28  C   UNL A   1      27.797  28.942  22.903  1.00  0.00     0.007 A 
ATOM     29  C   UNL A   1      30.499  28.516  22.429  1.00  0.00     0.047 A 
ATOM     30  C   UNL A   1      28.399  27.738  23.302  1.00  0.00     0.047 A 
ENDBRANCH  23  24
ENDBRANCH  22  23
ENDBRANCH  19  22
ENDBRANCH  15  18
ENDBRANCH   9  14
ENDBRANCH   6   8
ENDBRANCH   5   6
ENDBRANCH   4   5
ENDBRANCH   3   4
ENDBRANCH   2   3
ENDBRANCH   1   2
BRANCH   1  31
ATOM     31  C   UNL A   1      34.148  21.195  24.807  1.00  0.00     0.188 C 
BRANCH  31  32
ATOM     32  O   UNL A   1      35.367  20.624  25.250  1.00  0.00    -0.377 OA
BRANCH  32  33
ATOM     33  C   UNL A   1      36.477  21.490  25.424  1.00  0.00     0.188 C 
BRANCH  33  34
ATOM     34  C   UNL A   1      36.293  22.964  25.088  1.00  0.00     0.188 C 
BRANCH  34  35
ATOM     35  O   UNL A   1      37.474  23.686  25.420  1.00  0.00    -0.376 OA
BRANCH  35  36
ATOM     36  C   UNL A   1      38.517  22.933  26.040  1.00  0.00     0.202 C 
BRANCH  36  37
ATOM     37  C   UNL A   1      39.446  23.769  26.927  1.00  0.00     0.261 C 
BRANCH  37  38
ATOM     38  O   UNL A   1      39.361  25.152  26.534  1.00  0.00    -0.460 OA
BRANCH  38  39
ATOM     39  C   UNL A   1      40.529  25.837  26.564  1.00  0.00     0.338 C 
ATOM     40  O   UNL A   1      41.651  25.329  26.492  1.00  0.00    -0.246 OA
BRANCH  39  41
ATOM     41  C   UNL A   1      40.296  27.235  27.022  1.00  0.00     0.060 A 
ATOM     42  C   UNL A   1      41.389  28.096  27.230  1.00  0.00     0.016 A 
ATOM     43  C   UNL A   1      39.069  27.541  27.598  1.00  0.00     0.016 A 
ATOM     44  C   UNL A   1      41.302  29.142  28.165  1.00  0.00     0.010 A 
ATOM     45  C   UNL A   1      39.025  28.508  28.584  1.00  0.00     0.010 A 
ATOM     46  C   UNL A   1      40.141  29.291  28.924  1.00  0.00    -0.014 A 
BRANCH  46  47
ATOM     47  C   UNL A   1      40.036  30.027  30.209  1.00  0.00     0.031 A 
ATOM     48  C   UNL A   1      39.248  31.314  30.278  1.00  0.00     0.074 A 
ATOM     49  C   UNL A   1      40.248  29.317  31.347  1.00  0.00     0.049 A 
ATOM     50  N   UNL A   1      38.870  31.911  31.362  1.00  0.00    -0.248 NA
ATOM     51  C   UNL A   1      38.810  32.050  29.092  1.00  0.00     0.031 C 
ATOM     52  C   UNL A   1      39.455  29.429  32.564  1.00  0.00     0.029 A 
ATOM     53  N   UNL A   1      41.082  28.230  31.634  1.00  0.00    -0.354 N 
ATOM     54  C   UNL A   1      37.906  32.854  31.046  1.00  0.00     0.074 A 
ATOM     55  C   UNL A   1      37.996  32.977  29.614  1.00  0.00     0.031 C 
ATOM     56  C   UNL A   1      39.822  28.516  33.464  1.00  0.00     0.029 A 
ATOM     57  C   UNL A   1      41.089  28.025  33.034  1.00  0.00     0.049 A 
ATOM     58  H   UNL A   1      41.579  27.698  30.972  1.00  0.00     0.167 HD
ATOM     59  C   UNL A   1      37.056  33.319  32.021  1.00  0.00     0.037 A 
ATOM     60  C   UNL A   1      42.213  28.271  33.772  1.00  0.00     0.037 A 
ATOM     61  C   UNL A   1      37.449  32.860  33.381  1.00  0.00     0.049 A 
ATOM     62  C   UNL A   1      42.143  29.564  34.606  1.00  0.00     0.074 A 
ATOM     63  C   UNL A   1      36.786  32.368  34.496  1.00  0.00     0.029 A 
ATOM     64  N   UNL A   1      38.805  32.766  33.707  1.00  0.00    -0.354 N 
ATOM     65  N   UNL A   1      41.089  30.355  34.625  1.00  0.00    -0.248 NA
ATOM     66  C   UNL A   1      43.200  30.107  35.453  1.00  0.00     0.031 C 
ATOM     67  C   UNL A   1      37.757  32.012  35.483  1.00  0.00     0.029 A 
ATOM     68  C   UNL A   1      39.016  32.296  34.984  1.00  0.00     0.049 A 
ATOM     69  H   UNL A   1      39.531  33.009  33.088  1.00  0.00     0.167 HD
ATOM     70  C   UNL A   1      41.290  31.462  35.399  1.00  0.00     0.074 A 
ATOM     71  C   UNL A   1      42.656  31.271  35.869  1.00  0.00     0.031 C 
ATOM     72  C   UNL A   1      40.341  32.443  35.580  1.00  0.00     0.037 A 
BRANCH  59  73
ATOM     73  C   UNL A   1      35.737  34.084  31.774  1.00  0.00     0.064 A 
ATOM     74  C   UNL A   1      34.928  33.791  30.647  1.00  0.00     0.173 A 
ATOM     75  C   UNL A   1      35.267  35.182  32.533  1.00  0.00     0.173 A 
ATOM     76  F   UNL A   1      35.214  32.762  29.838  1.00  0.00    -0.203 F 
ATOM     77  C   UNL A   1      33.790  34.538  30.299  1.00  0.00     0.198 A 
ATOM     78  C   UNL A   1      34.087  35.883  32.225  1.00  0.00     0.198 A 
ATOM     79  F   UNL A   1      35.951  35.666  33.575  1.00  0.00    -0.203 F 
ATOM     80  F   UNL A   1      33.116  34.247  29.176  1.00  0.00    -0.200 F 
ATOM     81  C   UNL A   1      33.358  35.576  31.096  1.00  0.00     0.200 A 
ATOM     82  F   UNL A   1      33.676  36.881  33.024  1.00  0.00    -0.200 F 
ATOM     83  F   UNL A   1      32.262  36.278  30.777  1.00  0.00    -0.200 F 
ENDBRANCH  59  73
BRANCH  60  84
ATOM     84  C   UNL A   1      43.313  27.379  33.256  1.00  0.00     0.064 A 
ATOM     85  C   UNL A   1      44.394  28.141  32.732  1.00  0.00     0.173 A 
ATOM     86  C   UNL A   1      43.664  26.263  34.038  1.00  0.00     0.173 A 
ATOM     87  F   UNL A   1      44.136  29.189  31.932  1.00  0.00    -0.203 F 
ATOM     88  C   UNL A   1      45.678  28.039  33.280  1.00  0.00     0.198 A 
ATOM     89  C   UNL A   1      44.964  26.143  34.558  1.00  0.00     0.198 A 
ATOM     90  F   UNL A   1      42.705  25.464  34.528  1.00  0.00    -0.203 F 
ATOM     91  F   UNL A   1      46.599  28.975  33.005  1.00  0.00    -0.200 F 
ATOM     92  C   UNL A   1      45.941  27.078  34.240  1.00  0.00     0.200 A 
ATOM     93  F   UNL A   1      45.221  25.234  35.509  1.00  0.00    -0.200 F 
ATOM     94  F   UNL A   1      47.091  27.118  34.931  1.00  0.00    -0.200 F 
ENDBRANCH  60  84
BRANCH  72  95
ATOM     95  C   UNL A   1      40.590  33.757  36.290  1.00  0.00     0.064 A 
ATOM     96  C   UNL A   1      41.128  34.883  35.666  1.00  0.00     0.173 A 
ATOM     97  C   UNL A   1      40.284  33.917  37.670  1.00  0.00     0.173 A 
ATOM     98  F   UNL A   1      41.690  34.795  34.454  1.00  0.00    -0.203 F 
ATOM     99  C   UNL A   1      41.133  36.131  36.294  1.00  0.00     0.198 A 
ATOM    100  C   UNL A   1      40.350  35.146  38.313  1.00  0.00     0.198 A 
ATOM    101  F   UNL A   1      39.895  32.896  38.445  1.00  0.00    -0.203 F 
ATOM    102  F   UNL A   1      41.530  37.212  35.609  1.00  0.00    -0.200 F 
ATOM    103  C   UNL A   1      40.715  36.267  37.606  1.00  0.00     0.200 A 
ATOM    104  F   UNL A   1      40.025  35.236  39.612  1.00  0.00    -0.200 F 
ATOM    105  F   UNL A   1      40.680  37.471  38.190  1.00  0.00    -0.200 F 
ENDBRANCH  72  95
ENDBRANCH  46  47
ENDBRANCH  39  41
ENDBRANCH  38  39
ENDBRANCH  37  38
ENDBRANCH  36  37
ENDBRANCH  35  36
ENDBRANCH  34  35
ENDBRANCH  33  34
ENDBRANCH  32  33
ENDBRANCH  31  32
ENDBRANCH   1  31
TORSDOF 25
ENDMDL
MODEL 2
REMARK VINA RESULT:     -10.3      3.994      5.952
REMARK SMILES Cc1ccc(OCC(=O)NNC(=O)[C@H]2CCCC[C@@H]2C(=O)OCCOCCOCCOCCOC(=O)c2ccc(-c3c4nc(c(-c5c(F)c(F)c(F)c(F)c5F)c5ccc([nH]5)c(-c5c(F)c(F)c(F)c(F)c5F)c5nc(c(-c6c(F)c(F)c(F)c(F)c6F)c6ccc3[nH]6)C=C5)C=C4)cc2)cc1
REMARK SMILES IDX 26 1 25 2 24 3 23 4 22 5 20 6 21 7 19 8 14 9 15 10 16 11
REMARK SMILES IDX 18 12 17 13 12 14 11 15 13 17 10 18 8 19 9 20 7 22 6 23 5 24
REMARK SMILES IDX 1 25 2 26 3 27 101 28 4 29 100 30 27 31 28 32 29 33 30 34
REMARK SMILES IDX 31 35 32 36 33 37 34 38 35 39 36 40 37 41 38 42 99 43 39 44
REMARK SMILES IDX 98 45 40 46 41 47 42 48 92 49 43 50 97 51 91 52 93 53 44 54
REMARK SMILES IDX 96 55 90 56 89 57 45 59 77 60 57 61 76 62 58 63 61 64 75 65
REMARK SMILES IDX 94 66 59 67 60 68 74 70 95 71 62 72 46 73 47 74 55 75 48 76
REMARK SMILES IDX 49 77 53 78 56 79 50 80 51 81 54 82 52 83 78 84 79 85 87 86
REMARK SMILES IDX 80 87 81 88 85 89 88 90 82 91 83 92 86 93 84 94 63 95 64 96
REMARK SMILES IDX 72 97 65 98 66 99 70 100 73 101 67 102 68 103 71 104 69 105
REMARK H PARENT 11 16 10 21 93 58 61 69
REMARK Flexibility Score: inf
ROOT
ATOM      1  C   UNL A   1      31.674  21.530  24.733  1.00  0.00     0.188 C 
ENDROOT
BRANCH   1   2
ATOM      2  O   UNL A   1      31.712  22.054  26.046  1.00  0.00    -0.376 OA
BRANCH   2   3
ATOM      3  C   UNL A   1      30.602  22.826  26.478  1.00  0.00     0.202 C 
BRANCH   3   4
ATOM      4  C   UNL A   1      30.529  24.300  26.106  1.00  0.00     0.261 C 
BRANCH   4   5
ATOM      5  O   UNL A   1      31.419  25.082  26.909  1.00  0.00    -0.463 OA
BRANCH   5   6
ATOM      6  C   UNL A   1      32.436  25.602  26.216  1.00  0.00     0.309 C 
ATOM      7  O   UNL A   1      33.321  24.940  25.671  1.00  0.00    -0.252 OA
BRANCH   6   8
ATOM      8  C   UNL A   1      32.287  27.078  25.926  1.00  0.00     0.111 C 
ATOM      9  C   UNL A   1      33.612  27.464  25.286  1.00  0.00     0.094 C 
ATOM     10  C   UNL A   1      34.520  28.090  26.346  1.00  0.00     0.014 C 
ATOM     11  C   UNL A   1      33.936  29.327  26.996  1.00  0.00     0.001 C 
ATOM     12  C   UNL A   1      31.666  28.096  26.887  1.00  0.00     0.016 C 
ATOM     13  C   UNL A   1      32.570  29.088  27.611  1.00  0.00     0.001 C 
BRANCH   9  14
ATOM     14  C   UNL A   1      33.348  28.213  23.987  1.00  0.00     0.242 C 
ATOM     15  N   UNL A   1      33.062  27.491  22.837  1.00  0.00    -0.267 N 
ATOM     16  H   UNL A   1      32.919  28.012  22.014  1.00  0.00     0.191 HD
ATOM     17  O   UNL A   1      33.421  29.439  23.920  1.00  0.00    -0.273 OA
BRANCH  15  18
ATOM     18  N   UNL A   1      32.955  26.091  22.726  1.00  0.00    -0.265 N 
ATOM     19  C   UNL A   1      31.764  25.398  22.845  1.00  0.00     0.276 C 
ATOM     20  O   UNL A   1      31.757  24.167  22.867  1.00  0.00    -0.269 OA
ATOM     21  H   UNL A   1      33.776  25.574  22.554  1.00  0.00     0.191 HD
BRANCH  19  22
ATOM     22  C   UNL A   1      30.457  26.184  22.878  1.00  0.00     0.331 C 
BRANCH  22  23
ATOM     23  O   UNL A   1      30.470  27.379  22.118  1.00  0.00    -0.484 OA
BRANCH  23  24
ATOM     24  C   UNL A   1      29.780  28.465  22.576  1.00  0.00     0.120 A 
ATOM     25  C   UNL A   1      27.151  31.634  23.893  1.00  0.00     0.044 C 
ATOM     26  C   UNL A   1      28.074  30.544  23.432  1.00  0.00    -0.051 A 
ATOM     27  C   UNL A   1      27.545  29.325  23.000  1.00  0.00     0.007 A 
ATOM     28  C   UNL A   1      29.463  30.712  23.434  1.00  0.00     0.007 A 
ATOM     29  C   UNL A   1      28.393  28.300  22.571  1.00  0.00     0.047 A 
ATOM     30  C   UNL A   1      30.313  29.678  23.009  1.00  0.00     0.047 A 
ENDBRANCH  23  24
ENDBRANCH  22  23
ENDBRANCH  19  22
ENDBRANCH  15  18
ENDBRANCH   9  14
ENDBRANCH   6   8
ENDBRANCH   5   6
ENDBRANCH   4   5
ENDBRANCH   3   4
ENDBRANCH   2   3
ENDBRANCH   1   2
BRANCH   1  31
ATOM     31  C   UNL A   1      32.929  21.043  24.006  1.00  0.00     0.188 C 
BRANCH  31  32
ATOM     32  O   UNL A   1      33.738  20.044  24.603  1.00  0.00    -0.377 OA
BRANCH  32  33
ATOM     33  C   UNL A   1      34.851  20.467  25.373  1.00  0.00     0.188 C 
BRANCH  33  34
ATOM     34  C   UNL A   1      35.820  21.460  24.744  1.00  0.00     0.188 C 
BRANCH  34  35
ATOM     35  O   UNL A   1      37.126  21.261  25.275  1.00  0.00    -0.376 OA
BRANCH  35  36
ATOM     36  C   UNL A   1      37.817  20.097  24.823  1.00  0.00     0.202 C 
BRANCH  36  37
ATOM     37  C   UNL A   1      39.182  19.886  25.486  1.00  0.00     0.261 C 
BRANCH  37  38
ATOM     38  O   UNL A   1      39.355  20.856  26.537  1.00  0.00    -0.460 OA
BRANCH  38  39
ATOM     39  C   UNL A   1      40.532  21.526  26.522  1.00  0.00     0.338 C 
ATOM     40  O   UNL A   1      41.581  21.106  26.025  1.00  0.00    -0.246 OA
BRANCH  39  41
ATOM     41  C   UNL A   1      40.482  22.680  27.462  1.00  0.00     0.060 A 
ATOM     42  C   UNL A   1      39.515  23.687  27.284  1.00  0.00     0.016 A 
ATOM     43  C   UNL A   1      41.602  22.942  28.241  1.00  0.00     0.016 A 
ATOM     44  C   UNL A   1      39.767  25.000  27.719  1.00  0.00     0.010 A 
ATOM     45  C   UNL A   1      41.882  24.252  28.576  1.00  0.00     0.010 A 
ATOM     46  C   UNL A   1      41.005  25.311  28.283  1.00  0.00    -0.014 A 
BRANCH  46  47
ATOM     47  C   UNL A   1      41.588  26.671  28.392  1.00  0.00     0.031 A 
ATOM     48  C   UNL A   1      40.682  27.871  28.537  1.00  0.00     0.074 A 
ATOM     49  C   UNL A   1      42.877  26.759  28.811  1.00  0.00     0.049 A 
ATOM     50  N   UNL A   1      41.052  29.059  28.889  1.00  0.00    -0.248 NA
ATOM     51  C   UNL A   1      39.240  27.821  28.289  1.00  0.00     0.031 C 
ATOM     52  C   UNL A   1      43.383  27.738  29.765  1.00  0.00     0.029 A 
ATOM     53  N   UNL A   1      43.981  25.918  28.633  1.00  0.00    -0.354 N 
ATOM     54  C   UNL A   1      39.933  29.799  29.234  1.00  0.00     0.074 A 
ATOM     55  C   UNL A   1      38.832  29.018  28.730  1.00  0.00     0.031 C 
ATOM     56  C   UNL A   1      44.657  27.493  30.076  1.00  0.00     0.029 A 
ATOM     57  C   UNL A   1      45.140  26.596  29.080  1.00  0.00     0.049 A 
ATOM     58  H   UNL A   1      43.955  25.008  28.260  1.00  0.00     0.167 HD
ATOM     59  C   UNL A   1      40.066  30.917  30.022  1.00  0.00     0.037 A 
ATOM     60  C   UNL A   1      46.102  26.997  28.196  1.00  0.00     0.037 A 
ATOM     61  C   UNL A   1      41.489  31.295  30.235  1.00  0.00     0.049 A 
ATOM     62  C   UNL A   1      46.102  28.512  27.917  1.00  0.00     0.074 A 
ATOM     63  C   UNL A   1      42.257  31.718  31.310  1.00  0.00     0.029 A 
ATOM     64  N   UNL A   1      42.402  31.139  29.189  1.00  0.00    -0.354 N 
ATOM     65  N   UNL A   1      45.265  29.352  28.492  1.00  0.00    -0.248 NA
ATOM     66  C   UNL A   1      46.978  29.223  26.990  1.00  0.00     0.031 C 
ATOM     67  C   UNL A   1      43.616  31.833  30.881  1.00  0.00     0.029 A 
ATOM     68  C   UNL A   1      43.685  31.495  29.541  1.00  0.00     0.049 A 
ATOM     69  H   UNL A   1      42.155  30.808  28.294  1.00  0.00     0.167 HD
ATOM     70  C   UNL A   1      45.430  30.631  28.043  1.00  0.00     0.074 A 
ATOM     71  C   UNL A   1      46.503  30.485  27.067  1.00  0.00     0.031 C 
ATOM     72  C   UNL A   1      44.677  31.694  28.488  1.00  0.00     0.037 A 
BRANCH  59  73
ATOM     73  C   UNL A   1      38.918  31.633  30.768  1.00  0.00     0.064 A 
ATOM     74  C   UNL A   1      38.639  31.336  32.127  1.00  0.00     0.173 A 
ATOM     75  C   UNL A   1      37.990  32.529  30.187  1.00  0.00     0.173 A 
ATOM     76  F   UNL A   1      39.437  30.527  32.837  1.00  0.00    -0.203 F 
ATOM     77  C   UNL A   1      37.531  31.855  32.818  1.00  0.00     0.198 A 
ATOM     78  C   UNL A   1      36.924  33.105  30.902  1.00  0.00     0.198 A 
ATOM     79  F   UNL A   1      38.034  32.849  28.890  1.00  0.00    -0.203 F 
ATOM     80  F   UNL A   1      37.291  31.471  34.081  1.00  0.00    -0.200 F 
ATOM     81  C   UNL A   1      36.680  32.753  32.211  1.00  0.00     0.200 A 
ATOM     82  F   UNL A   1      36.116  33.990  30.295  1.00  0.00    -0.200 F 
ATOM     83  F   UNL A   1      35.634  33.265  32.874  1.00  0.00    -0.200 F 
ENDBRANCH  59  73
BRANCH  60  84
ATOM     84  C   UNL A   1      46.630  25.771  27.495  1.00  0.00     0.064 A 
ATOM     85  C   UNL A   1      46.500  25.887  26.082  1.00  0.00     0.173 A 
ATOM     86  C   UNL A   1      47.841  25.228  27.962  1.00  0.00     0.173 A 
ATOM     87  F   UNL A   1      45.351  26.348  25.561  1.00  0.00    -0.203 F 
ATOM     88  C   UNL A   1      47.625  25.851  25.251  1.00  0.00     0.198 A 
ATOM     89  C   UNL A   1      48.960  25.159  27.115  1.00  0.00     0.198 A 
ATOM     90  F   UNL A   1      48.023  25.040  29.277  1.00  0.00    -0.203 F 
ATOM     91  F   UNL A   1      47.534  26.277  23.982  1.00  0.00    -0.200 F 
ATOM     92  C   UNL A   1      48.865  25.549  25.786  1.00  0.00     0.200 A 
ATOM     93  F   UNL A   1      50.170  24.894  27.630  1.00  0.00    -0.200 F 
ATOM     94  F   UNL A   1      49.975  25.733  25.053  1.00  0.00    -0.200 F 
ENDBRANCH  60  84
BRANCH  72  95
ATOM     95  C   UNL A   1      44.720  33.086  27.892  1.00  0.00     0.064 A 
ATOM     96  C   UNL A   1      44.090  33.434  26.696  1.00  0.00     0.173 A 
ATOM     97  C   UNL A   1      45.427  34.139  28.535  1.00  0.00     0.173 A 
ATOM     98  F   UNL A   1      43.612  32.494  25.872  1.00  0.00    -0.203 F 
ATOM     99  C   UNL A   1      43.967  34.768  26.301  1.00  0.00     0.198 A 
ATOM    100  C   UNL A   1      45.358  35.458  28.104  1.00  0.00     0.198 A 
ATOM    101  F   UNL A   1      46.197  33.938  29.611  1.00  0.00    -0.203 F 
ATOM    102  F   UNL A   1      43.237  35.070  25.219  1.00  0.00    -0.200 F 
ATOM    103  C   UNL A   1      44.575  35.782  27.021  1.00  0.00     0.200 A 
ATOM    104  F   UNL A   1      46.029  36.411  28.768  1.00  0.00    -0.200 F 
ATOM    105  F   UNL A   1      44.419  37.062  26.664  1.00  0.00    -0.200 F 
ENDBRANCH  72  95
ENDBRANCH  46  47
ENDBRANCH  39  41
ENDBRANCH  38  39
ENDBRANCH  37  38
ENDBRANCH  36  37
ENDBRANCH  35  36
ENDBRANCH  34  35
ENDBRANCH  33  34
ENDBRANCH  32  33
ENDBRANCH  31  32
ENDBRANCH   1  31
TORSDOF 25
ENDMDL
MODEL 3
REMARK VINA RESULT:     -10.3      3.062      8.966
REMARK SMILES Cc1ccc(OCC(=O)NNC(=O)[C@H]2CCCC[C@@H]2C(=O)OCCOCCOCCOCCOC(=O)c2ccc(-c3c4nc(c(-c5c(F)c(F)c(F)c(F)c5F)c5ccc([nH]5)c(-c5c(F)c(F)c(F)c(F)c5F)c5nc(c(-c6c(F)c(F)c(F)c(F)c6F)c6ccc3[nH]6)C=C5)C=C4)cc2)cc1
REMARK SMILES IDX 26 1 25 2 24 3 23 4 22 5 20 6 21 7 19 8 14 9 15 10 16 11
REMARK SMILES IDX 18 12 17 13 12 14 11 15 13 17 10 18 8 19 9 20 7 22 6 23 5 24
REMARK SMILES IDX 1 25 2 26 3 27 101 28 4 29 100 30 27 31 28 32 29 33 30 34
REMARK SMILES IDX 31 35 32 36 33 37 34 38 35 39 36 40 37 41 38 42 99 43 39 44
REMARK SMILES IDX 98 45 40 46 41 47 42 48 92 49 43 50 97 51 91 52 93 53 44 54
REMARK SMILES IDX 96 55 90 56 89 57 45 59 77 60 57 61 76 62 58 63 61 64 75 65
REMARK SMILES IDX 94 66 59 67 60 68 74 70 95 71 62 72 46 73 47 74 55 75 48 76
REMARK SMILES IDX 49 77 53 78 56 79 50 80 51 81 54 82 52 83 78 84 79 85 87 86
REMARK SMILES IDX 80 87 81 88 85 89 88 90 82 91 83 92 86 93 84 94 63 95 64 96
REMARK SMILES IDX 72 97 65 98 66 99 70 100 73 101 67 102 68 103 71 104 69 105
REMARK H PARENT 11 16 10 21 93 58 61 69
REMARK Flexibility Score: inf
ROOT
ATOM      1  C   UNL A   1      33.666  31.720  27.678  1.00  0.00     0.188 C 
ENDROOT
BRANCH   1   2
ATOM      2  O   UNL A   1      33.791  30.354  28.023  1.00  0.00    -0.376 OA
BRANCH   2   3
ATOM      3  C   UNL A   1      34.757  29.585  27.322  1.00  0.00     0.202 C 
BRANCH   3   4
ATOM      4  C   UNL A   1      34.320  28.750  26.127  1.00  0.00     0.261 C 
BRANCH   4   5
ATOM      5  O   UNL A   1      33.445  27.691  26.527  1.00  0.00    -0.463 OA
BRANCH   5   6
ATOM      6  C   UNL A   1      32.188  27.858  26.107  1.00  0.00     0.309 C 
ATOM      7  O   UNL A   1      31.485  28.834  26.376  1.00  0.00    -0.252 OA
BRANCH   6   8
ATOM      8  C   UNL A   1      31.758  26.866  25.049  1.00  0.00     0.111 C 
ATOM      9  C   UNL A   1      32.741  27.093  23.910  1.00  0.00     0.094 C 
ATOM     10  C   UNL A   1      32.095  28.002  22.862  1.00  0.00     0.014 C 
ATOM     11  C   UNL A   1      30.817  27.442  22.274  1.00  0.00     0.001 C 
ATOM     12  C   UNL A   1      30.305  26.585  24.658  1.00  0.00     0.016 C 
ATOM     13  C   UNL A   1      29.776  27.104  23.326  1.00  0.00     0.001 C 
BRANCH   9  14
ATOM     14  C   UNL A   1      33.336  25.759  23.482  1.00  0.00     0.242 C 
ATOM     15  N   UNL A   1      33.413  24.726  24.404  1.00  0.00    -0.267 N 
ATOM     16  H   UNL A   1      33.824  23.886  24.094  1.00  0.00     0.191 HD
ATOM     17  O   UNL A   1      33.788  25.584  22.350  1.00  0.00    -0.273 OA
BRANCH  15  18
ATOM     18  N   UNL A   1      32.963  24.753  25.740  1.00  0.00    -0.265 N 
ATOM     19  C   UNL A   1      32.213  23.747  26.319  1.00  0.00     0.276 C 
ATOM     20  O   UNL A   1      31.743  23.889  27.449  1.00  0.00    -0.269 OA
ATOM     21  H   UNL A   1      33.197  25.534  26.292  1.00  0.00     0.191 HD
BRANCH  19  22
ATOM     22  C   UNL A   1      32.039  22.432  25.565  1.00  0.00     0.331 C 
BRANCH  22  23
ATOM     23  O   UNL A   1      33.208  21.970  24.912  1.00  0.00    -0.484 OA
BRANCH  23  24
ATOM     24  C   UNL A   1      33.269  20.668  24.504  1.00  0.00     0.120 A 
ATOM     25  C   UNL A   1      33.953  16.536  23.433  1.00  0.00     0.044 C 
ATOM     26  C   UNL A   1      33.707  17.972  23.793  1.00  0.00    -0.051 A 
ATOM     27  C   UNL A   1      34.635  18.657  24.581  1.00  0.00     0.007 A 
ATOM     28  C   UNL A   1      32.559  18.647  23.366  1.00  0.00     0.007 A 
ATOM     29  C   UNL A   1      34.417  19.994  24.927  1.00  0.00     0.047 A 
ATOM     30  C   UNL A   1      32.339  19.988  23.720  1.00  0.00     0.047 A 
ENDBRANCH  23  24
ENDBRANCH  22  23
ENDBRANCH  19  22
ENDBRANCH  15  18
ENDBRANCH   9  14
ENDBRANCH   6   8
ENDBRANCH   5   6
ENDBRANCH   4   5
ENDBRANCH   3   4
ENDBRANCH   2   3
ENDBRANCH   1   2
BRANCH   1  31
ATOM     31  C   UNL A   1      34.605  32.795  28.228  1.00  0.00     0.188 C 
BRANCH  31  32
ATOM     32  O   UNL A   1      34.662  34.062  27.595  1.00  0.00    -0.377 OA
BRANCH  32  33
ATOM     33  C   UNL A   1      34.832  35.204  28.417  1.00  0.00     0.188 C 
BRANCH  33  34
ATOM     34  C   UNL A   1      34.166  36.503  27.983  1.00  0.00     0.188 C 
BRANCH  34  35
ATOM     35  O   UNL A   1      32.940  36.676  28.686  1.00  0.00    -0.376 OA
BRANCH  35  36
ATOM     36  C   UNL A   1      33.050  36.927  30.087  1.00  0.00     0.202 C 
BRANCH  36  37
ATOM     37  C   UNL A   1      32.421  35.840  30.966  1.00  0.00     0.261 C 
BRANCH  37  38
ATOM     38  O   UNL A   1      32.544  36.218  32.350  1.00  0.00    -0.460 OA
BRANCH  38  39
ATOM     39  C   UNL A   1      33.791  36.122  32.870  1.00  0.00     0.338 C 
ATOM     40  O   UNL A   1      34.435  37.060  33.347  1.00  0.00    -0.246 OA
BRANCH  39  41
ATOM     41  C   UNL A   1      34.407  34.818  32.495  1.00  0.00     0.060 A 
ATOM     42  C   UNL A   1      34.192  33.685  33.300  1.00  0.00     0.016 A 
ATOM     43  C   UNL A   1      35.473  34.828  31.603  1.00  0.00     0.016 A 
ATOM     44  C   UNL A   1      35.149  32.656  33.349  1.00  0.00     0.010 A 
ATOM     45  C   UNL A   1      36.452  33.862  31.732  1.00  0.00     0.010 A 
ATOM     46  C   UNL A   1      36.340  32.790  32.635  1.00  0.00    -0.014 A 
BRANCH  46  47
ATOM     47  C   UNL A   1      37.597  32.047  32.901  1.00  0.00     0.031 A 
ATOM     48  C   UNL A   1      37.853  30.727  32.213  1.00  0.00     0.074 A 
ATOM     49  C   UNL A   1      38.650  32.764  33.374  1.00  0.00     0.049 A 
ATOM     50  N   UNL A   1      38.990  30.112  32.158  1.00  0.00    -0.248 NA
ATOM     51  C   UNL A   1      36.813  29.975  31.510  1.00  0.00     0.031 C 
ATOM     52  C   UNL A   1      40.031  32.614  32.933  1.00  0.00     0.029 A 
ATOM     53  N   UNL A   1      38.722  33.885  34.208  1.00  0.00    -0.354 N 
ATOM     54  C   UNL A   1      38.925  29.128  31.184  1.00  0.00     0.074 A 
ATOM     55  C   UNL A   1      37.518  29.012  30.901  1.00  0.00     0.031 C 
ATOM     56  C   UNL A   1      40.815  33.541  33.485  1.00  0.00     0.029 A 
ATOM     57  C   UNL A   1      40.075  34.087  34.573  1.00  0.00     0.049 A 
ATOM     58  H   UNL A   1      37.961  34.440  34.492  1.00  0.00     0.167 HD
ATOM     59  C   UNL A   1      40.083  28.625  30.640  1.00  0.00     0.037 A 
ATOM     60  C   UNL A   1      40.489  33.890  35.861  1.00  0.00     0.037 A 
ATOM     61  C   UNL A   1      41.298  29.097  31.356  1.00  0.00     0.049 A 
ATOM     62  C   UNL A   1      41.295  32.593  36.066  1.00  0.00     0.074 A 
ATOM     63  C   UNL A   1      42.554  29.557  30.989  1.00  0.00     0.029 A 
ATOM     64  N   UNL A   1      41.259  29.250  32.745  1.00  0.00    -0.354 N 
ATOM     65  N   UNL A   1      41.578  31.756  35.087  1.00  0.00    -0.248 NA
ATOM     66  C   UNL A   1      41.828  32.095  37.330  1.00  0.00     0.031 C 
ATOM     67  C   UNL A   1      43.257  29.954  32.170  1.00  0.00     0.029 A 
ATOM     68  C   UNL A   1      42.442  29.727  33.264  1.00  0.00     0.049 A 
ATOM     69  H   UNL A   1      40.468  29.040  33.294  1.00  0.00     0.167 HD
ATOM     70  C   UNL A   1      42.257  30.657  35.531  1.00  0.00     0.074 A 
ATOM     71  C   UNL A   1      42.356  30.907  36.963  1.00  0.00     0.031 C 
ATOM     72  C   UNL A   1      42.668  29.636  34.705  1.00  0.00     0.037 A 
BRANCH  59  73
ATOM     73  C   UNL A   1      40.180  27.803  29.336  1.00  0.00     0.064 A 
ATOM     74  C   UNL A   1      40.810  28.340  28.184  1.00  0.00     0.173 A 
ATOM     75  C   UNL A   1      39.586  26.539  29.112  1.00  0.00     0.173 A 
ATOM     76  F   UNL A   1      41.449  29.518  28.230  1.00  0.00    -0.203 F 
ATOM     77  C   UNL A   1      40.814  27.696  26.935  1.00  0.00     0.198 A 
ATOM     78  C   UNL A   1      39.654  25.862  27.880  1.00  0.00     0.198 A 
ATOM     79  F   UNL A   1      38.863  25.921  30.053  1.00  0.00    -0.203 F 
ATOM     80  F   UNL A   1      41.366  28.301  25.873  1.00  0.00    -0.200 F 
ATOM     81  C   UNL A   1      40.249  26.448  26.786  1.00  0.00     0.200 A 
ATOM     82  F   UNL A   1      39.110  24.640  27.761  1.00  0.00    -0.200 F 
ATOM     83  F   UNL A   1      40.269  25.823  25.600  1.00  0.00    -0.200 F 
ENDBRANCH  59  73
BRANCH  60  84
ATOM     84  C   UNL A   1      39.715  34.830  36.748  1.00  0.00     0.064 A 
ATOM     85  C   UNL A   1      38.937  34.117  37.704  1.00  0.00     0.173 A 
ATOM     86  C   UNL A   1      40.385  35.972  37.225  1.00  0.00     0.173 A 
ATOM     87  F   UNL A   1      38.227  33.047  37.310  1.00  0.00    -0.203 F 
ATOM     88  C   UNL A   1      39.147  34.292  39.076  1.00  0.00     0.198 A 
ATOM     89  C   UNL A   1      40.563  36.165  38.606  1.00  0.00     0.198 A 
ATOM     90  F   UNL A   1      41.099  36.727  36.378  1.00  0.00    -0.203 F 
ATOM     91  F   UNL A   1      38.650  33.400  39.948  1.00  0.00    -0.200 F 
ATOM     92  C   UNL A   1      40.011  35.277  39.520  1.00  0.00     0.200 A 
ATOM     93  F   UNL A   1      41.421  37.098  39.043  1.00  0.00    -0.200 F 
ATOM     94  F   UNL A   1      40.393  35.305  40.806  1.00  0.00    -0.200 F 
ENDBRANCH  60  84
BRANCH  72  95
ATOM     95  C   UNL A   1      43.270  28.332  35.185  1.00  0.00     0.064 A 
ATOM     96  C   UNL A   1      44.573  28.215  35.670  1.00  0.00     0.173 A 
ATOM     97  C   UNL A   1      42.519  27.124  35.164  1.00  0.00     0.173 A 
ATOM     98  F   UNL A   1      45.458  29.206  35.508  1.00  0.00    -0.203 F 
ATOM     99  C   UNL A   1      45.010  27.050  36.306  1.00  0.00     0.198 A 
ATOM    100  C   UNL A   1      42.980  25.947  35.740  1.00  0.00     0.198 A 
ATOM    101  F   UNL A   1      41.307  27.038  34.601  1.00  0.00    -0.203 F 
ATOM    102  F   UNL A   1      46.221  27.028  36.879  1.00  0.00    -0.200 F 
ATOM    103  C   UNL A   1      44.203  25.928  36.368  1.00  0.00     0.200 A 
ATOM    104  F   UNL A   1      42.214  24.846  35.709  1.00  0.00    -0.200 F 
ATOM    105  F   UNL A   1      44.609  24.830  37.017  1.00  0.00    -0.200 F 
ENDBRANCH  72  95
ENDBRANCH  46  47
ENDBRANCH  39  41
ENDBRANCH  38  39
ENDBRANCH  37  38
ENDBRANCH  36  37
ENDBRANCH  35  36
ENDBRANCH  34  35
ENDBRANCH  33  34
ENDBRANCH  32  33
ENDBRANCH  31  32
ENDBRANCH   1  31
TORSDOF 25
ENDMDL
