MODEL 1
REMARK VINA RESULT:     -10.4      0.000      0.000
REMARK SMILES C[C@@H](C(=O)OCCOCCOCCOCCOC(=O)c1ccc(-c2c3nc(c(-c4c(F)c(F)c(F)c(F)c4F)c4ccc([nH]4)c(-c4c(F)c(F)c(F)c(F)c4F)c4nc(c(-c5c(F)c(F)c(F)c(F)c5F)c5ccc2[nH]5)C=C4)C=C3)cc1)c1cccn(C(F)F)c1=O
REMARK SMILES IDX 11 1 10 2 9 3 8 4 7 5 6 6 5 7 3 8 4 9 2 10 1 11 83 12 84 13
REMARK SMILES IDX 91 14 85 15 87 16 92 17 86 18 88 19 89 20 90 21 12 22 13 23
REMARK SMILES IDX 14 24 15 25 16 26 17 27 18 28 19 29 20 30 21 31 82 32 22 33
REMARK SMILES IDX 81 34 23 35 24 36 25 37 75 38 26 39 80 40 74 41 76 42 27 43
REMARK SMILES IDX 79 44 73 45 72 46 28 48 60 49 40 50 59 51 41 52 44 53 58 54
REMARK SMILES IDX 77 55 42 56 43 57 57 59 78 60 45 61 29 62 30 63 38 64 31 65
REMARK SMILES IDX 32 66 36 67 39 68 33 69 34 70 37 71 35 72 61 73 62 74 70 75
REMARK SMILES IDX 63 76 64 77 68 78 71 79 65 80 66 81 69 82 67 83 46 84 47 85
REMARK SMILES IDX 55 86 48 87 49 88 53 89 56 90 50 91 51 92 54 93 52 94
REMARK H PARENT 76 47 44 58
REMARK Flexibility Score: inf
ROOT
ATOM      1  O   UNL A   1      41.853  19.230  25.688  1.00  0.00    -0.377 OA
ENDROOT
BRANCH   1   2
ATOM      2  C   UNL A   1      41.540  20.212  26.655  1.00  0.00     0.188 C 
BRANCH   2   3
ATOM      3  C   UNL A   1      41.012  21.541  26.074  1.00  0.00     0.188 C 
BRANCH   3   4
ATOM      4  O   UNL A   1      40.033  22.290  26.784  1.00  0.00    -0.376 OA
BRANCH   4   5
ATOM      5  C   UNL A   1      38.743  22.464  26.224  1.00  0.00     0.202 C 
BRANCH   5   6
ATOM      6  C   UNL A   1      38.043  21.336  25.437  1.00  0.00     0.261 C 
BRANCH   6   7
ATOM      7  O   UNL A   1      36.836  21.653  24.710  1.00  0.00    -0.463 OA
BRANCH   7   8
ATOM      8  C   UNL A   1      35.697  21.036  25.122  1.00  0.00     0.313 C 
ATOM      9  O   UNL A   1      35.430  19.867  24.850  1.00  0.00    -0.252 OA
BRANCH   8  10
ATOM     10  C   UNL A   1      34.718  21.940  25.904  1.00  0.00     0.132 C 
ATOM     11  C   UNL A   1      33.884  21.349  27.044  1.00  0.00     0.025 C 
BRANCH  10  12
ATOM     12  C   UNL A   1      33.920  22.756  24.894  1.00  0.00     0.032 A 
ATOM     13  C   UNL A   1      32.826  22.254  24.292  1.00  0.00     0.012 A 
ATOM     14  C   UNL A   1      34.235  24.211  24.646  1.00  0.00     0.259 A 
ATOM     15  C   UNL A   1      31.931  23.085  23.532  1.00  0.00     0.019 A 
ATOM     16  N   UNL A   1      33.227  24.975  24.084  1.00  0.00    -0.258 N 
ATOM     17  O   UNL A   1      35.328  24.679  24.946  1.00  0.00    -0.269 OA
ATOM     18  C   UNL A   1      32.116  24.408  23.498  1.00  0.00     0.095 A 
BRANCH  16  19
ATOM     19  C   UNL A   1      33.419  26.405  24.022  1.00  0.00     0.451 C 
ATOM     20  F   UNL A   1      33.418  26.810  22.724  1.00  0.00    -0.185 F 
ATOM     21  F   UNL A   1      32.371  27.041  24.616  1.00  0.00    -0.185 F 
ENDBRANCH  16  19
ENDBRANCH  10  12
ENDBRANCH   8  10
ENDBRANCH   7   8
ENDBRANCH   6   7
ENDBRANCH   5   6
ENDBRANCH   4   5
ENDBRANCH   3   4
ENDBRANCH   2   3
ENDBRANCH   1   2
BRANCH   1  22
ATOM     22  C   UNL A   1      43.034  18.484  25.926  1.00  0.00     0.188 C 
BRANCH  22  23
ATOM     23  C   UNL A   1      44.299  18.860  25.131  1.00  0.00     0.188 C 
BRANCH  23  24
ATOM     24  O   UNL A   1      44.147  20.004  24.299  1.00  0.00    -0.376 OA
BRANCH  24  25
ATOM     25  C   UNL A   1      44.592  21.270  24.760  1.00  0.00     0.202 C 
BRANCH  25  26
ATOM     26  C   UNL A   1      44.146  22.518  23.979  1.00  0.00     0.261 C 
BRANCH  26  27
ATOM     27  O   UNL A   1      43.552  23.577  24.745  1.00  0.00    -0.460 OA
BRANCH  27  28
ATOM     28  C   UNL A   1      44.326  24.622  25.098  1.00  0.00     0.338 C 
ATOM     29  O   UNL A   1      45.394  24.950  24.608  1.00  0.00    -0.246 OA
BRANCH  28  30
ATOM     30  C   UNL A   1      43.554  25.444  26.055  1.00  0.00     0.060 A 
ATOM     31  C   UNL A   1      43.714  26.836  26.032  1.00  0.00     0.016 A 
ATOM     32  C   UNL A   1      42.654  24.851  26.943  1.00  0.00     0.016 A 
ATOM     33  C   UNL A   1      42.995  27.638  26.918  1.00  0.00     0.010 A 
ATOM     34  C   UNL A   1      41.958  25.652  27.852  1.00  0.00     0.010 A 
ATOM     35  C   UNL A   1      42.151  27.045  27.865  1.00  0.00    -0.014 A 
BRANCH  35  36
ATOM     36  C   UNL A   1      41.655  27.852  29.005  1.00  0.00     0.031 A 
ATOM     37  C   UNL A   1      42.401  27.763  30.308  1.00  0.00     0.074 A 
ATOM     38  C   UNL A   1      40.589  28.663  28.888  1.00  0.00     0.049 A 
ATOM     39  N   UNL A   1      42.141  28.325  31.460  1.00  0.00    -0.248 NA
ATOM     40  C   UNL A   1      43.607  26.919  30.308  1.00  0.00     0.031 C 
ATOM     41  C   UNL A   1      39.817  28.876  27.666  1.00  0.00     0.029 A 
ATOM     42  N   UNL A   1      39.969  29.457  29.822  1.00  0.00    -0.354 N 
ATOM     43  C   UNL A   1      43.142  27.895  32.321  1.00  0.00     0.074 A 
ATOM     44  C   UNL A   1      43.996  27.003  31.571  1.00  0.00     0.031 C 
ATOM     45  C   UNL A   1      38.817  29.736  27.928  1.00  0.00     0.029 A 
ATOM     46  C   UNL A   1      38.857  30.103  29.344  1.00  0.00     0.049 A 
ATOM     47  H   UNL A   1      40.292  29.552  30.748  1.00  0.00     0.167 HD
ATOM     48  C   UNL A   1      43.333  28.221  33.621  1.00  0.00     0.037 A 
ATOM     49  C   UNL A   1      37.964  30.882  29.987  1.00  0.00     0.037 A 
ATOM     50  C   UNL A   1      42.479  29.108  34.363  1.00  0.00     0.049 A 
ATOM     51  C   UNL A   1      38.151  31.160  31.459  1.00  0.00     0.074 A 
ATOM     52  C   UNL A   1      42.598  29.518  35.680  1.00  0.00     0.029 A 
ATOM     53  N   UNL A   1      41.338  29.712  33.856  1.00  0.00    -0.354 N 
ATOM     54  N   UNL A   1      39.113  30.773  32.261  1.00  0.00    -0.248 NA
ATOM     55  C   UNL A   1      37.125  31.986  32.114  1.00  0.00     0.031 C 
ATOM     56  C   UNL A   1      41.492  30.316  35.988  1.00  0.00     0.029 A 
ATOM     57  C   UNL A   1      40.724  30.465  34.844  1.00  0.00     0.049 A 
ATOM     58  H   UNL A   1      41.014  29.620  32.932  1.00  0.00     0.167 HD
ATOM     59  C   UNL A   1      38.831  31.337  33.500  1.00  0.00     0.074 A 
ATOM     60  C   UNL A   1      37.613  32.103  33.340  1.00  0.00     0.031 C 
ATOM     61  C   UNL A   1      39.518  31.234  34.665  1.00  0.00     0.037 A 
BRANCH  48  62
ATOM     62  C   UNL A   1      44.490  27.581  34.334  1.00  0.00     0.064 A 
ATOM     63  C   UNL A   1      45.747  28.199  34.414  1.00  0.00     0.173 A 
ATOM     64  C   UNL A   1      44.328  26.341  34.972  1.00  0.00     0.173 A 
ATOM     65  F   UNL A   1      45.962  29.376  33.808  1.00  0.00    -0.203 F 
ATOM     66  C   UNL A   1      46.805  27.586  35.084  1.00  0.00     0.198 A 
ATOM     67  C   UNL A   1      45.377  25.749  35.667  1.00  0.00     0.198 A 
ATOM     68  F   UNL A   1      43.146  25.707  34.925  1.00  0.00    -0.203 F 
ATOM     69  F   UNL A   1      48.011  28.171  35.103  1.00  0.00    -0.200 F 
ATOM     70  C   UNL A   1      46.616  26.367  35.717  1.00  0.00     0.200 A 
ATOM     71  F   UNL A   1      45.188  24.577  36.290  1.00  0.00    -0.200 F 
ATOM     72  F   UNL A   1      47.632  25.784  36.368  1.00  0.00    -0.200 F 
ENDBRANCH  48  62
BRANCH  49  73
ATOM     73  C   UNL A   1      36.797  31.447  29.255  1.00  0.00     0.064 A 
ATOM     74  C   UNL A   1      36.725  32.814  28.951  1.00  0.00     0.173 A 
ATOM     75  C   UNL A   1      35.712  30.641  28.878  1.00  0.00     0.173 A 
ATOM     76  F   UNL A   1      37.723  33.633  29.315  1.00  0.00    -0.203 F 
ATOM     77  C   UNL A   1      35.606  33.356  28.322  1.00  0.00     0.198 A 
ATOM     78  C   UNL A   1      34.608  31.177  28.218  1.00  0.00     0.198 A 
ATOM     79  F   UNL A   1      35.725  29.327  29.149  1.00  0.00    -0.203 F 
ATOM     80  F   UNL A   1      35.540  34.675  28.096  1.00  0.00    -0.200 F 
ATOM     81  C   UNL A   1      34.551  32.536  27.951  1.00  0.00     0.200 A 
ATOM     82  F   UNL A   1      33.596  30.379  27.852  1.00  0.00    -0.200 F 
ATOM     83  F   UNL A   1      33.474  33.057  27.346  1.00  0.00    -0.200 F 
ENDBRANCH  49  73
BRANCH  61  84
ATOM     84  C   UNL A   1      39.003  32.005  35.848  1.00  0.00     0.064 A 
ATOM     85  C   UNL A   1      38.174  31.418  36.815  1.00  0.00     0.173 A 
ATOM     86  C   UNL A   1      39.387  33.343  36.040  1.00  0.00     0.173 A 
ATOM     87  F   UNL A   1      37.769  30.147  36.676  1.00  0.00    -0.203 F 
ATOM     88  C   UNL A   1      37.724  32.149  37.912  1.00  0.00     0.198 A 
ATOM     89  C   UNL A   1      38.965  34.059  37.157  1.00  0.00     0.198 A 
ATOM     90  F   UNL A   1      40.187  33.951  35.152  1.00  0.00    -0.203 F 
ATOM     91  F   UNL A   1      36.889  31.583  38.794  1.00  0.00    -0.200 F 
ATOM     92  C   UNL A   1      38.127  33.465  38.087  1.00  0.00     0.200 A 
ATOM     93  F   UNL A   1      39.372  35.323  37.333  1.00  0.00    -0.200 F 
ATOM     94  F   UNL A   1      37.701  34.163  39.149  1.00  0.00    -0.200 F 
ENDBRANCH  61  84
ENDBRANCH  35  36
ENDBRANCH  28  30
ENDBRANCH  27  28
ENDBRANCH  26  27
ENDBRANCH  25  26
ENDBRANCH  24  25
ENDBRANCH  23  24
ENDBRANCH  22  23
ENDBRANCH   1  22
TORSDOF 22
ENDMDL
MODEL 2
REMARK VINA RESULT:     -10.3      1.859      2.976
REMARK SMILES C[C@@H](C(=O)OCCOCCOCCOCCOC(=O)c1ccc(-c2c3nc(c(-c4c(F)c(F)c(F)c(F)c4F)c4ccc([nH]4)c(-c4c(F)c(F)c(F)c(F)c4F)c4nc(c(-c5c(F)c(F)c(F)c(F)c5F)c5ccc2[nH]5)C=C4)C=C3)cc1)c1cccn(C(F)F)c1=O
REMARK SMILES IDX 11 1 10 2 9 3 8 4 7 5 6 6 5 7 3 8 4 9 2 10 1 11 83 12 84 13
REMARK SMILES IDX 91 14 85 15 87 16 92 17 86 18 88 19 89 20 90 21 12 22 13 23
REMARK SMILES IDX 14 24 15 25 16 26 17 27 18 28 19 29 20 30 21 31 82 32 22 33
REMARK SMILES IDX 81 34 23 35 24 36 25 37 75 38 26 39 80 40 74 41 76 42 27 43
REMARK SMILES IDX 79 44 73 45 72 46 28 48 60 49 40 50 59 51 41 52 44 53 58 54
REMARK SMILES IDX 77 55 42 56 43 57 57 59 78 60 45 61 29 62 30 63 38 64 31 65
REMARK SMILES IDX 32 66 36 67 39 68 33 69 34 70 37 71 35 72 61 73 62 74 70 75
REMARK SMILES IDX 63 76 64 77 68 78 71 79 65 80 66 81 69 82 67 83 46 84 47 85
REMARK SMILES IDX 55 86 48 87 49 88 53 89 56 90 50 91 51 92 54 93 52 94
REMARK H PARENT 76 47 44 58
REMARK Flexibility Score: inf
ROOT
ATOM      1  O   UNL A   1      39.137  22.783  26.743  1.00  0.00    -0.377 OA
ENDROOT
BRANCH   1   2
ATOM      2  C   UNL A   1      38.297  23.411  25.795  1.00  0.00     0.188 C 
BRANCH   2   3
ATOM      3  C   UNL A   1      36.845  22.886  25.774  1.00  0.00     0.188 C 
BRANCH   3   4
ATOM      4  O   UNL A   1      35.757  23.799  25.711  1.00  0.00    -0.376 OA
BRANCH   4   5
ATOM      5  C   UNL A   1      35.156  24.086  24.461  1.00  0.00     0.202 C 
BRANCH   5   6
ATOM      6  C   UNL A   1      34.247  25.318  24.263  1.00  0.00     0.261 C 
BRANCH   6   7
ATOM      7  O   UNL A   1      32.854  25.100  23.953  1.00  0.00    -0.463 OA
BRANCH   7   8
ATOM      8  C   UNL A   1      32.563  24.015  23.188  1.00  0.00     0.313 C 
ATOM      9  O   UNL A   1      32.969  23.876  22.036  1.00  0.00    -0.252 OA
BRANCH   8  10
ATOM     10  C   UNL A   1      31.615  22.991  23.853  1.00  0.00     0.132 C 
ATOM     11  C   UNL A   1      30.798  23.400  25.082  1.00  0.00     0.025 C 
BRANCH  10  12
ATOM     12  C   UNL A   1      32.373  21.677  24.005  1.00  0.00     0.032 A 
ATOM     13  C   UNL A   1      33.093  21.406  25.108  1.00  0.00     0.012 A 
ATOM     14  C   UNL A   1      32.217  20.568  22.995  1.00  0.00     0.259 A 
ATOM     15  C   UNL A   1      33.607  20.088  25.373  1.00  0.00     0.019 A 
ATOM     16  N   UNL A   1      32.558  19.295  23.416  1.00  0.00    -0.258 N 
ATOM     17  O   UNL A   1      31.796  20.798  21.866  1.00  0.00    -0.269 OA
ATOM     18  C   UNL A   1      33.281  19.072  24.568  1.00  0.00     0.095 A 
BRANCH  16  19
ATOM     19  C   UNL A   1      32.232  18.186  22.550  1.00  0.00     0.451 C 
ATOM     20  F   UNL A   1      32.548  18.500  21.266  1.00  0.00    -0.185 F 
ATOM     21  F   UNL A   1      32.993  17.104  22.872  1.00  0.00    -0.185 F 
ENDBRANCH  16  19
ENDBRANCH  10  12
ENDBRANCH   8  10
ENDBRANCH   7   8
ENDBRANCH   6   7
ENDBRANCH   5   6
ENDBRANCH   4   5
ENDBRANCH   3   4
ENDBRANCH   2   3
ENDBRANCH   1   2
BRANCH   1  22
ATOM     22  C   UNL A   1      39.842  21.644  26.282  1.00  0.00     0.188 C 
BRANCH  22  23
ATOM     23  C   UNL A   1      40.763  20.912  27.276  1.00  0.00     0.188 C 
BRANCH  23  24
ATOM     24  O   UNL A   1      42.141  21.241  27.146  1.00  0.00    -0.376 OA
BRANCH  24  25
ATOM     25  C   UNL A   1      42.865  20.787  26.014  1.00  0.00     0.202 C 
BRANCH  25  26
ATOM     26  C   UNL A   1      43.717  21.811  25.245  1.00  0.00     0.261 C 
BRANCH  26  27
ATOM     27  O   UNL A   1      43.103  23.080  24.969  1.00  0.00    -0.460 OA
BRANCH  27  28
ATOM     28  C   UNL A   1      43.860  24.190  25.068  1.00  0.00     0.338 C 
ATOM     29  O   UNL A   1      44.841  24.478  24.403  1.00  0.00    -0.246 OA
BRANCH  28  30
ATOM     30  C   UNL A   1      43.171  25.116  25.993  1.00  0.00     0.060 A 
ATOM     31  C   UNL A   1      43.660  26.423  26.128  1.00  0.00     0.016 A 
ATOM     32  C   UNL A   1      42.033  24.712  26.694  1.00  0.00     0.016 A 
ATOM     33  C   UNL A   1      43.028  27.321  26.987  1.00  0.00     0.010 A 
ATOM     34  C   UNL A   1      41.419  25.603  27.579  1.00  0.00     0.010 A 
ATOM     35  C   UNL A   1      41.935  26.900  27.754  1.00  0.00    -0.014 A 
BRANCH  35  36
ATOM     36  C   UNL A   1      41.480  27.732  28.894  1.00  0.00     0.031 A 
ATOM     37  C   UNL A   1      42.245  27.635  30.185  1.00  0.00     0.074 A 
ATOM     38  C   UNL A   1      40.435  28.570  28.786  1.00  0.00     0.049 A 
ATOM     39  N   UNL A   1      42.020  28.215  31.336  1.00  0.00    -0.248 NA
ATOM     40  C   UNL A   1      43.427  26.758  30.174  1.00  0.00     0.031 C 
ATOM     41  C   UNL A   1      39.648  28.792  27.575  1.00  0.00     0.029 A 
ATOM     42  N   UNL A   1      39.853  29.389  29.722  1.00  0.00    -0.354 N 
ATOM     43  C   UNL A   1      43.023  27.766  32.184  1.00  0.00     0.074 A 
ATOM     44  C   UNL A   1      43.840  26.843  31.429  1.00  0.00     0.031 C 
ATOM     45  C   UNL A   1      38.677  29.681  27.844  1.00  0.00     0.029 A 
ATOM     46  C   UNL A   1      38.750  30.061  29.255  1.00  0.00     0.049 A 
ATOM     47  H   UNL A   1      40.193  29.485  30.641  1.00  0.00     0.167 HD
ATOM     48  C   UNL A   1      43.245  28.099  33.478  1.00  0.00     0.037 A 
ATOM     49  C   UNL A   1      37.890  30.871  29.905  1.00  0.00     0.037 A 
ATOM     50  C   UNL A   1      42.427  29.016  34.224  1.00  0.00     0.049 A 
ATOM     51  C   UNL A   1      38.109  31.158  31.370  1.00  0.00     0.074 A 
ATOM     52  C   UNL A   1      42.579  29.436  35.534  1.00  0.00     0.029 A 
ATOM     53  N   UNL A   1      41.295  29.647  33.730  1.00  0.00    -0.354 N 
ATOM     54  N   UNL A   1      39.073  30.752  32.161  1.00  0.00    -0.248 NA
ATOM     55  C   UNL A   1      37.117  32.018  32.034  1.00  0.00     0.031 C 
ATOM     56  C   UNL A   1      41.501  30.267  35.853  1.00  0.00     0.029 A 
ATOM     57  C   UNL A   1      40.718  30.425  34.720  1.00  0.00     0.049 A 
ATOM     58  H   UNL A   1      40.953  29.554  32.812  1.00  0.00     0.167 HD
ATOM     59  C   UNL A   1      38.827  31.336  33.399  1.00  0.00     0.074 A 
ATOM     60  C   UNL A   1      37.628  32.133  33.250  1.00  0.00     0.031 C 
ATOM     61  C   UNL A   1      39.531  31.225  34.553  1.00  0.00     0.037 A 
BRANCH  48  62
ATOM     62  C   UNL A   1      44.396  27.435  34.178  1.00  0.00     0.064 A 
ATOM     63  C   UNL A   1      44.262  26.191  34.812  1.00  0.00     0.173 A 
ATOM     64  C   UNL A   1      45.661  28.044  34.189  1.00  0.00     0.173 A 
ATOM     65  F   UNL A   1      43.072  25.574  34.846  1.00  0.00    -0.203 F 
ATOM     66  C   UNL A   1      45.346  25.594  35.453  1.00  0.00     0.198 A 
ATOM     67  C   UNL A   1      46.748  27.429  34.801  1.00  0.00     0.198 A 
ATOM     68  F   UNL A   1      45.843  29.235  33.598  1.00  0.00    -0.203 F 
ATOM     69  F   UNL A   1      45.182  24.430  36.097  1.00  0.00    -0.200 F 
ATOM     70  C   UNL A   1      46.589  26.210  35.440  1.00  0.00     0.200 A 
ATOM     71  F   UNL A   1      47.951  28.019  34.775  1.00  0.00    -0.200 F 
ATOM     72  F   UNL A   1      47.632  25.629  36.049  1.00  0.00    -0.200 F 
ENDBRANCH  48  62
BRANCH  49  73
ATOM     73  C   UNL A   1      36.727  31.460  29.186  1.00  0.00     0.064 A 
ATOM     74  C   UNL A   1      36.687  32.826  28.870  1.00  0.00     0.173 A 
ATOM     75  C   UNL A   1      35.614  30.680  28.835  1.00  0.00     0.173 A 
ATOM     76  F   UNL A   1      37.713  33.621  29.208  1.00  0.00    -0.203 F 
ATOM     77  C   UNL A   1      35.572  33.392  28.253  1.00  0.00     0.198 A 
ATOM     78  C   UNL A   1      34.514  31.240  28.189  1.00  0.00     0.198 A 
ATOM     79  F   UNL A   1      35.595  29.370  29.119  1.00  0.00    -0.203 F 
ATOM     80  F   UNL A   1      35.539  34.710  28.016  1.00  0.00    -0.200 F 
ATOM     81  C   UNL A   1      34.490  32.597  27.908  1.00  0.00     0.200 A 
ATOM     82  F   UNL A   1      33.475  30.467  27.847  1.00  0.00    -0.200 F 
ATOM     83  F   UNL A   1      33.418  33.142  27.316  1.00  0.00    -0.200 F 
ENDBRANCH  49  73
BRANCH  61  84
ATOM     84  C   UNL A   1      39.057  32.022  35.736  1.00  0.00     0.064 A 
ATOM     85  C   UNL A   1      38.251  31.460  36.737  1.00  0.00     0.173 A 
ATOM     86  C   UNL A   1      39.458  33.359  35.894  1.00  0.00     0.173 A 
ATOM     87  F   UNL A   1      37.831  30.191  36.632  1.00  0.00    -0.203 F 
ATOM     88  C   UNL A   1      37.839  32.214  37.833  1.00  0.00     0.198 A 
ATOM     89  C   UNL A   1      39.075  34.099  37.009  1.00  0.00     0.198 A 
ATOM     90  F   UNL A   1      40.238  33.945  34.973  1.00  0.00    -0.203 F 
ATOM     91  F   UNL A   1      37.024  31.672  38.749  1.00  0.00    -0.200 F 
ATOM     92  C   UNL A   1      38.258  33.529  37.973  1.00  0.00     0.200 A 
ATOM     93  F   UNL A   1      39.498  35.362  37.151  1.00  0.00    -0.200 F 
ATOM     94  F   UNL A   1      37.869  34.250  39.034  1.00  0.00    -0.200 F 
ENDBRANCH  61  84
ENDBRANCH  35  36
ENDBRANCH  28  30
ENDBRANCH  27  28
ENDBRANCH  26  27
ENDBRANCH  25  26
ENDBRANCH  24  25
ENDBRANCH  23  24
ENDBRANCH  22  23
ENDBRANCH   1  22
TORSDOF 22
ENDMDL
MODEL 3
REMARK VINA RESULT:     -10.2      1.155      2.642
REMARK SMILES C[C@@H](C(=O)OCCOCCOCCOCCOC(=O)c1ccc(-c2c3nc(c(-c4c(F)c(F)c(F)c(F)c4F)c4ccc([nH]4)c(-c4c(F)c(F)c(F)c(F)c4F)c4nc(c(-c5c(F)c(F)c(F)c(F)c5F)c5ccc2[nH]5)C=C4)C=C3)cc1)c1cccn(C(F)F)c1=O
REMARK SMILES IDX 11 1 10 2 9 3 8 4 7 5 6 6 5 7 3 8 4 9 2 10 1 11 83 12 84 13
REMARK SMILES IDX 91 14 85 15 87 16 92 17 86 18 88 19 89 20 90 21 12 22 13 23
REMARK SMILES IDX 14 24 15 25 16 26 17 27 18 28 19 29 20 30 21 31 82 32 22 33
REMARK SMILES IDX 81 34 23 35 24 36 25 37 75 38 26 39 80 40 74 41 76 42 27 43
REMARK SMILES IDX 79 44 73 45 72 46 28 48 60 49 40 50 59 51 41 52 44 53 58 54
REMARK SMILES IDX 77 55 42 56 43 57 57 59 78 60 45 61 29 62 30 63 38 64 31 65
REMARK SMILES IDX 32 66 36 67 39 68 33 69 34 70 37 71 35 72 61 73 62 74 70 75
REMARK SMILES IDX 63 76 64 77 68 78 71 79 65 80 66 81 69 82 67 83 46 84 47 85
REMARK SMILES IDX 55 86 48 87 49 88 53 89 56 90 50 91 51 92 54 93 52 94
REMARK H PARENT 76 47 44 58
REMARK Flexibility Score: inf
ROOT
ATOM      1  O   UNL A   1      39.232  22.728  26.387  1.00  0.00    -0.377 OA
ENDROOT
BRANCH   1   2
ATOM      2  C   UNL A   1      37.856  22.730  26.063  1.00  0.00     0.188 C 
BRANCH   2   3
ATOM      3  C   UNL A   1      37.446  21.694  24.994  1.00  0.00     0.188 C 
BRANCH   3   4
ATOM      4  O   UNL A   1      36.440  20.732  25.282  1.00  0.00    -0.376 OA
BRANCH   4   5
ATOM      5  C   UNL A   1      35.098  20.989  24.906  1.00  0.00     0.202 C 
BRANCH   5   6
ATOM      6  C   UNL A   1      34.083  21.602  25.895  1.00  0.00     0.261 C 
BRANCH   6   7
ATOM      7  O   UNL A   1      33.052  22.467  25.372  1.00  0.00    -0.463 OA
BRANCH   7   8
ATOM      8  C   UNL A   1      33.456  23.667  24.878  1.00  0.00     0.313 C 
ATOM      9  O   UNL A   1      34.186  24.438  25.498  1.00  0.00    -0.252 OA
BRANCH   8  10
ATOM     10  C   UNL A   1      32.867  24.029  23.496  1.00  0.00     0.132 C 
ATOM     11  C   UNL A   1      33.376  23.311  22.242  1.00  0.00     0.025 C 
BRANCH  10  12
ATOM     12  C   UNL A   1      32.829  25.548  23.382  1.00  0.00     0.032 A 
ATOM     13  C   UNL A   1      33.690  26.216  22.593  1.00  0.00     0.012 A 
ATOM     14  C   UNL A   1      31.725  26.349  24.028  1.00  0.00     0.259 A 
ATOM     15  C   UNL A   1      33.512  27.611  22.287  1.00  0.00     0.019 A 
ATOM     16  N   UNL A   1      31.505  27.619  23.525  1.00  0.00    -0.258 N 
ATOM     17  O   UNL A   1      31.057  25.879  24.943  1.00  0.00    -0.269 OA
ATOM     18  C   UNL A   1      32.414  28.249  22.701  1.00  0.00     0.095 A 
BRANCH  16  19
ATOM     19  C   UNL A   1      30.334  28.332  23.976  1.00  0.00     0.451 C 
ATOM     20  F   UNL A   1      30.605  29.662  24.041  1.00  0.00    -0.185 F 
ATOM     21  F   UNL A   1      29.328  28.196  23.069  1.00  0.00    -0.185 F 
ENDBRANCH  16  19
ENDBRANCH  10  12
ENDBRANCH   8  10
ENDBRANCH   7   8
ENDBRANCH   6   7
ENDBRANCH   5   6
ENDBRANCH   4   5
ENDBRANCH   3   4
ENDBRANCH   2   3
ENDBRANCH   1   2
BRANCH   1  22
ATOM     22  C   UNL A   1      39.919  21.512  26.151  1.00  0.00     0.188 C 
BRANCH  22  23
ATOM     23  C   UNL A   1      40.798  20.947  27.283  1.00  0.00     0.188 C 
BRANCH  23  24
ATOM     24  O   UNL A   1      42.174  21.296  27.182  1.00  0.00    -0.376 OA
BRANCH  24  25
ATOM     25  C   UNL A   1      42.947  20.793  26.104  1.00  0.00     0.202 C 
BRANCH  25  26
ATOM     26  C   UNL A   1      43.741  21.800  25.256  1.00  0.00     0.261 C 
BRANCH  26  27
ATOM     27  O   UNL A   1      43.118  23.071  25.017  1.00  0.00    -0.460 OA
BRANCH  27  28
ATOM     28  C   UNL A   1      43.876  24.182  25.115  1.00  0.00     0.338 C 
ATOM     29  O   UNL A   1      44.853  24.473  24.446  1.00  0.00    -0.246 OA
BRANCH  28  30
ATOM     30  C   UNL A   1      43.191  25.105  26.046  1.00  0.00     0.060 A 
ATOM     31  C   UNL A   1      43.647  26.427  26.144  1.00  0.00     0.016 A 
ATOM     32  C   UNL A   1      42.087  24.682  26.790  1.00  0.00     0.016 A 
ATOM     33  C   UNL A   1      43.018  27.322  27.007  1.00  0.00     0.010 A 
ATOM     34  C   UNL A   1      41.477  25.571  27.679  1.00  0.00     0.010 A 
ATOM     35  C   UNL A   1      41.961  26.885  27.815  1.00  0.00    -0.014 A 
BRANCH  35  36
ATOM     36  C   UNL A   1      41.520  27.724  28.955  1.00  0.00     0.031 A 
ATOM     37  C   UNL A   1      42.290  27.622  30.244  1.00  0.00     0.074 A 
ATOM     38  C   UNL A   1      40.483  28.572  28.851  1.00  0.00     0.049 A 
ATOM     39  N   UNL A   1      42.076  28.208  31.394  1.00  0.00    -0.248 NA
ATOM     40  C   UNL A   1      43.464  26.734  30.229  1.00  0.00     0.031 C 
ATOM     41  C   UNL A   1      39.693  28.798  27.642  1.00  0.00     0.029 A 
ATOM     42  N   UNL A   1      39.913  29.399  29.787  1.00  0.00    -0.354 N 
ATOM     43  C   UNL A   1      43.079  27.751  32.239  1.00  0.00     0.074 A 
ATOM     44  C   UNL A   1      43.883  26.819  31.482  1.00  0.00     0.031 C 
ATOM     45  C   UNL A   1      38.731  29.698  27.914  1.00  0.00     0.029 A 
ATOM     46  C   UNL A   1      38.815  30.081  29.323  1.00  0.00     0.049 A 
ATOM     47  H   UNL A   1      40.259  29.494  30.704  1.00  0.00     0.167 HD
ATOM     48  C   UNL A   1      43.309  28.085  33.530  1.00  0.00     0.037 A 
ATOM     49  C   UNL A   1      37.965  30.900  29.975  1.00  0.00     0.037 A 
ATOM     50  C   UNL A   1      42.504  29.012  34.278  1.00  0.00     0.049 A 
ATOM     51  C   UNL A   1      38.194  31.188  31.439  1.00  0.00     0.074 A 
ATOM     52  C   UNL A   1      42.666  29.434  35.587  1.00  0.00     0.029 A 
ATOM     53  N   UNL A   1      41.376  29.652  33.787  1.00  0.00    -0.354 N 
ATOM     54  N   UNL A   1      39.158  30.776  32.226  1.00  0.00    -0.248 NA
ATOM     55  C   UNL A   1      37.214  32.059  32.104  1.00  0.00     0.031 C 
ATOM     56  C   UNL A   1      41.597  30.276  35.908  1.00  0.00     0.029 A 
ATOM     57  C   UNL A   1      40.811  30.439  34.778  1.00  0.00     0.049 A 
ATOM     58  H   UNL A   1      41.029  29.561  32.872  1.00  0.00     0.167 HD
ATOM     59  C   UNL A   1      38.923  31.365  33.463  1.00  0.00     0.074 A 
ATOM     60  C   UNL A   1      37.731  32.173  33.319  1.00  0.00     0.031 C 
ATOM     61  C   UNL A   1      39.631  31.250  34.615  1.00  0.00     0.037 A 
BRANCH  48  62
ATOM     62  C   UNL A   1      44.457  27.412  34.227  1.00  0.00     0.064 A 
ATOM     63  C   UNL A   1      44.359  26.106  34.730  1.00  0.00     0.173 A 
ATOM     64  C   UNL A   1      45.685  28.078  34.368  1.00  0.00     0.173 A 
ATOM     65  F   UNL A   1      43.203  25.431  34.637  1.00  0.00    -0.203 F 
ATOM     66  C   UNL A   1      45.439  25.502  35.371  1.00  0.00     0.198 A 
ATOM     67  C   UNL A   1      46.771  27.459  34.978  1.00  0.00     0.198 A 
ATOM     68  F   UNL A   1      45.833  29.329  33.905  1.00  0.00    -0.203 F 
ATOM     69  F   UNL A   1      45.305  24.273  35.889  1.00  0.00    -0.200 F 
ATOM     70  C   UNL A   1      46.646  26.175  35.486  1.00  0.00     0.200 A 
ATOM     71  F   UNL A   1      47.941  28.106  35.076  1.00  0.00    -0.200 F 
ATOM     72  F   UNL A   1      47.686  25.589  36.094  1.00  0.00    -0.200 F 
ENDBRANCH  48  62
BRANCH  49  73
ATOM     73  C   UNL A   1      36.805  31.499  29.260  1.00  0.00     0.064 A 
ATOM     74  C   UNL A   1      36.772  32.866  28.950  1.00  0.00     0.173 A 
ATOM     75  C   UNL A   1      35.688  30.727  28.907  1.00  0.00     0.173 A 
ATOM     76  F   UNL A   1      37.802  33.654  29.291  1.00  0.00    -0.203 F 
ATOM     77  C   UNL A   1      35.660  33.441  28.337  1.00  0.00     0.198 A 
ATOM     78  C   UNL A   1      34.590  31.295  28.264  1.00  0.00     0.198 A 
ATOM     79  F   UNL A   1      35.662  29.415  29.185  1.00  0.00    -0.203 F 
ATOM     80  F   UNL A   1      35.633  34.760  28.106  1.00  0.00    -0.200 F 
ATOM     81  C   UNL A   1      34.572  32.653  27.989  1.00  0.00     0.200 A 
ATOM     82  F   UNL A   1      33.546  30.529  27.920  1.00  0.00    -0.200 F 
ATOM     83  F   UNL A   1      33.503  33.207  27.401  1.00  0.00    -0.200 F 
ENDBRANCH  49  73
BRANCH  61  84
ATOM     84  C   UNL A   1      39.170  32.055  35.798  1.00  0.00     0.064 A 
ATOM     85  C   UNL A   1      39.564  33.387  35.990  1.00  0.00     0.173 A 
ATOM     86  C   UNL A   1      38.279  31.496  36.729  1.00  0.00     0.173 A 
ATOM     87  F   UNL A   1      40.422  33.967  35.137  1.00  0.00    -0.203 F 
ATOM     88  C   UNL A   1      39.110  34.118  37.085  1.00  0.00     0.198 A 
ATOM     89  C   UNL A   1      37.797  32.241  37.801  1.00  0.00     0.198 A 
ATOM     90  F   UNL A   1      37.860  30.229  36.588  1.00  0.00    -0.203 F 
ATOM     91  F   UNL A   1      39.543  35.371  37.278  1.00  0.00    -0.200 F 
ATOM     92  C   UNL A   1      38.220  33.548  37.984  1.00  0.00     0.200 A 
ATOM     93  F   UNL A   1      36.923  31.694  38.657  1.00  0.00    -0.200 F 
ATOM     94  F   UNL A   1      37.776  34.257  39.032  1.00  0.00    -0.200 F 
ENDBRANCH  61  84
ENDBRANCH  35  36
ENDBRANCH  28  30
ENDBRANCH  27  28
ENDBRANCH  26  27
ENDBRANCH  25  26
ENDBRANCH  24  25
ENDBRANCH  23  24
ENDBRANCH  22  23
ENDBRANCH   1  22
TORSDOF 22
ENDMDL
