MODEL 1
REMARK VINA RESULT:     -10.8      0.000      0.000
REMARK SMILES O=C(Cn1c2ccccc2c(=O)c2cc(F)ccc21)OCCOCCOCCOCCOC(=O)c1ccc(-c2c3nc(c(-c4c(F)c(F)c(F)c(F)c4F)c4ccc([nH]4)c(-c4c(F)c(F)c(F)c(F)c4F)c4nc(c(-c5c(F)c(F)c(F)c(F)c5F)c5ccc2[nH]5)C=C4)C=C3)cc1
REMARK SMILES IDX 27 1 26 2 25 3 24 4 23 5 22 6 21 7 20 8 2 9 1 10 3 11 4 12
REMARK SMILES IDX 5 13 19 14 6 15 10 16 13 17 18 18 7 19 9 20 11 21 14 22
REMARK SMILES IDX 17 23 8 24 12 25 15 26 16 27 28 28 29 29 30 30 31 31 32 32
REMARK SMILES IDX 33 33 34 34 35 35 36 36 97 37 37 38 96 39 38 40 39 41 40 42
REMARK SMILES IDX 90 43 41 44 95 45 89 46 91 47 42 48 94 49 88 50 87 51 43 53
REMARK SMILES IDX 75 54 55 55 74 56 56 57 59 58 73 59 92 60 57 61 58 62 72 64
REMARK SMILES IDX 93 65 60 66 44 67 45 68 53 69 46 70 47 71 51 72 54 73 48 74
REMARK SMILES IDX 49 75 52 76 50 77 76 78 77 79 85 80 78 81 79 82 83 83 86 84
REMARK SMILES IDX 80 85 81 86 84 87 82 88 61 89 62 90 70 91 63 92 64 93 68 94
REMARK SMILES IDX 71 95 65 96 66 97 69 98 67 99
REMARK H PARENT 91 52 59 63
REMARK Flexibility Score: inf
ROOT
ATOM      1  C   UNL A   1      35.876  23.732  25.804  1.00  0.00     0.188 C 
ENDROOT
BRANCH   1   2
ATOM      2  O   UNL A   1      34.804  23.457  24.921  1.00  0.00    -0.377 OA
BRANCH   2   3
ATOM      3  C   UNL A   1      33.840  22.553  25.444  1.00  0.00     0.188 C 
BRANCH   3   4
ATOM      4  C   UNL A   1      33.306  21.523  24.437  1.00  0.00     0.188 C 
BRANCH   4   5
ATOM      5  O   UNL A   1      32.785  22.009  23.215  1.00  0.00    -0.376 OA
BRANCH   5   6
ATOM      6  C   UNL A   1      32.129  23.243  23.017  1.00  0.00     0.202 C 
BRANCH   6   7
ATOM      7  C   UNL A   1      30.722  23.566  23.505  1.00  0.00     0.261 C 
BRANCH   7   8
ATOM      8  O   UNL A   1      30.500  24.788  24.219  1.00  0.00    -0.462 OA
BRANCH   8   9
ATOM      9  C   UNL A   1      30.094  25.998  23.810  1.00  0.00     0.326 C 
ATOM     10  O   UNL A   1      28.888  26.252  23.871  1.00  0.00    -0.250 OA
BRANCH   9  11
ATOM     11  C   UNL A   1      31.040  27.027  23.219  1.00  0.00     0.245 C 
BRANCH  11  12
ATOM     12  N   UNL A   1      31.107  28.357  23.854  1.00  0.00    -0.329 N 
ATOM     13  C   UNL A   1      31.938  28.510  24.997  1.00  0.00     0.053 A 
ATOM     14  C   UNL A   1      30.202  29.367  23.422  1.00  0.00     0.053 A 
ATOM     15  C   UNL A   1      32.811  27.517  25.481  1.00  0.00     0.027 A 
ATOM     16  C   UNL A   1      31.985  29.750  25.654  1.00  0.00     0.046 A 
ATOM     17  C   UNL A   1      30.092  30.561  24.164  1.00  0.00     0.049 A 
ATOM     18  C   UNL A   1      29.421  29.296  22.247  1.00  0.00     0.030 A 
ATOM     19  C   UNL A   1      33.802  27.801  26.426  1.00  0.00     0.002 A 
ATOM     20  C   UNL A   1      32.957  30.034  26.625  1.00  0.00     0.014 A 
ATOM     21  C   UNL A   1      30.991  30.784  25.313  1.00  0.00     0.197 A 
ATOM     22  C   UNL A   1      29.194  31.581  23.816  1.00  0.00     0.053 A 
ATOM     23  C   UNL A   1      28.551  30.329  21.871  1.00  0.00     0.041 A 
ATOM     24  C   UNL A   1      33.893  29.070  26.978  1.00  0.00     0.001 A 
ATOM     25  O   UNL A   1      30.923  31.821  25.963  1.00  0.00    -0.288 OA
ATOM     26  C   UNL A   1      28.427  31.451  22.672  1.00  0.00     0.124 A 
ATOM     27  F   UNL A   1      27.583  32.427  22.319  1.00  0.00    -0.207 F 
ENDBRANCH  11  12
ENDBRANCH   9  11
ENDBRANCH   8   9
ENDBRANCH   7   8
ENDBRANCH   6   7
ENDBRANCH   5   6
ENDBRANCH   4   5
ENDBRANCH   3   4
ENDBRANCH   2   3
ENDBRANCH   1   2
BRANCH   1  28
ATOM     28  C   UNL A   1      37.275  23.496  25.206  1.00  0.00     0.188 C 
BRANCH  28  29
ATOM     29  O   UNL A   1      38.132  22.465  25.669  1.00  0.00    -0.376 OA
BRANCH  29  30
ATOM     30  C   UNL A   1      37.952  21.104  25.320  1.00  0.00     0.202 C 
BRANCH  30  31
ATOM     31  C   UNL A   1      39.094  20.079  25.264  1.00  0.00     0.261 C 
BRANCH  31  32
ATOM     32  O   UNL A   1      39.923  19.980  26.417  1.00  0.00    -0.460 OA
BRANCH  32  33
ATOM     33  C   UNL A   1      41.225  19.721  26.181  1.00  0.00     0.338 C 
ATOM     34  O   UNL A   1      41.704  18.747  25.627  1.00  0.00    -0.246 OA
BRANCH  33  35
ATOM     35  C   UNL A   1      41.988  20.931  26.544  1.00  0.00     0.060 A 
ATOM     36  C   UNL A   1      42.475  21.788  25.556  1.00  0.00     0.016 A 
ATOM     37  C   UNL A   1      42.253  21.175  27.899  1.00  0.00     0.016 A 
ATOM     38  C   UNL A   1      43.184  22.926  25.929  1.00  0.00     0.010 A 
ATOM     39  C   UNL A   1      42.973  22.307  28.272  1.00  0.00     0.010 A 
ATOM     40  C   UNL A   1      43.401  23.210  27.290  1.00  0.00    -0.014 A 
BRANCH  40  41
ATOM     41  C   UNL A   1      43.833  24.570  27.672  1.00  0.00     0.031 A 
ATOM     42  C   UNL A   1      45.256  25.008  27.618  1.00  0.00     0.074 A 
ATOM     43  C   UNL A   1      42.864  25.418  28.064  1.00  0.00     0.049 A 
ATOM     44  N   UNL A   1      45.743  26.214  27.756  1.00  0.00    -0.248 NA
ATOM     45  C   UNL A   1      46.268  23.966  27.396  1.00  0.00     0.031 C 
ATOM     46  C   UNL A   1      41.451  25.058  28.207  1.00  0.00     0.029 A 
ATOM     47  N   UNL A   1      42.905  26.748  28.386  1.00  0.00    -0.354 N 
ATOM     48  C   UNL A   1      47.115  26.088  27.604  1.00  0.00     0.074 A 
ATOM     49  C   UNL A   1      47.390  24.676  27.426  1.00  0.00     0.031 C 
ATOM     50  C   UNL A   1      40.751  26.151  28.534  1.00  0.00     0.029 A 
ATOM     51  C   UNL A   1      41.667  27.281  28.643  1.00  0.00     0.049 A 
ATOM     52  H   UNL A   1      43.740  27.269  28.430  1.00  0.00     0.167 HD
ATOM     53  C   UNL A   1      48.045  27.073  27.596  1.00  0.00     0.037 A 
ATOM     54  C   UNL A   1      41.306  28.549  28.912  1.00  0.00     0.037 A 
ATOM     55  C   UNL A   1      47.744  28.469  27.801  1.00  0.00     0.049 A 
ATOM     56  C   UNL A   1      42.361  29.615  28.920  1.00  0.00     0.074 A 
ATOM     57  C   UNL A   1      48.606  29.551  27.759  1.00  0.00     0.029 A 
ATOM     58  N   UNL A   1      46.487  28.973  28.106  1.00  0.00    -0.354 N 
ATOM     59  N   UNL A   1      43.641  29.508  28.662  1.00  0.00    -0.248 NA
ATOM     60  C   UNL A   1      41.924  30.976  29.250  1.00  0.00     0.031 C 
ATOM     61  C   UNL A   1      47.884  30.700  28.098  1.00  0.00     0.029 A 
ATOM     62  C   UNL A   1      46.559  30.345  28.296  1.00  0.00     0.049 A 
ATOM     63  H   UNL A   1      45.666  28.436  28.179  1.00  0.00     0.167 HD
ATOM     64  C   UNL A   1      44.164  30.787  28.784  1.00  0.00     0.074 A 
ATOM     65  C   UNL A   1      43.054  31.658  29.119  1.00  0.00     0.031 C 
ATOM     66  C   UNL A   1      45.446  31.198  28.637  1.00  0.00     0.037 A 
BRANCH  53  67
ATOM     67  C   UNL A   1      49.474  26.688  27.341  1.00  0.00     0.064 A 
ATOM     68  C   UNL A   1      50.000  26.663  26.040  1.00  0.00     0.173 A 
ATOM     69  C   UNL A   1      50.347  26.420  28.406  1.00  0.00     0.173 A 
ATOM     70  F   UNL A   1      49.209  26.908  24.985  1.00  0.00    -0.203 F 
ATOM     71  C   UNL A   1      51.341  26.364  25.814  1.00  0.00     0.198 A 
ATOM     72  C   UNL A   1      51.695  26.150  28.178  1.00  0.00     0.198 A 
ATOM     73  F   UNL A   1      49.900  26.441  29.670  1.00  0.00    -0.203 F 
ATOM     74  F   UNL A   1      51.813  26.311  24.561  1.00  0.00    -0.200 F 
ATOM     75  C   UNL A   1      52.190  26.117  26.884  1.00  0.00     0.200 A 
ATOM     76  F   UNL A   1      52.517  25.928  29.213  1.00  0.00    -0.200 F 
ATOM     77  F   UNL A   1      53.483  25.844  26.664  1.00  0.00    -0.200 F 
ENDBRANCH  53  67
BRANCH  54  78
ATOM     78  C   UNL A   1      39.872  28.863  29.125  1.00  0.00     0.064 A 
ATOM     79  C   UNL A   1      39.064  29.280  28.059  1.00  0.00     0.173 A 
ATOM     80  C   UNL A   1      39.265  28.689  30.378  1.00  0.00     0.173 A 
ATOM     81  F   UNL A   1      39.601  29.467  26.845  1.00  0.00    -0.203 F 
ATOM     82  C   UNL A   1      37.704  29.520  28.240  1.00  0.00     0.198 A 
ATOM     83  C   UNL A   1      37.900  28.902  30.551  1.00  0.00     0.198 A 
ATOM     84  F   UNL A   1      39.994  28.275  31.425  1.00  0.00    -0.203 F 
ATOM     85  F   UNL A   1      36.957  29.943  27.211  1.00  0.00    -0.200 F 
ATOM     86  C   UNL A   1      37.121  29.321  29.483  1.00  0.00     0.200 A 
ATOM     87  F   UNL A   1      37.337  28.687  31.748  1.00  0.00    -0.200 F 
ATOM     88  F   UNL A   1      35.809  29.533  29.652  1.00  0.00    -0.200 F 
ENDBRANCH  54  78
BRANCH  66  89
ATOM     89  C   UNL A   1      45.733  32.657  28.846  1.00  0.00     0.064 A 
ATOM     90  C   UNL A   1      46.133  33.149  30.096  1.00  0.00     0.173 A 
ATOM     91  C   UNL A   1      45.693  33.554  27.768  1.00  0.00     0.173 A 
ATOM     92  F   UNL A   1      46.171  32.334  31.163  1.00  0.00    -0.203 F 
ATOM     93  C   UNL A   1      46.477  34.487  30.262  1.00  0.00     0.198 A 
ATOM     94  C   UNL A   1      46.067  34.885  27.931  1.00  0.00     0.198 A 
ATOM     95  F   UNL A   1      45.321  33.132  26.549  1.00  0.00    -0.203 F 
ATOM     96  F   UNL A   1      46.829  34.942  31.472  1.00  0.00    -0.200 F 
ATOM     97  C   UNL A   1      46.456  35.351  29.177  1.00  0.00     0.200 A 
ATOM     98  F   UNL A   1      46.062  35.714  26.878  1.00  0.00    -0.200 F 
ATOM     99  F   UNL A   1      46.812  36.633  29.333  1.00  0.00    -0.200 F 
ENDBRANCH  66  89
ENDBRANCH  40  41
ENDBRANCH  33  35
ENDBRANCH  32  33
ENDBRANCH  31  32
ENDBRANCH  30  31
ENDBRANCH  29  30
ENDBRANCH  28  29
ENDBRANCH   1  28
TORSDOF 21
ENDMDL
MODEL 2
REMARK VINA RESULT:     -10.7      1.056      7.251
REMARK SMILES O=C(Cn1c2ccccc2c(=O)c2cc(F)ccc21)OCCOCCOCCOCCOC(=O)c1ccc(-c2c3nc(c(-c4c(F)c(F)c(F)c(F)c4F)c4ccc([nH]4)c(-c4c(F)c(F)c(F)c(F)c4F)c4nc(c(-c5c(F)c(F)c(F)c(F)c5F)c5ccc2[nH]5)C=C4)C=C3)cc1
REMARK SMILES IDX 27 1 26 2 25 3 24 4 23 5 22 6 21 7 20 8 2 9 1 10 3 11 4 12
REMARK SMILES IDX 5 13 19 14 6 15 10 16 13 17 18 18 7 19 9 20 11 21 14 22
REMARK SMILES IDX 17 23 8 24 12 25 15 26 16 27 28 28 29 29 30 30 31 31 32 32
REMARK SMILES IDX 33 33 34 34 35 35 36 36 97 37 37 38 96 39 38 40 39 41 40 42
REMARK SMILES IDX 90 43 41 44 95 45 89 46 91 47 42 48 94 49 88 50 87 51 43 53
REMARK SMILES IDX 75 54 55 55 74 56 56 57 59 58 73 59 92 60 57 61 58 62 72 64
REMARK SMILES IDX 93 65 60 66 44 67 45 68 53 69 46 70 47 71 51 72 54 73 48 74
REMARK SMILES IDX 49 75 52 76 50 77 76 78 77 79 85 80 78 81 79 82 83 83 86 84
REMARK SMILES IDX 80 85 81 86 84 87 82 88 61 89 62 90 70 91 63 92 64 93 68 94
REMARK SMILES IDX 71 95 65 96 66 97 69 98 67 99
REMARK H PARENT 91 52 59 63
REMARK Flexibility Score: inf
ROOT
ATOM      1  C   UNL A   1      37.839  24.099  26.492  1.00  0.00     0.188 C 
ENDROOT
BRANCH   1   2
ATOM      2  O   UNL A   1      36.783  24.046  25.552  1.00  0.00    -0.377 OA
BRANCH   2   3
ATOM      3  C   UNL A   1      35.882  22.965  25.754  1.00  0.00     0.188 C 
BRANCH   3   4
ATOM      4  C   UNL A   1      35.494  22.199  24.480  1.00  0.00     0.188 C 
BRANCH   4   5
ATOM      5  O   UNL A   1      35.141  22.957  23.340  1.00  0.00    -0.376 OA
BRANCH   5   6
ATOM      6  C   UNL A   1      34.191  24.000  23.291  1.00  0.00     0.202 C 
BRANCH   6   7
ATOM      7  C   UNL A   1      32.952  24.005  22.403  1.00  0.00     0.261 C 
BRANCH   7   8
ATOM      8  O   UNL A   1      32.508  25.247  21.841  1.00  0.00    -0.462 OA
BRANCH   8   9
ATOM      9  C   UNL A   1      32.372  26.469  22.375  1.00  0.00     0.326 C 
ATOM     10  O   UNL A   1      33.149  27.351  21.998  1.00  0.00    -0.250 OA
BRANCH   9  11
ATOM     11  C   UNL A   1      31.360  26.785  23.460  1.00  0.00     0.245 C 
BRANCH  11  12
ATOM     12  N   UNL A   1      31.359  28.143  24.037  1.00  0.00    -0.329 N 
ATOM     13  C   UNL A   1      32.176  28.386  25.174  1.00  0.00     0.053 A 
ATOM     14  C   UNL A   1      30.408  29.087  23.559  1.00  0.00     0.053 A 
ATOM     15  C   UNL A   1      33.095  27.460  25.703  1.00  0.00     0.027 A 
ATOM     16  C   UNL A   1      32.159  29.654  25.777  1.00  0.00     0.046 A 
ATOM     17  C   UNL A   1      30.236  30.305  24.248  1.00  0.00     0.049 A 
ATOM     18  C   UNL A   1      29.636  28.927  22.387  1.00  0.00     0.030 A 
ATOM     19  C   UNL A   1      34.067  27.832  26.637  1.00  0.00     0.002 A 
ATOM     20  C   UNL A   1      33.112  30.028  26.736  1.00  0.00     0.014 A 
ATOM     21  C   UNL A   1      31.118  30.622  25.389  1.00  0.00     0.197 A 
ATOM     22  C   UNL A   1      29.290  31.264  23.854  1.00  0.00     0.053 A 
ATOM     23  C   UNL A   1      28.718  29.899  21.965  1.00  0.00     0.041 A 
ATOM     24  C   UNL A   1      34.093  29.127  27.133  1.00  0.00     0.001 A 
ATOM     25  O   UNL A   1      30.996  31.682  25.994  1.00  0.00    -0.288 OA
ATOM     26  C   UNL A   1      28.535  31.046  22.716  1.00  0.00     0.124 A 
ATOM     27  F   UNL A   1      27.645  31.963  22.319  1.00  0.00    -0.207 F 
ENDBRANCH  11  12
ENDBRANCH   9  11
ENDBRANCH   8   9
ENDBRANCH   7   8
ENDBRANCH   6   7
ENDBRANCH   5   6
ENDBRANCH   4   5
ENDBRANCH   3   4
ENDBRANCH   2   3
ENDBRANCH   1   2
BRANCH   1  28
ATOM     28  C   UNL A   1      39.075  23.262  26.114  1.00  0.00     0.188 C 
BRANCH  28  29
ATOM     29  O   UNL A   1      39.238  21.918  26.538  1.00  0.00    -0.376 OA
BRANCH  29  30
ATOM     30  C   UNL A   1      38.914  20.810  25.717  1.00  0.00     0.202 C 
BRANCH  30  31
ATOM     31  C   UNL A   1      39.671  19.474  25.750  1.00  0.00     0.261 C 
BRANCH  31  32
ATOM     32  O   UNL A   1      40.681  19.335  26.741  1.00  0.00    -0.460 OA
BRANCH  32  33
ATOM     33  C   UNL A   1      41.948  19.273  26.281  1.00  0.00     0.338 C 
ATOM     34  O   UNL A   1      42.482  18.355  25.684  1.00  0.00    -0.246 OA
BRANCH  33  35
ATOM     35  C   UNL A   1      42.546  20.612  26.457  1.00  0.00     0.060 A 
ATOM     36  C   UNL A   1      43.174  21.256  25.389  1.00  0.00     0.016 A 
ATOM     37  C   UNL A   1      42.510  21.200  27.729  1.00  0.00     0.016 A 
ATOM     38  C   UNL A   1      43.721  22.521  25.583  1.00  0.00     0.010 A 
ATOM     39  C   UNL A   1      43.068  22.461  27.926  1.00  0.00     0.010 A 
ATOM     40  C   UNL A   1      43.634  23.144  26.842  1.00  0.00    -0.014 A 
BRANCH  40  41
ATOM     41  C   UNL A   1      43.896  24.595  26.936  1.00  0.00     0.031 A 
ATOM     42  C   UNL A   1      42.855  25.575  27.356  1.00  0.00     0.074 A 
ATOM     43  C   UNL A   1      45.143  25.000  26.633  1.00  0.00     0.049 A 
ATOM     44  N   UNL A   1      42.999  26.843  27.646  1.00  0.00    -0.248 NA
ATOM     45  C   UNL A   1      41.474  25.084  27.452  1.00  0.00     0.031 C 
ATOM     46  C   UNL A   1      46.210  24.118  26.152  1.00  0.00     0.029 A 
ATOM     47  N   UNL A   1      45.735  26.232  26.706  1.00  0.00    -0.354 N 
ATOM     48  C   UNL A   1      41.737  27.298  27.992  1.00  0.00     0.074 A 
ATOM     49  C   UNL A   1      40.825  26.184  27.815  1.00  0.00     0.031 C 
ATOM     50  C   UNL A   1      47.340  24.825  26.026  1.00  0.00     0.029 A 
ATOM     51  C   UNL A   1      47.072  26.210  26.397  1.00  0.00     0.049 A 
ATOM     52  H   UNL A   1      45.249  27.052  26.955  1.00  0.00     0.167 HD
ATOM     53  C   UNL A   1      41.390  28.529  28.436  1.00  0.00     0.037 A 
ATOM     54  C   UNL A   1      47.987  27.195  26.433  1.00  0.00     0.037 A 
ATOM     55  C   UNL A   1      42.315  29.627  28.579  1.00  0.00     0.049 A 
ATOM     56  C   UNL A   1      47.568  28.555  26.905  1.00  0.00     0.074 A 
ATOM     57  C   UNL A   1      42.075  30.898  29.070  1.00  0.00     0.029 A 
ATOM     58  N   UNL A   1      43.654  29.588  28.212  1.00  0.00    -0.354 N 
ATOM     59  N   UNL A   1      46.398  28.951  27.342  1.00  0.00    -0.248 NA
ATOM     60  C   UNL A   1      48.595  29.604  26.896  1.00  0.00     0.031 C 
ATOM     61  C   UNL A   1      43.250  31.646  28.944  1.00  0.00     0.029 A 
ATOM     62  C   UNL A   1      44.241  30.826  28.428  1.00  0.00     0.049 A 
ATOM     63  H   UNL A   1      44.118  28.798  27.852  1.00  0.00     0.167 HD
ATOM     64  C   UNL A   1      46.546  30.289  27.673  1.00  0.00     0.074 A 
ATOM     65  C   UNL A   1      47.930  30.631  27.407  1.00  0.00     0.031 C 
ATOM     66  C   UNL A   1      45.619  31.154  28.150  1.00  0.00     0.037 A 
BRANCH  53  67
ATOM     67  C   UNL A   1      39.956  28.760  28.818  1.00  0.00     0.064 A 
ATOM     68  C   UNL A   1      39.500  28.511  30.122  1.00  0.00     0.173 A 
ATOM     69  C   UNL A   1      39.047  29.310  27.901  1.00  0.00     0.173 A 
ATOM     70  F   UNL A   1      40.326  27.983  31.037  1.00  0.00    -0.203 F 
ATOM     71  C   UNL A   1      38.185  28.784  30.487  1.00  0.00     0.198 A 
ATOM     72  C   UNL A   1      37.740  29.609  28.278  1.00  0.00     0.198 A 
ATOM     73  F   UNL A   1      39.432  29.578  26.644  1.00  0.00    -0.203 F 
ATOM     74  F   UNL A   1      37.763  28.504  31.728  1.00  0.00    -0.200 F 
ATOM     75  C   UNL A   1      37.308  29.341  29.568  1.00  0.00     0.200 A 
ATOM     76  F   UNL A   1      36.898  30.162  27.393  1.00  0.00    -0.200 F 
ATOM     77  F   UNL A   1      36.047  29.616  29.926  1.00  0.00    -0.200 F 
ENDBRANCH  53  67
BRANCH  54  78
ATOM     78  C   UNL A   1      49.393  26.888  26.070  1.00  0.00     0.064 A 
ATOM     79  C   UNL A   1      50.285  26.381  27.024  1.00  0.00     0.173 A 
ATOM     80  C   UNL A   1      49.854  27.032  24.753  1.00  0.00     0.173 A 
ATOM     81  F   UNL A   1      49.891  26.233  28.297  1.00  0.00    -0.203 F 
ATOM     82  C   UNL A   1      51.589  26.036  26.676  1.00  0.00     0.198 A 
ATOM     83  C   UNL A   1      51.149  26.661  24.400  1.00  0.00     0.198 A 
ATOM     84  F   UNL A   1      49.033  27.498  23.801  1.00  0.00    -0.203 F 
ATOM     85  F   UNL A   1      52.431  25.577  27.612  1.00  0.00    -0.200 F 
ATOM     86  C   UNL A   1      52.017  26.167  25.363  1.00  0.00     0.200 A 
ATOM     87  F   UNL A   1      51.551  26.767  23.127  1.00  0.00    -0.200 F 
ATOM     88  F   UNL A   1      53.265  25.817  25.025  1.00  0.00    -0.200 F 
ENDBRANCH  54  78
BRANCH  66  89
ATOM     89  C   UNL A   1      46.058  32.566  28.408  1.00  0.00     0.064 A 
ATOM     90  C   UNL A   1      45.909  33.565  27.436  1.00  0.00     0.173 A 
ATOM     91  C   UNL A   1      46.549  32.942  29.667  1.00  0.00     0.173 A 
ATOM     92  F   UNL A   1      45.459  33.253  26.210  1.00  0.00    -0.203 F 
ATOM     93  C   UNL A   1      46.242  34.888  27.711  1.00  0.00     0.198 A 
ATOM     94  C   UNL A   1      46.853  34.271  29.949  1.00  0.00     0.198 A 
ATOM     95  F   UNL A   1      46.706  32.024  30.634  1.00  0.00    -0.203 F 
ATOM     96  F   UNL A   1      46.118  35.822  26.758  1.00  0.00    -0.200 F 
ATOM     97  C   UNL A   1      46.700  35.242  28.972  1.00  0.00     0.200 A 
ATOM     98  F   UNL A   1      47.280  34.614  31.173  1.00  0.00    -0.200 F 
ATOM     99  F   UNL A   1      46.996  36.520  29.244  1.00  0.00    -0.200 F 
ENDBRANCH  66  89
ENDBRANCH  40  41
ENDBRANCH  33  35
ENDBRANCH  32  33
ENDBRANCH  31  32
ENDBRANCH  30  31
ENDBRANCH  29  30
ENDBRANCH  28  29
ENDBRANCH   1  28
TORSDOF 21
ENDMDL
MODEL 3
REMARK VINA RESULT:     -10.6      4.762      9.795
REMARK SMILES O=C(Cn1c2ccccc2c(=O)c2cc(F)ccc21)OCCOCCOCCOCCOC(=O)c1ccc(-c2c3nc(c(-c4c(F)c(F)c(F)c(F)c4F)c4ccc([nH]4)c(-c4c(F)c(F)c(F)c(F)c4F)c4nc(c(-c5c(F)c(F)c(F)c(F)c5F)c5ccc2[nH]5)C=C4)C=C3)cc1
REMARK SMILES IDX 27 1 26 2 25 3 24 4 23 5 22 6 21 7 20 8 2 9 1 10 3 11 4 12
REMARK SMILES IDX 5 13 19 14 6 15 10 16 13 17 18 18 7 19 9 20 11 21 14 22
REMARK SMILES IDX 17 23 8 24 12 25 15 26 16 27 28 28 29 29 30 30 31 31 32 32
REMARK SMILES IDX 33 33 34 34 35 35 36 36 97 37 37 38 96 39 38 40 39 41 40 42
REMARK SMILES IDX 90 43 41 44 95 45 89 46 91 47 42 48 94 49 88 50 87 51 43 53
REMARK SMILES IDX 75 54 55 55 74 56 56 57 59 58 73 59 92 60 57 61 58 62 72 64
REMARK SMILES IDX 93 65 60 66 44 67 45 68 53 69 46 70 47 71 51 72 54 73 48 74
REMARK SMILES IDX 49 75 52 76 50 77 76 78 77 79 85 80 78 81 79 82 83 83 86 84
REMARK SMILES IDX 80 85 81 86 84 87 82 88 61 89 62 90 70 91 63 92 64 93 68 94
REMARK SMILES IDX 71 95 65 96 66 97 69 98 67 99
REMARK H PARENT 91 52 59 63
REMARK Flexibility Score: inf
ROOT
ATOM      1  C   UNL A   1      44.111  18.882  25.240  1.00  0.00     0.188 C 
ENDROOT
BRANCH   1   2
ATOM      2  O   UNL A   1      42.737  19.192  25.109  1.00  0.00    -0.377 OA
BRANCH   2   3
ATOM      3  C   UNL A   1      42.135  19.674  26.303  1.00  0.00     0.188 C 
BRANCH   3   4
ATOM      4  C   UNL A   1      40.682  20.149  26.150  1.00  0.00     0.188 C 
BRANCH   4   5
ATOM      5  O   UNL A   1      40.357  21.433  26.645  1.00  0.00    -0.376 OA
BRANCH   5   6
ATOM      6  C   UNL A   1      39.156  22.139  26.414  1.00  0.00     0.202 C 
BRANCH   6   7
ATOM      7  C   UNL A   1      38.972  23.635  26.639  1.00  0.00     0.261 C 
BRANCH   7   8
ATOM      8  O   UNL A   1      37.786  24.269  26.143  1.00  0.00    -0.462 OA
BRANCH   8   9
ATOM      9  C   UNL A   1      36.572  23.783  25.848  1.00  0.00     0.326 C 
ATOM     10  O   UNL A   1      35.859  23.409  26.783  1.00  0.00    -0.250 OA
BRANCH   9  11
ATOM     11  C   UNL A   1      36.079  23.612  24.423  1.00  0.00     0.245 C 
BRANCH  11  12
ATOM     12  N   UNL A   1      34.636  23.397  24.208  1.00  0.00    -0.329 N 
ATOM     13  C   UNL A   1      34.150  22.061  24.214  1.00  0.00     0.053 A 
ATOM     14  C   UNL A   1      33.832  24.503  23.814  1.00  0.00     0.053 A 
ATOM     15  C   UNL A   1      34.928  20.937  24.553  1.00  0.00     0.027 A 
ATOM     16  C   UNL A   1      32.790  21.820  23.962  1.00  0.00     0.046 A 
ATOM     17  C   UNL A   1      32.508  24.279  23.381  1.00  0.00     0.049 A 
ATOM     18  C   UNL A   1      34.241  25.854  23.871  1.00  0.00     0.030 A 
ATOM     19  C   UNL A   1      34.351  19.691  24.816  1.00  0.00     0.002 A 
ATOM     20  C   UNL A   1      32.208  20.565  24.194  1.00  0.00     0.014 A 
ATOM     21  C   UNL A   1      31.949  22.914  23.445  1.00  0.00     0.197 A 
ATOM     22  C   UNL A   1      31.674  25.319  22.944  1.00  0.00     0.053 A 
ATOM     23  C   UNL A   1      33.398  26.902  23.474  1.00  0.00     0.041 A 
ATOM     24  C   UNL A   1      32.984  19.512  24.663  1.00  0.00     0.001 A 
ATOM     25  O   UNL A   1      30.796  22.698  23.088  1.00  0.00    -0.288 OA
ATOM     26  C   UNL A   1      32.132  26.623  22.991  1.00  0.00     0.124 A 
ATOM     27  F   UNL A   1      31.338  27.624  22.596  1.00  0.00    -0.207 F 
ENDBRANCH  11  12
ENDBRANCH   9  11
ENDBRANCH   8   9
ENDBRANCH   7   8
ENDBRANCH   6   7
ENDBRANCH   5   6
ENDBRANCH   4   5
ENDBRANCH   3   4
ENDBRANCH   2   3
ENDBRANCH   1   2
BRANCH   1  28
ATOM     28  C   UNL A   1      45.048  19.750  24.380  1.00  0.00     0.188 C 
BRANCH  28  29
ATOM     29  O   UNL A   1      44.557  20.683  23.432  1.00  0.00    -0.376 OA
BRANCH  29  30
ATOM     30  C   UNL A   1      44.713  22.084  23.582  1.00  0.00     0.202 C 
BRANCH  30  31
ATOM     31  C   UNL A   1      43.695  22.985  24.296  1.00  0.00     0.261 C 
BRANCH  31  32
ATOM     32  O   UNL A   1      44.221  24.023  25.114  1.00  0.00    -0.460 OA
BRANCH  32  33
ATOM     33  C   UNL A   1      44.350  23.727  26.424  1.00  0.00     0.338 C 
ATOM     34  O   UNL A   1      45.044  22.862  26.929  1.00  0.00    -0.246 OA
BRANCH  33  35
ATOM     35  C   UNL A   1      43.639  24.773  27.184  1.00  0.00     0.060 A 
ATOM     36  C   UNL A   1      42.543  24.450  27.987  1.00  0.00     0.016 A 
ATOM     37  C   UNL A   1      44.058  26.104  27.045  1.00  0.00     0.016 A 
ATOM     38  C   UNL A   1      41.898  25.457  28.697  1.00  0.00     0.010 A 
ATOM     39  C   UNL A   1      43.405  27.114  27.747  1.00  0.00     0.010 A 
ATOM     40  C   UNL A   1      42.352  26.787  28.611  1.00  0.00    -0.014 A 
BRANCH  40  41
ATOM     41  C   UNL A   1      41.893  27.761  29.623  1.00  0.00     0.031 A 
ATOM     42  C   UNL A   1      40.674  28.598  29.440  1.00  0.00     0.074 A 
ATOM     43  C   UNL A   1      42.630  27.850  30.745  1.00  0.00     0.049 A 
ATOM     44  N   UNL A   1      40.067  29.357  30.316  1.00  0.00    -0.248 NA
ATOM     45  C   UNL A   1      40.059  28.601  28.105  1.00  0.00     0.031 C 
ATOM     46  C   UNL A   1      43.874  27.114  30.984  1.00  0.00     0.029 A 
ATOM     47  N   UNL A   1      42.437  28.565  31.897  1.00  0.00    -0.354 N 
ATOM     48  C   UNL A   1      38.980  29.904  29.655  1.00  0.00     0.074 A 
ATOM     49  C   UNL A   1      39.044  29.439  28.283  1.00  0.00     0.031 C 
ATOM     50  C   UNL A   1      44.304  27.372  32.226  1.00  0.00     0.029 A 
ATOM     51  C   UNL A   1      43.379  28.305  32.860  1.00  0.00     0.049 A 
ATOM     52  H   UNL A   1      41.697  29.203  32.020  1.00  0.00     0.167 HD
ATOM     53  C   UNL A   1      38.012  30.703  30.165  1.00  0.00     0.037 A 
ATOM     54  C   UNL A   1      43.472  28.750  34.126  1.00  0.00     0.037 A 
ATOM     55  C   UNL A   1      37.987  31.171  31.529  1.00  0.00     0.049 A 
ATOM     56  C   UNL A   1      42.399  29.654  34.656  1.00  0.00     0.074 A 
ATOM     57  C   UNL A   1      37.024  31.940  32.159  1.00  0.00     0.029 A 
ATOM     58  N   UNL A   1      38.981  30.929  32.468  1.00  0.00    -0.354 N 
ATOM     59  N   UNL A   1      41.310  30.075  34.061  1.00  0.00    -0.248 NA
ATOM     60  C   UNL A   1      42.562  30.138  36.031  1.00  0.00     0.031 C 
ATOM     61  C   UNL A   1      37.464  32.215  33.458  1.00  0.00     0.029 A 
ATOM     62  C   UNL A   1      38.673  31.569  33.660  1.00  0.00     0.049 A 
ATOM     63  H   UNL A   1      39.786  30.385  32.312  1.00  0.00     0.167 HD
ATOM     64  C   UNL A   1      40.649  30.864  34.991  1.00  0.00     0.074 A 
ATOM     65  C   UNL A   1      41.451  30.843  36.198  1.00  0.00     0.031 C 
ATOM     66  C   UNL A   1      39.486  31.546  34.852  1.00  0.00     0.037 A 
BRANCH  53  67
ATOM     67  C   UNL A   1      36.889  31.113  29.257  1.00  0.00     0.064 A 
ATOM     68  C   UNL A   1      35.863  30.216  28.917  1.00  0.00     0.173 A 
ATOM     69  C   UNL A   1      36.788  32.431  28.787  1.00  0.00     0.173 A 
ATOM     70  F   UNL A   1      35.911  28.943  29.336  1.00  0.00    -0.203 F 
ATOM     71  C   UNL A   1      34.792  30.619  28.124  1.00  0.00     0.198 A 
ATOM     72  C   UNL A   1      35.699  32.837  28.018  1.00  0.00     0.198 A 
ATOM     73  F   UNL A   1      37.734  33.332  29.091  1.00  0.00    -0.203 F 
ATOM     74  F   UNL A   1      33.844  29.735  27.782  1.00  0.00    -0.200 F 
ATOM     75  C   UNL A   1      34.705  31.931  27.683  1.00  0.00     0.200 A 
ATOM     76  F   UNL A   1      35.609  34.110  27.606  1.00  0.00    -0.200 F 
ATOM     77  F   UNL A   1      33.666  32.319  26.932  1.00  0.00    -0.200 F 
ENDBRANCH  53  67
BRANCH  54  78
ATOM     78  C   UNL A   1      44.594  28.280  34.976  1.00  0.00     0.064 A 
ATOM     79  C   UNL A   1      45.804  28.985  35.020  1.00  0.00     0.173 A 
ATOM     80  C   UNL A   1      44.457  27.161  35.811  1.00  0.00     0.173 A 
ATOM     81  F   UNL A   1      45.983  30.057  34.235  1.00  0.00    -0.203 F 
ATOM     82  C   UNL A   1      46.839  28.583  35.860  1.00  0.00     0.198 A 
ATOM     83  C   UNL A   1      45.483  26.776  36.671  1.00  0.00     0.198 A 
ATOM     84  F   UNL A   1      43.312  26.463  35.816  1.00  0.00    -0.203 F 
ATOM     85  F   UNL A   1      47.996  29.258  35.866  1.00  0.00    -0.200 F 
ATOM     86  C   UNL A   1      46.674  27.485  36.693  1.00  0.00     0.200 A 
ATOM     87  F   UNL A   1      45.310  25.729  37.489  1.00  0.00    -0.200 F 
ATOM     88  F   UNL A   1      47.663  27.111  37.515  1.00  0.00    -0.200 F 
ENDBRANCH  54  78
BRANCH  66  89
ATOM     89  C   UNL A   1      39.006  32.341  36.031  1.00  0.00     0.064 A 
ATOM     90  C   UNL A   1      38.257  31.744  37.056  1.00  0.00     0.173 A 
ATOM     91  C   UNL A   1      39.370  33.687  36.182  1.00  0.00     0.173 A 
ATOM     92  F   UNL A   1      37.870  30.463  36.951  1.00  0.00    -0.203 F 
ATOM     93  C   UNL A   1      37.886  32.467  38.185  1.00  0.00     0.198 A 
ATOM     94  C   UNL A   1      39.023  34.399  37.326  1.00  0.00     0.198 A 
ATOM     95  F   UNL A   1      40.090  34.304  35.231  1.00  0.00    -0.203 F 
ATOM     96  F   UNL A   1      37.147  31.885  39.139  1.00  0.00    -0.200 F 
ATOM     97  C   UNL A   1      38.281  33.790  38.326  1.00  0.00     0.200 A 
ATOM     98  F   UNL A   1      39.419  35.671  37.468  1.00  0.00    -0.200 F 
ATOM     99  F   UNL A   1      37.944  34.477  39.425  1.00  0.00    -0.200 F 
ENDBRANCH  66  89
ENDBRANCH  40  41
ENDBRANCH  33  35
ENDBRANCH  32  33
ENDBRANCH  31  32
ENDBRANCH  30  31
ENDBRANCH  29  30
ENDBRANCH  28  29
ENDBRANCH   1  28
TORSDOF 21
ENDMDL
