MODEL 1
REMARK VINA RESULT:     -10.9      0.000      0.000
REMARK SMILES Cc1c(-c2nn(-c3ccccc3)cc2/C=N/O)nnn1-c1ccc(C(=O)OCCOCCOCCOCCOC(=O)c2ccc(-c3c4nc(c(-c5c(F)c(F)c(F)c(F)c5F)c5ccc([nH]5)c(-c5c(F)c(F)c(F)c(F)c5F)c5nc(c(-c6c(F)c(F)c(F)c(F)c6F)c6ccc3[nH]6)C=C5)C=C4)cc2)cc1
REMARK SMILES IDX 32 1 31 2 30 3 29 4 28 5 27 6 25 7 26 8 24 9 21 10 22 11
REMARK SMILES IDX 106 12 23 13 105 14 20 15 1 16 2 17 3 18 18 19 19 20 4 21
REMARK SMILES IDX 5 22 14 23 6 24 13 25 15 26 16 27 17 28 7 30 8 31 12 32 9 33
REMARK SMILES IDX 11 34 10 35 33 36 34 37 35 38 36 39 37 40 38 41 39 42 40 43
REMARK SMILES IDX 41 44 42 45 43 46 104 47 44 48 103 49 45 50 46 51 47 52
REMARK SMILES IDX 97 53 48 54 102 55 96 56 98 57 49 58 101 59 95 60 94 61
REMARK SMILES IDX 50 63 82 64 62 65 81 66 63 67 66 68 80 69 99 70 64 71 65 72
REMARK SMILES IDX 79 74 100 75 67 76 51 77 52 78 60 79 53 80 54 81 58 82 61 83
REMARK SMILES IDX 55 84 56 85 59 86 57 87 83 88 84 89 92 90 85 91 86 92 90 93
REMARK SMILES IDX 93 94 87 95 88 96 91 97 89 98 68 99 69 100 77 101 70 102
REMARK SMILES IDX 71 103 75 104 78 105 72 106 73 107 76 108 74 109
REMARK H PARENT 17 29 98 62 66 73
REMARK Flexibility Score: inf
ROOT
ATOM      1  C   UNL A   1      42.660  19.717  26.399  1.00  0.00     0.188 C 
ENDROOT
BRANCH   1   2
ATOM      2  C   UNL A   1      41.220  20.098  26.813  1.00  0.00     0.188 C 
BRANCH   2   3
ATOM      3  O   UNL A   1      40.236  19.702  25.880  1.00  0.00    -0.376 OA
BRANCH   3   4
ATOM      4  C   UNL A   1      39.088  20.492  25.684  1.00  0.00     0.202 C 
BRANCH   4   5
ATOM      5  C   UNL A   1      37.880  19.881  24.962  1.00  0.00     0.261 C 
BRANCH   5   6
ATOM      6  O   UNL A   1      36.793  20.769  24.678  1.00  0.00    -0.460 OA
BRANCH   6   7
ATOM      7  C   UNL A   1      35.551  20.247  24.784  1.00  0.00     0.338 C 
ATOM      8  O   UNL A   1      35.237  19.080  24.645  1.00  0.00    -0.246 OA
BRANCH   7   9
ATOM      9  C   UNL A   1      34.636  21.302  25.280  1.00  0.00     0.060 A 
ATOM     10  C   UNL A   1      32.935  23.390  25.948  1.00  0.00     0.067 A 
ATOM     11  C   UNL A   1      32.427  22.302  25.235  1.00  0.00     0.029 A 
ATOM     12  C   UNL A   1      34.245  23.371  26.450  1.00  0.00     0.029 A 
ATOM     13  C   UNL A   1      33.294  21.274  24.868  1.00  0.00     0.018 A 
ATOM     14  C   UNL A   1      35.095  22.313  26.129  1.00  0.00     0.018 A 
BRANCH  10  15
ATOM     15  N   UNL A   1      32.162  24.569  26.032  1.00  0.00    -0.217 N 
ATOM     16  C   UNL A   1      33.200  25.907  24.116  1.00  0.00     0.069 C 
ATOM     17  C   UNL A   1      32.302  25.720  25.279  1.00  0.00     0.071 A 
ATOM     18  C   UNL A   1      31.322  26.549  25.788  1.00  0.00     0.137 A 
ATOM     19  N   UNL A   1      30.572  25.882  26.711  1.00  0.00    -0.128 NA
ATOM     20  N   UNL A   1      31.044  24.641  26.794  1.00  0.00    -0.061 NA
BRANCH  18  21
ATOM     21  C   UNL A   1      31.057  27.933  25.405  1.00  0.00     0.124 A 
ATOM     22  N   UNL A   1      30.067  28.277  24.570  1.00  0.00    -0.165 NA
ATOM     23  C   UNL A   1      31.885  29.028  25.746  1.00  0.00     0.044 A 
ATOM     24  N   UNL A   1      30.321  29.570  24.270  1.00  0.00    -0.240 N 
ATOM     25  C   UNL A   1      31.415  30.053  24.948  1.00  0.00     0.125 A 
BRANCH  23  26
ATOM     26  C   UNL A   1      32.990  29.141  26.665  1.00  0.00     0.166 C 
ATOM     27  N   UNL A   1      34.196  28.929  26.253  1.00  0.00    -0.097 NA
BRANCH  27  28
ATOM     28  O   UNL A   1      35.082  29.045  27.328  1.00  0.00    -0.411 OA
ATOM     29  H   UNL A   1      35.288  28.295  27.849  1.00  0.00     0.330 HD
ENDBRANCH  27  28
ENDBRANCH  23  26
BRANCH  24  30
ATOM     30  C   UNL A   1      29.537  30.277  23.331  1.00  0.00     0.065 A 
ATOM     31  C   UNL A   1      29.201  31.612  23.581  1.00  0.00     0.028 A 
ATOM     32  C   UNL A   1      29.110  29.645  22.156  1.00  0.00     0.028 A 
ATOM     33  C   UNL A   1      28.473  32.327  22.629  1.00  0.00     0.002 A 
ATOM     34  C   UNL A   1      28.331  30.353  21.238  1.00  0.00     0.002 A 
ATOM     35  C   UNL A   1      28.029  31.695  21.466  1.00  0.00     0.000 A 
ENDBRANCH  24  30
ENDBRANCH  18  21
ENDBRANCH  10  15
ENDBRANCH   7   9
ENDBRANCH   6   7
ENDBRANCH   5   6
ENDBRANCH   4   5
ENDBRANCH   3   4
ENDBRANCH   2   3
ENDBRANCH   1   2
BRANCH   1  36
ATOM     36  O   UNL A   1      43.282  20.299  25.258  1.00  0.00    -0.377 OA
BRANCH  36  37
ATOM     37  C   UNL A   1      44.032  21.503  25.364  1.00  0.00     0.188 C 
BRANCH  37  38
ATOM     38  C   UNL A   1      43.692  22.771  24.537  1.00  0.00     0.188 C 
BRANCH  38  39
ATOM     39  O   UNL A   1      44.724  23.734  24.432  1.00  0.00    -0.376 OA
BRANCH  39  40
ATOM     40  C   UNL A   1      44.643  25.023  24.996  1.00  0.00     0.202 C 
BRANCH  40  41
ATOM     41  C   UNL A   1      43.826  25.256  26.258  1.00  0.00     0.261 C 
BRANCH  41  42
ATOM     42  O   UNL A   1      42.434  25.105  26.090  1.00  0.00    -0.460 OA
BRANCH  42  43
ATOM     43  C   UNL A   1      41.815  24.523  27.132  1.00  0.00     0.338 C 
ATOM     44  O   UNL A   1      41.616  23.337  27.315  1.00  0.00    -0.246 OA
BRANCH  43  45
ATOM     45  C   UNL A   1      41.256  25.591  27.956  1.00  0.00     0.060 A 
ATOM     46  C   UNL A   1      40.348  26.437  27.326  1.00  0.00     0.016 A 
ATOM     47  C   UNL A   1      41.934  25.938  29.135  1.00  0.00     0.016 A 
ATOM     48  C   UNL A   1      40.318  27.745  27.736  1.00  0.00     0.010 A 
ATOM     49  C   UNL A   1      41.924  27.248  29.526  1.00  0.00     0.010 A 
ATOM     50  C   UNL A   1      41.188  28.144  28.760  1.00  0.00    -0.014 A 
BRANCH  50  51
ATOM     51  C   UNL A   1      41.207  29.544  29.105  1.00  0.00     0.031 A 
ATOM     52  C   UNL A   1      42.406  30.207  28.564  1.00  0.00     0.074 A 
ATOM     53  C   UNL A   1      40.199  30.134  29.772  1.00  0.00     0.049 A 
ATOM     54  N   UNL A   1      43.406  30.673  29.231  1.00  0.00    -0.248 NA
ATOM     55  C   UNL A   1      42.620  30.154  27.107  1.00  0.00     0.031 C 
ATOM     56  C   UNL A   1      38.879  29.577  30.083  1.00  0.00     0.029 A 
ATOM     57  N   UNL A   1      40.110  31.410  30.234  1.00  0.00    -0.354 N 
ATOM     58  C   UNL A   1      44.270  31.184  28.273  1.00  0.00     0.074 A 
ATOM     59  C   UNL A   1      43.851  30.655  27.005  1.00  0.00     0.031 C 
ATOM     60  C   UNL A   1      38.055  30.577  30.471  1.00  0.00     0.029 A 
ATOM     61  C   UNL A   1      38.820  31.808  30.560  1.00  0.00     0.049 A 
ATOM     62  H   UNL A   1      40.892  31.999  30.330  1.00  0.00     0.167 HD
ATOM     63  C   UNL A   1      45.024  32.275  28.567  1.00  0.00     0.037 A 
ATOM     64  C   UNL A   1      38.424  33.080  30.809  1.00  0.00     0.037 A 
ATOM     65  C   UNL A   1      45.154  32.437  29.994  1.00  0.00     0.049 A 
ATOM     66  C   UNL A   1      39.638  33.864  31.136  1.00  0.00     0.074 A 
ATOM     67  C   UNL A   1      45.735  31.724  31.021  1.00  0.00     0.029 A 
ATOM     68  N   UNL A   1      44.242  33.284  30.564  1.00  0.00    -0.354 N 
ATOM     69  N   UNL A   1      40.329  33.714  32.231  1.00  0.00    -0.248 NA
ATOM     70  C   UNL A   1      40.319  34.582  30.066  1.00  0.00     0.031 C 
ATOM     71  C   UNL A   1      44.923  31.967  32.171  1.00  0.00     0.029 A 
ATOM     72  C   UNL A   1      43.906  32.857  31.820  1.00  0.00     0.049 A 
ATOM     73  H   UNL A   1      43.877  34.089  30.131  1.00  0.00     0.167 HD
ATOM     74  C   UNL A   1      41.643  33.905  31.840  1.00  0.00     0.074 A 
ATOM     75  C   UNL A   1      41.557  34.604  30.564  1.00  0.00     0.031 C 
ATOM     76  C   UNL A   1      42.646  33.201  32.442  1.00  0.00     0.037 A 
BRANCH  63  77
ATOM     77  C   UNL A   1      45.164  33.441  27.611  1.00  0.00     0.064 A 
ATOM     78  C   UNL A   1      46.453  33.841  27.215  1.00  0.00     0.173 A 
ATOM     79  C   UNL A   1      44.130  34.365  27.328  1.00  0.00     0.173 A 
ATOM     80  F   UNL A   1      47.515  33.065  27.477  1.00  0.00    -0.203 F 
ATOM     81  C   UNL A   1      46.691  35.088  26.630  1.00  0.00     0.198 A 
ATOM     82  C   UNL A   1      44.363  35.582  26.693  1.00  0.00     0.198 A 
ATOM     83  F   UNL A   1      42.874  34.198  27.756  1.00  0.00    -0.203 F 
ATOM     84  F   UNL A   1      47.950  35.476  26.382  1.00  0.00    -0.200 F 
ATOM     85  C   UNL A   1      45.647  35.956  26.368  1.00  0.00     0.200 A 
ATOM     86  F   UNL A   1      43.338  36.420  26.481  1.00  0.00    -0.200 F 
ATOM     87  F   UNL A   1      45.880  37.173  25.859  1.00  0.00    -0.200 F 
ENDBRANCH  63  77
BRANCH  64  88
ATOM     88  C   UNL A   1      37.133  33.744  30.506  1.00  0.00     0.064 A 
ATOM     89  C   UNL A   1      36.651  33.805  29.186  1.00  0.00     0.173 A 
ATOM     90  C   UNL A   1      36.211  34.050  31.524  1.00  0.00     0.173 A 
ATOM     91  F   UNL A   1      37.454  33.492  28.159  1.00  0.00    -0.203 F 
ATOM     92  C   UNL A   1      35.315  34.104  28.907  1.00  0.00     0.198 A 
ATOM     93  C   UNL A   1      34.879  34.357  31.242  1.00  0.00     0.198 A 
ATOM     94  F   UNL A   1      36.556  33.956  32.816  1.00  0.00    -0.203 F 
ATOM     95  F   UNL A   1      34.874  34.072  27.641  1.00  0.00    -0.200 F 
ATOM     96  C   UNL A   1      34.426  34.365  29.936  1.00  0.00     0.200 A 
ATOM     97  F   UNL A   1      34.020  34.572  32.249  1.00  0.00    -0.200 F 
ATOM     98  F   UNL A   1      33.129  34.578  29.674  1.00  0.00    -0.200 F 
ENDBRANCH  64  88
BRANCH  76  99
ATOM     99  C   UNL A   1      42.342  32.611  33.791  1.00  0.00     0.064 A 
ATOM    100  C   UNL A   1      41.778  31.341  34.008  1.00  0.00     0.173 A 
ATOM    101  C   UNL A   1      42.683  33.364  34.924  1.00  0.00     0.173 A 
ATOM    102  F   UNL A   1      41.515  30.518  32.983  1.00  0.00    -0.203 F 
ATOM    103  C   UNL A   1      41.503  30.884  35.295  1.00  0.00     0.198 A 
ATOM    104  C   UNL A   1      42.451  32.885  36.209  1.00  0.00     0.198 A 
ATOM    105  F   UNL A   1      43.270  34.563  34.783  1.00  0.00    -0.203 F 
ATOM    106  F   UNL A   1      40.923  29.688  35.476  1.00  0.00    -0.200 F 
ATOM    107  C   UNL A   1      41.843  31.656  36.395  1.00  0.00     0.200 A 
ATOM    108  F   UNL A   1      42.826  33.615  37.269  1.00  0.00    -0.200 F 
ATOM    109  F   UNL A   1      41.601  31.207  37.635  1.00  0.00    -0.200 F 
ENDBRANCH  76  99
ENDBRANCH  50  51
ENDBRANCH  43  45
ENDBRANCH  42  43
ENDBRANCH  41  42
ENDBRANCH  40  41
ENDBRANCH  39  40
ENDBRANCH  38  39
ENDBRANCH  37  38
ENDBRANCH  36  37
ENDBRANCH   1  36
TORSDOF 25
ENDMDL
MODEL 2
REMARK VINA RESULT:     -10.1      1.569      2.174
REMARK SMILES Cc1c(-c2nn(-c3ccccc3)cc2/C=N/O)nnn1-c1ccc(C(=O)OCCOCCOCCOCCOC(=O)c2ccc(-c3c4nc(c(-c5c(F)c(F)c(F)c(F)c5F)c5ccc([nH]5)c(-c5c(F)c(F)c(F)c(F)c5F)c5nc(c(-c6c(F)c(F)c(F)c(F)c6F)c6ccc3[nH]6)C=C5)C=C4)cc2)cc1
REMARK SMILES IDX 32 1 31 2 30 3 29 4 28 5 27 6 25 7 26 8 24 9 21 10 22 11
REMARK SMILES IDX 106 12 23 13 105 14 20 15 1 16 2 17 3 18 18 19 19 20 4 21
REMARK SMILES IDX 5 22 14 23 6 24 13 25 15 26 16 27 17 28 7 30 8 31 12 32 9 33
REMARK SMILES IDX 11 34 10 35 33 36 34 37 35 38 36 39 37 40 38 41 39 42 40 43
REMARK SMILES IDX 41 44 42 45 43 46 104 47 44 48 103 49 45 50 46 51 47 52
REMARK SMILES IDX 97 53 48 54 102 55 96 56 98 57 49 58 101 59 95 60 94 61
REMARK SMILES IDX 50 63 82 64 62 65 81 66 63 67 66 68 80 69 99 70 64 71 65 72
REMARK SMILES IDX 79 74 100 75 67 76 51 77 52 78 60 79 53 80 54 81 58 82 61 83
REMARK SMILES IDX 55 84 56 85 59 86 57 87 83 88 84 89 92 90 85 91 86 92 90 93
REMARK SMILES IDX 93 94 87 95 88 96 91 97 89 98 68 99 69 100 77 101 70 102
REMARK SMILES IDX 71 103 75 104 78 105 72 106 73 107 76 108 74 109
REMARK H PARENT 17 29 98 62 66 73
REMARK Flexibility Score: inf
ROOT
ATOM      1  C   UNL A   1      42.630  19.989  26.723  1.00  0.00     0.188 C 
ENDROOT
BRANCH   1   2
ATOM      2  C   UNL A   1      41.125  20.148  27.038  1.00  0.00     0.188 C 
BRANCH   2   3
ATOM      3  O   UNL A   1      40.281  19.851  25.944  1.00  0.00    -0.376 OA
BRANCH   3   4
ATOM      4  C   UNL A   1      39.075  20.556  25.768  1.00  0.00     0.202 C 
BRANCH   4   5
ATOM      5  C   UNL A   1      37.918  19.874  25.027  1.00  0.00     0.261 C 
BRANCH   5   6
ATOM      6  O   UNL A   1      36.793  20.702  24.705  1.00  0.00    -0.460 OA
BRANCH   6   7
ATOM      7  C   UNL A   1      35.575  20.133  24.835  1.00  0.00     0.338 C 
ATOM      8  O   UNL A   1      35.310  18.949  24.742  1.00  0.00    -0.246 OA
BRANCH   7   9
ATOM      9  C   UNL A   1      34.617  21.166  25.292  1.00  0.00     0.060 A 
ATOM     10  C   UNL A   1      32.866  23.232  25.900  1.00  0.00     0.067 A 
ATOM     11  C   UNL A   1      32.435  22.200  25.063  1.00  0.00     0.029 A 
ATOM     12  C   UNL A   1      34.109  23.161  26.546  1.00  0.00     0.029 A 
ATOM     13  C   UNL A   1      33.331  21.186  24.729  1.00  0.00     0.018 A 
ATOM     14  C   UNL A   1      34.982  22.113  26.254  1.00  0.00     0.018 A 
BRANCH  10  15
ATOM     15  N   UNL A   1      32.097  24.413  25.974  1.00  0.00    -0.217 N 
ATOM     16  C   UNL A   1      33.328  25.841  24.245  1.00  0.00     0.069 C 
ATOM     17  C   UNL A   1      32.318  25.602  25.304  1.00  0.00     0.071 A 
ATOM     18  C   UNL A   1      31.299  26.415  25.760  1.00  0.00     0.137 A 
ATOM     19  N   UNL A   1      30.457  25.708  26.566  1.00  0.00    -0.128 NA
ATOM     20  N   UNL A   1      30.910  24.458  26.626  1.00  0.00    -0.061 NA
BRANCH  18  21
ATOM     21  C   UNL A   1      31.083  27.821  25.430  1.00  0.00     0.124 A 
ATOM     22  N   UNL A   1      30.129  28.228  24.582  1.00  0.00    -0.165 NA
ATOM     23  C   UNL A   1      31.930  28.876  25.843  1.00  0.00     0.044 A 
ATOM     24  N   UNL A   1      30.426  29.525  24.347  1.00  0.00    -0.240 N 
ATOM     25  C   UNL A   1      31.512  29.947  25.077  1.00  0.00     0.125 A 
BRANCH  23  26
ATOM     26  C   UNL A   1      33.009  28.918  26.797  1.00  0.00     0.166 C 
ATOM     27  N   UNL A   1      34.222  29.095  26.393  1.00  0.00    -0.097 NA
BRANCH  27  28
ATOM     28  O   UNL A   1      35.091  29.047  27.487  1.00  0.00    -0.411 OA
ATOM     29  H   UNL A   1      35.453  28.228  27.762  1.00  0.00     0.330 HD
ENDBRANCH  27  28
ENDBRANCH  23  26
BRANCH  24  30
ATOM     30  C   UNL A   1      29.691  30.294  23.418  1.00  0.00     0.065 A 
ATOM     31  C   UNL A   1      29.037  31.454  23.849  1.00  0.00     0.028 A 
ATOM     32  C   UNL A   1      29.627  29.900  22.075  1.00  0.00     0.028 A 
ATOM     33  C   UNL A   1      28.355  32.243  22.921  1.00  0.00     0.002 A 
ATOM     34  C   UNL A   1      28.892  30.665  21.167  1.00  0.00     0.002 A 
ATOM     35  C   UNL A   1      28.273  31.843  21.586  1.00  0.00     0.000 A 
ENDBRANCH  24  30
ENDBRANCH  18  21
ENDBRANCH  10  15
ENDBRANCH   7   9
ENDBRANCH   6   7
ENDBRANCH   5   6
ENDBRANCH   4   5
ENDBRANCH   3   4
ENDBRANCH   2   3
ENDBRANCH   1   2
BRANCH   1  36
ATOM     36  O   UNL A   1      43.313  20.911  25.881  1.00  0.00    -0.377 OA
BRANCH  36  37
ATOM     37  C   UNL A   1      43.790  22.153  26.384  1.00  0.00     0.188 C 
BRANCH  37  38
ATOM     38  C   UNL A   1      43.220  23.517  25.911  1.00  0.00     0.188 C 
BRANCH  38  39
ATOM     39  O   UNL A   1      44.071  24.634  26.083  1.00  0.00    -0.376 OA
BRANCH  39  40
ATOM     40  C   UNL A   1      43.691  25.801  26.776  1.00  0.00     0.202 C 
BRANCH  40  41
ATOM     41  C   UNL A   1      42.514  25.767  27.740  1.00  0.00     0.261 C 
BRANCH  41  42
ATOM     42  O   UNL A   1      41.302  25.325  27.168  1.00  0.00    -0.460 OA
BRANCH  42  43
ATOM     43  C   UNL A   1      40.426  24.827  28.058  1.00  0.00     0.338 C 
ATOM     44  O   UNL A   1      40.172  23.659  28.283  1.00  0.00    -0.246 OA
BRANCH  43  45
ATOM     45  C   UNL A   1      39.683  25.955  28.613  1.00  0.00     0.060 A 
ATOM     46  C   UNL A   1      39.281  26.930  27.703  1.00  0.00     0.016 A 
ATOM     47  C   UNL A   1      39.774  26.190  29.995  1.00  0.00     0.016 A 
ATOM     48  C   UNL A   1      39.225  28.224  28.152  1.00  0.00     0.010 A 
ATOM     49  C   UNL A   1      39.744  27.483  30.435  1.00  0.00     0.010 A 
ATOM     50  C   UNL A   1      39.562  28.484  29.488  1.00  0.00    -0.014 A 
BRANCH  50  51
ATOM     51  C   UNL A   1      39.589  29.862  29.907  1.00  0.00     0.031 A 
ATOM     52  C   UNL A   1      40.945  30.426  29.788  1.00  0.00     0.074 A 
ATOM     53  C   UNL A   1      38.478  30.522  30.281  1.00  0.00     0.049 A 
ATOM     54  N   UNL A   1      41.732  30.771  30.748  1.00  0.00    -0.248 NA
ATOM     55  C   UNL A   1      41.583  30.403  28.459  1.00  0.00     0.031 C 
ATOM     56  C   UNL A   1      37.086  30.083  30.152  1.00  0.00     0.029 A 
ATOM     57  N   UNL A   1      38.359  31.785  30.773  1.00  0.00    -0.354 N 
ATOM     58  C   UNL A   1      42.884  31.230  30.123  1.00  0.00     0.074 A 
ATOM     59  C   UNL A   1      42.823  30.787  28.758  1.00  0.00     0.031 C 
ATOM     60  C   UNL A   1      36.266  31.144  30.338  1.00  0.00     0.029 A 
ATOM     61  C   UNL A   1      37.067  32.293  30.726  1.00  0.00     0.049 A 
ATOM     62  H   UNL A   1      39.121  32.293  31.132  1.00  0.00     0.167 HD
ATOM     63  C   UNL A   1      43.599  32.233  30.693  1.00  0.00     0.037 A 
ATOM     64  C   UNL A   1      36.718  33.588  30.922  1.00  0.00     0.037 A 
ATOM     65  C   UNL A   1      43.307  32.334  32.101  1.00  0.00     0.049 A 
ATOM     66  C   UNL A   1      37.837  34.240  31.642  1.00  0.00     0.074 A 
ATOM     67  C   UNL A   1      43.492  31.534  33.209  1.00  0.00     0.029 A 
ATOM     68  N   UNL A   1      42.337  33.244  32.426  1.00  0.00    -0.354 N 
ATOM     69  N   UNL A   1      38.152  33.988  32.881  1.00  0.00    -0.248 NA
ATOM     70  C   UNL A   1      38.863  34.927  30.868  1.00  0.00     0.031 C 
ATOM     71  C   UNL A   1      42.394  31.814  34.079  1.00  0.00     0.029 A 
ATOM     72  C   UNL A   1      41.606  32.808  33.497  1.00  0.00     0.049 A 
ATOM     73  H   UNL A   1      42.186  34.095  31.954  1.00  0.00     0.167 HD
ATOM     74  C   UNL A   1      39.533  34.066  32.910  1.00  0.00     0.074 A 
ATOM     75  C   UNL A   1      39.892  34.814  31.711  1.00  0.00     0.031 C 
ATOM     76  C   UNL A   1      40.249  33.249  33.737  1.00  0.00     0.037 A 
BRANCH  63  77
ATOM     77  C   UNL A   1      44.114  33.412  29.895  1.00  0.00     0.064 A 
ATOM     78  C   UNL A   1      43.198  34.173  29.144  1.00  0.00     0.173 A 
ATOM     79  C   UNL A   1      45.478  33.627  29.583  1.00  0.00     0.173 A 
ATOM     80  F   UNL A   1      41.878  34.015  29.321  1.00  0.00    -0.203 F 
ATOM     81  C   UNL A   1      43.616  35.039  28.129  1.00  0.00     0.198 A 
ATOM     82  C   UNL A   1      45.892  34.534  28.611  1.00  0.00     0.198 A 
ATOM     83  F   UNL A   1      46.463  32.892  30.108  1.00  0.00    -0.203 F 
ATOM     84  F   UNL A   1      42.704  35.649  27.359  1.00  0.00    -0.200 F 
ATOM     85  C   UNL A   1      44.961  35.220  27.864  1.00  0.00     0.200 A 
ATOM     86  F   UNL A   1      47.201  34.665  28.350  1.00  0.00    -0.200 F 
ATOM     87  F   UNL A   1      45.361  36.006  26.857  1.00  0.00    -0.200 F 
ENDBRANCH  63  77
BRANCH  64  88
ATOM     88  C   UNL A   1      35.636  34.382  30.292  1.00  0.00     0.064 A 
ATOM     89  C   UNL A   1      35.481  34.398  28.894  1.00  0.00     0.173 A 
ATOM     90  C   UNL A   1      34.559  34.880  31.048  1.00  0.00     0.173 A 
ATOM     91  F   UNL A   1      36.445  33.907  28.102  1.00  0.00    -0.203 F 
ATOM     92  C   UNL A   1      34.299  34.839  28.293  1.00  0.00     0.198 A 
ATOM     93  C   UNL A   1      33.382  35.328  30.444  1.00  0.00     0.198 A 
ATOM     94  F   UNL A   1      34.583  34.845  32.387  1.00  0.00    -0.203 F 
ATOM     95  F   UNL A   1      34.158  34.762  26.962  1.00  0.00    -0.200 F 
ATOM     96  C   UNL A   1      33.244  35.289  29.069  1.00  0.00     0.200 A 
ATOM     97  F   UNL A   1      32.355  35.727  31.208  1.00  0.00    -0.200 F 
ATOM     98  F   UNL A   1      32.085  35.641  28.498  1.00  0.00    -0.200 F 
ENDBRANCH  64  88
BRANCH  76  99
ATOM     99  C   UNL A   1      39.507  32.645  34.898  1.00  0.00     0.064 A 
ATOM    100  C   UNL A   1      38.950  31.354  34.914  1.00  0.00     0.173 A 
ATOM    101  C   UNL A   1      39.393  33.409  36.069  1.00  0.00     0.173 A 
ATOM    102  F   UNL A   1      39.100  30.523  33.874  1.00  0.00    -0.203 F 
ATOM    103  C   UNL A   1      38.253  30.883  36.026  1.00  0.00     0.198 A 
ATOM    104  C   UNL A   1      38.737  32.919  37.192  1.00  0.00     0.198 A 
ATOM    105  F   UNL A   1      39.947  34.630  36.131  1.00  0.00    -0.203 F 
ATOM    106  F   UNL A   1      37.691  29.666  36.002  1.00  0.00    -0.200 F 
ATOM    107  C   UNL A   1      38.149  31.666  37.165  1.00  0.00     0.200 A 
ATOM    108  F   UNL A   1      38.682  33.661  38.307  1.00  0.00    -0.200 F 
ATOM    109  F   UNL A   1      37.498  31.205  38.242  1.00  0.00    -0.200 F 
ENDBRANCH  76  99
ENDBRANCH  50  51
ENDBRANCH  43  45
ENDBRANCH  42  43
ENDBRANCH  41  42
ENDBRANCH  40  41
ENDBRANCH  39  40
ENDBRANCH  38  39
ENDBRANCH  37  38
ENDBRANCH  36  37
ENDBRANCH   1  36
TORSDOF 25
ENDMDL
MODEL 3
REMARK VINA RESULT:      -9.7      4.838      9.934
REMARK SMILES Cc1c(-c2nn(-c3ccccc3)cc2/C=N/O)nnn1-c1ccc(C(=O)OCCOCCOCCOCCOC(=O)c2ccc(-c3c4nc(c(-c5c(F)c(F)c(F)c(F)c5F)c5ccc([nH]5)c(-c5c(F)c(F)c(F)c(F)c5F)c5nc(c(-c6c(F)c(F)c(F)c(F)c6F)c6ccc3[nH]6)C=C5)C=C4)cc2)cc1
REMARK SMILES IDX 32 1 31 2 30 3 29 4 28 5 27 6 25 7 26 8 24 9 21 10 22 11
REMARK SMILES IDX 106 12 23 13 105 14 20 15 1 16 2 17 3 18 18 19 19 20 4 21
REMARK SMILES IDX 5 22 14 23 6 24 13 25 15 26 16 27 17 28 7 30 8 31 12 32 9 33
REMARK SMILES IDX 11 34 10 35 33 36 34 37 35 38 36 39 37 40 38 41 39 42 40 43
REMARK SMILES IDX 41 44 42 45 43 46 104 47 44 48 103 49 45 50 46 51 47 52
REMARK SMILES IDX 97 53 48 54 102 55 96 56 98 57 49 58 101 59 95 60 94 61
REMARK SMILES IDX 50 63 82 64 62 65 81 66 63 67 66 68 80 69 99 70 64 71 65 72
REMARK SMILES IDX 79 74 100 75 67 76 51 77 52 78 60 79 53 80 54 81 58 82 61 83
REMARK SMILES IDX 55 84 56 85 59 86 57 87 83 88 84 89 92 90 85 91 86 92 90 93
REMARK SMILES IDX 93 94 87 95 88 96 91 97 89 98 68 99 69 100 77 101 70 102
REMARK SMILES IDX 71 103 75 104 78 105 72 106 73 107 76 108 74 109
REMARK H PARENT 17 29 98 62 66 73
REMARK Flexibility Score: inf
ROOT
ATOM      1  C   UNL A   1      33.813  34.618  31.341  1.00  0.00     0.188 C 
ENDROOT
BRANCH   1   2
ATOM      2  C   UNL A   1      33.649  35.461  30.056  1.00  0.00     0.188 C 
BRANCH   2   3
ATOM      3  O   UNL A   1      32.787  34.879  29.099  1.00  0.00    -0.376 OA
BRANCH   3   4
ATOM      4  C   UNL A   1      33.316  34.120  28.038  1.00  0.00     0.202 C 
BRANCH   4   5
ATOM      5  C   UNL A   1      33.523  32.613  28.232  1.00  0.00     0.261 C 
BRANCH   5   6
ATOM      6  O   UNL A   1      34.346  31.954  27.263  1.00  0.00    -0.460 OA
BRANCH   6   7
ATOM      7  C   UNL A   1      34.774  30.714  27.586  1.00  0.00     0.338 C 
ATOM      8  O   UNL A   1      35.621  30.426  28.410  1.00  0.00    -0.246 OA
BRANCH   7   9
ATOM      9  C   UNL A   1      33.912  29.723  26.899  1.00  0.00     0.060 A 
ATOM     10  C   UNL A   1      32.483  27.669  25.698  1.00  0.00     0.067 A 
ATOM     11  C   UNL A   1      32.355  27.872  27.075  1.00  0.00     0.029 A 
ATOM     12  C   UNL A   1      33.204  28.572  24.903  1.00  0.00     0.029 A 
ATOM     13  C   UNL A   1      33.105  28.880  27.678  1.00  0.00     0.018 A 
ATOM     14  C   UNL A   1      33.908  29.615  25.505  1.00  0.00     0.018 A 
BRANCH  10  15
ATOM     15  N   UNL A   1      32.000  26.465  25.141  1.00  0.00    -0.217 N 
ATOM     16  C   UNL A   1      34.176  25.123  25.053  1.00  0.00     0.069 C 
ATOM     17  C   UNL A   1      32.736  25.350  24.785  1.00  0.00     0.071 A 
ATOM     18  C   UNL A   1      31.781  24.493  24.274  1.00  0.00     0.137 A 
ATOM     19  N   UNL A   1      30.536  25.029  24.426  1.00  0.00    -0.128 NA
ATOM     20  N   UNL A   1      30.675  26.204  25.034  1.00  0.00    -0.061 NA
BRANCH  18  21
ATOM     21  C   UNL A   1      32.009  23.179  23.680  1.00  0.00     0.124 A 
ATOM     22  N   UNL A   1      31.852  22.037  24.363  1.00  0.00    -0.165 NA
ATOM     23  C   UNL A   1      32.550  22.969  22.390  1.00  0.00     0.044 A 
ATOM     24  N   UNL A   1      32.403  21.095  23.568  1.00  0.00    -0.240 N 
ATOM     25  C   UNL A   1      32.846  21.620  22.377  1.00  0.00     0.125 A 
BRANCH  23  26
ATOM     26  C   UNL A   1      32.799  23.877  21.298  1.00  0.00     0.166 C 
ATOM     27  N   UNL A   1      32.964  25.136  21.531  1.00  0.00    -0.097 NA
BRANCH  27  28
ATOM     28  O   UNL A   1      33.137  25.816  20.322  1.00  0.00    -0.411 OA
ATOM     29  H   UNL A   1      32.988  26.739  20.278  1.00  0.00     0.330 HD
ENDBRANCH  27  28
ENDBRANCH  23  26
BRANCH  24  30
ATOM     30  C   UNL A   1      32.514  19.750  23.984  1.00  0.00     0.065 A 
ATOM     31  C   UNL A   1      32.566  18.734  23.023  1.00  0.00     0.028 A 
ATOM     32  C   UNL A   1      32.580  19.441  25.349  1.00  0.00     0.028 A 
ATOM     33  C   UNL A   1      32.730  17.409  23.433  1.00  0.00     0.002 A 
ATOM     34  C   UNL A   1      32.684  18.107  25.749  1.00  0.00     0.002 A 
ATOM     35  C   UNL A   1      32.777  17.096  24.792  1.00  0.00     0.000 A 
ENDBRANCH  24  30
ENDBRANCH  18  21
ENDBRANCH  10  15
ENDBRANCH   7   9
ENDBRANCH   6   7
ENDBRANCH   5   6
ENDBRANCH   4   5
ENDBRANCH   3   4
ENDBRANCH   2   3
ENDBRANCH   1   2
BRANCH   1  36
ATOM     36  O   UNL A   1      35.072  34.069  31.712  1.00  0.00    -0.377 OA
BRANCH  36  37
ATOM     37  C   UNL A   1      35.912  34.727  32.653  1.00  0.00     0.188 C 
BRANCH  37  38
ATOM     38  C   UNL A   1      37.223  34.090  33.186  1.00  0.00     0.188 C 
BRANCH  38  39
ATOM     39  O   UNL A   1      37.062  33.053  34.136  1.00  0.00    -0.376 OA
BRANCH  39  40
ATOM     40  C   UNL A   1      37.860  31.891  34.159  1.00  0.00     0.202 C 
BRANCH  40  41
ATOM     41  C   UNL A   1      38.522  31.394  32.883  1.00  0.00     0.261 C 
BRANCH  41  42
ATOM     42  O   UNL A   1      37.699  31.445  31.738  1.00  0.00    -0.460 OA
BRANCH  42  43
ATOM     43  C   UNL A   1      37.175  30.257  31.387  1.00  0.00     0.338 C 
ATOM     44  O   UNL A   1      36.136  29.757  31.771  1.00  0.00    -0.246 OA
BRANCH  43  45
ATOM     45  C   UNL A   1      38.171  29.569  30.570  1.00  0.00     0.060 A 
ATOM     46  C   UNL A   1      38.576  28.317  31.025  1.00  0.00     0.016 A 
ATOM     47  C   UNL A   1      38.923  30.334  29.663  1.00  0.00     0.016 A 
ATOM     48  C   UNL A   1      39.871  27.946  30.773  1.00  0.00     0.010 A 
ATOM     49  C   UNL A   1      40.222  29.974  29.435  1.00  0.00     0.010 A 
ATOM     50  C   UNL A   1      40.698  28.835  30.072  1.00  0.00    -0.014 A 
BRANCH  50  51
ATOM     51  C   UNL A   1      42.080  28.462  29.906  1.00  0.00     0.031 A 
ATOM     52  C   UNL A   1      42.211  27.295  29.018  1.00  0.00     0.074 A 
ATOM     53  C   UNL A   1      43.086  29.168  30.455  1.00  0.00     0.049 A 
ATOM     54  N   UNL A   1      42.581  26.104  29.346  1.00  0.00    -0.248 NA
ATOM     55  C   UNL A   1      41.664  27.406  27.654  1.00  0.00     0.031 C 
ATOM     56  C   UNL A   1      43.013  30.478  31.108  1.00  0.00     0.029 A 
ATOM     57  N   UNL A   1      44.419  28.897  30.454  1.00  0.00    -0.354 N 
ATOM     58  C   UNL A   1      42.533  25.375  28.166  1.00  0.00     0.074 A 
ATOM     59  C   UNL A   1      41.772  26.149  27.225  1.00  0.00     0.031 C 
ATOM     60  C   UNL A   1      44.263  30.983  31.231  1.00  0.00     0.029 A 
ATOM     61  C   UNL A   1      45.219  29.983  30.788  1.00  0.00     0.049 A 
ATOM     62  H   UNL A   1      44.785  28.010  30.237  1.00  0.00     0.167 HD
ATOM     63  C   UNL A   1      43.426  24.372  27.964  1.00  0.00     0.037 A 
ATOM     64  C   UNL A   1      46.563  30.053  30.631  1.00  0.00     0.037 A 
ATOM     65  C   UNL A   1      43.975  23.915  29.216  1.00  0.00     0.049 A 
ATOM     66  C   UNL A   1      47.065  28.664  30.506  1.00  0.00     0.074 A 
ATOM     67  C   UNL A   1      43.483  23.289  30.342  1.00  0.00     0.029 A 
ATOM     68  N   UNL A   1      45.162  24.498  29.573  1.00  0.00    -0.354 N 
ATOM     69  N   UNL A   1      47.081  27.805  31.485  1.00  0.00    -0.248 NA
ATOM     70  C   UNL A   1      47.221  28.093  29.175  1.00  0.00     0.031 C 
ATOM     71  C   UNL A   1      44.267  23.775  31.432  1.00  0.00     0.029 A 
ATOM     72  C   UNL A   1      45.239  24.641  30.931  1.00  0.00     0.049 A 
ATOM     73  H   UNL A   1      45.863  24.774  28.940  1.00  0.00     0.167 HD
ATOM     74  C   UNL A   1      46.795  26.591  30.884  1.00  0.00     0.074 A 
ATOM     75  C   UNL A   1      47.070  26.799  29.467  1.00  0.00     0.031 C 
ATOM     76  C   UNL A   1      46.072  25.648  31.555  1.00  0.00     0.037 A 
BRANCH  63  77
ATOM     77  C   UNL A   1      44.167  24.203  26.654  1.00  0.00     0.064 A 
ATOM     78  C   UNL A   1      44.205  22.930  26.056  1.00  0.00     0.173 A 
ATOM     79  C   UNL A   1      45.094  25.141  26.138  1.00  0.00     0.173 A 
ATOM     80  F   UNL A   1      43.406  21.948  26.499  1.00  0.00    -0.203 F 
ATOM     81  C   UNL A   1      45.131  22.610  25.058  1.00  0.00     0.198 A 
ATOM     82  C   UNL A   1      45.975  24.837  25.105  1.00  0.00     0.198 A 
ATOM     83  F   UNL A   1      45.278  26.349  26.683  1.00  0.00    -0.203 F 
ATOM     84  F   UNL A   1      45.211  21.352  24.606  1.00  0.00    -0.200 F 
ATOM     85  C   UNL A   1      46.013  23.563  24.583  1.00  0.00     0.200 A 
ATOM     86  F   UNL A   1      46.843  25.767  24.685  1.00  0.00    -0.200 F 
ATOM     87  F   UNL A   1      46.936  23.244  23.667  1.00  0.00    -0.200 F 
ENDBRANCH  63  77
BRANCH  64  88
ATOM     88  C   UNL A   1      47.415  31.217  30.290  1.00  0.00     0.064 A 
ATOM     89  C   UNL A   1      47.321  31.828  29.026  1.00  0.00     0.173 A 
ATOM     90  C   UNL A   1      48.101  31.939  31.284  1.00  0.00     0.173 A 
ATOM     91  F   UNL A   1      46.652  31.224  28.033  1.00  0.00    -0.203 F 
ATOM     92  C   UNL A   1      47.838  33.104  28.787  1.00  0.00     0.198 A 
ATOM     93  C   UNL A   1      48.624  33.211  31.040  1.00  0.00     0.198 A 
ATOM     94  F   UNL A   1      48.187  31.473  32.537  1.00  0.00    -0.203 F 
ATOM     95  F   UNL A   1      47.657  33.685  27.593  1.00  0.00    -0.200 F 
ATOM     96  C   UNL A   1      48.476  33.801  29.800  1.00  0.00     0.200 A 
ATOM     97  F   UNL A   1      49.207  33.890  32.039  1.00  0.00    -0.200 F 
ATOM     98  F   UNL A   1      48.906  35.053  29.594  1.00  0.00    -0.200 F 
ENDBRANCH  64  88
BRANCH  76  99
ATOM     99  C   UNL A   1      46.021  25.774  33.053  1.00  0.00     0.064 A 
ATOM    100  C   UNL A   1      47.018  25.321  33.934  1.00  0.00     0.173 A 
ATOM    101  C   UNL A   1      44.915  26.429  33.615  1.00  0.00     0.173 A 
ATOM    102  F   UNL A   1      48.151  24.774  33.473  1.00  0.00    -0.203 F 
ATOM    103  C   UNL A   1      46.876  25.454  35.315  1.00  0.00     0.198 A 
ATOM    104  C   UNL A   1      44.798  26.602  34.990  1.00  0.00     0.198 A 
ATOM    105  F   UNL A   1      43.954  26.928  32.822  1.00  0.00    -0.203 F 
ATOM    106  F   UNL A   1      47.819  24.974  36.138  1.00  0.00    -0.200 F 
ATOM    107  C   UNL A   1      45.767  26.098  35.841  1.00  0.00     0.200 A 
ATOM    108  F   UNL A   1      43.747  27.267  35.490  1.00  0.00    -0.200 F 
ATOM    109  F   UNL A   1      45.640  26.247  37.167  1.00  0.00    -0.200 F 
ENDBRANCH  76  99
ENDBRANCH  50  51
ENDBRANCH  43  45
ENDBRANCH  42  43
ENDBRANCH  41  42
ENDBRANCH  40  41
ENDBRANCH  39  40
ENDBRANCH  38  39
ENDBRANCH  37  38
ENDBRANCH  36  37
ENDBRANCH   1  36
TORSDOF 25
ENDMDL
