MODEL 1
REMARK VINA RESULT:     -11.6      0.000      0.000
REMARK SMILES O=C(C[C@@H]1C(=O)NCC[N@@H+]1Cc1ccc(F)c(F)c1)OCCOCCOCCOCCOC(=O)c1ccc(-c2c3nc(c(-c4c(F)c(F)c(F)c(F)c4F)c4ccc([nH]4)c(-c4c(F)c(F)c(F)c(F)c4F)c4nc(c(-c5c(F)c(F)c(F)c(F)c5F)c5ccc2[nH]5)C=C4)C=C3)cc1
REMARK SMILES IDX 25 1 24 2 23 3 22 4 21 5 20 6 2 7 1 8 3 9 4 10 5 11 10 12
REMARK SMILES IDX 6 13 7 14 9 15 8 17 11 19 12 20 13 21 19 22 14 23 17 24
REMARK SMILES IDX 15 25 18 26 16 27 26 28 27 29 28 30 29 31 30 32 31 33 32 34
REMARK SMILES IDX 33 35 34 36 35 37 36 38 97 39 37 40 96 41 38 42 39 43 40 44
REMARK SMILES IDX 90 45 41 46 95 47 89 48 91 49 42 50 94 51 88 52 87 53 43 55
REMARK SMILES IDX 75 56 55 57 74 58 56 59 59 60 73 61 92 62 57 63 58 64 72 66
REMARK SMILES IDX 93 67 60 68 44 69 45 70 53 71 46 72 47 73 51 74 54 75 48 76
REMARK SMILES IDX 49 77 52 78 50 79 76 80 77 81 85 82 78 83 79 84 83 85 86 86
REMARK SMILES IDX 80 87 81 88 84 89 82 90 61 91 62 92 70 93 63 94 64 95 68 96
REMARK SMILES IDX 71 97 65 98 66 99 69 100 67 101
REMARK H PARENT 10 16 7 18 91 54 59 65
REMARK Flexibility Score: inf
ROOT
ATOM      1  C   UNL A   1      43.728  19.018  25.175  1.00  0.00     0.188 C 
ENDROOT
BRANCH   1   2
ATOM      2  C   UNL A   1      42.676  18.910  26.286  1.00  0.00     0.188 C 
BRANCH   2   3
ATOM      3  O   UNL A   1      41.990  20.093  26.671  1.00  0.00    -0.376 OA
BRANCH   3   4
ATOM      4  C   UNL A   1      40.663  20.511  26.419  1.00  0.00     0.202 C 
BRANCH   4   5
ATOM      5  C   UNL A   1      40.197  21.965  26.492  1.00  0.00     0.261 C 
BRANCH   5   6
ATOM      6  O   UNL A   1      38.797  22.195  26.429  1.00  0.00    -0.463 OA
BRANCH   6   7
ATOM      7  C   UNL A   1      38.241  23.345  26.009  1.00  0.00     0.312 C 
ATOM      8  O   UNL A   1      38.667  24.415  26.433  1.00  0.00    -0.252 OA
BRANCH   7   9
ATOM      9  C   UNL A   1      36.965  23.281  25.210  1.00  0.00     0.198 C 
BRANCH   9  10
ATOM     10  C   UNL A   1      35.807  22.440  25.679  1.00  0.00     0.285 C 
ATOM     11  C   UNL A   1      35.808  20.964  25.273  1.00  0.00     0.279 C 
ATOM     12  N   UNL A   1      34.502  23.135  25.550  1.00  0.00    -0.319 N 
ATOM     13  O   UNL A   1      36.814  20.350  24.929  1.00  0.00    -0.268 OA
ATOM     14  N   UNL A   1      34.665  20.261  25.531  1.00  0.00    -0.345 N 
ATOM     15  C   UNL A   1      33.426  22.358  26.160  1.00  0.00     0.284 C 
ATOM     16  H   UNL A   1      34.619  23.976  26.115  1.00  0.00     0.349 HD
ATOM     17  C   UNL A   1      33.379  20.873  25.772  1.00  0.00     0.177 C 
ATOM     18  H   UNL A   1      34.721  19.279  25.553  1.00  0.00     0.163 HD
BRANCH  12  19
ATOM     19  C   UNL A   1      34.191  23.886  24.321  1.00  0.00     0.299 C 
BRANCH  19  20
ATOM     20  C   UNL A   1      33.773  25.328  24.518  1.00  0.00     0.009 A 
ATOM     21  C   UNL A   1      33.459  26.120  23.410  1.00  0.00     0.013 A 
ATOM     22  C   UNL A   1      33.795  25.938  25.786  1.00  0.00     0.052 A 
ATOM     23  C   UNL A   1      33.393  27.507  23.528  1.00  0.00     0.043 A 
ATOM     24  C   UNL A   1      33.725  27.323  25.901  1.00  0.00     0.159 A 
ATOM     25  C   UNL A   1      33.570  28.105  24.769  1.00  0.00     0.158 A 
ATOM     26  F   UNL A   1      33.847  27.890  27.110  1.00  0.00    -0.204 F 
ATOM     27  F   UNL A   1      33.574  29.441  24.861  1.00  0.00    -0.204 F 
ENDBRANCH  19  20
ENDBRANCH  12  19
ENDBRANCH   9  10
ENDBRANCH   7   9
ENDBRANCH   6   7
ENDBRANCH   5   6
ENDBRANCH   4   5
ENDBRANCH   3   4
ENDBRANCH   2   3
ENDBRANCH   1   2
BRANCH   1  28
ATOM     28  O   UNL A   1      44.799  18.086  25.230  1.00  0.00    -0.377 OA
BRANCH  28  29
ATOM     29  C   UNL A   1      46.053  18.661  25.549  1.00  0.00     0.188 C 
BRANCH  29  30
ATOM     30  C   UNL A   1      46.461  19.824  24.618  1.00  0.00     0.188 C 
BRANCH  30  31
ATOM     31  O   UNL A   1      46.518  21.155  25.097  1.00  0.00    -0.376 OA
BRANCH  31  32
ATOM     32  C   UNL A   1      45.635  22.168  24.646  1.00  0.00     0.202 C 
BRANCH  32  33
ATOM     33  C   UNL A   1      44.515  22.829  25.475  1.00  0.00     0.261 C 
BRANCH  33  34
ATOM     34  O   UNL A   1      43.854  23.972  24.934  1.00  0.00    -0.460 OA
BRANCH  34  35
ATOM     35  C   UNL A   1      44.419  25.164  25.206  1.00  0.00     0.338 C 
ATOM     36  O   UNL A   1      45.407  25.654  24.680  1.00  0.00    -0.246 OA
BRANCH  35  37
ATOM     37  C   UNL A   1      43.500  25.912  26.089  1.00  0.00     0.060 A 
ATOM     38  C   UNL A   1      43.836  27.236  26.409  1.00  0.00     0.016 A 
ATOM     39  C   UNL A   1      42.310  25.348  26.558  1.00  0.00     0.016 A 
ATOM     40  C   UNL A   1      43.010  27.986  27.234  1.00  0.00     0.010 A 
ATOM     41  C   UNL A   1      41.503  26.086  27.429  1.00  0.00     0.010 A 
ATOM     42  C   UNL A   1      41.881  27.388  27.805  1.00  0.00    -0.014 A 
BRANCH  42  43
ATOM     43  C   UNL A   1      41.295  28.043  28.994  1.00  0.00     0.031 A 
ATOM     44  C   UNL A   1      42.046  27.922  30.291  1.00  0.00     0.074 A 
ATOM     45  C   UNL A   1      40.205  28.821  28.900  1.00  0.00     0.049 A 
ATOM     46  N   UNL A   1      41.798  28.477  31.448  1.00  0.00    -0.248 NA
ATOM     47  C   UNL A   1      43.246  27.069  30.277  1.00  0.00     0.031 C 
ATOM     48  C   UNL A   1      39.443  29.056  27.677  1.00  0.00     0.029 A 
ATOM     49  N   UNL A   1      39.564  29.572  29.852  1.00  0.00    -0.354 N 
ATOM     50  C   UNL A   1      42.810  28.040  32.294  1.00  0.00     0.074 A 
ATOM     51  C   UNL A   1      43.652  27.147  31.534  1.00  0.00     0.031 C 
ATOM     52  C   UNL A   1      38.438  29.906  27.952  1.00  0.00     0.029 A 
ATOM     53  C   UNL A   1      38.473  30.251  29.373  1.00  0.00     0.049 A 
ATOM     54  H   UNL A   1      39.859  29.619  30.790  1.00  0.00     0.167 HD
ATOM     55  C   UNL A   1      43.022  28.371  33.587  1.00  0.00     0.037 A 
ATOM     56  C   UNL A   1      37.602  31.055  30.015  1.00  0.00     0.037 A 
ATOM     57  C   UNL A   1      42.179  29.265  34.332  1.00  0.00     0.049 A 
ATOM     58  C   UNL A   1      37.807  31.343  31.480  1.00  0.00     0.074 A 
ATOM     59  C   UNL A   1      42.314  29.679  35.644  1.00  0.00     0.029 A 
ATOM     60  N   UNL A   1      41.038  29.876  33.830  1.00  0.00    -0.354 N 
ATOM     61  N   UNL A   1      38.777  30.948  32.270  1.00  0.00    -0.248 NA
ATOM     62  C   UNL A   1      36.804  32.187  32.144  1.00  0.00     0.031 C 
ATOM     63  C   UNL A   1      41.216  30.481  35.959  1.00  0.00     0.029 A 
ATOM     64  C   UNL A   1      40.438  30.632  34.821  1.00  0.00     0.049 A 
ATOM     65  H   UNL A   1      40.706  29.784  32.908  1.00  0.00     0.167 HD
ATOM     66  C   UNL A   1      38.519  31.514  33.512  1.00  0.00     0.074 A 
ATOM     67  C   UNL A   1      37.301  32.285  33.372  1.00  0.00     0.031 C 
ATOM     68  C   UNL A   1      39.232  31.407  34.660  1.00  0.00     0.037 A 
BRANCH  55  69
ATOM     69  C   UNL A   1      44.192  27.745  34.289  1.00  0.00     0.064 A 
ATOM     70  C   UNL A   1      45.465  28.327  34.195  1.00  0.00     0.173 A 
ATOM     71  C   UNL A   1      44.070  26.549  35.010  1.00  0.00     0.173 A 
ATOM     72  F   UNL A   1      45.639  29.470  33.516  1.00  0.00    -0.203 F 
ATOM     73  C   UNL A   1      46.574  27.725  34.781  1.00  0.00     0.198 A 
ATOM     74  C   UNL A   1      45.175  25.967  35.626  1.00  0.00     0.198 A 
ATOM     75  F   UNL A   1      42.872  25.960  35.146  1.00  0.00    -0.203 F 
ATOM     76  F   UNL A   1      47.787  28.280  34.646  1.00  0.00    -0.200 F 
ATOM     77  C   UNL A   1      46.428  26.549  35.502  1.00  0.00     0.200 A 
ATOM     78  F   UNL A   1      45.027  24.846  36.345  1.00  0.00    -0.200 F 
ATOM     79  F   UNL A   1      47.495  25.978  36.078  1.00  0.00    -0.200 F 
ENDBRANCH  55  69
BRANCH  56  80
ATOM     80  C   UNL A   1      36.476  31.657  29.254  1.00  0.00     0.064 A 
ATOM     81  C   UNL A   1      36.432  33.035  28.991  1.00  0.00     0.173 A 
ATOM     82  C   UNL A   1      35.394  30.878  28.827  1.00  0.00     0.173 A 
ATOM     83  F   UNL A   1      37.445  33.825  29.376  1.00  0.00    -0.203 F 
ATOM     84  C   UNL A   1      35.331  33.614  28.363  1.00  0.00     0.198 A 
ATOM     85  C   UNL A   1      34.304  31.455  28.174  1.00  0.00     0.198 A 
ATOM     86  F   UNL A   1      35.399  29.553  29.033  1.00  0.00    -0.203 F 
ATOM     87  F   UNL A   1      35.294  34.939  28.168  1.00  0.00    -0.200 F 
ATOM     88  C   UNL A   1      34.268  32.825  27.955  1.00  0.00     0.200 A 
ATOM     89  F   UNL A   1      33.288  30.684  27.762  1.00  0.00    -0.200 F 
ATOM     90  F   UNL A   1      33.208  33.381  27.354  1.00  0.00    -0.200 F 
ENDBRANCH  56  80
BRANCH  68  91
ATOM     91  C   UNL A   1      38.751  32.156  35.870  1.00  0.00     0.064 A 
ATOM     92  C   UNL A   1      39.120  33.498  36.061  1.00  0.00     0.173 A 
ATOM     93  C   UNL A   1      38.062  31.510  36.905  1.00  0.00     0.173 A 
ATOM     94  F   UNL A   1      39.793  34.156  35.104  1.00  0.00    -0.203 F 
ATOM     95  C   UNL A   1      38.849  34.152  37.258  1.00  0.00     0.198 A 
ATOM     96  C   UNL A   1      37.765  32.179  38.090  1.00  0.00     0.198 A 
ATOM     97  F   UNL A   1      37.680  30.232  36.768  1.00  0.00    -0.203 F 
ATOM     98  F   UNL A   1      39.265  35.414  37.439  1.00  0.00    -0.200 F 
ATOM     99  C   UNL A   1      38.172  33.493  38.272  1.00  0.00     0.200 A 
ATOM    100  F   UNL A   1      37.094  31.547  39.064  1.00  0.00    -0.200 F 
ATOM    101  F   UNL A   1      37.920  34.120  39.429  1.00  0.00    -0.200 F 
ENDBRANCH  68  91
ENDBRANCH  42  43
ENDBRANCH  35  37
ENDBRANCH  34  35
ENDBRANCH  33  34
ENDBRANCH  32  33
ENDBRANCH  31  32
ENDBRANCH  30  31
ENDBRANCH  29  30
ENDBRANCH  28  29
ENDBRANCH   1  28
TORSDOF 23
ENDMDL
MODEL 2
REMARK VINA RESULT:     -10.8      1.345      7.317
REMARK SMILES O=C(C[C@@H]1C(=O)NCC[N@@H+]1Cc1ccc(F)c(F)c1)OCCOCCOCCOCCOC(=O)c1ccc(-c2c3nc(c(-c4c(F)c(F)c(F)c(F)c4F)c4ccc([nH]4)c(-c4c(F)c(F)c(F)c(F)c4F)c4nc(c(-c5c(F)c(F)c(F)c(F)c5F)c5ccc2[nH]5)C=C4)C=C3)cc1
REMARK SMILES IDX 25 1 24 2 23 3 22 4 21 5 20 6 2 7 1 8 3 9 4 10 5 11 10 12
REMARK SMILES IDX 6 13 7 14 9 15 8 17 11 19 12 20 13 21 19 22 14 23 17 24
REMARK SMILES IDX 15 25 18 26 16 27 26 28 27 29 28 30 29 31 30 32 31 33 32 34
REMARK SMILES IDX 33 35 34 36 35 37 36 38 97 39 37 40 96 41 38 42 39 43 40 44
REMARK SMILES IDX 90 45 41 46 95 47 89 48 91 49 42 50 94 51 88 52 87 53 43 55
REMARK SMILES IDX 75 56 55 57 74 58 56 59 59 60 73 61 92 62 57 63 58 64 72 66
REMARK SMILES IDX 93 67 60 68 44 69 45 70 53 71 46 72 47 73 51 74 54 75 48 76
REMARK SMILES IDX 49 77 52 78 50 79 76 80 77 81 85 82 78 83 79 84 83 85 86 86
REMARK SMILES IDX 80 87 81 88 84 89 82 90 61 91 62 92 70 93 63 94 64 95 68 96
REMARK SMILES IDX 71 97 65 98 66 99 69 100 67 101
REMARK H PARENT 10 16 7 18 91 54 59 65
REMARK Flexibility Score: inf
ROOT
ATOM      1  C   UNL A   1      41.643  19.676  27.114  1.00  0.00     0.188 C 
ENDROOT
BRANCH   1   2
ATOM      2  C   UNL A   1      41.231  21.143  26.931  1.00  0.00     0.188 C 
BRANCH   2   3
ATOM      3  O   UNL A   1      39.848  21.433  26.788  1.00  0.00    -0.376 OA
BRANCH   3   4
ATOM      4  C   UNL A   1      39.146  22.090  25.750  1.00  0.00     0.202 C 
BRANCH   4   5
ATOM      5  C   UNL A   1      37.677  22.499  25.839  1.00  0.00     0.261 C 
BRANCH   5   6
ATOM      6  O   UNL A   1      37.073  22.984  24.648  1.00  0.00    -0.463 OA
BRANCH   6   7
ATOM      7  C   UNL A   1      35.820  22.682  24.262  1.00  0.00     0.312 C 
ATOM      8  O   UNL A   1      35.423  21.524  24.347  1.00  0.00    -0.252 OA
BRANCH   7   9
ATOM      9  C   UNL A   1      35.021  23.724  23.523  1.00  0.00     0.198 C 
BRANCH   9  10
ATOM     10  C   UNL A   1      33.521  23.625  23.441  1.00  0.00     0.285 C 
ATOM     11  C   UNL A   1      32.820  24.506  22.403  1.00  0.00     0.279 C 
ATOM     12  N   UNL A   1      32.874  23.577  24.776  1.00  0.00    -0.319 N 
ATOM     13  O   UNL A   1      33.381  24.986  21.422  1.00  0.00    -0.268 OA
ATOM     14  N   UNL A   1      31.456  24.558  22.470  1.00  0.00    -0.345 N 
ATOM     15  C   UNL A   1      31.440  23.319  24.660  1.00  0.00     0.284 C 
ATOM     16  H   UNL A   1      33.289  22.755  25.215  1.00  0.00     0.349 HD
ATOM     17  C   UNL A   1      30.692  24.189  23.639  1.00  0.00     0.177 C 
ATOM     18  H   UNL A   1      30.965  24.866  21.675  1.00  0.00     0.163 HD
BRANCH  12  19
ATOM     19  C   UNL A   1      33.320  24.493  25.839  1.00  0.00     0.299 C 
BRANCH  19  20
ATOM     20  C   UNL A   1      32.932  25.946  25.665  1.00  0.00     0.009 A 
ATOM     21  C   UNL A   1      31.785  26.441  26.289  1.00  0.00     0.013 A 
ATOM     22  C   UNL A   1      33.638  26.800  24.796  1.00  0.00     0.052 A 
ATOM     23  C   UNL A   1      31.232  27.658  25.893  1.00  0.00     0.043 A 
ATOM     24  C   UNL A   1      33.086  28.016  24.405  1.00  0.00     0.159 A 
ATOM     25  C   UNL A   1      31.865  28.420  24.919  1.00  0.00     0.158 A 
ATOM     26  F   UNL A   1      33.727  28.769  23.501  1.00  0.00    -0.204 F 
ATOM     27  F   UNL A   1      31.290  29.552  24.494  1.00  0.00    -0.204 F 
ENDBRANCH  19  20
ENDBRANCH  12  19
ENDBRANCH   9  10
ENDBRANCH   7   9
ENDBRANCH   6   7
ENDBRANCH   5   6
ENDBRANCH   4   5
ENDBRANCH   3   4
ENDBRANCH   2   3
ENDBRANCH   1   2
BRANCH   1  28
ATOM     28  O   UNL A   1      42.081  18.996  25.946  1.00  0.00    -0.377 OA
BRANCH  28  29
ATOM     29  C   UNL A   1      43.355  18.390  26.071  1.00  0.00     0.188 C 
BRANCH  29  30
ATOM     30  C   UNL A   1      44.363  18.828  24.984  1.00  0.00     0.188 C 
BRANCH  30  31
ATOM     31  O   UNL A   1      44.172  20.025  24.254  1.00  0.00    -0.376 OA
BRANCH  31  32
ATOM     32  C   UNL A   1      44.504  21.300  24.777  1.00  0.00     0.202 C 
BRANCH  32  33
ATOM     33  C   UNL A   1      44.002  22.657  24.245  1.00  0.00     0.261 C 
BRANCH  33  34
ATOM     34  O   UNL A   1      43.401  23.568  25.164  1.00  0.00    -0.460 OA
BRANCH  34  35
ATOM     35  C   UNL A   1      44.021  24.755  25.308  1.00  0.00     0.338 C 
ATOM     36  O   UNL A   1      44.934  25.203  24.631  1.00  0.00    -0.246 OA
BRANCH  35  37
ATOM     37  C   UNL A   1      43.249  25.556  26.281  1.00  0.00     0.060 A 
ATOM     38  C   UNL A   1      43.482  26.939  26.320  1.00  0.00     0.016 A 
ATOM     39  C   UNL A   1      42.281  24.977  27.108  1.00  0.00     0.016 A 
ATOM     40  C   UNL A   1      42.787  27.740  27.213  1.00  0.00     0.010 A 
ATOM     41  C   UNL A   1      41.616  25.776  28.042  1.00  0.00     0.010 A 
ATOM     42  C   UNL A   1      41.907  27.149  28.127  1.00  0.00    -0.014 A 
BRANCH  42  43
ATOM     43  C   UNL A   1      41.540  27.937  29.322  1.00  0.00     0.031 A 
ATOM     44  C   UNL A   1      40.268  28.737  29.261  1.00  0.00     0.074 A 
ATOM     45  C   UNL A   1      42.242  27.849  30.463  1.00  0.00     0.049 A 
ATOM     46  N   UNL A   1      39.678  29.433  30.197  1.00  0.00    -0.248 NA
ATOM     47  C   UNL A   1      39.558  28.742  27.970  1.00  0.00     0.031 C 
ATOM     48  C   UNL A   1      43.450  27.052  30.646  1.00  0.00     0.029 A 
ATOM     49  N   UNL A   1      42.022  28.425  31.689  1.00  0.00    -0.354 N 
ATOM     50  C   UNL A   1      38.532  29.953  29.608  1.00  0.00     0.074 A 
ATOM     51  C   UNL A   1      38.526  29.530  28.227  1.00  0.00     0.031 C 
ATOM     52  C   UNL A   1      43.864  27.181  31.919  1.00  0.00     0.029 A 
ATOM     53  C   UNL A   1      42.962  28.090  32.629  1.00  0.00     0.049 A 
ATOM     54  H   UNL A   1      41.261  29.021  31.876  1.00  0.00     0.167 HD
ATOM     55  C   UNL A   1      37.566  30.706  30.177  1.00  0.00     0.037 A 
ATOM     56  C   UNL A   1      43.081  28.479  33.914  1.00  0.00     0.037 A 
ATOM     57  C   UNL A   1      37.581  31.119  31.554  1.00  0.00     0.049 A 
ATOM     58  C   UNL A   1      42.037  29.391  34.507  1.00  0.00     0.074 A 
ATOM     59  C   UNL A   1      36.642  31.871  32.235  1.00  0.00     0.029 A 
ATOM     60  N   UNL A   1      38.592  30.820  32.456  1.00  0.00    -0.354 N 
ATOM     61  N   UNL A   1      40.944  29.861  33.955  1.00  0.00    -0.248 NA
ATOM     62  C   UNL A   1      42.236  29.823  35.897  1.00  0.00     0.031 C 
ATOM     63  C   UNL A   1      37.119  32.090  33.528  1.00  0.00     0.029 A 
ATOM     64  C   UNL A   1      38.318  31.408  33.678  1.00  0.00     0.049 A 
ATOM     65  H   UNL A   1      39.385  30.272  32.256  1.00  0.00     0.167 HD
ATOM     66  C   UNL A   1      40.314  30.621  34.932  1.00  0.00     0.074 A 
ATOM     67  C   UNL A   1      41.143  30.545  36.116  1.00  0.00     0.031 C 
ATOM     68  C   UNL A   1      39.149  31.311  34.853  1.00  0.00     0.037 A 
BRANCH  55  69
ATOM     69  C   UNL A   1      36.426  31.158  29.311  1.00  0.00     0.064 A 
ATOM     70  C   UNL A   1      35.450  30.241  28.895  1.00  0.00     0.173 A 
ATOM     71  C   UNL A   1      36.323  32.479  28.851  1.00  0.00     0.173 A 
ATOM     72  F   UNL A   1      35.501  28.965  29.304  1.00  0.00    -0.203 F 
ATOM     73  C   UNL A   1      34.424  30.625  28.037  1.00  0.00     0.198 A 
ATOM     74  C   UNL A   1      35.276  32.869  28.020  1.00  0.00     0.198 A 
ATOM     75  F   UNL A   1      37.221  33.400  29.232  1.00  0.00    -0.203 F 
ATOM     76  F   UNL A   1      33.524  29.721  27.623  1.00  0.00    -0.200 F 
ATOM     77  C   UNL A   1      34.334  31.940  27.605  1.00  0.00     0.200 A 
ATOM     78  F   UNL A   1      35.174  34.146  27.626  1.00  0.00    -0.200 F 
ATOM     79  F   UNL A   1      33.336  32.311  26.790  1.00  0.00    -0.200 F 
ENDBRANCH  55  69
BRANCH  56  80
ATOM     80  C   UNL A   1      44.225  27.979  34.721  1.00  0.00     0.064 A 
ATOM     81  C   UNL A   1      44.107  26.823  35.510  1.00  0.00     0.173 A 
ATOM     82  C   UNL A   1      45.438  28.677  34.766  1.00  0.00     0.173 A 
ATOM     83  F   UNL A   1      42.968  26.117  35.499  1.00  0.00    -0.203 F 
ATOM     84  C   UNL A   1      45.146  26.408  36.339  1.00  0.00     0.198 A 
ATOM     85  C   UNL A   1      46.488  28.245  35.577  1.00  0.00     0.198 A 
ATOM     86  F   UNL A   1      45.609  29.773  34.013  1.00  0.00    -0.203 F 
ATOM     87  F   UNL A   1      44.989  25.329  37.117  1.00  0.00    -0.200 F 
ATOM     88  C   UNL A   1      46.336  27.119  36.373  1.00  0.00     0.200 A 
ATOM     89  F   UNL A   1      47.643  28.923  35.590  1.00  0.00    -0.200 F 
ATOM     90  F   UNL A   1      47.334  26.722  37.173  1.00  0.00    -0.200 F 
ENDBRANCH  56  80
BRANCH  68  91
ATOM     91  C   UNL A   1      38.662  32.030  36.079  1.00  0.00     0.064 A 
ATOM     92  C   UNL A   1      39.019  33.371  36.297  1.00  0.00     0.173 A 
ATOM     93  C   UNL A   1      37.979  31.357  37.100  1.00  0.00     0.173 A 
ATOM     94  F   UNL A   1      39.686  34.055  35.355  1.00  0.00    -0.203 F 
ATOM     95  C   UNL A   1      38.742  33.998  37.507  1.00  0.00     0.198 A 
ATOM     96  C   UNL A   1      37.675  31.999  38.298  1.00  0.00     0.198 A 
ATOM     97  F   UNL A   1      37.608  30.079  36.936  1.00  0.00    -0.203 F 
ATOM     98  F   UNL A   1      39.147  35.259  37.715  1.00  0.00    -0.200 F 
ATOM     99  C   UNL A   1      38.071  33.311  38.507  1.00  0.00     0.200 A 
ATOM    100  F   UNL A   1      37.010  31.340  39.258  1.00  0.00    -0.200 F 
ATOM    101  F   UNL A   1      37.814  33.913  39.677  1.00  0.00    -0.200 F 
ENDBRANCH  68  91
ENDBRANCH  42  43
ENDBRANCH  35  37
ENDBRANCH  34  35
ENDBRANCH  33  34
ENDBRANCH  32  33
ENDBRANCH  31  32
ENDBRANCH  30  31
ENDBRANCH  29  30
ENDBRANCH  28  29
ENDBRANCH   1  28
TORSDOF 23
ENDMDL
MODEL 3
REMARK VINA RESULT:     -10.5      5.639     11.438
REMARK SMILES O=C(C[C@@H]1C(=O)NCC[N@@H+]1Cc1ccc(F)c(F)c1)OCCOCCOCCOCCOC(=O)c1ccc(-c2c3nc(c(-c4c(F)c(F)c(F)c(F)c4F)c4ccc([nH]4)c(-c4c(F)c(F)c(F)c(F)c4F)c4nc(c(-c5c(F)c(F)c(F)c(F)c5F)c5ccc2[nH]5)C=C4)C=C3)cc1
REMARK SMILES IDX 25 1 24 2 23 3 22 4 21 5 20 6 2 7 1 8 3 9 4 10 5 11 10 12
REMARK SMILES IDX 6 13 7 14 9 15 8 17 11 19 12 20 13 21 19 22 14 23 17 24
REMARK SMILES IDX 15 25 18 26 16 27 26 28 27 29 28 30 29 31 30 32 31 33 32 34
REMARK SMILES IDX 33 35 34 36 35 37 36 38 97 39 37 40 96 41 38 42 39 43 40 44
REMARK SMILES IDX 90 45 41 46 95 47 89 48 91 49 42 50 94 51 88 52 87 53 43 55
REMARK SMILES IDX 75 56 55 57 74 58 56 59 59 60 73 61 92 62 57 63 58 64 72 66
REMARK SMILES IDX 93 67 60 68 44 69 45 70 53 71 46 72 47 73 51 74 54 75 48 76
REMARK SMILES IDX 49 77 52 78 50 79 76 80 77 81 85 82 78 83 79 84 83 85 86 86
REMARK SMILES IDX 80 87 81 88 84 89 82 90 61 91 62 92 70 93 63 94 64 95 68 96
REMARK SMILES IDX 71 97 65 98 66 99 69 100 67 101
REMARK H PARENT 10 16 7 18 91 54 59 65
REMARK Flexibility Score: inf
ROOT
ATOM      1  C   UNL A   1      34.594  34.811  28.180  1.00  0.00     0.188 C 
ENDROOT
BRANCH   1   2
ATOM      2  C   UNL A   1      34.096  33.416  28.579  1.00  0.00     0.188 C 
BRANCH   2   3
ATOM      3  O   UNL A   1      34.252  32.360  27.642  1.00  0.00    -0.376 OA
BRANCH   3   4
ATOM      4  C   UNL A   1      33.853  31.004  27.707  1.00  0.00     0.202 C 
BRANCH   4   5
ATOM      5  C   UNL A   1      33.360  30.201  26.504  1.00  0.00     0.261 C 
BRANCH   5   6
ATOM      6  O   UNL A   1      33.162  28.808  26.699  1.00  0.00    -0.463 OA
BRANCH   6   7
ATOM      7  C   UNL A   1      33.460  27.870  25.784  1.00  0.00     0.312 C 
ATOM      8  O   UNL A   1      33.841  28.211  24.668  1.00  0.00    -0.252 OA
BRANCH   7   9
ATOM      9  C   UNL A   1      33.099  26.436  26.074  1.00  0.00     0.198 C 
BRANCH   9  10
ATOM     10  C   UNL A   1      32.440  25.582  25.023  1.00  0.00     0.285 C 
ATOM     11  C   UNL A   1      30.910  25.580  24.986  1.00  0.00     0.279 C 
ATOM     12  N   UNL A   1      33.083  24.252  24.876  1.00  0.00    -0.319 N 
ATOM     13  O   UNL A   1      30.212  26.463  25.475  1.00  0.00    -0.268 OA
ATOM     14  N   UNL A   1      30.323  24.656  24.167  1.00  0.00    -0.345 N 
ATOM     15  C   UNL A   1      32.525  23.517  23.744  1.00  0.00     0.284 C 
ATOM     16  H   UNL A   1      34.049  24.477  24.638  1.00  0.00     0.349 HD
ATOM     17  C   UNL A   1      30.992  23.476  23.672  1.00  0.00     0.177 C 
ATOM     18  H   UNL A   1      29.388  24.805  23.898  1.00  0.00     0.163 HD
BRANCH  12  19
ATOM     19  C   UNL A   1      33.454  23.482  26.076  1.00  0.00     0.299 C 
BRANCH  19  20
ATOM     20  C   UNL A   1      33.884  22.051  25.834  1.00  0.00     0.009 A 
ATOM     21  C   UNL A   1      35.212  21.768  25.507  1.00  0.00     0.013 A 
ATOM     22  C   UNL A   1      32.956  20.992  25.822  1.00  0.00     0.052 A 
ATOM     23  C   UNL A   1      35.560  20.530  24.969  1.00  0.00     0.043 A 
ATOM     24  C   UNL A   1      33.307  19.757  25.288  1.00  0.00     0.159 A 
ATOM     25  C   UNL A   1      34.593  19.544  24.822  1.00  0.00     0.158 A 
ATOM     26  F   UNL A   1      32.380  18.793  25.194  1.00  0.00    -0.204 F 
ATOM     27  F   UNL A   1      34.922  18.384  24.239  1.00  0.00    -0.204 F 
ENDBRANCH  19  20
ENDBRANCH  12  19
ENDBRANCH   9  10
ENDBRANCH   7   9
ENDBRANCH   6   7
ENDBRANCH   5   6
ENDBRANCH   4   5
ENDBRANCH   3   4
ENDBRANCH   2   3
ENDBRANCH   1   2
BRANCH   1  28
ATOM     28  O   UNL A   1      33.951  35.911  28.806  1.00  0.00    -0.377 OA
BRANCH  28  29
ATOM     29  C   UNL A   1      32.940  35.546  29.727  1.00  0.00     0.188 C 
BRANCH  29  30
ATOM     30  C   UNL A   1      32.969  36.360  31.040  1.00  0.00     0.188 C 
BRANCH  30  31
ATOM     31  O   UNL A   1      34.012  36.186  31.982  1.00  0.00    -0.376 OA
BRANCH  31  32
ATOM     32  C   UNL A   1      34.367  34.917  32.502  1.00  0.00     0.202 C 
BRANCH  32  33
ATOM     33  C   UNL A   1      35.304  33.892  31.833  1.00  0.00     0.261 C 
BRANCH  33  34
ATOM     34  O   UNL A   1      35.267  32.540  32.286  1.00  0.00    -0.460 OA
BRANCH  34  35
ATOM     35  C   UNL A   1      36.324  32.133  33.014  1.00  0.00     0.338 C 
ATOM     36  O   UNL A   1      36.469  32.219  34.224  1.00  0.00    -0.246 OA
BRANCH  35  37
ATOM     37  C   UNL A   1      37.198  31.326  32.137  1.00  0.00     0.060 A 
ATOM     38  C   UNL A   1      38.263  30.634  32.733  1.00  0.00     0.016 A 
ATOM     39  C   UNL A   1      36.957  31.211  30.764  1.00  0.00     0.016 A 
ATOM     40  C   UNL A   1      39.116  29.862  31.958  1.00  0.00     0.010 A 
ATOM     41  C   UNL A   1      37.845  30.474  29.976  1.00  0.00     0.010 A 
ATOM     42  C   UNL A   1      38.953  29.841  30.568  1.00  0.00    -0.014 A 
BRANCH  42  43
ATOM     43  C   UNL A   1      40.106  29.397  29.757  1.00  0.00     0.031 A 
ATOM     44  C   UNL A   1      41.251  30.358  29.598  1.00  0.00     0.074 A 
ATOM     45  C   UNL A   1      40.190  28.143  29.284  1.00  0.00     0.049 A 
ATOM     46  N   UNL A   1      42.410  30.180  29.020  1.00  0.00    -0.248 NA
ATOM     47  C   UNL A   1      41.069  31.698  30.181  1.00  0.00     0.031 C 
ATOM     48  C   UNL A   1      39.165  27.116  29.440  1.00  0.00     0.029 A 
ATOM     49  N   UNL A   1      41.197  27.519  28.593  1.00  0.00    -0.354 N 
ATOM     50  C   UNL A   1      43.090  31.382  29.173  1.00  0.00     0.074 A 
ATOM     51  C   UNL A   1      42.206  32.294  29.860  1.00  0.00     0.031 C 
ATOM     52  C   UNL A   1      39.600  25.980  28.868  1.00  0.00     0.029 A 
ATOM     53  C   UNL A   1      40.922  26.212  28.283  1.00  0.00     0.049 A 
ATOM     54  H   UNL A   1      42.037  27.967  28.343  1.00  0.00     0.167 HD
ATOM     55  C   UNL A   1      44.348  31.688  28.785  1.00  0.00     0.037 A 
ATOM     56  C   UNL A   1      41.656  25.309  27.601  1.00  0.00     0.037 A 
ATOM     57  C   UNL A   1      45.221  30.771  28.105  1.00  0.00     0.049 A 
ATOM     58  C   UNL A   1      43.023  25.699  27.101  1.00  0.00     0.074 A 
ATOM     59  C   UNL A   1      46.520  30.977  27.681  1.00  0.00     0.029 A 
ATOM     60  N   UNL A   1      44.876  29.476  27.742  1.00  0.00    -0.354 N 
ATOM     61  N   UNL A   1      43.671  26.827  27.267  1.00  0.00    -0.248 NA
ATOM     62  C   UNL A   1      43.763  24.695  26.323  1.00  0.00     0.031 C 
ATOM     63  C   UNL A   1      46.937  29.833  26.997  1.00  0.00     0.029 A 
ATOM     64  C   UNL A   1      45.927  28.885  27.064  1.00  0.00     0.049 A 
ATOM     65  H   UNL A   1      44.014  29.044  27.939  1.00  0.00     0.167 HD
ATOM     66  C   UNL A   1      44.900  26.662  26.641  1.00  0.00     0.074 A 
ATOM     67  C   UNL A   1      44.911  25.321  26.094  1.00  0.00     0.031 C 
ATOM     68  C   UNL A   1      45.927  27.542  26.537  1.00  0.00     0.037 A 
BRANCH  55  69
ATOM     69  C   UNL A   1      44.848  33.077  29.058  1.00  0.00     0.064 A 
ATOM     70  C   UNL A   1      45.512  33.364  30.261  1.00  0.00     0.173 A 
ATOM     71  C   UNL A   1      44.631  34.133  28.161  1.00  0.00     0.173 A 
ATOM     72  F   UNL A   1      45.744  32.391  31.154  1.00  0.00    -0.203 F 
ATOM     73  C   UNL A   1      45.922  34.659  30.562  1.00  0.00     0.198 A 
ATOM     74  C   UNL A   1      45.074  35.421  28.450  1.00  0.00     0.198 A 
ATOM     75  F   UNL A   1      44.017  33.910  26.989  1.00  0.00    -0.203 F 
ATOM     76  F   UNL A   1      46.521  34.915  31.734  1.00  0.00    -0.200 F 
ATOM     77  C   UNL A   1      45.709  35.685  29.654  1.00  0.00     0.200 A 
ATOM     78  F   UNL A   1      44.893  36.406  27.559  1.00  0.00    -0.200 F 
ATOM     79  F   UNL A   1      46.119  36.929  29.940  1.00  0.00    -0.200 F 
ENDBRANCH  55  69
BRANCH  56  80
ATOM     80  C   UNL A   1      41.106  23.946  27.382  1.00  0.00     0.064 A 
ATOM     81  C   UNL A   1      41.686  22.822  27.995  1.00  0.00     0.173 A 
ATOM     82  C   UNL A   1      40.031  23.730  26.512  1.00  0.00     0.173 A 
ATOM     83  F   UNL A   1      42.715  22.975  28.840  1.00  0.00    -0.203 F 
ATOM     84  C   UNL A   1      41.232  21.535  27.715  1.00  0.00     0.198 A 
ATOM     85  C   UNL A   1      39.560  22.442  26.253  1.00  0.00     0.198 A 
ATOM     86  F   UNL A   1      39.428  24.771  25.921  1.00  0.00    -0.203 F 
ATOM     87  F   UNL A   1      41.835  20.478  28.276  1.00  0.00    -0.200 F 
ATOM     88  C   UNL A   1      40.171  21.345  26.844  1.00  0.00     0.200 A 
ATOM     89  F   UNL A   1      38.520  22.266  25.428  1.00  0.00    -0.200 F 
ATOM     90  F   UNL A   1      39.737  20.108  26.572  1.00  0.00    -0.200 F 
ENDBRANCH  56  80
BRANCH  68  91
ATOM     91  C   UNL A   1      47.176  27.100  25.831  1.00  0.00     0.064 A 
ATOM     92  C   UNL A   1      48.173  26.401  26.533  1.00  0.00     0.173 A 
ATOM     93  C   UNL A   1      47.454  27.496  24.516  1.00  0.00     0.173 A 
ATOM     94  F   UNL A   1      47.960  26.011  27.800  1.00  0.00    -0.203 F 
ATOM     95  C   UNL A   1      49.412  26.149  25.957  1.00  0.00     0.198 A 
ATOM     96  C   UNL A   1      48.686  27.213  23.931  1.00  0.00     0.198 A 
ATOM     97  F   UNL A   1      46.532  28.157  23.801  1.00  0.00    -0.203 F 
ATOM     98  F   UNL A   1      50.369  25.534  26.668  1.00  0.00    -0.200 F 
ATOM     99  C   UNL A   1      49.669  26.556  24.656  1.00  0.00     0.200 A 
ATOM    100  F   UNL A   1      48.928  27.590  22.668  1.00  0.00    -0.200 F 
ATOM    101  F   UNL A   1      50.868  26.322  24.105  1.00  0.00    -0.200 F 
ENDBRANCH  68  91
ENDBRANCH  42  43
ENDBRANCH  35  37
ENDBRANCH  34  35
ENDBRANCH  33  34
ENDBRANCH  32  33
ENDBRANCH  31  32
ENDBRANCH  30  31
ENDBRANCH  29  30
ENDBRANCH  28  29
ENDBRANCH   1  28
TORSDOF 23
ENDMDL
