MODEL 1
REMARK VINA RESULT:      -7.8      0.000      0.000
REMARK SMILES O=C(CSc1nc(O)cc(=O)[nH]1)Nc1cccc(C(=O)OCCOCCOCCOCCOC(=O)c2ccc(-c3c4nc(c(-c5c(F)c(F)c(F)c(F)c5F)c5ccc([nH]5)c(-c5c(F)c(F)c(F)c(F)c5F)c5nc(c(-c6c(F)c(F)c(F)c(F)c6F)c6ccc3[nH]6)C=C5)C=C4)cc2)c1
REMARK SMILES IDX 25 1 24 2 23 3 22 4 21 5 19 6 20 7 18 8 14 9 15 10 99 11
REMARK SMILES IDX 16 12 17 13 13 14 1 15 2 16 3 18 4 19 5 20 6 21 12 22 7 23
REMARK SMILES IDX 10 24 9 26 11 27 8 28 26 30 27 31 28 32 29 33 30 34 31 35
REMARK SMILES IDX 32 36 33 37 34 38 35 39 36 40 37 41 98 42 38 43 97 44 39 45
REMARK SMILES IDX 40 46 41 47 91 48 42 49 96 50 90 51 92 52 43 53 95 54 89 55
REMARK SMILES IDX 88 56 44 58 76 59 56 60 75 61 57 62 60 63 74 64 93 65 58 66
REMARK SMILES IDX 59 67 73 69 94 70 61 71 45 72 46 73 54 74 47 75 48 76 52 77
REMARK SMILES IDX 55 78 49 79 50 80 53 81 51 82 77 83 78 84 86 85 79 86 80 87
REMARK SMILES IDX 84 88 87 89 81 90 82 91 85 92 83 93 62 94 63 95 71 96 64 97
REMARK SMILES IDX 65 98 69 99 72 100 66 101 67 102 70 103 68 104
REMARK H PARENT 13 17 12 25 8 29 92 57 60 68
REMARK Flexibility Score: inf
ROOT
ATOM      1  C   UNL A   1      44.528  26.987  38.128  1.00  0.00     0.188 C 
ENDROOT
BRANCH   1   2
ATOM      2  O   UNL A   1      43.729  27.892  37.388  1.00  0.00    -0.376 OA
BRANCH   2   3
ATOM      3  C   UNL A   1      43.495  27.642  36.016  1.00  0.00     0.202 C 
BRANCH   3   4
ATOM      4  C   UNL A   1      42.258  28.277  35.368  1.00  0.00     0.261 C 
BRANCH   4   5
ATOM      5  O   UNL A   1      42.368  28.568  33.972  1.00  0.00    -0.460 OA
BRANCH   5   6
ATOM      6  C   UNL A   1      42.499  29.865  33.609  1.00  0.00     0.338 C 
ATOM      7  O   UNL A   1      43.346  30.651  33.989  1.00  0.00    -0.246 OA
BRANCH   6   8
ATOM      8  C   UNL A   1      41.561  30.094  32.485  1.00  0.00     0.062 A 
ATOM      9  C   UNL A   1      39.620  31.226  31.579  1.00  0.00     0.042 A 
ATOM     10  C   UNL A   1      39.651  30.363  30.477  1.00  0.00     0.026 A 
ATOM     11  C   UNL A   1      40.552  31.055  32.600  1.00  0.00     0.041 A 
ATOM     12  C   UNL A   1      40.656  29.395  30.362  1.00  0.00     0.003 A 
ATOM     13  C   UNL A   1      41.629  29.277  31.354  1.00  0.00     0.016 A 
BRANCH   9  14
ATOM     14  N   UNL A   1      38.664  32.263  31.580  1.00  0.00    -0.325 N 
ATOM     15  O   UNL A   1      36.801  31.133  32.408  1.00  0.00    -0.274 OA
ATOM     16  C   UNL A   1      37.360  32.165  32.042  1.00  0.00     0.234 C 
ATOM     17  H   UNL A   1      38.948  33.134  31.220  1.00  0.00     0.169 HD
BRANCH  16  18
ATOM     18  C   UNL A   1      36.586  33.470  32.033  1.00  0.00     0.178 C 
BRANCH  18  19
ATOM     19  S   UNL A   1      34.857  33.321  32.565  1.00  0.00    -0.078 SA
BRANCH  19  20
ATOM     20  C   UNL A   1      34.095  34.524  31.570  1.00  0.00     0.172 A 
ATOM     21  N   UNL A   1      33.744  34.291  30.353  1.00  0.00    -0.189 NA
ATOM     22  N   UNL A   1      33.867  35.689  32.227  1.00  0.00    -0.301 N 
ATOM     23  C   UNL A   1      33.102  35.304  29.705  1.00  0.00     0.218 A 
ATOM     24  C   UNL A   1      33.214  36.724  31.630  1.00  0.00     0.255 A 
ATOM     25  H   UNL A   1      34.179  35.787  33.155  1.00  0.00     0.172 HD
ATOM     26  C   UNL A   1      32.803  36.489  30.241  1.00  0.00     0.139 A 
ATOM     27  O   UNL A   1      32.975  37.779  32.205  1.00  0.00    -0.269 OA
BRANCH  23  28
ATOM     28  O   UNL A   1      32.746  35.038  28.409  1.00  0.00    -0.493 OA
ATOM     29  H   UNL A   1      33.323  34.548  27.856  1.00  0.00     0.295 HD
ENDBRANCH  23  28
ENDBRANCH  19  20
ENDBRANCH  18  19
ENDBRANCH  16  18
ENDBRANCH   9  14
ENDBRANCH   6   8
ENDBRANCH   5   6
ENDBRANCH   4   5
ENDBRANCH   3   4
ENDBRANCH   2   3
ENDBRANCH   1   2
BRANCH   1  30
ATOM     30  C   UNL A   1      44.325  25.504  37.740  1.00  0.00     0.188 C 
BRANCH  30  31
ATOM     31  O   UNL A   1      44.663  24.467  38.654  1.00  0.00    -0.377 OA
BRANCH  31  32
ATOM     32  C   UNL A   1      45.795  23.640  38.407  1.00  0.00     0.188 C 
BRANCH  32  33
ATOM     33  C   UNL A   1      46.209  22.542  39.414  1.00  0.00     0.188 C 
BRANCH  33  34
ATOM     34  O   UNL A   1      45.710  21.251  39.113  1.00  0.00    -0.376 OA
BRANCH  34  35
ATOM     35  C   UNL A   1      46.610  20.161  39.187  1.00  0.00     0.202 C 
BRANCH  35  36
ATOM     36  C   UNL A   1      46.477  19.067  38.117  1.00  0.00     0.261 C 
BRANCH  36  37
ATOM     37  O   UNL A   1      46.896  19.423  36.791  1.00  0.00    -0.460 OA
BRANCH  37  38
ATOM     38  C   UNL A   1      45.939  19.516  35.847  1.00  0.00     0.338 C 
ATOM     39  O   UNL A   1      45.120  18.665  35.536  1.00  0.00    -0.246 OA
BRANCH  38  40
ATOM     40  C   UNL A   1      45.920  20.909  35.362  1.00  0.00     0.060 A 
ATOM     41  C   UNL A   1      44.728  21.642  35.436  1.00  0.00     0.016 A 
ATOM     42  C   UNL A   1      47.077  21.489  34.836  1.00  0.00     0.016 A 
ATOM     43  C   UNL A   1      44.680  22.947  34.946  1.00  0.00     0.010 A 
ATOM     44  C   UNL A   1      47.022  22.790  34.325  1.00  0.00     0.010 A 
ATOM     45  C   UNL A   1      45.814  23.508  34.343  1.00  0.00    -0.014 A 
BRANCH  45  46
ATOM     46  C   UNL A   1      45.675  24.756  33.554  1.00  0.00     0.031 A 
ATOM     47  C   UNL A   1      44.944  24.690  32.240  1.00  0.00     0.074 A 
ATOM     48  C   UNL A   1      46.146  25.929  34.007  1.00  0.00     0.049 A 
ATOM     49  N   UNL A   1      44.705  25.637  31.369  1.00  0.00    -0.248 NA
ATOM     50  C   UNL A   1      44.413  23.372  31.855  1.00  0.00     0.031 C 
ATOM     51  C   UNL A   1      46.835  26.128  35.280  1.00  0.00     0.029 A 
ATOM     52  N   UNL A   1      46.115  27.179  33.440  1.00  0.00    -0.354 N 
ATOM     53  C   UNL A   1      44.001  25.030  30.337  1.00  0.00     0.074 A 
ATOM     54  C   UNL A   1      43.886  23.626  30.669  1.00  0.00     0.031 C 
ATOM     55  C   UNL A   1      47.167  27.426  35.396  1.00  0.00     0.029 A 
ATOM     56  C   UNL A   1      46.743  28.140  34.193  1.00  0.00     0.049 A 
ATOM     57  H   UNL A   1      45.684  27.368  32.575  1.00  0.00     0.167 HD
ATOM     58  C   UNL A   1      43.484  25.594  29.220  1.00  0.00     0.037 A 
ATOM     59  C   UNL A   1      46.964  29.443  33.927  1.00  0.00     0.037 A 
ATOM     60  C   UNL A   1      43.605  26.990  28.890  1.00  0.00     0.049 A 
ATOM     61  C   UNL A   1      46.445  30.032  32.638  1.00  0.00     0.074 A 
ATOM     62  C   UNL A   1      43.109  27.662  27.788  1.00  0.00     0.029 A 
ATOM     63  N   UNL A   1      44.280  27.926  29.659  1.00  0.00    -0.354 N 
ATOM     64  N   UNL A   1      45.757  29.459  31.679  1.00  0.00    -0.248 NA
ATOM     65  C   UNL A   1      46.727  31.455  32.401  1.00  0.00     0.031 C 
ATOM     66  C   UNL A   1      43.538  28.992  27.858  1.00  0.00     0.029 A 
ATOM     67  C   UNL A   1      44.238  29.166  29.041  1.00  0.00     0.049 A 
ATOM     68  H   UNL A   1      44.725  27.738  30.518  1.00  0.00     0.167 HD
ATOM     69  C   UNL A   1      45.493  30.456  30.747  1.00  0.00     0.074 A 
ATOM     70  C   UNL A   1      46.082  31.673  31.264  1.00  0.00     0.031 C 
ATOM     71  C   UNL A   1      44.823  30.372  29.570  1.00  0.00     0.037 A 
BRANCH  58  72
ATOM     72  C   UNL A   1      42.769  24.691  28.255  1.00  0.00     0.064 A 
ATOM     73  C   UNL A   1      41.368  24.647  28.180  1.00  0.00     0.173 A 
ATOM     74  C   UNL A   1      43.496  23.875  27.376  1.00  0.00     0.173 A 
ATOM     75  F   UNL A   1      40.622  25.394  29.009  1.00  0.00    -0.203 F 
ATOM     76  C   UNL A   1      40.724  23.800  27.282  1.00  0.00     0.198 A 
ATOM     77  C   UNL A   1      42.850  23.055  26.455  1.00  0.00     0.198 A 
ATOM     78  F   UNL A   1      44.838  23.878  27.403  1.00  0.00    -0.203 F 
ATOM     79  F   UNL A   1      39.385  23.734  27.265  1.00  0.00    -0.200 F 
ATOM     80  C   UNL A   1      41.466  23.011  26.414  1.00  0.00     0.200 A 
ATOM     81  F   UNL A   1      43.568  22.305  25.609  1.00  0.00    -0.200 F 
ATOM     82  F   UNL A   1      40.844  22.202  25.545  1.00  0.00    -0.200 F 
ENDBRANCH  58  72
BRANCH  59  83
ATOM     83  C   UNL A   1      47.718  30.286  34.895  1.00  0.00     0.064 A 
ATOM     84  C   UNL A   1      47.053  31.047  35.866  1.00  0.00     0.173 A 
ATOM     85  C   UNL A   1      49.117  30.373  34.845  1.00  0.00     0.173 A 
ATOM     86  F   UNL A   1      45.714  31.020  35.936  1.00  0.00    -0.203 F 
ATOM     87  C   UNL A   1      47.756  31.882  36.733  1.00  0.00     0.198 A 
ATOM     88  C   UNL A   1      49.821  31.182  35.734  1.00  0.00     0.198 A 
ATOM     89  F   UNL A   1      49.803  29.670  33.932  1.00  0.00    -0.203 F 
ATOM     90  F   UNL A   1      47.090  32.643  37.612  1.00  0.00    -0.200 F 
ATOM     91  C   UNL A   1      49.139  31.945  36.671  1.00  0.00     0.200 A 
ATOM     92  F   UNL A   1      51.159  31.231  35.677  1.00  0.00    -0.200 F 
ATOM     93  F   UNL A   1      49.815  32.748  37.504  1.00  0.00    -0.200 F 
ENDBRANCH  59  83
BRANCH  71  94
ATOM     94  C   UNL A   1      44.644  31.643  28.785  1.00  0.00     0.064 A 
ATOM     95  C   UNL A   1      43.612  32.552  29.064  1.00  0.00     0.173 A 
ATOM     96  C   UNL A   1      45.535  31.966  27.748  1.00  0.00     0.173 A 
ATOM     97  F   UNL A   1      42.726  32.291  30.036  1.00  0.00    -0.203 F 
ATOM     98  C   UNL A   1      43.455  33.712  28.309  1.00  0.00     0.198 A 
ATOM     99  C   UNL A   1      45.399  33.145  27.022  1.00  0.00     0.198 A 
ATOM    100  F   UNL A   1      46.548  31.140  27.446  1.00  0.00    -0.203 F 
ATOM    101  F   UNL A   1      42.421  34.531  28.551  1.00  0.00    -0.200 F 
ATOM    102  C   UNL A   1      44.351  34.011  27.294  1.00  0.00     0.200 A 
ATOM    103  F   UNL A   1      46.277  33.441  26.055  1.00  0.00    -0.200 F 
ATOM    104  F   UNL A   1      44.199  35.128  26.570  1.00  0.00    -0.200 F 
ENDBRANCH  71  94
ENDBRANCH  45  46
ENDBRANCH  38  40
ENDBRANCH  37  38
ENDBRANCH  36  37
ENDBRANCH  35  36
ENDBRANCH  34  35
ENDBRANCH  33  34
ENDBRANCH  32  33
ENDBRANCH  31  32
ENDBRANCH  30  31
ENDBRANCH   1  30
TORSDOF 25
ENDMDL
MODEL 2
REMARK VINA RESULT:      -7.7      4.510      9.214
REMARK SMILES O=C(CSc1nc(O)cc(=O)[nH]1)Nc1cccc(C(=O)OCCOCCOCCOCCOC(=O)c2ccc(-c3c4nc(c(-c5c(F)c(F)c(F)c(F)c5F)c5ccc([nH]5)c(-c5c(F)c(F)c(F)c(F)c5F)c5nc(c(-c6c(F)c(F)c(F)c(F)c6F)c6ccc3[nH]6)C=C5)C=C4)cc2)c1
REMARK SMILES IDX 25 1 24 2 23 3 22 4 21 5 19 6 20 7 18 8 14 9 15 10 99 11
REMARK SMILES IDX 16 12 17 13 13 14 1 15 2 16 3 18 4 19 5 20 6 21 12 22 7 23
REMARK SMILES IDX 10 24 9 26 11 27 8 28 26 30 27 31 28 32 29 33 30 34 31 35
REMARK SMILES IDX 32 36 33 37 34 38 35 39 36 40 37 41 98 42 38 43 97 44 39 45
REMARK SMILES IDX 40 46 41 47 91 48 42 49 96 50 90 51 92 52 43 53 95 54 89 55
REMARK SMILES IDX 88 56 44 58 76 59 56 60 75 61 57 62 60 63 74 64 93 65 58 66
REMARK SMILES IDX 59 67 73 69 94 70 61 71 45 72 46 73 54 74 47 75 48 76 52 77
REMARK SMILES IDX 55 78 49 79 50 80 53 81 51 82 77 83 78 84 86 85 79 86 80 87
REMARK SMILES IDX 84 88 87 89 81 90 82 91 85 92 83 93 62 94 63 95 71 96 64 97
REMARK SMILES IDX 65 98 69 99 72 100 66 101 67 102 70 103 68 104
REMARK H PARENT 13 17 12 25 8 29 92 57 60 68
REMARK Flexibility Score: inf
ROOT
ATOM      1  C   UNL A   1      42.024  27.597  26.302  1.00  0.00     0.188 C 
ENDROOT
BRANCH   1   2
ATOM      2  O   UNL A   1      42.022  28.551  27.349  1.00  0.00    -0.376 OA
BRANCH   2   3
ATOM      3  C   UNL A   1      40.911  28.615  28.221  1.00  0.00     0.202 C 
BRANCH   3   4
ATOM      4  C   UNL A   1      39.521  28.817  27.604  1.00  0.00     0.261 C 
BRANCH   4   5
ATOM      5  O   UNL A   1      38.420  28.337  28.380  1.00  0.00    -0.460 OA
BRANCH   5   6
ATOM      6  C   UNL A   1      37.472  29.229  28.746  1.00  0.00     0.338 C 
ATOM      7  O   UNL A   1      36.625  29.733  28.033  1.00  0.00    -0.246 OA
BRANCH   6   8
ATOM      8  C   UNL A   1      37.503  29.309  30.225  1.00  0.00     0.062 A 
ATOM      9  C   UNL A   1      37.074  30.548  32.263  1.00  0.00     0.042 A 
ATOM     10  C   UNL A   1      37.775  29.574  32.984  1.00  0.00     0.026 A 
ATOM     11  C   UNL A   1      36.982  30.431  30.877  1.00  0.00     0.041 A 
ATOM     12  C   UNL A   1      38.305  28.453  32.333  1.00  0.00     0.003 A 
ATOM     13  C   UNL A   1      38.146  28.306  30.956  1.00  0.00     0.016 A 
BRANCH   9  14
ATOM     14  N   UNL A   1      36.454  31.588  32.986  1.00  0.00    -0.325 N 
ATOM     15  O   UNL A   1      37.408  33.455  31.965  1.00  0.00    -0.274 OA
ATOM     16  C   UNL A   1      36.613  32.946  32.753  1.00  0.00     0.234 C 
ATOM     17  H   UNL A   1      35.855  31.326  33.722  1.00  0.00     0.169 HD
BRANCH  16  18
ATOM     18  C   UNL A   1      35.733  33.841  33.606  1.00  0.00     0.178 C 
BRANCH  18  19
ATOM     19  S   UNL A   1      33.959  33.719  33.243  1.00  0.00    -0.078 SA
BRANCH  19  20
ATOM     20  C   UNL A   1      33.674  35.236  32.448  1.00  0.00     0.172 A 
ATOM     21  N   UNL A   1      33.964  36.366  32.993  1.00  0.00    -0.189 NA
ATOM     22  N   UNL A   1      33.177  35.092  31.193  1.00  0.00    -0.301 N 
ATOM     23  C   UNL A   1      33.744  37.477  32.234  1.00  0.00     0.218 A 
ATOM     24  C   UNL A   1      32.956  36.168  30.389  1.00  0.00     0.255 A 
ATOM     25  H   UNL A   1      32.972  34.190  30.858  1.00  0.00     0.172 HD
ATOM     26  C   UNL A   1      33.275  37.471  30.985  1.00  0.00     0.139 A 
ATOM     27  O   UNL A   1      32.529  36.067  29.246  1.00  0.00    -0.269 OA
BRANCH  23  28
ATOM     28  O   UNL A   1      34.050  38.669  32.837  1.00  0.00    -0.493 OA
ATOM     29  H   UNL A   1      34.934  38.857  33.081  1.00  0.00     0.295 HD
ENDBRANCH  23  28
ENDBRANCH  19  20
ENDBRANCH  18  19
ENDBRANCH  16  18
ENDBRANCH   9  14
ENDBRANCH   6   8
ENDBRANCH   5   6
ENDBRANCH   4   5
ENDBRANCH   3   4
ENDBRANCH   2   3
ENDBRANCH   1   2
BRANCH   1  30
ATOM     30  C   UNL A   1      42.140  26.133  26.783  1.00  0.00     0.188 C 
BRANCH  30  31
ATOM     31  O   UNL A   1      43.355  25.652  27.346  1.00  0.00    -0.377 OA
BRANCH  31  32
ATOM     32  C   UNL A   1      43.964  24.474  26.829  1.00  0.00     0.188 C 
BRANCH  32  33
ATOM     33  C   UNL A   1      43.936  24.169  25.313  1.00  0.00     0.188 C 
BRANCH  33  34
ATOM     34  O   UNL A   1      45.070  24.631  24.600  1.00  0.00    -0.376 OA
BRANCH  34  35
ATOM     35  C   UNL A   1      46.346  24.401  25.167  1.00  0.00     0.202 C 
BRANCH  35  36
ATOM     36  C   UNL A   1      47.536  25.144  24.542  1.00  0.00     0.261 C 
BRANCH  36  37
ATOM     37  O   UNL A   1      47.458  26.578  24.540  1.00  0.00    -0.460 OA
BRANCH  37  38
ATOM     38  C   UNL A   1      48.327  27.243  25.328  1.00  0.00     0.338 C 
ATOM     39  O   UNL A   1      49.536  27.334  25.185  1.00  0.00    -0.246 OA
BRANCH  38  40
ATOM     40  C   UNL A   1      47.541  28.011  26.314  1.00  0.00     0.060 A 
ATOM     41  C   UNL A   1      48.210  28.672  27.354  1.00  0.00     0.016 A 
ATOM     42  C   UNL A   1      46.150  28.078  26.211  1.00  0.00     0.016 A 
ATOM     43  C   UNL A   1      47.484  29.370  28.317  1.00  0.00     0.010 A 
ATOM     44  C   UNL A   1      45.421  28.760  27.190  1.00  0.00     0.010 A 
ATOM     45  C   UNL A   1      46.083  29.375  28.267  1.00  0.00    -0.014 A 
BRANCH  45  46
ATOM     46  C   UNL A   1      45.315  29.843  29.446  1.00  0.00     0.031 A 
ATOM     47  C   UNL A   1      44.848  31.273  29.471  1.00  0.00     0.074 A 
ATOM     48  C   UNL A   1      45.002  29.011  30.454  1.00  0.00     0.049 A 
ATOM     49  N   UNL A   1      44.175  31.916  30.391  1.00  0.00    -0.248 NA
ATOM     50  C   UNL A   1      45.190  32.090  28.295  1.00  0.00     0.031 C 
ATOM     51  C   UNL A   1      45.362  27.598  30.527  1.00  0.00     0.029 A 
ATOM     52  N   UNL A   1      44.306  29.244  31.615  1.00  0.00    -0.354 N 
ATOM     53  C   UNL A   1      44.017  33.208  29.907  1.00  0.00     0.074 A 
ATOM     54  C   UNL A   1      44.697  33.271  28.632  1.00  0.00     0.031 C 
ATOM     55  C   UNL A   1      44.889  27.087  31.677  1.00  0.00     0.029 A 
ATOM     56  C   UNL A   1      44.221  28.145  32.434  1.00  0.00     0.049 A 
ATOM     57  H   UNL A   1      43.907  30.115  31.839  1.00  0.00     0.167 HD
ATOM     58  C   UNL A   1      43.352  34.246  30.469  1.00  0.00     0.037 A 
ATOM     59  C   UNL A   1      43.680  28.019  33.662  1.00  0.00     0.037 A 
ATOM     60  C   UNL A   1      42.681  34.182  31.740  1.00  0.00     0.049 A 
ATOM     61  C   UNL A   1      43.012  29.211  34.301  1.00  0.00     0.074 A 
ATOM     62  C   UNL A   1      41.972  35.173  32.393  1.00  0.00     0.029 A 
ATOM     63  N   UNL A   1      42.648  33.061  32.558  1.00  0.00    -0.354 N 
ATOM     64  N   UNL A   1      42.842  30.423  33.827  1.00  0.00    -0.248 NA
ATOM     65  C   UNL A   1      42.451  29.013  35.645  1.00  0.00     0.031 C 
ATOM     66  C   UNL A   1      41.562  34.674  33.633  1.00  0.00     0.029 A 
ATOM     67  C   UNL A   1      41.952  33.347  33.723  1.00  0.00     0.049 A 
ATOM     68  H   UNL A   1      43.058  32.192  32.344  1.00  0.00     0.167 HD
ATOM     69  C   UNL A   1      42.125  31.117  34.795  1.00  0.00     0.074 A 
ATOM     70  C   UNL A   1      41.879  30.186  35.875  1.00  0.00     0.031 C 
ATOM     71  C   UNL A   1      41.708  32.409  34.789  1.00  0.00     0.037 A 
BRANCH  58  72
ATOM     72  C   UNL A   1      43.349  35.551  29.723  1.00  0.00     0.064 A 
ATOM     73  C   UNL A   1      42.366  35.857  28.769  1.00  0.00     0.173 A 
ATOM     74  C   UNL A   1      44.330  36.519  29.985  1.00  0.00     0.173 A 
ATOM     75  F   UNL A   1      41.413  34.961  28.468  1.00  0.00    -0.203 F 
ATOM     76  C   UNL A   1      42.382  37.070  28.086  1.00  0.00     0.198 A 
ATOM     77  C   UNL A   1      44.323  37.744  29.326  1.00  0.00     0.198 A 
ATOM     78  F   UNL A   1      45.292  36.280  30.888  1.00  0.00    -0.203 F 
ATOM     79  F   UNL A   1      41.465  37.319  27.141  1.00  0.00    -0.200 F 
ATOM     80  C   UNL A   1      43.356  38.016  28.371  1.00  0.00     0.200 A 
ATOM     81  F   UNL A   1      45.256  38.662  29.612  1.00  0.00    -0.200 F 
ATOM     82  F   UNL A   1      43.366  39.187  27.719  1.00  0.00    -0.200 F 
ENDBRANCH  58  72
BRANCH  59  83
ATOM     83  C   UNL A   1      43.750  26.716  34.379  1.00  0.00     0.064 A 
ATOM     84  C   UNL A   1      44.962  26.230  34.886  1.00  0.00     0.173 A 
ATOM     85  C   UNL A   1      42.610  25.914  34.539  1.00  0.00     0.173 A 
ATOM     86  F   UNL A   1      46.086  26.947  34.734  1.00  0.00    -0.203 F 
ATOM     87  C   UNL A   1      45.038  24.984  35.505  1.00  0.00     0.198 A 
ATOM     88  C   UNL A   1      42.680  24.683  35.187  1.00  0.00     0.198 A 
ATOM     89  F   UNL A   1      41.425  26.328  34.067  1.00  0.00    -0.203 F 
ATOM     90  F   UNL A   1      46.221  24.519  35.928  1.00  0.00    -0.200 F 
ATOM     91  C   UNL A   1      43.896  24.213  35.659  1.00  0.00     0.200 A 
ATOM     92  F   UNL A   1      41.571  23.947  35.343  1.00  0.00    -0.200 F 
ATOM     93  F   UNL A   1      43.969  23.014  36.253  1.00  0.00    -0.200 F 
ENDBRANCH  59  83
BRANCH  71  94
ATOM     94  C   UNL A   1      40.895  32.877  35.965  1.00  0.00     0.064 A 
ATOM     95  C   UNL A   1      39.499  32.739  36.007  1.00  0.00     0.173 A 
ATOM     96  C   UNL A   1      41.528  33.454  37.078  1.00  0.00     0.173 A 
ATOM     97  F   UNL A   1      38.840  32.204  34.968  1.00  0.00    -0.203 F 
ATOM     98  C   UNL A   1      38.766  33.200  37.099  1.00  0.00     0.198 A 
ATOM     99  C   UNL A   1      40.797  33.876  38.184  1.00  0.00     0.198 A 
ATOM    100  F   UNL A   1      42.862  33.599  37.098  1.00  0.00    -0.203 F 
ATOM    101  F   UNL A   1      37.428  33.119  37.087  1.00  0.00    -0.200 F 
ATOM    102  C   UNL A   1      39.414  33.762  38.188  1.00  0.00     0.200 A 
ATOM    103  F   UNL A   1      41.427  34.402  39.243  1.00  0.00    -0.200 F 
ATOM    104  F   UNL A   1      38.708  34.202  39.238  1.00  0.00    -0.200 F 
ENDBRANCH  71  94
ENDBRANCH  45  46
ENDBRANCH  38  40
ENDBRANCH  37  38
ENDBRANCH  36  37
ENDBRANCH  35  36
ENDBRANCH  34  35
ENDBRANCH  33  34
ENDBRANCH  32  33
ENDBRANCH  31  32
ENDBRANCH  30  31
ENDBRANCH   1  30
TORSDOF 25
ENDMDL
MODEL 3
REMARK VINA RESULT:      -7.5      0.564      2.075
REMARK SMILES O=C(CSc1nc(O)cc(=O)[nH]1)Nc1cccc(C(=O)OCCOCCOCCOCCOC(=O)c2ccc(-c3c4nc(c(-c5c(F)c(F)c(F)c(F)c5F)c5ccc([nH]5)c(-c5c(F)c(F)c(F)c(F)c5F)c5nc(c(-c6c(F)c(F)c(F)c(F)c6F)c6ccc3[nH]6)C=C5)C=C4)cc2)c1
REMARK SMILES IDX 25 1 24 2 23 3 22 4 21 5 19 6 20 7 18 8 14 9 15 10 99 11
REMARK SMILES IDX 16 12 17 13 13 14 1 15 2 16 3 18 4 19 5 20 6 21 12 22 7 23
REMARK SMILES IDX 10 24 9 26 11 27 8 28 26 30 27 31 28 32 29 33 30 34 31 35
REMARK SMILES IDX 32 36 33 37 34 38 35 39 36 40 37 41 98 42 38 43 97 44 39 45
REMARK SMILES IDX 40 46 41 47 91 48 42 49 96 50 90 51 92 52 43 53 95 54 89 55
REMARK SMILES IDX 88 56 44 58 76 59 56 60 75 61 57 62 60 63 74 64 93 65 58 66
REMARK SMILES IDX 59 67 73 69 94 70 61 71 45 72 46 73 54 74 47 75 48 76 52 77
REMARK SMILES IDX 55 78 49 79 50 80 53 81 51 82 77 83 78 84 86 85 79 86 80 87
REMARK SMILES IDX 84 88 87 89 81 90 82 91 85 92 83 93 62 94 63 95 71 96 64 97
REMARK SMILES IDX 65 98 69 99 72 100 66 101 67 102 70 103 68 104
REMARK H PARENT 13 17 12 25 8 29 92 57 60 68
REMARK Flexibility Score: inf
ROOT
ATOM      1  C   UNL A   1      44.858  26.821  38.250  1.00  0.00     0.188 C 
ENDROOT
BRANCH   1   2
ATOM      2  O   UNL A   1      44.023  27.674  37.487  1.00  0.00    -0.376 OA
BRANCH   2   3
ATOM      3  C   UNL A   1      43.442  27.182  36.295  1.00  0.00     0.202 C 
BRANCH   3   4
ATOM      4  C   UNL A   1      42.294  27.982  35.669  1.00  0.00     0.261 C 
BRANCH   4   5
ATOM      5  O   UNL A   1      42.333  28.117  34.246  1.00  0.00    -0.460 OA
BRANCH   5   6
ATOM      6  C   UNL A   1      42.514  29.357  33.736  1.00  0.00     0.338 C 
ATOM      7  O   UNL A   1      43.350  30.174  34.075  1.00  0.00    -0.246 OA
BRANCH   6   8
ATOM      8  C   UNL A   1      41.659  29.457  32.530  1.00  0.00     0.062 A 
ATOM      9  C   UNL A   1      39.949  30.621  31.270  1.00  0.00     0.042 A 
ATOM     10  C   UNL A   1      39.879  29.533  30.392  1.00  0.00     0.026 A 
ATOM     11  C   UNL A   1      40.811  30.555  32.363  1.00  0.00     0.041 A 
ATOM     12  C   UNL A   1      40.722  28.429  30.560  1.00  0.00     0.003 A 
ATOM     13  C   UNL A   1      41.634  28.401  31.615  1.00  0.00     0.016 A 
BRANCH   9  14
ATOM     14  N   UNL A   1      39.168  31.758  30.979  1.00  0.00    -0.325 N 
ATOM     15  O   UNL A   1      37.136  31.148  31.946  1.00  0.00    -0.274 OA
ATOM     16  C   UNL A   1      37.857  31.968  31.380  1.00  0.00     0.234 C 
ATOM     17  H   UNL A   1      39.591  32.466  30.441  1.00  0.00     0.169 HD
BRANCH  16  18
ATOM     18  C   UNL A   1      37.297  33.333  31.027  1.00  0.00     0.178 C 
BRANCH  18  19
ATOM     19  S   UNL A   1      36.108  33.993  32.229  1.00  0.00    -0.078 SA
BRANCH  19  20
ATOM     20  C   UNL A   1      34.890  34.642  31.176  1.00  0.00     0.172 A 
ATOM     21  N   UNL A   1      33.902  35.343  31.613  1.00  0.00    -0.189 NA
ATOM     22  N   UNL A   1      35.128  34.381  29.866  1.00  0.00    -0.301 N 
ATOM     23  C   UNL A   1      33.051  35.841  30.671  1.00  0.00     0.218 A 
ATOM     24  C   UNL A   1      34.319  34.870  28.886  1.00  0.00     0.255 A 
ATOM     25  H   UNL A   1      35.902  33.826  29.619  1.00  0.00     0.172 HD
ATOM     26  C   UNL A   1      33.181  35.671  29.354  1.00  0.00     0.139 A 
ATOM     27  O   UNL A   1      34.520  34.668  27.695  1.00  0.00    -0.269 OA
BRANCH  23  28
ATOM     28  O   UNL A   1      32.002  36.575  31.158  1.00  0.00    -0.493 OA
ATOM     29  H   UNL A   1      31.382  36.956  30.568  1.00  0.00     0.295 HD
ENDBRANCH  23  28
ENDBRANCH  19  20
ENDBRANCH  18  19
ENDBRANCH  16  18
ENDBRANCH   9  14
ENDBRANCH   6   8
ENDBRANCH   5   6
ENDBRANCH   4   5
ENDBRANCH   3   4
ENDBRANCH   2   3
ENDBRANCH   1   2
BRANCH   1  30
ATOM     30  C   UNL A   1      44.468  25.327  38.179  1.00  0.00     0.188 C 
BRANCH  30  31
ATOM     31  O   UNL A   1      44.905  24.419  39.184  1.00  0.00    -0.377 OA
BRANCH  31  32
ATOM     32  C   UNL A   1      45.818  23.378  38.855  1.00  0.00     0.188 C 
BRANCH  32  33
ATOM     33  C   UNL A   1      46.057  22.198  39.824  1.00  0.00     0.188 C 
BRANCH  33  34
ATOM     34  O   UNL A   1      45.711  20.928  39.299  1.00  0.00    -0.376 OA
BRANCH  34  35
ATOM     35  C   UNL A   1      46.684  19.901  39.355  1.00  0.00     0.202 C 
BRANCH  35  36
ATOM     36  C   UNL A   1      46.878  19.050  38.092  1.00  0.00     0.261 C 
BRANCH  36  37
ATOM     37  O   UNL A   1      47.130  19.769  36.876  1.00  0.00    -0.460 OA
BRANCH  37  38
ATOM     38  C   UNL A   1      46.121  19.844  35.984  1.00  0.00     0.338 C 
ATOM     39  O   UNL A   1      45.284  18.989  35.739  1.00  0.00    -0.246 OA
BRANCH  38  40
ATOM     40  C   UNL A   1      46.079  21.226  35.469  1.00  0.00     0.060 A 
ATOM     41  C   UNL A   1      44.879  21.947  35.545  1.00  0.00     0.016 A 
ATOM     42  C   UNL A   1      47.221  21.808  34.914  1.00  0.00     0.016 A 
ATOM     43  C   UNL A   1      44.808  23.239  35.027  1.00  0.00     0.010 A 
ATOM     44  C   UNL A   1      47.143  23.096  34.376  1.00  0.00     0.010 A 
ATOM     45  C   UNL A   1      45.927  23.800  34.395  1.00  0.00    -0.014 A 
BRANCH  45  46
ATOM     46  C   UNL A   1      45.761  25.028  33.581  1.00  0.00     0.031 A 
ATOM     47  C   UNL A   1      45.044  24.918  32.263  1.00  0.00     0.074 A 
ATOM     48  C   UNL A   1      46.196  26.223  34.017  1.00  0.00     0.049 A 
ATOM     49  N   UNL A   1      44.788  25.842  31.372  1.00  0.00    -0.248 NA
ATOM     50  C   UNL A   1      44.553  23.579  31.899  1.00  0.00     0.031 C 
ATOM     51  C   UNL A   1      46.867  26.464  35.291  1.00  0.00     0.029 A 
ATOM     52  N   UNL A   1      46.136  27.460  33.425  1.00  0.00    -0.354 N 
ATOM     53  C   UNL A   1      44.110  25.196  30.346  1.00  0.00     0.074 A 
ATOM     54  C   UNL A   1      44.030  23.796  30.703  1.00  0.00     0.031 C 
ATOM     55  C   UNL A   1      47.163  27.773  35.385  1.00  0.00     0.029 A 
ATOM     56  C   UNL A   1      46.730  28.452  34.165  1.00  0.00     0.049 A 
ATOM     57  H   UNL A   1      45.708  27.621  32.553  1.00  0.00     0.167 HD
ATOM     58  C   UNL A   1      43.588  25.725  29.213  1.00  0.00     0.037 A 
ATOM     59  C   UNL A   1      46.919  29.755  33.875  1.00  0.00     0.037 A 
ATOM     60  C   UNL A   1      43.674  27.116  28.857  1.00  0.00     0.049 A 
ATOM     61  C   UNL A   1      46.395  30.306  32.572  1.00  0.00     0.074 A 
ATOM     62  C   UNL A   1      43.171  27.754  27.739  1.00  0.00     0.029 A 
ATOM     63  N   UNL A   1      44.317  28.085  29.615  1.00  0.00    -0.354 N 
ATOM     64  N   UNL A   1      45.732  29.696  31.618  1.00  0.00    -0.248 NA
ATOM     65  C   UNL A   1      46.641  31.731  32.310  1.00  0.00     0.031 C 
ATOM     66  C   UNL A   1      43.562  29.096  27.787  1.00  0.00     0.029 A 
ATOM     67  C   UNL A   1      44.246  29.312  28.972  1.00  0.00     0.049 A 
ATOM     68  H   UNL A   1      44.758  27.926  30.481  1.00  0.00     0.167 HD
ATOM     69  C   UNL A   1      45.450  30.668  30.664  1.00  0.00     0.074 A 
ATOM     70  C   UNL A   1      46.001  31.910  31.163  1.00  0.00     0.031 C 
ATOM     71  C   UNL A   1      44.793  30.543  29.483  1.00  0.00     0.037 A 
BRANCH  58  72
ATOM     72  C   UNL A   1      42.907  24.784  28.259  1.00  0.00     0.064 A 
ATOM     73  C   UNL A   1      43.633  23.958  27.387  1.00  0.00     0.173 A 
ATOM     74  C   UNL A   1      41.507  24.691  28.234  1.00  0.00     0.173 A 
ATOM     75  F   UNL A   1      44.973  24.018  27.358  1.00  0.00    -0.203 F 
ATOM     76  C   UNL A   1      42.983  23.096  26.508  1.00  0.00     0.198 A 
ATOM     77  C   UNL A   1      40.861  23.803  27.379  1.00  0.00     0.198 A 
ATOM     78  F   UNL A   1      40.764  25.456  29.048  1.00  0.00    -0.203 F 
ATOM     79  F   UNL A   1      43.695  22.357  25.646  1.00  0.00    -0.200 F 
ATOM     80  C   UNL A   1      41.598  23.013  26.510  1.00  0.00     0.200 A 
ATOM     81  F   UNL A   1      39.524  23.714  27.393  1.00  0.00    -0.200 F 
ATOM     82  F   UNL A   1      40.974  22.177  25.669  1.00  0.00    -0.200 F 
ENDBRANCH  58  72
BRANCH  59  83
ATOM     83  C   UNL A   1      47.640  30.637  34.834  1.00  0.00     0.064 A 
ATOM     84  C   UNL A   1      49.035  30.767  34.792  1.00  0.00     0.173 A 
ATOM     85  C   UNL A   1      46.951  31.340  35.834  1.00  0.00     0.173 A 
ATOM     86  F   UNL A   1      49.743  30.093  33.872  1.00  0.00    -0.203 F 
ATOM     87  C   UNL A   1      49.715  31.545  35.726  1.00  0.00     0.198 A 
ATOM     88  C   UNL A   1      47.629  32.144  36.746  1.00  0.00     0.198 A 
ATOM     89  F   UNL A   1      45.617  31.247  35.923  1.00  0.00    -0.203 F 
ATOM     90  F   UNL A   1      51.054  31.604  35.699  1.00  0.00    -0.200 F 
ATOM     91  C   UNL A   1      49.012  32.238  36.700  1.00  0.00     0.200 A 
ATOM     92  F   UNL A   1      46.943  32.821  37.679  1.00  0.00    -0.200 F 
ATOM     93  F   UNL A   1      49.666  32.986  37.599  1.00  0.00    -0.200 F 
ENDBRANCH  59  83
BRANCH  71  94
ATOM     94  C   UNL A   1      44.587  31.793  28.673  1.00  0.00     0.064 A 
ATOM     95  C   UNL A   1      45.397  32.107  27.570  1.00  0.00     0.173 A 
ATOM     96  C   UNL A   1      43.548  32.682  28.993  1.00  0.00     0.173 A 
ATOM     97  F   UNL A   1      46.411  31.300  27.224  1.00  0.00    -0.203 F 
ATOM     98  C   UNL A   1      45.200  33.283  26.848  1.00  0.00     0.198 A 
ATOM     99  C   UNL A   1      43.329  33.834  28.244  1.00  0.00     0.198 A 
ATOM    100  F   UNL A   1      42.735  32.426  30.029  1.00  0.00    -0.203 F 
ATOM    101  F   UNL A   1      46.029  33.594  25.841  1.00  0.00    -0.200 F 
ATOM    102  C   UNL A   1      44.164  34.141  27.180  1.00  0.00     0.200 A 
ATOM    103  F   UNL A   1      42.315  34.653  28.556  1.00  0.00    -0.200 F 
ATOM    104  F   UNL A   1      43.975  35.269  26.483  1.00  0.00    -0.200 F 
ENDBRANCH  71  94
ENDBRANCH  45  46
ENDBRANCH  38  40
ENDBRANCH  37  38
ENDBRANCH  36  37
ENDBRANCH  35  36
ENDBRANCH  34  35
ENDBRANCH  33  34
ENDBRANCH  32  33
ENDBRANCH  31  32
ENDBRANCH  30  31
ENDBRANCH   1  30
TORSDOF 25
ENDMDL
