MODEL 1
REMARK VINA RESULT:     -10.8      0.000      0.000
REMARK SMILES CS(=O)(=O)c1ccc(/C=C(/C(=O)OCCOCCOCCOCCOC(=O)c2ccc(-c3c4nc(c(-c5c(F)c(F)c(F)c(F)c5F)c5ccc([nH]5)c(-c5c(F)c(F)c(F)c(F)c5F)c5nc(c(-c6c(F)c(F)c(F)c(F)c6F)c6ccc3[nH]6)C=C5)C=C4)cc2)c2ccc(F)cc2)cc1
REMARK SMILES IDX 19 1 18 2 17 3 16 4 15 5 14 6 13 7 11 8 12 9 10 10 9 11 8 12
REMARK SMILES IDX 5 13 6 14 99 15 7 16 98 17 2 18 1 19 3 20 4 21 91 22 92 23
REMARK SMILES IDX 97 24 93 25 96 26 94 27 95 28 20 29 21 30 22 31 23 32 24 33
REMARK SMILES IDX 25 34 26 35 27 36 28 37 29 38 90 39 30 40 89 41 31 42 32 43
REMARK SMILES IDX 33 44 83 45 34 46 88 47 82 48 84 49 35 50 87 51 81 52 80 53
REMARK SMILES IDX 36 55 68 56 48 57 67 58 49 59 52 60 66 61 85 62 50 63 51 64
REMARK SMILES IDX 65 66 86 67 53 68 37 69 38 70 46 71 39 72 40 73 44 74 47 75
REMARK SMILES IDX 41 76 42 77 45 78 43 79 69 80 70 81 78 82 71 83 72 84 76 85
REMARK SMILES IDX 79 86 73 87 74 88 77 89 75 90 54 91 55 92 63 93 56 94 57 95
REMARK SMILES IDX 61 96 64 97 58 98 59 99 62 100 60 101
REMARK H PARENT 84 54 52 65
REMARK Flexibility Score: inf
ROOT
ATOM      1  O   UNL A   1      34.969  20.783  24.653  1.00  0.00    -0.377 OA
ENDROOT
BRANCH   1   2
ATOM      2  C   UNL A   1      33.862  20.445  25.469  1.00  0.00     0.188 C 
BRANCH   2   3
ATOM      3  C   UNL A   1      32.436  20.628  24.914  1.00  0.00     0.188 C 
BRANCH   3   4
ATOM      4  O   UNL A   1      31.872  21.914  25.157  1.00  0.00    -0.376 OA
BRANCH   4   5
ATOM      5  C   UNL A   1      31.383  22.592  24.007  1.00  0.00     0.202 C 
BRANCH   5   6
ATOM      6  C   UNL A   1      31.692  24.093  24.014  1.00  0.00     0.261 C 
BRANCH   6   7
ATOM      7  O   UNL A   1      30.608  24.915  24.478  1.00  0.00    -0.460 OA
BRANCH   7   8
ATOM      8  C   UNL A   1      30.724  25.440  25.722  1.00  0.00     0.338 C 
ATOM      9  O   UNL A   1      30.582  24.823  26.766  1.00  0.00    -0.246 OA
BRANCH   8  10
ATOM     10  C   UNL A   1      31.176  26.869  25.653  1.00  0.00     0.067 C 
ATOM     11  C   UNL A   1      31.854  27.383  26.708  1.00  0.00     0.024 C 
BRANCH  11  12
ATOM     12  C   UNL A   1      32.563  28.676  26.819  1.00  0.00    -0.025 A 
ATOM     13  C   UNL A   1      33.700  31.151  27.488  1.00  0.00     0.067 A 
ATOM     14  C   UNL A   1      34.517  30.032  27.353  1.00  0.00     0.021 A 
ATOM     15  C   UNL A   1      32.344  31.075  27.165  1.00  0.00     0.021 A 
ATOM     16  C   UNL A   1      33.947  28.811  26.983  1.00  0.00     0.009 A 
ATOM     17  C   UNL A   1      31.782  29.841  26.830  1.00  0.00     0.009 A 
BRANCH  13  18
ATOM     18  S   UNL A   1      34.299  32.683  28.153  1.00  0.00     0.175 S 
ATOM     19  C   UNL A   1      34.551  32.444  29.888  1.00  0.00     0.163 C 
ATOM     20  O   UNL A   1      33.216  33.636  28.000  1.00  0.00    -0.224 OA
ATOM     21  O   UNL A   1      35.597  32.915  27.551  1.00  0.00    -0.224 OA
ENDBRANCH  13  18
ENDBRANCH  11  12
BRANCH  10  22
ATOM     22  C   UNL A   1      30.879  27.624  24.418  1.00  0.00    -0.011 A 
ATOM     23  C   UNL A   1      29.540  27.835  24.035  1.00  0.00     0.012 A 
ATOM     24  C   UNL A   1      31.902  28.208  23.663  1.00  0.00     0.012 A 
ATOM     25  C   UNL A   1      29.230  28.628  22.932  1.00  0.00     0.040 A 
ATOM     26  C   UNL A   1      31.589  29.007  22.561  1.00  0.00     0.040 A 
ATOM     27  C   UNL A   1      30.259  29.212  22.207  1.00  0.00     0.123 A 
ATOM     28  F   UNL A   1      29.964  30.002  21.167  1.00  0.00    -0.207 F 
ENDBRANCH  10  22
ENDBRANCH   8  10
ENDBRANCH   7   8
ENDBRANCH   6   7
ENDBRANCH   5   6
ENDBRANCH   4   5
ENDBRANCH   3   4
ENDBRANCH   2   3
ENDBRANCH   1   2
BRANCH   1  29
ATOM     29  C   UNL A   1      35.834  21.834  25.060  1.00  0.00     0.188 C 
BRANCH  29  30
ATOM     30  C   UNL A   1      37.328  21.794  24.682  1.00  0.00     0.188 C 
BRANCH  30  31
ATOM     31  O   UNL A   1      38.026  20.641  25.141  1.00  0.00    -0.376 OA
BRANCH  31  32
ATOM     32  C   UNL A   1      39.321  20.864  25.684  1.00  0.00     0.202 C 
BRANCH  32  33
ATOM     33  C   UNL A   1      40.031  19.582  26.130  1.00  0.00     0.261 C 
BRANCH  33  34
ATOM     34  O   UNL A   1      41.185  19.230  25.352  1.00  0.00    -0.460 OA
BRANCH  34  35
ATOM     35  C   UNL A   1      42.369  19.138  25.995  1.00  0.00     0.338 C 
ATOM     36  O   UNL A   1      43.035  18.139  26.194  1.00  0.00    -0.246 OA
BRANCH  35  37
ATOM     37  C   UNL A   1      42.822  20.514  26.263  1.00  0.00     0.060 A 
ATOM     38  C   UNL A   1      42.773  21.003  27.575  1.00  0.00     0.016 A 
ATOM     39  C   UNL A   1      43.338  21.295  25.227  1.00  0.00     0.016 A 
ATOM     40  C   UNL A   1      43.236  22.288  27.852  1.00  0.00     0.010 A 
ATOM     41  C   UNL A   1      43.778  22.589  25.501  1.00  0.00     0.010 A 
ATOM     42  C   UNL A   1      43.710  23.097  26.808  1.00  0.00    -0.014 A 
BRANCH  42  43
ATOM     43  C   UNL A   1      43.969  24.535  27.038  1.00  0.00     0.031 A 
ATOM     44  C   UNL A   1      45.368  25.043  26.850  1.00  0.00     0.074 A 
ATOM     45  C   UNL A   1      42.987  25.366  27.428  1.00  0.00     0.049 A 
ATOM     46  N   UNL A   1      45.854  26.240  27.057  1.00  0.00    -0.248 NA
ATOM     47  C   UNL A   1      46.354  24.064  26.369  1.00  0.00     0.031 C 
ATOM     48  C   UNL A   1      41.587  24.996  27.609  1.00  0.00     0.029 A 
ATOM     49  N   UNL A   1      43.033  26.698  27.755  1.00  0.00    -0.354 N 
ATOM     50  C   UNL A   1      47.200  26.157  26.728  1.00  0.00     0.074 A 
ATOM     51  C   UNL A   1      47.461  24.787  26.341  1.00  0.00     0.031 C 
ATOM     52  C   UNL A   1      40.904  26.075  28.028  1.00  0.00     0.029 A 
ATOM     53  C   UNL A   1      41.827  27.201  28.174  1.00  0.00     0.049 A 
ATOM     54  H   UNL A   1      43.852  27.241  27.695  1.00  0.00     0.167 HD
ATOM     55  C   UNL A   1      48.131  27.138  26.741  1.00  0.00     0.037 A 
ATOM     56  C   UNL A   1      41.518  28.424  28.645  1.00  0.00     0.037 A 
ATOM     57  C   UNL A   1      47.873  28.492  27.147  1.00  0.00     0.049 A 
ATOM     58  C   UNL A   1      42.596  29.472  28.753  1.00  0.00     0.074 A 
ATOM     59  C   UNL A   1      48.743  29.568  27.171  1.00  0.00     0.029 A 
ATOM     60  N   UNL A   1      46.652  28.951  27.621  1.00  0.00    -0.354 N 
ATOM     61  N   UNL A   1      43.858  29.402  28.404  1.00  0.00    -0.248 NA
ATOM     62  C   UNL A   1      42.206  30.767  29.330  1.00  0.00     0.031 C 
ATOM     63  C   UNL A   1      48.062  30.665  27.714  1.00  0.00     0.029 A 
ATOM     64  C   UNL A   1      46.755  30.286  27.979  1.00  0.00     0.049 A 
ATOM     65  H   UNL A   1      45.834  28.408  27.693  1.00  0.00     0.167 HD
ATOM     66  C   UNL A   1      44.406  30.644  28.697  1.00  0.00     0.074 A 
ATOM     67  C   UNL A   1      43.337  31.454  29.242  1.00  0.00     0.031 C 
ATOM     68  C   UNL A   1      45.681  31.076  28.527  1.00  0.00     0.037 A 
BRANCH  55  69
ATOM     69  C   UNL A   1      49.524  26.759  26.335  1.00  0.00     0.064 A 
ATOM     70  C   UNL A   1      50.447  26.244  27.260  1.00  0.00     0.173 A 
ATOM     71  C   UNL A   1      49.946  26.919  25.007  1.00  0.00     0.173 A 
ATOM     72  F   UNL A   1      50.098  26.090  28.547  1.00  0.00    -0.203 F 
ATOM     73  C   UNL A   1      51.750  25.939  26.876  1.00  0.00     0.198 A 
ATOM     74  C   UNL A   1      51.240  26.585  24.622  1.00  0.00     0.198 A 
ATOM     75  F   UNL A   1      49.103  27.407  24.085  1.00  0.00    -0.203 F 
ATOM     76  F   UNL A   1      52.631  25.506  27.789  1.00  0.00    -0.200 F 
ATOM     77  C   UNL A   1      52.145  26.106  25.558  1.00  0.00     0.200 A 
ATOM     78  F   UNL A   1      51.618  26.739  23.345  1.00  0.00    -0.200 F 
ATOM     79  F   UNL A   1      53.400  25.815  25.191  1.00  0.00    -0.200 F 
ENDBRANCH  55  69
BRANCH  56  80
ATOM     80  C   UNL A   1      40.123  28.726  29.058  1.00  0.00     0.064 A 
ATOM     81  C   UNL A   1      39.225  29.330  28.169  1.00  0.00     0.173 A 
ATOM     82  C   UNL A   1      39.660  28.420  30.347  1.00  0.00     0.173 A 
ATOM     83  F   UNL A   1      39.629  29.668  26.936  1.00  0.00    -0.203 F 
ATOM     84  C   UNL A   1      37.917  29.622  28.554  1.00  0.00     0.198 A 
ATOM     85  C   UNL A   1      38.346  28.690  30.723  1.00  0.00     0.198 A 
ATOM     86  F   UNL A   1      40.485  27.847  31.238  1.00  0.00    -0.203 F 
ATOM     87  F   UNL A   1      37.088  30.231  27.695  1.00  0.00    -0.200 F 
ATOM     88  C   UNL A   1      37.478  29.295  29.828  1.00  0.00     0.200 A 
ATOM     89  F   UNL A   1      37.923  28.364  31.952  1.00  0.00    -0.200 F 
ATOM     90  F   UNL A   1      36.218  29.568  30.195  1.00  0.00    -0.200 F 
ENDBRANCH  56  80
BRANCH  68  91
ATOM     91  C   UNL A   1      45.990  32.491  28.920  1.00  0.00     0.064 A 
ATOM     92  C   UNL A   1      46.494  32.806  30.192  1.00  0.00     0.173 A 
ATOM     93  C   UNL A   1      45.831  33.538  27.999  1.00  0.00     0.173 A 
ATOM     94  F   UNL A   1      46.649  31.845  31.114  1.00  0.00    -0.203 F 
ATOM     95  C   UNL A   1      46.808  34.120  30.531  1.00  0.00     0.198 A 
ATOM     96  C   UNL A   1      46.175  34.845  28.332  1.00  0.00     0.198 A 
ATOM     97  F   UNL A   1      45.360  33.288  26.768  1.00  0.00    -0.203 F 
ATOM     98  F   UNL A   1      47.250  34.403  31.764  1.00  0.00    -0.200 F 
ATOM     99  C   UNL A   1      46.658  35.136  29.599  1.00  0.00     0.200 A 
ATOM    100  F   UNL A   1      46.041  35.822  27.426  1.00  0.00    -0.200 F 
ATOM    101  F   UNL A   1      46.972  36.398  29.924  1.00  0.00    -0.200 F 
ENDBRANCH  68  91
ENDBRANCH  42  43
ENDBRANCH  35  37
ENDBRANCH  34  35
ENDBRANCH  33  34
ENDBRANCH  32  33
ENDBRANCH  31  32
ENDBRANCH  30  31
ENDBRANCH  29  30
ENDBRANCH   1  29
TORSDOF 23
ENDMDL
MODEL 2
REMARK VINA RESULT:     -10.8      0.610      6.987
REMARK SMILES CS(=O)(=O)c1ccc(/C=C(/C(=O)OCCOCCOCCOCCOC(=O)c2ccc(-c3c4nc(c(-c5c(F)c(F)c(F)c(F)c5F)c5ccc([nH]5)c(-c5c(F)c(F)c(F)c(F)c5F)c5nc(c(-c6c(F)c(F)c(F)c(F)c6F)c6ccc3[nH]6)C=C5)C=C4)cc2)c2ccc(F)cc2)cc1
REMARK SMILES IDX 19 1 18 2 17 3 16 4 15 5 14 6 13 7 11 8 12 9 10 10 9 11 8 12
REMARK SMILES IDX 5 13 6 14 99 15 7 16 98 17 2 18 1 19 3 20 4 21 91 22 92 23
REMARK SMILES IDX 97 24 93 25 96 26 94 27 95 28 20 29 21 30 22 31 23 32 24 33
REMARK SMILES IDX 25 34 26 35 27 36 28 37 29 38 90 39 30 40 89 41 31 42 32 43
REMARK SMILES IDX 33 44 83 45 34 46 88 47 82 48 84 49 35 50 87 51 81 52 80 53
REMARK SMILES IDX 36 55 68 56 48 57 67 58 49 59 52 60 66 61 85 62 50 63 51 64
REMARK SMILES IDX 65 66 86 67 53 68 37 69 38 70 46 71 39 72 40 73 44 74 47 75
REMARK SMILES IDX 41 76 42 77 45 78 43 79 69 80 70 81 78 82 71 83 72 84 76 85
REMARK SMILES IDX 79 86 73 87 74 88 77 89 75 90 54 91 55 92 63 93 56 94 57 95
REMARK SMILES IDX 61 96 64 97 58 98 59 99 62 100 60 101
REMARK H PARENT 84 54 52 65
REMARK Flexibility Score: inf
ROOT
ATOM      1  O   UNL A   1      34.910  20.493  24.637  1.00  0.00    -0.377 OA
ENDROOT
BRANCH   1   2
ATOM      2  C   UNL A   1      33.770  20.077  25.367  1.00  0.00     0.188 C 
BRANCH   2   3
ATOM      3  C   UNL A   1      32.373  20.243  24.737  1.00  0.00     0.188 C 
BRANCH   3   4
ATOM      4  O   UNL A   1      31.786  21.526  24.938  1.00  0.00    -0.376 OA
BRANCH   4   5
ATOM      5  C   UNL A   1      31.949  22.444  23.865  1.00  0.00     0.202 C 
BRANCH   5   6
ATOM      6  C   UNL A   1      32.392  23.837  24.325  1.00  0.00     0.261 C 
BRANCH   6   7
ATOM      7  O   UNL A   1      31.438  24.878  24.060  1.00  0.00    -0.460 OA
BRANCH   7   8
ATOM      8  C   UNL A   1      30.837  25.449  25.132  1.00  0.00     0.338 C 
ATOM      9  O   UNL A   1      30.161  24.859  25.960  1.00  0.00    -0.246 OA
BRANCH   8  10
ATOM     10  C   UNL A   1      31.215  26.896  25.242  1.00  0.00     0.067 C 
ATOM     11  C   UNL A   1      32.013  27.278  26.268  1.00  0.00     0.024 C 
BRANCH  11  12
ATOM     12  C   UNL A   1      32.676  28.580  26.498  1.00  0.00    -0.025 A 
ATOM     13  C   UNL A   1      33.823  30.969  27.418  1.00  0.00     0.067 A 
ATOM     14  C   UNL A   1      34.640  29.965  26.907  1.00  0.00     0.021 A 
ATOM     15  C   UNL A   1      32.434  30.846  27.352  1.00  0.00     0.021 A 
ATOM     16  C   UNL A   1      34.058  28.792  26.418  1.00  0.00     0.009 A 
ATOM     17  C   UNL A   1      31.866  29.656  26.892  1.00  0.00     0.009 A 
BRANCH  13  18
ATOM     18  S   UNL A   1      34.482  32.391  28.248  1.00  0.00     0.175 S 
ATOM     19  C   UNL A   1      33.348  33.725  27.995  1.00  0.00     0.163 C 
ATOM     20  O   UNL A   1      35.709  32.728  27.551  1.00  0.00    -0.224 OA
ATOM     21  O   UNL A   1      34.482  32.079  29.664  1.00  0.00    -0.224 OA
ENDBRANCH  13  18
ENDBRANCH  11  12
BRANCH  10  22
ATOM     22  C   UNL A   1      30.716  27.817  24.200  1.00  0.00    -0.011 A 
ATOM     23  C   UNL A   1      31.631  28.546  23.417  1.00  0.00     0.012 A 
ATOM     24  C   UNL A   1      29.349  27.916  23.918  1.00  0.00     0.012 A 
ATOM     25  C   UNL A   1      31.190  29.344  22.362  1.00  0.00     0.040 A 
ATOM     26  C   UNL A   1      28.910  28.712  22.857  1.00  0.00     0.040 A 
ATOM     27  C   UNL A   1      29.833  29.415  22.088  1.00  0.00     0.123 A 
ATOM     28  F   UNL A   1      29.409  30.154  21.055  1.00  0.00    -0.207 F 
ENDBRANCH  10  22
ENDBRANCH   8  10
ENDBRANCH   7   8
ENDBRANCH   6   7
ENDBRANCH   5   6
ENDBRANCH   4   5
ENDBRANCH   3   4
ENDBRANCH   2   3
ENDBRANCH   1   2
BRANCH   1  29
ATOM     29  C   UNL A   1      35.658  21.609  25.098  1.00  0.00     0.188 C 
BRANCH  29  30
ATOM     30  C   UNL A   1      37.145  21.751  24.718  1.00  0.00     0.188 C 
BRANCH  30  31
ATOM     31  O   UNL A   1      37.936  20.595  24.970  1.00  0.00    -0.376 OA
BRANCH  31  32
ATOM     32  C   UNL A   1      39.151  20.804  25.678  1.00  0.00     0.202 C 
BRANCH  32  33
ATOM     33  C   UNL A   1      39.889  19.510  26.032  1.00  0.00     0.261 C 
BRANCH  33  34
ATOM     34  O   UNL A   1      41.111  19.296  25.308  1.00  0.00    -0.460 OA
BRANCH  34  35
ATOM     35  C   UNL A   1      42.259  19.260  26.018  1.00  0.00     0.338 C 
ATOM     36  O   UNL A   1      42.978  18.300  26.226  1.00  0.00    -0.246 OA
BRANCH  35  37
ATOM     37  C   UNL A   1      42.603  20.652  26.354  1.00  0.00     0.060 A 
ATOM     38  C   UNL A   1      42.827  21.568  25.317  1.00  0.00     0.016 A 
ATOM     39  C   UNL A   1      42.655  21.056  27.690  1.00  0.00     0.016 A 
ATOM     40  C   UNL A   1      43.113  22.898  25.619  1.00  0.00     0.010 A 
ATOM     41  C   UNL A   1      42.965  22.382  27.991  1.00  0.00     0.010 A 
ATOM     42  C   UNL A   1      43.215  23.301  26.959  1.00  0.00    -0.014 A 
BRANCH  42  43
ATOM     43  C   UNL A   1      43.759  24.634  27.296  1.00  0.00     0.031 A 
ATOM     44  C   UNL A   1      42.824  25.657  27.874  1.00  0.00     0.074 A 
ATOM     45  C   UNL A   1      45.048  24.939  27.073  1.00  0.00     0.049 A 
ATOM     46  N   UNL A   1      43.047  26.907  28.185  1.00  0.00    -0.248 NA
ATOM     47  C   UNL A   1      41.448  25.204  28.131  1.00  0.00     0.031 C 
ATOM     48  C   UNL A   1      46.056  24.021  26.549  1.00  0.00     0.029 A 
ATOM     49  N   UNL A   1      45.723  26.121  27.249  1.00  0.00    -0.354 N 
ATOM     50  C   UNL A   1      41.841  27.389  28.676  1.00  0.00     0.074 A 
ATOM     51  C   UNL A   1      40.883  26.309  28.590  1.00  0.00     0.031 C 
ATOM     52  C   UNL A   1      47.223  24.679  26.435  1.00  0.00     0.029 A 
ATOM     53  C   UNL A   1      47.033  26.070  26.846  1.00  0.00     0.049 A 
ATOM     54  H   UNL A   1      45.306  26.929  27.629  1.00  0.00     0.167 HD
ATOM     55  C   UNL A   1      41.562  28.621  29.160  1.00  0.00     0.037 A 
ATOM     56  C   UNL A   1      47.960  27.046  26.795  1.00  0.00     0.037 A 
ATOM     57  C   UNL A   1      42.510  29.699  29.223  1.00  0.00     0.049 A 
ATOM     58  C   UNL A   1      47.596  28.439  27.239  1.00  0.00     0.074 A 
ATOM     59  C   UNL A   1      42.334  30.978  29.720  1.00  0.00     0.029 A 
ATOM     60  N   UNL A   1      43.814  29.627  28.751  1.00  0.00    -0.354 N 
ATOM     61  N   UNL A   1      46.467  28.881  27.739  1.00  0.00    -0.248 NA
ATOM     62  C   UNL A   1      48.635  29.471  27.102  1.00  0.00     0.031 C 
ATOM     63  C   UNL A   1      43.514  31.698  29.498  1.00  0.00     0.029 A 
ATOM     64  C   UNL A   1      44.442  30.852  28.909  1.00  0.00     0.049 A 
ATOM     65  H   UNL A   1      44.230  28.825  28.361  1.00  0.00     0.167 HD
ATOM     66  C   UNL A   1      46.665  30.232  27.996  1.00  0.00     0.074 A 
ATOM     67  C   UNL A   1      48.026  30.536  27.608  1.00  0.00     0.031 C 
ATOM     68  C   UNL A   1      45.797  31.139  28.510  1.00  0.00     0.037 A 
BRANCH  55  69
ATOM     69  C   UNL A   1      40.157  28.867  29.624  1.00  0.00     0.064 A 
ATOM     70  C   UNL A   1      39.775  28.659  30.960  1.00  0.00     0.173 A 
ATOM     71  C   UNL A   1      39.178  29.308  28.722  1.00  0.00     0.173 A 
ATOM     72  F   UNL A   1      40.670  28.218  31.857  1.00  0.00    -0.203 F 
ATOM     73  C   UNL A   1      38.457  28.849  31.364  1.00  0.00     0.198 A 
ATOM     74  C   UNL A   1      37.868  29.526  29.138  1.00  0.00     0.198 A 
ATOM     75  F   UNL A   1      39.491  29.522  27.436  1.00  0.00    -0.203 F 
ATOM     76  F   UNL A   1      38.102  28.586  32.630  1.00  0.00    -0.200 F 
ATOM     77  C   UNL A   1      37.505  29.286  30.455  1.00  0.00     0.200 A 
ATOM     78  F   UNL A   1      36.951  29.956  28.259  1.00  0.00    -0.200 F 
ATOM     79  F   UNL A   1      36.236  29.465  30.844  1.00  0.00    -0.200 F 
ENDBRANCH  55  69
BRANCH  56  80
ATOM     80  C   UNL A   1      49.326  26.741  26.296  1.00  0.00     0.064 A 
ATOM     81  C   UNL A   1      50.311  26.242  27.158  1.00  0.00     0.173 A 
ATOM     82  C   UNL A   1      49.675  26.944  24.952  1.00  0.00     0.173 A 
ATOM     83  F   UNL A   1      50.034  26.059  28.457  1.00  0.00    -0.203 F 
ATOM     84  C   UNL A   1      51.597  25.962  26.696  1.00  0.00     0.198 A 
ATOM     85  C   UNL A   1      50.953  26.641  24.487  1.00  0.00     0.198 A 
ATOM     86  F   UNL A   1      48.769  27.427  24.089  1.00  0.00    -0.203 F 
ATOM     87  F   UNL A   1      52.530  25.518  27.549  1.00  0.00    -0.200 F 
ATOM     88  C   UNL A   1      51.914  26.155  25.361  1.00  0.00     0.200 A 
ATOM     89  F   UNL A   1      51.253  26.820  23.194  1.00  0.00    -0.200 F 
ATOM     90  F   UNL A   1      53.147  25.878  24.916  1.00  0.00    -0.200 F 
ENDBRANCH  56  80
BRANCH  68  91
ATOM     91  C   UNL A   1      46.294  32.543  28.698  1.00  0.00     0.064 A 
ATOM     92  C   UNL A   1      46.937  32.942  29.879  1.00  0.00     0.173 A 
ATOM     93  C   UNL A   1      46.174  33.486  27.665  1.00  0.00     0.173 A 
ATOM     94  F   UNL A   1      47.063  32.084  30.902  1.00  0.00    -0.203 F 
ATOM     95  C   UNL A   1      47.424  34.238  30.026  1.00  0.00     0.198 A 
ATOM     96  C   UNL A   1      46.689  34.771  27.804  1.00  0.00     0.198 A 
ATOM     97  F   UNL A   1      45.574  33.152  26.512  1.00  0.00    -0.203 F 
ATOM     98  F   UNL A   1      47.999  34.609  31.178  1.00  0.00    -0.200 F 
ATOM     99  C   UNL A   1      47.308  35.149  28.986  1.00  0.00     0.200 A 
ATOM    100  F   UNL A   1      46.587  35.645  26.793  1.00  0.00    -0.200 F 
ATOM    101  F   UNL A   1      47.787  36.393  29.125  1.00  0.00    -0.200 F 
ENDBRANCH  68  91
ENDBRANCH  42  43
ENDBRANCH  35  37
ENDBRANCH  34  35
ENDBRANCH  33  34
ENDBRANCH  32  33
ENDBRANCH  31  32
ENDBRANCH  30  31
ENDBRANCH  29  30
ENDBRANCH   1  29
TORSDOF 23
ENDMDL
MODEL 3
REMARK VINA RESULT:     -10.3      4.753     10.820
REMARK SMILES CS(=O)(=O)c1ccc(/C=C(/C(=O)OCCOCCOCCOCCOC(=O)c2ccc(-c3c4nc(c(-c5c(F)c(F)c(F)c(F)c5F)c5ccc([nH]5)c(-c5c(F)c(F)c(F)c(F)c5F)c5nc(c(-c6c(F)c(F)c(F)c(F)c6F)c6ccc3[nH]6)C=C5)C=C4)cc2)c2ccc(F)cc2)cc1
REMARK SMILES IDX 19 1 18 2 17 3 16 4 15 5 14 6 13 7 11 8 12 9 10 10 9 11 8 12
REMARK SMILES IDX 5 13 6 14 99 15 7 16 98 17 2 18 1 19 3 20 4 21 91 22 92 23
REMARK SMILES IDX 97 24 93 25 96 26 94 27 95 28 20 29 21 30 22 31 23 32 24 33
REMARK SMILES IDX 25 34 26 35 27 36 28 37 29 38 90 39 30 40 89 41 31 42 32 43
REMARK SMILES IDX 33 44 83 45 34 46 88 47 82 48 84 49 35 50 87 51 81 52 80 53
REMARK SMILES IDX 36 55 68 56 48 57 67 58 49 59 52 60 66 61 85 62 50 63 51 64
REMARK SMILES IDX 65 66 86 67 53 68 37 69 38 70 46 71 39 72 40 73 44 74 47 75
REMARK SMILES IDX 41 76 42 77 45 78 43 79 69 80 70 81 78 82 71 83 72 84 76 85
REMARK SMILES IDX 79 86 73 87 74 88 77 89 75 90 54 91 55 92 63 93 56 94 57 95
REMARK SMILES IDX 61 96 64 97 58 98 59 99 62 100 60 101
REMARK H PARENT 84 54 52 65
REMARK Flexibility Score: inf
ROOT
ATOM      1  O   UNL A   1      34.516  36.331  33.548  1.00  0.00    -0.377 OA
ENDROOT
BRANCH   1   2
ATOM      2  C   UNL A   1      33.961  37.038  32.453  1.00  0.00     0.188 C 
BRANCH   2   3
ATOM      3  C   UNL A   1      32.585  36.613  31.904  1.00  0.00     0.188 C 
BRANCH   3   4
ATOM      4  O   UNL A   1      32.610  36.138  30.561  1.00  0.00    -0.376 OA
BRANCH   4   5
ATOM      5  C   UNL A   1      33.650  35.216  30.261  1.00  0.00     0.202 C 
BRANCH   5   6
ATOM      6  C   UNL A   1      33.684  34.805  28.785  1.00  0.00     0.261 C 
BRANCH   6   7
ATOM      7  O   UNL A   1      33.695  33.384  28.569  1.00  0.00    -0.460 OA
BRANCH   7   8
ATOM      8  C   UNL A   1      34.817  32.855  28.023  1.00  0.00     0.338 C 
ATOM      9  O   UNL A   1      35.818  33.483  27.715  1.00  0.00    -0.246 OA
BRANCH   8  10
ATOM     10  C   UNL A   1      34.720  31.359  27.959  1.00  0.00     0.067 C 
ATOM     11  C   UNL A   1      33.629  30.808  27.372  1.00  0.00     0.024 C 
BRANCH  11  12
ATOM     12  C   UNL A   1      33.378  29.396  27.014  1.00  0.00    -0.025 A 
ATOM     13  C   UNL A   1      32.516  26.900  26.068  1.00  0.00     0.067 A 
ATOM     14  C   UNL A   1      33.731  27.419  25.632  1.00  0.00     0.021 A 
ATOM     15  C   UNL A   1      31.791  27.551  27.068  1.00  0.00     0.021 A 
ATOM     16  C   UNL A   1      34.170  28.646  26.136  1.00  0.00     0.009 A 
ATOM     17  C   UNL A   1      32.225  28.793  27.538  1.00  0.00     0.009 A 
BRANCH  13  18
ATOM     18  S   UNL A   1      31.784  25.462  25.330  1.00  0.00     0.175 S 
ATOM     19  C   UNL A   1      32.625  24.048  25.979  1.00  0.00     0.163 C 
ATOM     20  O   UNL A   1      32.094  25.538  23.914  1.00  0.00    -0.224 OA
ATOM     21  O   UNL A   1      30.413  25.410  25.798  1.00  0.00    -0.224 OA
ENDBRANCH  13  18
ENDBRANCH  11  12
BRANCH  10  22
ATOM     22  C   UNL A   1      35.840  30.574  28.516  1.00  0.00    -0.011 A 
ATOM     23  C   UNL A   1      35.844  30.237  29.883  1.00  0.00     0.012 A 
ATOM     24  C   UNL A   1      36.860  30.084  27.692  1.00  0.00     0.012 A 
ATOM     25  C   UNL A   1      36.836  29.414  30.413  1.00  0.00     0.040 A 
ATOM     26  C   UNL A   1      37.850  29.254  28.225  1.00  0.00     0.040 A 
ATOM     27  C   UNL A   1      37.828  28.924  29.576  1.00  0.00     0.123 A 
ATOM     28  F   UNL A   1      38.763  28.106  30.074  1.00  0.00    -0.207 F 
ENDBRANCH  10  22
ENDBRANCH   8  10
ENDBRANCH   7   8
ENDBRANCH   6   7
ENDBRANCH   5   6
ENDBRANCH   4   5
ENDBRANCH   3   4
ENDBRANCH   2   3
ENDBRANCH   1   2
BRANCH   1  29
ATOM     29  C   UNL A   1      34.339  34.924  33.626  1.00  0.00     0.188 C 
BRANCH  29  30
ATOM     30  C   UNL A   1      35.477  34.031  34.156  1.00  0.00     0.188 C 
BRANCH  30  31
ATOM     31  O   UNL A   1      36.741  34.679  34.262  1.00  0.00    -0.376 OA
BRANCH  31  32
ATOM     32  C   UNL A   1      37.888  33.853  34.116  1.00  0.00     0.202 C 
BRANCH  32  33
ATOM     33  C   UNL A   1      37.633  32.586  33.292  1.00  0.00     0.261 C 
BRANCH  33  34
ATOM     34  O   UNL A   1      38.277  32.563  32.009  1.00  0.00    -0.460 OA
BRANCH  34  35
ATOM     35  C   UNL A   1      37.996  33.566  31.150  1.00  0.00     0.338 C 
ATOM     36  O   UNL A   1      36.918  34.092  30.944  1.00  0.00    -0.246 OA
BRANCH  35  37
ATOM     37  C   UNL A   1      39.281  34.054  30.620  1.00  0.00     0.060 A 
ATOM     38  C   UNL A   1      39.351  34.478  29.286  1.00  0.00     0.016 A 
ATOM     39  C   UNL A   1      40.396  34.137  31.457  1.00  0.00     0.016 A 
ATOM     40  C   UNL A   1      40.550  34.980  28.783  1.00  0.00     0.010 A 
ATOM     41  C   UNL A   1      41.600  34.617  30.945  1.00  0.00     0.010 A 
ATOM     42  C   UNL A   1      41.687  35.021  29.603  1.00  0.00    -0.014 A 
BRANCH  42  43
ATOM     43  C   UNL A   1      43.015  35.313  29.021  1.00  0.00     0.031 A 
ATOM     44  C   UNL A   1      43.940  34.162  28.751  1.00  0.00     0.074 A 
ATOM     45  C   UNL A   1      43.400  36.573  28.761  1.00  0.00     0.049 A 
ATOM     46  N   UNL A   1      45.171  34.169  28.312  1.00  0.00    -0.248 NA
ATOM     47  C   UNL A   1      43.400  32.820  29.019  1.00  0.00     0.031 C 
ATOM     48  C   UNL A   1      42.579  37.765  28.949  1.00  0.00     0.029 A 
ATOM     49  N   UNL A   1      44.598  37.055  28.293  1.00  0.00    -0.354 N 
ATOM     50  C   UNL A   1      45.552  32.835  28.249  1.00  0.00     0.074 A 
ATOM     51  C   UNL A   1      44.434  32.050  28.726  1.00  0.00     0.031 C 
ATOM     52  C   UNL A   1      43.302  38.847  28.610  1.00  0.00     0.029 A 
ATOM     53  C   UNL A   1      44.644  38.423  28.214  1.00  0.00     0.049 A 
ATOM     54  H   UNL A   1      45.351  36.473  28.039  1.00  0.00     0.167 HD
ATOM     55  C   UNL A   1      46.726  32.314  27.824  1.00  0.00     0.037 A 
ATOM     56  C   UNL A   1      45.667  39.235  27.882  1.00  0.00     0.037 A 
ATOM     57  C   UNL A   1      47.843  33.099  27.373  1.00  0.00     0.049 A 
ATOM     58  C   UNL A   1      47.001  38.637  27.516  1.00  0.00     0.074 A 
ATOM     59  C   UNL A   1      49.068  32.667  26.897  1.00  0.00     0.029 A 
ATOM     60  N   UNL A   1      47.874  34.487  27.361  1.00  0.00    -0.354 N 
ATOM     61  N   UNL A   1      47.344  37.375  27.419  1.00  0.00    -0.248 NA
ATOM     62  C   UNL A   1      48.091  39.578  27.222  1.00  0.00     0.031 C 
ATOM     63  C   UNL A   1      49.861  33.793  26.651  1.00  0.00     0.029 A 
ATOM     64  C   UNL A   1      49.112  34.928  26.924  1.00  0.00     0.049 A 
ATOM     65  H   UNL A   1      47.127  35.071  27.625  1.00  0.00     0.167 HD
ATOM     66  C   UNL A   1      48.679  37.370  27.034  1.00  0.00     0.074 A 
ATOM     67  C   UNL A   1      49.081  38.754  26.902  1.00  0.00     0.031 C 
ATOM     68  C   UNL A   1      49.498  36.312  26.806  1.00  0.00     0.037 A 
BRANCH  55  69
ATOM     69  C   UNL A   1      46.864  30.822  27.869  1.00  0.00     0.064 A 
ATOM     70  C   UNL A   1      47.300  30.156  29.026  1.00  0.00     0.173 A 
ATOM     71  C   UNL A   1      46.564  30.047  26.738  1.00  0.00     0.173 A 
ATOM     72  F   UNL A   1      47.617  30.855  30.127  1.00  0.00    -0.203 F 
ATOM     73  C   UNL A   1      47.464  28.774  29.036  1.00  0.00     0.198 A 
ATOM     74  C   UNL A   1      46.702  28.663  26.763  1.00  0.00     0.198 A 
ATOM     75  F   UNL A   1      46.144  30.634  25.609  1.00  0.00    -0.203 F 
ATOM     76  F   UNL A   1      47.940  28.166  30.133  1.00  0.00    -0.200 F 
ATOM     77  C   UNL A   1      47.162  28.028  27.907  1.00  0.00     0.200 A 
ATOM     78  F   UNL A   1      46.402  27.942  25.673  1.00  0.00    -0.200 F 
ATOM     79  F   UNL A   1      47.325  26.698  27.917  1.00  0.00    -0.200 F 
ENDBRANCH  55  69
BRANCH  56  80
ATOM     80  C   UNL A   1      45.472  40.708  27.887  1.00  0.00     0.064 A 
ATOM     81  C   UNL A   1      45.680  41.456  29.053  1.00  0.00     0.173 A 
ATOM     82  C   UNL A   1      45.072  41.396  26.731  1.00  0.00     0.173 A 
ATOM     83  F   UNL A   1      46.034  40.839  30.190  1.00  0.00    -0.203 F 
ATOM     84  C   UNL A   1      45.491  42.837  29.065  1.00  0.00     0.198 A 
ATOM     85  C   UNL A   1      44.907  42.780  26.739  1.00  0.00     0.198 A 
ATOM     86  F   UNL A   1      44.853  40.723  25.591  1.00  0.00    -0.203 F 
ATOM     87  F   UNL A   1      45.664  43.525  30.202  1.00  0.00    -0.200 F 
ATOM     88  C   UNL A   1      45.112  43.498  27.907  1.00  0.00     0.200 A 
ATOM     89  F   UNL A   1      44.550  43.415  25.615  1.00  0.00    -0.200 F 
ATOM     90  F   UNL A   1      44.938  44.826  27.917  1.00  0.00    -0.200 F 
ENDBRANCH  56  80
BRANCH  68  91
ATOM     91  C   UNL A   1      50.906  36.607  26.378  1.00  0.00     0.064 A 
ATOM     92  C   UNL A   1      51.949  36.719  27.310  1.00  0.00     0.173 A 
ATOM     93  C   UNL A   1      51.227  36.728  25.017  1.00  0.00     0.173 A 
ATOM     94  F   UNL A   1      51.692  36.627  28.623  1.00  0.00    -0.203 F 
ATOM     95  C   UNL A   1      53.256  36.959  26.896  1.00  0.00     0.198 A 
ATOM     96  C   UNL A   1      52.540  36.938  24.605  1.00  0.00     0.198 A 
ATOM     97  F   UNL A   1      50.267  36.622  24.085  1.00  0.00    -0.203 F 
ATOM     98  F   UNL A   1      54.229  37.101  27.806  1.00  0.00    -0.200 F 
ATOM     99  C   UNL A   1      53.552  37.059  25.544  1.00  0.00     0.200 A 
ATOM    100  F   UNL A   1      52.825  37.021  23.299  1.00  0.00    -0.200 F 
ATOM    101  F   UNL A   1      54.814  37.278  25.147  1.00  0.00    -0.200 F 
ENDBRANCH  68  91
ENDBRANCH  42  43
ENDBRANCH  35  37
ENDBRANCH  34  35
ENDBRANCH  33  34
ENDBRANCH  32  33
ENDBRANCH  31  32
ENDBRANCH  30  31
ENDBRANCH  29  30
ENDBRANCH   1  29
TORSDOF 23
ENDMDL
