MODEL 1
REMARK VINA RESULT:     -12.9      0.000      0.000
REMARK SMILES Cc1cccc(O[C@H](C)C(=O)NNC(=O)[C@H]2[C@@H]3CC[C@@H](C3)[C@@H]2C(=O)OCCOCCOCCOCCOC(=O)c2ccc(-c3c4nc(c(-c5c(F)c(F)c(F)c(F)c5F)c5ccc([nH]5)c(-c5c(F)c(F)c(F)c(F)c5F)c5nc(c(-c6c(F)c(F)c(F)c(F)c6F)c6ccc3[nH]6)C=C5)C=C4)cc2)c1
REMARK SMILES IDX 29 1 28 2 27 3 26 4 25 5 23 6 24 7 22 8 16 9 17 10 18 11
REMARK SMILES IDX 21 12 20 13 19 14 14 15 13 16 15 18 12 19 10 20 11 21 8 23
REMARK SMILES IDX 9 24 7 25 6 26 1 27 2 28 3 29 103 30 4 31 5 32 30 33 31 34
REMARK SMILES IDX 32 35 33 36 34 37 35 38 36 39 37 40 38 41 39 42 40 43 41 44
REMARK SMILES IDX 102 45 42 46 101 47 43 48 44 49 45 50 95 51 46 52 100 53
REMARK SMILES IDX 94 54 96 55 47 56 99 57 93 58 92 59 48 61 80 62 60 63 79 64
REMARK SMILES IDX 61 65 64 66 78 67 97 68 62 69 63 70 77 72 98 73 65 74 49 75
REMARK SMILES IDX 50 76 58 77 51 78 52 79 56 80 59 81 53 82 54 83 57 84 55 85
REMARK SMILES IDX 81 86 82 87 90 88 83 89 84 90 88 91 91 92 85 93 86 94 89 95
REMARK SMILES IDX 87 96 66 97 67 98 75 99 68 100 69 101 73 102 76 103 70 104
REMARK SMILES IDX 71 105 74 106 72 107
REMARK H PARENT 13 17 12 22 96 60 64 71
REMARK Flexibility Score: inf
ROOT
ATOM      1  C   UNL A   1      40.418  20.805  26.247  1.00  0.00     0.188 C 
ENDROOT
BRANCH   1   2
ATOM      2  O   UNL A   1      38.765  20.820  25.697  1.00  0.00    -0.376 OA
BRANCH   2   3
ATOM      3  C   UNL A   1      37.554  22.034  25.293  1.00  0.00     0.202 C 
BRANCH   3   4
ATOM      4  C   UNL A   1      36.799  22.581  23.624  1.00  0.00     0.261 C 
BRANCH   4   5
ATOM      5  O   UNL A   1      35.242  23.420  23.328  1.00  0.00    -0.463 OA
BRANCH   5   6
ATOM      6  C   UNL A   1      34.173  24.151  23.944  1.00  0.00     0.310 C 
ATOM      7  O   UNL A   1      34.037  25.374  24.024  1.00  0.00    -0.252 OA
BRANCH   6   8
ATOM      8  C   UNL A   1      32.836  23.460  24.390  1.00  0.00     0.115 C 
ATOM      9  C   UNL A   1      32.216  24.132  25.687  1.00  0.00     0.098 C 
ATOM     10  C   UNL A   1      31.991  22.931  26.639  1.00  0.00     0.003 C 
ATOM     11  C   UNL A   1      33.360  22.466  27.176  1.00  0.00     0.005 C 
ATOM     12  C   UNL A   1      31.660  21.796  25.676  1.00  0.00     0.009 C 
ATOM     13  C   UNL A   1      32.948  21.977  24.854  1.00  0.00     0.004 C 
ATOM     14  C   UNL A   1      33.972  21.745  25.968  1.00  0.00     0.005 C 
BRANCH   9  15
ATOM     15  C   UNL A   1      30.996  25.079  25.694  1.00  0.00     0.242 C 
ATOM     16  N   UNL A   1      30.379  25.638  24.611  1.00  0.00    -0.267 N 
ATOM     17  H   UNL A   1      29.603  26.212  24.807  1.00  0.00     0.191 HD
ATOM     18  O   UNL A   1      30.463  25.329  26.789  1.00  0.00    -0.273 OA
BRANCH  16  19
ATOM     19  N   UNL A   1      30.704  25.501  23.284  1.00  0.00    -0.264 N 
ATOM     20  C   UNL A   1      31.277  26.436  22.474  1.00  0.00     0.279 C 
ATOM     21  O   UNL A   1      31.861  25.978  21.479  1.00  0.00    -0.269 OA
ATOM     22  H   UNL A   1      30.500  24.632  22.871  1.00  0.00     0.191 HD
BRANCH  20  23
ATOM     23  C   UNL A   1      31.149  27.980  22.631  1.00  0.00     0.260 C 
ATOM     24  C   UNL A   1      32.440  28.580  23.205  1.00  0.00     0.064 C 
BRANCH  23  25
ATOM     25  O   UNL A   1      30.381  28.846  21.821  1.00  0.00    -0.481 OA
BRANCH  25  26
ATOM     26  C   UNL A   1      29.618  29.880  22.256  1.00  0.00     0.120 A 
ATOM     27  C   UNL A   1      27.763  32.632  20.357  1.00  0.00     0.044 C 
ATOM     28  C   UNL A   1      28.330  31.808  21.473  1.00  0.00    -0.047 A 
ATOM     29  C   UNL A   1      28.238  32.260  22.788  1.00  0.00     0.003 A 
ATOM     30  C   UNL A   1      29.007  30.607  21.225  1.00  0.00     0.049 A 
ATOM     31  C   UNL A   1      28.773  31.502  23.829  1.00  0.00     0.004 A 
ATOM     32  C   UNL A   1      29.452  30.309  23.564  1.00  0.00     0.046 A 
ENDBRANCH  25  26
ENDBRANCH  23  25
ENDBRANCH  20  23
ENDBRANCH  16  19
ENDBRANCH   9  15
ENDBRANCH   6   8
ENDBRANCH   5   6
ENDBRANCH   4   5
ENDBRANCH   3   4
ENDBRANCH   2   3
ENDBRANCH   1   2
BRANCH   1  33
ATOM     33  C   UNL A   1      41.761  19.769  26.040  1.00  0.00     0.188 C 
BRANCH  33  34
ATOM     34  O   UNL A   1      43.137  19.985  25.632  1.00  0.00    -0.377 OA
BRANCH  34  35
ATOM     35  C   UNL A   1      44.119  19.038  25.211  1.00  0.00     0.188 C 
BRANCH  35  36
ATOM     36  C   UNL A   1      45.358  19.559  24.542  1.00  0.00     0.188 C 
BRANCH  36  37
ATOM     37  O   UNL A   1      45.079  20.900  24.202  1.00  0.00    -0.376 OA
BRANCH  37  38
ATOM     38  C   UNL A   1      46.023  21.831  24.686  1.00  0.00     0.202 C 
BRANCH  38  39
ATOM     39  C   UNL A   1      45.471  23.250  24.607  1.00  0.00     0.261 C 
BRANCH  39  40
ATOM     40  O   UNL A   1      46.571  24.147  24.328  1.00  0.00    -0.460 OA
BRANCH  40  41
ATOM     41  C   UNL A   1      46.502  25.354  24.971  1.00  0.00     0.338 C 
ATOM     42  O   UNL A   1      45.667  26.210  24.761  1.00  0.00    -0.246 OA
BRANCH  41  43
ATOM     43  C   UNL A   1      47.780  25.602  25.706  1.00  0.00     0.060 A 
ATOM     44  C   UNL A   1      48.252  24.692  26.636  1.00  0.00     0.016 A 
ATOM     45  C   UNL A   1      48.412  26.817  25.695  1.00  0.00     0.016 A 
ATOM     46  C   UNL A   1      48.978  25.149  27.775  1.00  0.00     0.010 A 
ATOM     47  C   UNL A   1      49.202  27.185  26.813  1.00  0.00     0.010 A 
ATOM     48  C   UNL A   1      49.178  26.507  28.087  1.00  0.00    -0.014 A 
BRANCH  48  49
ATOM     49  C   UNL A   1      49.128  27.164  29.809  1.00  0.00     0.031 A 
ATOM     50  C   UNL A   1      50.450  27.065  31.259  1.00  0.00     0.074 A 
ATOM     51  C   UNL A   1      47.826  27.553  30.021  1.00  0.00     0.049 A 
ATOM     52  N   UNL A   1      50.416  26.055  32.180  1.00  0.00    -0.248 NA
ATOM     53  C   UNL A   1      51.955  27.439  31.478  1.00  0.00     0.031 C 
ATOM     54  C   UNL A   1      47.299  28.476  30.974  1.00  0.00     0.029 A 
ATOM     55  N   UNL A   1      46.624  26.987  29.562  1.00  0.00    -0.354 N 
ATOM     56  C   UNL A   1      51.499  25.733  32.946  1.00  0.00     0.074 A 
ATOM     57  C   UNL A   1      52.505  26.530  32.327  1.00  0.00     0.031 C 
ATOM     58  C   UNL A   1      46.106  28.061  31.442  1.00  0.00     0.029 A 
ATOM     59  C   UNL A   1      45.752  26.921  30.655  1.00  0.00     0.049 A 
ATOM     60  H   UNL A   1      46.431  26.692  28.642  1.00  0.00     0.167 HD
ATOM     61  C   UNL A   1      51.462  24.892  34.047  1.00  0.00     0.037 A 
ATOM     62  C   UNL A   1      44.706  26.103  30.868  1.00  0.00     0.037 A 
ATOM     63  C   UNL A   1      50.130  24.670  34.658  1.00  0.00     0.049 A 
ATOM     64  C   UNL A   1      44.853  25.249  32.104  1.00  0.00     0.074 A 
ATOM     65  C   UNL A   1      49.547  25.324  35.738  1.00  0.00     0.029 A 
ATOM     66  N   UNL A   1      49.115  23.862  34.153  1.00  0.00    -0.354 N 
ATOM     67  N   UNL A   1      45.960  24.997  32.763  1.00  0.00    -0.248 NA
ATOM     68  C   UNL A   1      43.686  24.606  32.694  1.00  0.00     0.031 C 
ATOM     69  C   UNL A   1      48.153  25.130  35.713  1.00  0.00     0.029 A 
ATOM     70  C   UNL A   1      47.884  24.190  34.738  1.00  0.00     0.049 A 
ATOM     71  H   UNL A   1      49.244  23.157  33.478  1.00  0.00     0.167 HD
ATOM     72  C   UNL A   1      45.687  24.072  33.768  1.00  0.00     0.074 A 
ATOM     73  C   UNL A   1      44.240  23.949  33.723  1.00  0.00     0.031 C 
ATOM     74  C   UNL A   1      46.637  23.452  34.553  1.00  0.00     0.037 A 
BRANCH  61  75
ATOM     75  C   UNL A   1      52.737  24.624  34.842  1.00  0.00     0.064 A 
ATOM     76  C   UNL A   1      53.348  25.578  35.689  1.00  0.00     0.173 A 
ATOM     77  C   UNL A   1      53.416  23.395  34.751  1.00  0.00     0.173 A 
ATOM     78  F   UNL A   1      52.753  26.725  36.026  1.00  0.00    -0.203 F 
ATOM     79  C   UNL A   1      54.619  25.391  36.240  1.00  0.00     0.198 A 
ATOM     80  C   UNL A   1      54.692  23.208  35.302  1.00  0.00     0.198 A 
ATOM     81  F   UNL A   1      52.852  22.356  34.115  1.00  0.00    -0.203 F 
ATOM     82  F   UNL A   1      55.175  26.365  36.975  1.00  0.00    -0.200 F 
ATOM     83  C   UNL A   1      55.309  24.222  36.011  1.00  0.00     0.200 A 
ATOM     84  F   UNL A   1      55.336  22.046  35.119  1.00  0.00    -0.200 F 
ATOM     85  F   UNL A   1      56.554  24.069  36.483  1.00  0.00    -0.200 F 
ENDBRANCH  61  75
BRANCH  62  86
ATOM     86  C   UNL A   1      44.012  25.825  29.583  1.00  0.00     0.064 A 
ATOM     87  C   UNL A   1      44.178  24.488  29.142  1.00  0.00     0.173 A 
ATOM     88  C   UNL A   1      42.826  26.479  29.241  1.00  0.00     0.173 A 
ATOM     89  F   UNL A   1      45.301  23.820  29.458  1.00  0.00    -0.203 F 
ATOM     90  C   UNL A   1      43.109  23.765  28.623  1.00  0.00     0.198 A 
ATOM     91  C   UNL A   1      41.768  25.758  28.678  1.00  0.00     0.198 A 
ATOM     92  F   UNL A   1      42.619  27.744  29.631  1.00  0.00    -0.203 F 
ATOM     93  F   UNL A   1      43.214  22.438  28.463  1.00  0.00    -0.200 F 
ATOM     94  C   UNL A   1      41.892  24.393  28.431  1.00  0.00     0.200 A 
ATOM     95  F   UNL A   1      40.572  26.342  28.523  1.00  0.00    -0.200 F 
ATOM     96  F   UNL A   1      40.812  23.665  28.108  1.00  0.00    -0.200 F 
ENDBRANCH  62  86
BRANCH  74  97
ATOM     97  C   UNL A   1      46.459  22.228  35.480  1.00  0.00     0.064 A 
ATOM     98  C   UNL A   1      46.262  22.259  36.870  1.00  0.00     0.173 A 
ATOM     99  C   UNL A   1      46.410  20.910  34.930  1.00  0.00     0.173 A 
ATOM    100  F   UNL A   1      46.119  23.402  37.544  1.00  0.00    -0.203 F 
ATOM    101  C   UNL A   1      46.128  21.094  37.642  1.00  0.00     0.198 A 
ATOM    102  C   UNL A   1      46.237  19.756  35.694  1.00  0.00     0.198 A 
ATOM    103  F   UNL A   1      46.475  20.675  33.613  1.00  0.00    -0.203 F 
ATOM    104  F   UNL A   1      45.981  21.201  38.971  1.00  0.00    -0.200 F 
ATOM    105  C   UNL A   1      46.114  19.845  37.058  1.00  0.00     0.200 A 
ATOM    106  F   UNL A   1      46.165  18.561  35.088  1.00  0.00    -0.200 F 
ATOM    107  F   UNL A   1      45.941  18.743  37.797  1.00  0.00    -0.200 F 
ENDBRANCH  74  97
ENDBRANCH  48  49
ENDBRANCH  41  43
ENDBRANCH  40  41
ENDBRANCH  39  40
ENDBRANCH  38  39
ENDBRANCH  37  38
ENDBRANCH  36  37
ENDBRANCH  35  36
ENDBRANCH  34  35
ENDBRANCH  33  34
ENDBRANCH   1  33
TORSDOF 25
ENDMDL
MODEL 2
REMARK VINA RESULT:     -12.8      6.019     10.610
REMARK SMILES Cc1cccc(O[C@H](C)C(=O)NNC(=O)[C@H]2[C@@H]3CC[C@@H](C3)[C@@H]2C(=O)OCCOCCOCCOCCOC(=O)c2ccc(-c3c4nc(c(-c5c(F)c(F)c(F)c(F)c5F)c5ccc([nH]5)c(-c5c(F)c(F)c(F)c(F)c5F)c5nc(c(-c6c(F)c(F)c(F)c(F)c6F)c6ccc3[nH]6)C=C5)C=C4)cc2)c1
REMARK SMILES IDX 29 1 28 2 27 3 26 4 25 5 23 6 24 7 22 8 16 9 17 10 18 11
REMARK SMILES IDX 21 12 20 13 19 14 14 15 13 16 15 18 12 19 10 20 11 21 8 23
REMARK SMILES IDX 9 24 7 25 6 26 1 27 2 28 3 29 103 30 4 31 5 32 30 33 31 34
REMARK SMILES IDX 32 35 33 36 34 37 35 38 36 39 37 40 38 41 39 42 40 43 41 44
REMARK SMILES IDX 102 45 42 46 101 47 43 48 44 49 45 50 95 51 46 52 100 53
REMARK SMILES IDX 94 54 96 55 47 56 99 57 93 58 92 59 48 61 80 62 60 63 79 64
REMARK SMILES IDX 61 65 64 66 78 67 97 68 62 69 63 70 77 72 98 73 65 74 49 75
REMARK SMILES IDX 50 76 58 77 51 78 52 79 56 80 59 81 53 82 54 83 57 84 55 85
REMARK SMILES IDX 81 86 82 87 90 88 83 89 84 90 88 91 91 92 85 93 86 94 89 95
REMARK SMILES IDX 87 96 66 97 67 98 75 99 68 100 69 101 73 102 76 103 70 104
REMARK SMILES IDX 71 105 74 106 72 107
REMARK H PARENT 13 17 12 22 96 60 64 71
REMARK Flexibility Score: inf
ROOT
ATOM      1  C   UNL A   1      39.801  22.583  26.876  1.00  0.00     0.188 C 
ENDROOT
BRANCH   1   2
ATOM      2  O   UNL A   1      38.671  21.716  25.873  1.00  0.00    -0.376 OA
BRANCH   2   3
ATOM      3  C   UNL A   1      37.375  22.120  24.749  1.00  0.00     0.202 C 
BRANCH   3   4
ATOM      4  C   UNL A   1      36.495  23.770  24.352  1.00  0.00     0.261 C 
BRANCH   4   5
ATOM      5  O   UNL A   1      35.069  24.046  23.299  1.00  0.00    -0.463 OA
BRANCH   5   6
ATOM      6  C   UNL A   1      33.824  23.494  22.851  1.00  0.00     0.310 C 
ATOM      7  O   UNL A   1      33.546  23.055  21.733  1.00  0.00    -0.252 OA
BRANCH   6   8
ATOM      8  C   UNL A   1      32.671  23.115  23.846  1.00  0.00     0.115 C 
ATOM      9  C   UNL A   1      32.987  23.573  25.333  1.00  0.00     0.098 C 
ATOM     10  C   UNL A   1      32.775  22.278  26.158  1.00  0.00     0.003 C 
ATOM     11  C   UNL A   1      33.956  21.324  25.888  1.00  0.00     0.005 C 
ATOM     12  C   UNL A   1      31.657  21.574  25.397  1.00  0.00     0.009 C 
ATOM     13  C   UNL A   1      32.414  21.593  24.057  1.00  0.00     0.004 C 
ATOM     14  C   UNL A   1      33.655  20.801  24.477  1.00  0.00     0.005 C 
BRANCH   9  15
ATOM     15  C   UNL A   1      32.346  24.788  26.038  1.00  0.00     0.242 C 
ATOM     16  N   UNL A   1      32.548  26.108  25.753  1.00  0.00    -0.267 N 
ATOM     17  H   UNL A   1      32.043  26.750  26.305  1.00  0.00     0.191 HD
ATOM     18  O   UNL A   1      31.506  24.566  26.927  1.00  0.00    -0.273 OA
BRANCH  16  19
ATOM     19  N   UNL A   1      33.369  26.655  24.797  1.00  0.00    -0.264 N 
ATOM     20  C   UNL A   1      33.333  27.926  24.308  1.00  0.00     0.279 C 
ATOM     21  O   UNL A   1      34.393  28.320  23.798  1.00  0.00    -0.269 OA
ATOM     22  H   UNL A   1      34.058  26.062  24.422  1.00  0.00     0.191 HD
BRANCH  20  23
ATOM     23  C   UNL A   1      32.073  28.839  24.230  1.00  0.00     0.260 C 
ATOM     24  C   UNL A   1      31.990  29.762  25.454  1.00  0.00     0.064 C 
BRANCH  23  25
ATOM     25  O   UNL A   1      31.461  29.327  23.054  1.00  0.00    -0.481 OA
BRANCH  25  26
ATOM     26  C   UNL A   1      30.138  29.271  22.759  1.00  0.00     0.120 A 
ATOM     27  C   UNL A   1      27.917  31.547  20.637  1.00  0.00     0.044 C 
ATOM     28  C   UNL A   1      28.365  30.446  21.549  1.00  0.00    -0.047 A 
ATOM     29  C   UNL A   1      27.421  29.633  22.175  1.00  0.00     0.003 A 
ATOM     30  C   UNL A   1      29.720  30.240  21.837  1.00  0.00     0.049 A 
ATOM     31  C   UNL A   1      27.833  28.614  23.033  1.00  0.00     0.004 A 
ATOM     32  C   UNL A   1      29.188  28.426  23.315  1.00  0.00     0.046 A 
ENDBRANCH  25  26
ENDBRANCH  23  25
ENDBRANCH  20  23
ENDBRANCH  16  19
ENDBRANCH   9  15
ENDBRANCH   6   8
ENDBRANCH   5   6
ENDBRANCH   4   5
ENDBRANCH   3   4
ENDBRANCH   2   3
ENDBRANCH   1   2
BRANCH   1  33
ATOM     33  C   UNL A   1      41.203  22.174  27.765  1.00  0.00     0.188 C 
BRANCH  33  34
ATOM     34  O   UNL A   1      42.501  21.641  27.394  1.00  0.00    -0.377 OA
BRANCH  34  35
ATOM     35  C   UNL A   1      43.083  21.488  26.099  1.00  0.00     0.188 C 
BRANCH  35  36
ATOM     36  C   UNL A   1      44.328  22.269  25.791  1.00  0.00     0.188 C 
BRANCH  36  37
ATOM     37  O   UNL A   1      44.566  23.079  26.921  1.00  0.00    -0.376 OA
BRANCH  37  38
ATOM     38  C   UNL A   1      44.924  24.410  26.617  1.00  0.00     0.202 C 
BRANCH  38  39
ATOM     39  C   UNL A   1      44.007  25.393  27.336  1.00  0.00     0.261 C 
BRANCH  39  40
ATOM     40  O   UNL A   1      42.644  25.112  26.939  1.00  0.00    -0.460 OA
BRANCH  40  41
ATOM     41  C   UNL A   1      42.236  25.757  25.803  1.00  0.00     0.338 C 
ATOM     42  O   UNL A   1      42.470  25.390  24.669  1.00  0.00    -0.246 OA
BRANCH  41  43
ATOM     43  C   UNL A   1      41.770  27.135  26.151  1.00  0.00     0.060 A 
ATOM     44  C   UNL A   1      42.413  28.250  25.642  1.00  0.00     0.016 A 
ATOM     45  C   UNL A   1      40.874  27.377  27.157  1.00  0.00     0.016 A 
ATOM     46  C   UNL A   1      42.490  29.443  26.420  1.00  0.00     0.010 A 
ATOM     47  C   UNL A   1      40.930  28.620  27.836  1.00  0.00     0.010 A 
ATOM     48  C   UNL A   1      42.030  29.550  27.746  1.00  0.00    -0.014 A 
BRANCH  48  49
ATOM     49  C   UNL A   1      42.915  30.511  29.046  1.00  0.00     0.031 A 
ATOM     50  C   UNL A   1      42.757  32.394  29.582  1.00  0.00     0.074 A 
ATOM     51  C   UNL A   1      43.958  29.711  29.454  1.00  0.00     0.049 A 
ATOM     52  N   UNL A   1      43.560  33.355  29.035  1.00  0.00    -0.248 NA
ATOM     53  C   UNL A   1      41.625  33.370  30.052  1.00  0.00     0.031 C 
ATOM     54  C   UNL A   1      44.703  29.743  30.672  1.00  0.00     0.029 A 
ATOM     55  N   UNL A   1      44.760  28.820  28.719  1.00  0.00    -0.354 N 
ATOM     56  C   UNL A   1      43.240  34.682  29.082  1.00  0.00     0.074 A 
ATOM     57  C   UNL A   1      41.909  34.615  29.583  1.00  0.00     0.031 C 
ATOM     58  C   UNL A   1      46.001  29.460  30.452  1.00  0.00     0.029 A 
ATOM     59  C   UNL A   1      46.090  29.063  29.081  1.00  0.00     0.049 A 
ATOM     60  H   UNL A   1      44.444  28.151  28.069  1.00  0.00     0.167 HD
ATOM     61  C   UNL A   1      44.112  35.713  28.762  1.00  0.00     0.037 A 
ATOM     62  C   UNL A   1      47.221  28.827  28.395  1.00  0.00     0.037 A 
ATOM     63  C   UNL A   1      45.556  35.378  28.774  1.00  0.00     0.049 A 
ATOM     64  C   UNL A   1      48.030  30.072  28.123  1.00  0.00     0.074 A 
ATOM     65  C   UNL A   1      46.482  35.554  29.796  1.00  0.00     0.029 A 
ATOM     66  N   UNL A   1      46.243  34.653  27.804  1.00  0.00    -0.354 N 
ATOM     67  N   UNL A   1      47.615  31.315  28.191  1.00  0.00    -0.248 NA
ATOM     68  C   UNL A   1      49.435  29.966  27.747  1.00  0.00     0.031 C 
ATOM     69  C   UNL A   1      47.597  34.723  29.573  1.00  0.00     0.029 A 
ATOM     70  C   UNL A   1      47.462  34.181  28.310  1.00  0.00     0.049 A 
ATOM     71  H   UNL A   1      45.917  34.493  26.889  1.00  0.00     0.167 HD
ATOM     72  C   UNL A   1      48.632  32.156  27.750  1.00  0.00     0.074 A 
ATOM     73  C   UNL A   1      49.760  31.256  27.582  1.00  0.00     0.031 C 
ATOM     74  C   UNL A   1      48.499  33.512  27.529  1.00  0.00     0.037 A 
BRANCH  61  75
ATOM     75  C   UNL A   1      43.648  37.162  28.875  1.00  0.00     0.064 A 
ATOM     76  C   UNL A   1      43.111  37.900  27.794  1.00  0.00     0.173 A 
ATOM     77  C   UNL A   1      43.761  37.879  30.080  1.00  0.00     0.173 A 
ATOM     78  F   UNL A   1      42.774  37.332  26.633  1.00  0.00    -0.203 F 
ATOM     79  C   UNL A   1      42.890  39.278  27.861  1.00  0.00     0.198 A 
ATOM     80  C   UNL A   1      43.541  39.262  30.147  1.00  0.00     0.198 A 
ATOM     81  F   UNL A   1      44.098  37.245  31.215  1.00  0.00    -0.203 F 
ATOM     82  F   UNL A   1      42.448  39.933  26.777  1.00  0.00    -0.200 F 
ATOM     83  C   UNL A   1      43.144  39.967  29.025  1.00  0.00     0.200 A 
ATOM     84  F   UNL A   1      43.740  39.917  31.299  1.00  0.00    -0.200 F 
ATOM     85  F   UNL A   1      42.996  41.298  29.068  1.00  0.00    -0.200 F 
ENDBRANCH  61  75
BRANCH  62  86
ATOM     86  C   UNL A   1      47.079  27.579  27.599  1.00  0.00     0.064 A 
ATOM     87  C   UNL A   1      46.786  27.824  26.233  1.00  0.00     0.173 A 
ATOM     88  C   UNL A   1      47.809  26.430  27.912  1.00  0.00     0.173 A 
ATOM     89  F   UNL A   1      46.094  28.923  25.890  1.00  0.00    -0.203 F 
ATOM     90  C   UNL A   1      47.418  27.105  25.224  1.00  0.00     0.198 A 
ATOM     91  C   UNL A   1      48.407  25.683  26.890  1.00  0.00     0.198 A 
ATOM     92  F   UNL A   1      48.111  26.151  29.187  1.00  0.00    -0.203 F 
ATOM     93  F   UNL A   1      47.336  27.524  23.953  1.00  0.00    -0.200 F 
ATOM     94  C   UNL A   1      48.262  26.061  25.557  1.00  0.00     0.200 A 
ATOM     95  F   UNL A   1      49.257  24.695  27.199  1.00  0.00    -0.200 F 
ATOM     96  F   UNL A   1      49.014  25.485  24.608  1.00  0.00    -0.200 F 
ENDBRANCH  62  86
BRANCH  74  97
ATOM     97  C   UNL A   1      49.469  34.458  26.786  1.00  0.00     0.064 A 
ATOM     98  C   UNL A   1      50.798  34.735  27.143  1.00  0.00     0.173 A 
ATOM     99  C   UNL A   1      49.065  35.093  25.570  1.00  0.00     0.173 A 
ATOM    100  F   UNL A   1      51.408  34.116  28.156  1.00  0.00    -0.203 F 
ATOM    101  C   UNL A   1      51.607  35.627  26.420  1.00  0.00     0.198 A 
ATOM    102  C   UNL A   1      49.884  35.948  24.832  1.00  0.00     0.198 A 
ATOM    103  F   UNL A   1      47.870  34.876  25.007  1.00  0.00    -0.203 F 
ATOM    104  F   UNL A   1      52.856  35.872  26.844  1.00  0.00    -0.200 F 
ATOM    105  C   UNL A   1      51.154  36.231  25.267  1.00  0.00     0.200 A 
ATOM    106  F   UNL A   1      49.433  36.469  23.681  1.00  0.00    -0.200 F 
ATOM    107  F   UNL A   1      51.947  37.045  24.560  1.00  0.00    -0.200 F 
ENDBRANCH  74  97
ENDBRANCH  48  49
ENDBRANCH  41  43
ENDBRANCH  40  41
ENDBRANCH  39  40
ENDBRANCH  38  39
ENDBRANCH  37  38
ENDBRANCH  36  37
ENDBRANCH  35  36
ENDBRANCH  34  35
ENDBRANCH  33  34
ENDBRANCH   1  33
TORSDOF 25
ENDMDL
MODEL 3
REMARK VINA RESULT:     -12.6      1.942      4.612
REMARK SMILES Cc1cccc(O[C@H](C)C(=O)NNC(=O)[C@H]2[C@@H]3CC[C@@H](C3)[C@@H]2C(=O)OCCOCCOCCOCCOC(=O)c2ccc(-c3c4nc(c(-c5c(F)c(F)c(F)c(F)c5F)c5ccc([nH]5)c(-c5c(F)c(F)c(F)c(F)c5F)c5nc(c(-c6c(F)c(F)c(F)c(F)c6F)c6ccc3[nH]6)C=C5)C=C4)cc2)c1
REMARK SMILES IDX 29 1 28 2 27 3 26 4 25 5 23 6 24 7 22 8 16 9 17 10 18 11
REMARK SMILES IDX 21 12 20 13 19 14 14 15 13 16 15 18 12 19 10 20 11 21 8 23
REMARK SMILES IDX 9 24 7 25 6 26 1 27 2 28 3 29 103 30 4 31 5 32 30 33 31 34
REMARK SMILES IDX 32 35 33 36 34 37 35 38 36 39 37 40 38 41 39 42 40 43 41 44
REMARK SMILES IDX 102 45 42 46 101 47 43 48 44 49 45 50 95 51 46 52 100 53
REMARK SMILES IDX 94 54 96 55 47 56 99 57 93 58 92 59 48 61 80 62 60 63 79 64
REMARK SMILES IDX 61 65 64 66 78 67 97 68 62 69 63 70 77 72 98 73 65 74 49 75
REMARK SMILES IDX 50 76 58 77 51 78 52 79 56 80 59 81 53 82 54 83 57 84 55 85
REMARK SMILES IDX 81 86 82 87 90 88 83 89 84 90 88 91 91 92 85 93 86 94 89 95
REMARK SMILES IDX 87 96 66 97 67 98 75 99 68 100 69 101 73 102 76 103 70 104
REMARK SMILES IDX 71 105 74 106 72 107
REMARK H PARENT 13 17 12 22 96 60 64 71
REMARK Flexibility Score: inf
ROOT
ATOM      1  C   UNL A   1      38.029  22.598  25.586  1.00  0.00     0.188 C 
ENDROOT
BRANCH   1   2
ATOM      2  O   UNL A   1      36.364  23.072  25.782  1.00  0.00    -0.376 OA
BRANCH   2   3
ATOM      3  C   UNL A   1      35.262  24.234  25.048  1.00  0.00     0.202 C 
BRANCH   3   4
ATOM      4  C   UNL A   1      34.444  24.306  23.322  1.00  0.00     0.261 C 
BRANCH   4   5
ATOM      5  O   UNL A   1      33.734  25.725  22.485  1.00  0.00    -0.463 OA
BRANCH   5   6
ATOM      6  C   UNL A   1      33.652  27.156  22.477  1.00  0.00     0.310 C 
ATOM      7  O   UNL A   1      33.916  27.927  21.553  1.00  0.00    -0.252 OA
BRANCH   6   8
ATOM      8  C   UNL A   1      32.928  27.958  23.617  1.00  0.00     0.115 C 
ATOM      9  C   UNL A   1      32.199  27.003  24.653  1.00  0.00     0.098 C 
ATOM     10  C   UNL A   1      30.756  27.566  24.705  1.00  0.00     0.003 C 
ATOM     11  C   UNL A   1      30.032  27.187  23.398  1.00  0.00     0.005 C 
ATOM     12  C   UNL A   1      30.971  29.060  24.491  1.00  0.00     0.009 C 
ATOM     13  C   UNL A   1      31.742  28.867  23.173  1.00  0.00     0.004 C 
ATOM     14  C   UNL A   1      30.660  28.139  22.372  1.00  0.00     0.005 C 
BRANCH   9  15
ATOM     15  C   UNL A   1      32.717  26.679  26.071  1.00  0.00     0.242 C 
ATOM     16  N   UNL A   1      32.275  25.692  26.906  1.00  0.00    -0.267 N 
ATOM     17  H   UNL A   1      32.734  25.626  27.775  1.00  0.00     0.191 HD
ATOM     18  O   UNL A   1      33.680  27.337  26.500  1.00  0.00    -0.273 OA
BRANCH  16  19
ATOM     19  N   UNL A   1      31.272  24.780  26.687  1.00  0.00    -0.264 N 
ATOM     20  C   UNL A   1      31.327  23.431  26.870  1.00  0.00     0.279 C 
ATOM     21  O   UNL A   1      30.227  22.879  27.028  1.00  0.00    -0.269 OA
ATOM     22  H   UNL A   1      30.417  25.142  26.360  1.00  0.00     0.191 HD
BRANCH  20  23
ATOM     23  C   UNL A   1      32.608  22.550  26.773  1.00  0.00     0.260 C 
ATOM     24  C   UNL A   1      33.494  22.734  28.012  1.00  0.00     0.064 C 
BRANCH  23  25
ATOM     25  O   UNL A   1      32.720  21.300  26.123  1.00  0.00    -0.481 OA
BRANCH  25  26
ATOM     26  C   UNL A   1      32.411  21.043  24.828  1.00  0.00     0.120 A 
ATOM     27  C   UNL A   1      32.644  17.836  22.757  1.00  0.00     0.044 C 
ATOM     28  C   UNL A   1      32.421  19.268  23.143  1.00  0.00    -0.047 A 
ATOM     29  C   UNL A   1      32.154  20.220  22.161  1.00  0.00     0.003 A 
ATOM     30  C   UNL A   1      32.528  19.691  24.474  1.00  0.00     0.049 A 
ATOM     31  C   UNL A   1      31.956  21.554  22.514  1.00  0.00     0.004 A 
ATOM     32  C   UNL A   1      32.073  21.962  23.845  1.00  0.00     0.046 A 
ENDBRANCH  25  26
ENDBRANCH  23  25
ENDBRANCH  20  23
ENDBRANCH  16  19
ENDBRANCH   9  15
ENDBRANCH   6   8
ENDBRANCH   5   6
ENDBRANCH   4   5
ENDBRANCH   3   4
ENDBRANCH   2   3
ENDBRANCH   1   2
BRANCH   1  33
ATOM     33  C   UNL A   1      38.982  21.265  26.074  1.00  0.00     0.188 C 
BRANCH  33  34
ATOM     34  O   UNL A   1      40.412  21.025  26.125  1.00  0.00    -0.377 OA
BRANCH  34  35
ATOM     35  C   UNL A   1      41.121  19.833  26.466  1.00  0.00     0.188 C 
BRANCH  35  36
ATOM     36  C   UNL A   1      42.617  19.908  26.562  1.00  0.00     0.188 C 
BRANCH  36  37
ATOM     37  O   UNL A   1      43.068  20.297  25.283  1.00  0.00    -0.376 OA
BRANCH  37  38
ATOM     38  C   UNL A   1      44.024  21.334  25.293  1.00  0.00     0.202 C 
BRANCH  38  39
ATOM     39  C   UNL A   1      43.381  22.665  24.919  1.00  0.00     0.261 C 
BRANCH  39  40
ATOM     40  O   UNL A   1      44.411  23.529  24.384  1.00  0.00    -0.460 OA
BRANCH  40  41
ATOM     41  C   UNL A   1      44.505  24.751  24.993  1.00  0.00     0.338 C 
ATOM     42  O   UNL A   1      43.591  25.540  25.122  1.00  0.00    -0.246 OA
BRANCH  41  43
ATOM     43  C   UNL A   1      45.946  25.113  25.163  1.00  0.00     0.060 A 
ATOM     44  C   UNL A   1      46.786  24.336  25.942  1.00  0.00     0.016 A 
ATOM     45  C   UNL A   1      46.449  26.329  24.784  1.00  0.00     0.016 A 
ATOM     46  C   UNL A   1      47.850  24.947  26.669  1.00  0.00     0.010 A 
ATOM     47  C   UNL A   1      47.571  26.850  25.477  1.00  0.00     0.010 A 
ATOM     48  C   UNL A   1      48.063  26.336  26.733  1.00  0.00    -0.014 A 
BRANCH  48  49
ATOM     49  C   UNL A   1      48.612  27.203  28.265  1.00  0.00     0.031 A 
ATOM     50  C   UNL A   1      50.182  26.916  29.410  1.00  0.00     0.074 A 
ATOM     51  C   UNL A   1      47.546  27.981  28.653  1.00  0.00     0.049 A 
ATOM     52  N   UNL A   1      50.123  26.093  30.499  1.00  0.00    -0.248 NA
ATOM     53  C   UNL A   1      51.739  26.859  29.243  1.00  0.00     0.031 C 
ATOM     54  C   UNL A   1      47.524  29.137  29.492  1.00  0.00     0.029 A 
ATOM     55  N   UNL A   1      46.164  27.735  28.567  1.00  0.00    -0.354 N 
ATOM     56  C   UNL A   1      51.244  25.573  31.079  1.00  0.00     0.074 A 
ATOM     57  C   UNL A   1      52.233  25.951  30.126  1.00  0.00     0.031 C 
ATOM     58  C   UNL A   1      46.420  29.155  30.263  1.00  0.00     0.029 A 
ATOM     59  C   UNL A   1      45.604  28.074  29.804  1.00  0.00     0.049 A 
ATOM     60  H   UNL A   1      45.681  27.389  27.782  1.00  0.00     0.167 HD
ATOM     61  C   UNL A   1      51.269  24.934  32.310  1.00  0.00     0.037 A 
ATOM     62  C   UNL A   1      44.472  27.634  30.381  1.00  0.00     0.037 A 
ATOM     63  C   UNL A   1      50.120  25.196  33.208  1.00  0.00     0.049 A 
ATOM     64  C   UNL A   1      44.699  26.947  31.705  1.00  0.00     0.074 A 
ATOM     65  C   UNL A   1      50.009  26.130  34.233  1.00  0.00     0.029 A 
ATOM     66  N   UNL A   1      48.840  24.660  33.087  1.00  0.00    -0.354 N 
ATOM     67  N   UNL A   1      45.833  26.473  32.165  1.00  0.00    -0.248 NA
ATOM     68  C   UNL A   1      43.592  26.759  32.634  1.00  0.00     0.031 C 
ATOM     69  C   UNL A   1      48.650  26.351  34.527  1.00  0.00     0.029 A 
ATOM     70  C   UNL A   1      47.918  25.410  33.831  1.00  0.00     0.049 A 
ATOM     71  H   UNL A   1      48.614  23.865  32.553  1.00  0.00     0.167 HD
ATOM     72  C   UNL A   1      45.593  25.811  33.366  1.00  0.00     0.074 A 
ATOM     73  C   UNL A   1      44.198  26.113  33.640  1.00  0.00     0.031 C 
ATOM     74  C   UNL A   1      46.519  25.051  34.051  1.00  0.00     0.037 A 
BRANCH  61  75
ATOM     75  C   UNL A   1      52.591  24.414  32.869  1.00  0.00     0.064 A 
ATOM     76  C   UNL A   1      52.915  23.040  32.966  1.00  0.00     0.173 A 
ATOM     77  C   UNL A   1      53.575  25.288  33.365  1.00  0.00     0.173 A 
ATOM     78  F   UNL A   1      52.178  22.086  32.389  1.00  0.00    -0.203 F 
ATOM     79  C   UNL A   1      54.031  22.578  33.668  1.00  0.00     0.198 A 
ATOM     80  C   UNL A   1      54.694  24.825  34.071  1.00  0.00     0.198 A 
ATOM     81  F   UNL A   1      53.459  26.612  33.178  1.00  0.00    -0.203 F 
ATOM     82  F   UNL A   1      54.243  21.259  33.785  1.00  0.00    -0.200 F 
ATOM     83  C   UNL A   1      54.898  23.469  34.257  1.00  0.00     0.200 A 
ATOM     84  F   UNL A   1      55.563  25.699  34.597  1.00  0.00    -0.200 F 
ATOM     85  F   UNL A   1      55.931  23.025  34.987  1.00  0.00    -0.200 F 
ENDBRANCH  61  75
BRANCH  62  86
ATOM     86  C   UNL A   1      43.433  27.402  29.343  1.00  0.00     0.064 A 
ATOM     87  C   UNL A   1      43.299  26.036  28.988  1.00  0.00     0.173 A 
ATOM     88  C   UNL A   1      42.295  28.209  29.260  1.00  0.00     0.173 A 
ATOM     89  F   UNL A   1      44.368  25.224  29.063  1.00  0.00    -0.203 F 
ATOM     90  C   UNL A   1      42.046  25.457  28.821  1.00  0.00     0.198 A 
ATOM     91  C   UNL A   1      41.041  27.628  29.047  1.00  0.00     0.198 A 
ATOM     92  F   UNL A   1      42.367  29.508  29.582  1.00  0.00    -0.203 F 
ATOM     93  F   UNL A   1      41.930  24.123  28.752  1.00  0.00    -0.200 F 
ATOM     94  C   UNL A   1      40.915  26.249  28.893  1.00  0.00     0.200 A 
ATOM     95  F   UNL A   1      39.934  28.375  29.153  1.00  0.00    -0.200 F 
ATOM     96  F   UNL A   1      39.702  25.676  28.918  1.00  0.00    -0.200 F 
ENDBRANCH  62  86
BRANCH  74  97
ATOM     97  C   UNL A   1      46.272  24.068  35.218  1.00  0.00     0.064 A 
ATOM     98  C   UNL A   1      46.216  22.668  35.130  1.00  0.00     0.173 A 
ATOM     99  C   UNL A   1      46.149  24.556  36.556  1.00  0.00     0.173 A 
ATOM    100  F   UNL A   1      46.466  22.016  33.993  1.00  0.00    -0.203 F 
ATOM    101  C   UNL A   1      45.967  21.848  36.242  1.00  0.00     0.198 A 
ATOM    102  C   UNL A   1      45.940  23.737  37.665  1.00  0.00     0.198 A 
ATOM    103  F   UNL A   1      46.276  25.853  36.864  1.00  0.00    -0.203 F 
ATOM    104  F   UNL A   1      45.890  20.519  36.074  1.00  0.00    -0.200 F 
ATOM    105  C   UNL A   1      45.831  22.378  37.507  1.00  0.00     0.200 A 
ATOM    106  F   UNL A   1      45.875  24.281  38.890  1.00  0.00    -0.200 F 
ATOM    107  F   UNL A   1      45.637  21.586  38.568  1.00  0.00    -0.200 F 
ENDBRANCH  74  97
ENDBRANCH  48  49
ENDBRANCH  41  43
ENDBRANCH  40  41
ENDBRANCH  39  40
ENDBRANCH  38  39
ENDBRANCH  37  38
ENDBRANCH  36  37
ENDBRANCH  35  36
ENDBRANCH  34  35
ENDBRANCH  33  34
ENDBRANCH   1  33
TORSDOF 25
ENDMDL
