MODEL 1
REMARK VINA RESULT:     -10.3      0.000      0.000
REMARK SMILES CC(C)(NC(=O)[C@]1(C)CCCO1)C(C)(C)C(=O)OCCOCCOCCOCCOC(=O)c1ccc(-c2c3nc(c(-c4c(F)c(F)c(F)c(F)c4F)c4ccc([nH]4)c(-c4c(F)c(F)c(F)c(F)c4F)c4nc(c(-c5c(F)c(F)c(F)c(F)c5F)c5ccc2[nH]5)C=C4)C=C3)cc1
REMARK SMILES IDX 23 1 22 2 21 3 20 4 19 5 18 6 16 7 17 8 13 9 14 10 15 11
REMARK SMILES IDX 2 12 1 13 3 14 4 15 5 16 6 18 7 19 9 20 12 21 8 22 10 23
REMARK SMILES IDX 11 24 24 25 25 26 26 27 27 28 28 29 29 30 30 31 31 32 32 33
REMARK SMILES IDX 33 34 34 35 95 36 35 37 94 38 36 39 37 40 38 41 88 42 39 43
REMARK SMILES IDX 93 44 87 45 89 46 40 47 92 48 86 49 85 50 41 52 73 53 53 54
REMARK SMILES IDX 72 55 54 56 57 57 71 58 90 59 55 60 56 61 70 63 91 64 58 65
REMARK SMILES IDX 42 66 43 67 51 68 44 69 45 70 49 71 52 72 46 73 47 74 50 75
REMARK SMILES IDX 48 76 74 77 75 78 83 79 76 80 77 81 81 82 84 83 78 84 79 85
REMARK SMILES IDX 82 86 80 87 59 88 60 89 68 90 61 91 62 92 66 93 69 94 63 95
REMARK SMILES IDX 64 96 67 97 65 98
REMARK H PARENT 4 17 89 51 57 62
REMARK Flexibility Score: inf
ROOT
ATOM      1  C   UNL A   1      39.673  22.825  26.909  1.00  0.00     0.188 C 
ENDROOT
BRANCH   1   2
ATOM      2  C   UNL A   1      38.588  23.902  26.572  1.00  0.00     0.188 C 
BRANCH   2   3
ATOM      3  O   UNL A   1      37.338  23.374  26.078  1.00  0.00    -0.376 OA
BRANCH   3   4
ATOM      4  C   UNL A   1      37.290  22.219  25.217  1.00  0.00     0.202 C 
BRANCH   4   5
ATOM      5  C   UNL A   1      36.934  22.381  23.575  1.00  0.00     0.261 C 
BRANCH   5   6
ATOM      6  O   UNL A   1      35.531  23.294  22.957  1.00  0.00    -0.463 OA
BRANCH   6   7
ATOM      7  C   UNL A   1      33.622  23.285  23.001  1.00  0.00     0.313 C 
ATOM      8  O   UNL A   1      32.927  23.043  21.970  1.00  0.00    -0.252 OA
BRANCH   7   9
ATOM      9  C   UNL A   1      32.539  23.536  24.160  1.00  0.00     0.085 C 
ATOM     10  C   UNL A   1      32.433  22.893  25.555  1.00  0.00     0.026 C 
ATOM     11  C   UNL A   1      31.163  23.157  23.464  1.00  0.00     0.026 C 
BRANCH   9  12
ATOM     12  C   UNL A   1      32.605  25.161  24.313  1.00  0.00     0.050 C 
ATOM     13  C   UNL A   1      31.871  25.885  23.156  1.00  0.00     0.035 C 
ATOM     14  C   UNL A   1      34.019  25.861  24.291  1.00  0.00     0.035 C 
BRANCH  12  15
ATOM     15  N   UNL A   1      31.936  25.561  25.562  1.00  0.00    -0.348 N 
ATOM     16  C   UNL A   1      31.614  26.765  26.095  1.00  0.00     0.252 C 
ATOM     17  H   UNL A   1      31.666  24.799  26.124  1.00  0.00     0.164 HD
ATOM     18  O   UNL A   1      30.965  26.706  27.149  1.00  0.00    -0.272 OA
BRANCH  16  19
ATOM     19  C   UNL A   1      31.927  28.157  25.433  1.00  0.00     0.143 C 
ATOM     20  C   UNL A   1      30.561  28.632  24.044  1.00  0.00     0.048 C 
ATOM     21  O   UNL A   1      33.609  28.399  24.668  1.00  0.00    -0.365 OA
ATOM     22  C   UNL A   1      32.051  29.184  26.607  1.00  0.00     0.053 C 
ATOM     23  C   UNL A   1      31.663  29.198  22.353  1.00  0.00     0.032 C 
ATOM     24  C   UNL A   1      33.579  29.102  22.921  1.00  0.00     0.162 C 
ENDBRANCH  16  19
ENDBRANCH  12  15
ENDBRANCH   9  12
ENDBRANCH   7   9
ENDBRANCH   6   7
ENDBRANCH   5   6
ENDBRANCH   4   5
ENDBRANCH   3   4
ENDBRANCH   2   3
ENDBRANCH   1   2
BRANCH   1  25
ATOM     25  O   UNL A   1      40.925  22.884  26.220  1.00  0.00    -0.377 OA
BRANCH  25  26
ATOM     26  C   UNL A   1      41.646  21.668  26.101  1.00  0.00     0.188 C 
BRANCH  26  27
ATOM     27  C   UNL A   1      40.798  20.419  26.353  1.00  0.00     0.188 C 
BRANCH  27  28
ATOM     28  O   UNL A   1      41.274  19.258  25.690  1.00  0.00    -0.376 OA
BRANCH  28  29
ATOM     29  C   UNL A   1      42.358  18.528  26.250  1.00  0.00     0.202 C 
BRANCH  29  30
ATOM     30  C   UNL A   1      43.708  18.425  25.513  1.00  0.00     0.261 C 
BRANCH  30  31
ATOM     31  O   UNL A   1      43.945  19.319  24.407  1.00  0.00    -0.460 OA
BRANCH  31  32
ATOM     32  C   UNL A   1      45.161  19.883  24.249  1.00  0.00     0.338 C 
ATOM     33  O   UNL A   1      46.093  19.470  23.587  1.00  0.00    -0.246 OA
BRANCH  32  34
ATOM     34  C   UNL A   1      45.100  21.244  24.835  1.00  0.00     0.060 A 
ATOM     35  C   UNL A   1      44.784  22.325  23.998  1.00  0.00     0.016 A 
ATOM     36  C   UNL A   1      45.325  21.452  26.197  1.00  0.00     0.016 A 
ATOM     37  C   UNL A   1      44.732  23.619  24.509  1.00  0.00     0.010 A 
ATOM     38  C   UNL A   1      45.314  22.756  26.703  1.00  0.00     0.010 A 
ATOM     39  C   UNL A   1      45.059  23.845  25.850  1.00  0.00    -0.014 A 
BRANCH  39  40
ATOM     40  C   UNL A   1      45.399  25.224  26.271  1.00  0.00     0.031 A 
ATOM     41  C   UNL A   1      44.301  26.060  26.869  1.00  0.00     0.074 A 
ATOM     42  C   UNL A   1      46.650  25.705  26.184  1.00  0.00     0.049 A 
ATOM     43  N   UNL A   1      44.332  27.291  27.309  1.00  0.00    -0.248 NA
ATOM     44  C   UNL A   1      42.983  25.413  26.987  1.00  0.00     0.031 C 
ATOM     45  C   UNL A   1      47.805  24.971  25.675  1.00  0.00     0.029 A 
ATOM     46  N   UNL A   1      47.152  26.936  26.524  1.00  0.00    -0.354 N 
ATOM     47  C   UNL A   1      43.043  27.564  27.749  1.00  0.00     0.074 A 
ATOM     48  C   UNL A   1      42.246  26.387  27.494  1.00  0.00     0.031 C 
ATOM     49  C   UNL A   1      48.883  25.773  25.723  1.00  0.00     0.029 A 
ATOM     50  C   UNL A   1      48.486  27.083  26.237  1.00  0.00     0.049 A 
ATOM     51  H   UNL A   1      46.607  27.646  26.934  1.00  0.00     0.167 HD
ATOM     52  C   UNL A   1      42.570  28.695  28.321  1.00  0.00     0.037 A 
ATOM     53  C   UNL A   1      49.283  28.164  26.356  1.00  0.00     0.037 A 
ATOM     54  C   UNL A   1      43.367  29.868  28.565  1.00  0.00     0.049 A 
ATOM     55  C   UNL A   1      48.712  29.441  26.922  1.00  0.00     0.074 A 
ATOM     56  C   UNL A   1      42.989  31.061  29.152  1.00  0.00     0.029 A 
ATOM     57  N   UNL A   1      44.705  29.996  28.219  1.00  0.00    -0.354 N 
ATOM     58  N   UNL A   1      47.501  29.687  27.360  1.00  0.00    -0.248 NA
ATOM     59  C   UNL A   1      49.625  30.590  27.015  1.00  0.00     0.031 C 
ATOM     60  C   UNL A   1      44.079  31.936  29.101  1.00  0.00     0.029 A 
ATOM     61  C   UNL A   1      45.158  31.263  28.548  1.00  0.00     0.049 A 
ATOM     62  H   UNL A   1      45.250  29.291  27.801  1.00  0.00     0.167 HD
ATOM     63  C   UNL A   1      47.512  31.004  27.803  1.00  0.00     0.074 A 
ATOM     64  C   UNL A   1      48.858  31.499  27.598  1.00  0.00     0.031 C 
ATOM     65  C   UNL A   1      46.502  31.739  28.335  1.00  0.00     0.037 A 
BRANCH  52  66
ATOM     66  C   UNL A   1      41.111  28.729  28.679  1.00  0.00     0.064 A 
ATOM     67  C   UNL A   1      40.650  28.372  29.955  1.00  0.00     0.173 A 
ATOM     68  C   UNL A   1      40.162  29.132  27.728  1.00  0.00     0.173 A 
ATOM     69  F   UNL A   1      41.513  27.960  30.895  1.00  0.00    -0.203 F 
ATOM     70  C   UNL A   1      39.289  28.388  30.255  1.00  0.00     0.198 A 
ATOM     71  C   UNL A   1      38.806  29.180  28.042  1.00  0.00     0.198 A 
ATOM     72  F   UNL A   1      40.548  29.483  26.492  1.00  0.00    -0.203 F 
ATOM     73  F   UNL A   1      38.866  27.987  31.462  1.00  0.00    -0.200 F 
ATOM     74  C   UNL A   1      38.370  28.799  29.301  1.00  0.00     0.200 A 
ATOM     75  F   UNL A   1      37.921  29.590  27.122  1.00  0.00    -0.200 F 
ATOM     76  F   UNL A   1      37.062  28.818  29.593  1.00  0.00    -0.200 F 
ENDBRANCH  52  66
BRANCH  53  77
ATOM     77  C   UNL A   1      50.702  28.091  25.918  1.00  0.00     0.064 A 
ATOM     78  C   UNL A   1      51.050  28.154  24.562  1.00  0.00     0.173 A 
ATOM     79  C   UNL A   1      51.741  27.939  26.849  1.00  0.00     0.173 A 
ATOM     80  F   UNL A   1      50.093  28.271  23.630  1.00  0.00    -0.203 F 
ATOM     81  C   UNL A   1      52.379  28.052  24.153  1.00  0.00     0.198 A 
ATOM     82  C   UNL A   1      53.071  27.869  26.442  1.00  0.00     0.198 A 
ATOM     83  F   UNL A   1      51.464  27.868  28.159  1.00  0.00    -0.203 F 
ATOM     84  F   UNL A   1      52.679  28.068  22.847  1.00  0.00    -0.200 F 
ATOM     85  C   UNL A   1      53.390  27.917  25.094  1.00  0.00     0.200 A 
ATOM     86  F   UNL A   1      54.044  27.752  27.356  1.00  0.00    -0.200 F 
ATOM     87  F   UNL A   1      54.667  27.827  24.701  1.00  0.00    -0.200 F 
ENDBRANCH  53  77
BRANCH  65  88
ATOM     88  C   UNL A   1      46.820  33.145  28.762  1.00  0.00     0.064 A 
ATOM     89  C   UNL A   1      46.652  34.238  27.898  1.00  0.00     0.173 A 
ATOM     90  C   UNL A   1      47.267  33.406  30.068  1.00  0.00     0.173 A 
ATOM     91  F   UNL A   1      46.239  34.044  26.637  1.00  0.00    -0.203 F 
ATOM     92  C   UNL A   1      46.950  35.533  28.314  1.00  0.00     0.198 A 
ATOM     93  C   UNL A   1      47.529  34.705  30.491  1.00  0.00     0.198 A 
ATOM     94  F   UNL A   1      47.435  32.400  30.939  1.00  0.00    -0.203 F 
ATOM     95  F   UNL A   1      46.838  36.554  27.453  1.00  0.00    -0.200 F 
ATOM     96  C   UNL A   1      47.382  35.766  29.612  1.00  0.00     0.200 A 
ATOM     97  F   UNL A   1      47.927  34.930  31.752  1.00  0.00    -0.200 F 
ATOM     98  F   UNL A   1      47.663  37.014  30.012  1.00  0.00    -0.200 F 
ENDBRANCH  65  88
ENDBRANCH  39  40
ENDBRANCH  32  34
ENDBRANCH  31  32
ENDBRANCH  30  31
ENDBRANCH  29  30
ENDBRANCH  28  29
ENDBRANCH  27  28
ENDBRANCH  26  27
ENDBRANCH  25  26
ENDBRANCH   1  25
TORSDOF 23
ENDMDL
MODEL 2
REMARK VINA RESULT:      -9.7      5.477     10.083
REMARK SMILES CC(C)(NC(=O)[C@]1(C)CCCO1)C(C)(C)C(=O)OCCOCCOCCOCCOC(=O)c1ccc(-c2c3nc(c(-c4c(F)c(F)c(F)c(F)c4F)c4ccc([nH]4)c(-c4c(F)c(F)c(F)c(F)c4F)c4nc(c(-c5c(F)c(F)c(F)c(F)c5F)c5ccc2[nH]5)C=C4)C=C3)cc1
REMARK SMILES IDX 23 1 22 2 21 3 20 4 19 5 18 6 16 7 17 8 13 9 14 10 15 11
REMARK SMILES IDX 2 12 1 13 3 14 4 15 5 16 6 18 7 19 9 20 12 21 8 22 10 23
REMARK SMILES IDX 11 24 24 25 25 26 26 27 27 28 28 29 29 30 30 31 31 32 32 33
REMARK SMILES IDX 33 34 34 35 95 36 35 37 94 38 36 39 37 40 38 41 88 42 39 43
REMARK SMILES IDX 93 44 87 45 89 46 40 47 92 48 86 49 85 50 41 52 73 53 53 54
REMARK SMILES IDX 72 55 54 56 57 57 71 58 90 59 55 60 56 61 70 63 91 64 58 65
REMARK SMILES IDX 42 66 43 67 51 68 44 69 45 70 49 71 52 72 46 73 47 74 50 75
REMARK SMILES IDX 48 76 74 77 75 78 83 79 76 80 77 81 81 82 84 83 78 84 79 85
REMARK SMILES IDX 82 86 80 87 59 88 60 89 68 90 61 91 62 92 66 93 69 94 63 95
REMARK SMILES IDX 64 96 67 97 65 98
REMARK H PARENT 4 17 89 51 57 62
REMARK Flexibility Score: inf
ROOT
ATOM      1  C   UNL A   1      33.743  28.933  23.541  1.00  0.00     0.188 C 
ENDROOT
BRANCH   1   2
ATOM      2  C   UNL A   1      32.523  28.102  23.021  1.00  0.00     0.188 C 
BRANCH   2   3
ATOM      3  O   UNL A   1      31.311  28.861  22.817  1.00  0.00    -0.376 OA
BRANCH   3   4
ATOM      4  C   UNL A   1      30.088  28.235  22.383  1.00  0.00     0.202 C 
BRANCH   4   5
ATOM      5  C   UNL A   1      29.012  27.574  23.502  1.00  0.00     0.261 C 
BRANCH   5   6
ATOM      6  O   UNL A   1      29.530  26.720  24.981  1.00  0.00    -0.463 OA
BRANCH   6   7
ATOM      7  C   UNL A   1      30.180  25.019  25.559  1.00  0.00     0.313 C 
ATOM      8  O   UNL A   1      29.853  24.519  26.675  1.00  0.00    -0.252 OA
BRANCH   7   9
ATOM      9  C   UNL A   1      31.159  23.927  24.904  1.00  0.00     0.085 C 
ATOM     10  C   UNL A   1      31.243  23.439  23.446  1.00  0.00     0.026 C 
ATOM     11  C   UNL A   1      30.834  22.606  25.726  1.00  0.00     0.026 C 
BRANCH   9  12
ATOM     12  C   UNL A   1      32.619  24.480  25.379  1.00  0.00     0.050 C 
ATOM     13  C   UNL A   1      33.255  23.584  26.472  1.00  0.00     0.035 C 
ATOM     14  C   UNL A   1      32.704  25.910  26.041  1.00  0.00     0.035 C 
BRANCH  12  15
ATOM     15  N   UNL A   1      33.541  24.473  24.230  1.00  0.00    -0.348 N 
ATOM     16  C   UNL A   1      34.475  23.591  23.798  1.00  0.00     0.252 C 
ATOM     17  H   UNL A   1      33.462  25.271  23.659  1.00  0.00     0.164 HD
ATOM     18  O   UNL A   1      35.009  23.890  22.721  1.00  0.00    -0.272 OA
BRANCH  16  19
ATOM     19  C   UNL A   1      34.831  22.234  24.510  1.00  0.00     0.143 C 
ATOM     20  C   UNL A   1      33.550  20.778  23.995  1.00  0.00     0.048 C 
ATOM     21  O   UNL A   1      34.961  22.233  26.368  1.00  0.00    -0.365 OA
ATOM     22  C   UNL A   1      36.329  21.938  24.167  1.00  0.00     0.053 C 
ATOM     23  C   UNL A   1      32.945  19.909  25.805  1.00  0.00     0.032 C 
ATOM     24  C   UNL A   1      33.993  20.858  27.218  1.00  0.00     0.162 C 
ENDBRANCH  16  19
ENDBRANCH  12  15
ENDBRANCH   9  12
ENDBRANCH   7   9
ENDBRANCH   6   7
ENDBRANCH   5   6
ENDBRANCH   4   5
ENDBRANCH   3   4
ENDBRANCH   2   3
ENDBRANCH   1   2
BRANCH   1  25
ATOM     25  O   UNL A   1      34.252  28.649  24.847  1.00  0.00    -0.377 OA
BRANCH  25  26
ATOM     26  C   UNL A   1      33.401  28.947  25.942  1.00  0.00     0.188 C 
BRANCH  26  27
ATOM     27  C   UNL A   1      33.256  30.445  26.223  1.00  0.00     0.188 C 
BRANCH  27  28
ATOM     28  O   UNL A   1      32.030  30.797  26.844  1.00  0.00    -0.376 OA
BRANCH  28  29
ATOM     29  C   UNL A   1      31.405  32.030  26.509  1.00  0.00     0.202 C 
BRANCH  29  30
ATOM     30  C   UNL A   1      31.960  33.368  27.035  1.00  0.00     0.261 C 
BRANCH  30  31
ATOM     31  O   UNL A   1      32.786  33.340  28.217  1.00  0.00    -0.460 OA
BRANCH  31  32
ATOM     32  C   UNL A   1      33.850  34.164  28.311  1.00  0.00     0.338 C 
ATOM     33  O   UNL A   1      33.849  35.379  28.352  1.00  0.00    -0.246 OA
BRANCH  32  34
ATOM     34  C   UNL A   1      35.037  33.325  28.603  1.00  0.00     0.060 A 
ATOM     35  C   UNL A   1      34.842  31.989  28.984  1.00  0.00     0.016 A 
ATOM     36  C   UNL A   1      36.330  33.839  28.480  1.00  0.00     0.016 A 
ATOM     37  C   UNL A   1      35.931  31.175  29.280  1.00  0.00     0.010 A 
ATOM     38  C   UNL A   1      37.423  33.035  28.818  1.00  0.00     0.010 A 
ATOM     39  C   UNL A   1      37.222  31.715  29.260  1.00  0.00    -0.014 A 
BRANCH  39  40
ATOM     40  C   UNL A   1      38.304  30.984  29.958  1.00  0.00     0.031 A 
ATOM     41  C   UNL A   1      38.527  31.292  31.414  1.00  0.00     0.074 A 
ATOM     42  C   UNL A   1      39.030  30.035  29.345  1.00  0.00     0.049 A 
ATOM     43  N   UNL A   1      39.406  30.800  32.248  1.00  0.00    -0.248 NA
ATOM     44  C   UNL A   1      37.628  32.296  32.009  1.00  0.00     0.031 C 
ATOM     45  C   UNL A   1      38.869  29.611  27.957  1.00  0.00     0.029 A 
ATOM     46  N   UNL A   1      40.056  29.257  29.821  1.00  0.00    -0.354 N 
ATOM     47  C   UNL A   1      39.169  31.437  33.460  1.00  0.00     0.074 A 
ATOM     48  C   UNL A   1      38.088  32.372  33.247  1.00  0.00     0.031 C 
ATOM     49  C   UNL A   1      39.777  28.656  27.687  1.00  0.00     0.029 A 
ATOM     50  C   UNL A   1      40.600  28.426  28.874  1.00  0.00     0.049 A 
ATOM     51  H   UNL A   1      40.372  29.293  30.753  1.00  0.00     0.167 HD
ATOM     52  C   UNL A   1      39.793  31.252  34.645  1.00  0.00     0.037 A 
ATOM     53  C   UNL A   1      41.656  27.592  28.957  1.00  0.00     0.037 A 
ATOM     54  C   UNL A   1      40.875  30.325  34.848  1.00  0.00     0.049 A 
ATOM     55  C   UNL A   1      42.390  27.463  30.270  1.00  0.00     0.074 A 
ATOM     56  C   UNL A   1      41.567  30.050  36.014  1.00  0.00     0.029 A 
ATOM     57  N   UNL A   1      41.429  29.532  33.854  1.00  0.00    -0.354 N 
ATOM     58  N   UNL A   1      42.147  28.047  31.419  1.00  0.00    -0.248 NA
ATOM     59  C   UNL A   1      43.542  26.550  30.296  1.00  0.00     0.031 C 
ATOM     60  C   UNL A   1      42.584  29.139  35.709  1.00  0.00     0.029 A 
ATOM     61  C   UNL A   1      42.480  28.792  34.372  1.00  0.00     0.049 A 
ATOM     62  H   UNL A   1      41.121  29.500  32.920  1.00  0.00     0.167 HD
ATOM     63  C   UNL A   1      43.095  27.556  32.308  1.00  0.00     0.074 A 
ATOM     64  C   UNL A   1      43.906  26.610  31.569  1.00  0.00     0.031 C 
ATOM     65  C   UNL A   1      43.278  27.856  33.619  1.00  0.00     0.037 A 
BRANCH  52  66
ATOM     66  C   UNL A   1      39.349  32.104  35.800  1.00  0.00     0.064 A 
ATOM     67  C   UNL A   1      39.869  33.389  36.019  1.00  0.00     0.173 A 
ATOM     68  C   UNL A   1      38.382  31.627  36.697  1.00  0.00     0.173 A 
ATOM     69  F   UNL A   1      40.810  33.886  35.202  1.00  0.00    -0.203 F 
ATOM     70  C   UNL A   1      39.459  34.151  37.111  1.00  0.00     0.198 A 
ATOM     71  C   UNL A   1      37.949  32.405  37.768  1.00  0.00     0.198 A 
ATOM     72  F   UNL A   1      37.853  30.405  36.535  1.00  0.00    -0.203 F 
ATOM     73  F   UNL A   1      40.012  35.351  37.333  1.00  0.00    -0.200 F 
ATOM     74  C   UNL A   1      38.495  33.662  37.979  1.00  0.00     0.200 A 
ATOM     75  F   UNL A   1      37.008  31.935  38.599  1.00  0.00    -0.200 F 
ATOM     76  F   UNL A   1      38.099  34.398  39.027  1.00  0.00    -0.200 F 
ENDBRANCH  52  66
BRANCH  53  77
ATOM     77  C   UNL A   1      42.095  26.828  27.760  1.00  0.00     0.064 A 
ATOM     78  C   UNL A   1      41.647  25.521  27.525  1.00  0.00     0.173 A 
ATOM     79  C   UNL A   1      42.989  27.386  26.832  1.00  0.00     0.173 A 
ATOM     80  F   UNL A   1      40.814  24.932  28.396  1.00  0.00    -0.203 F 
ATOM     81  C   UNL A   1      42.087  24.796  26.419  1.00  0.00     0.198 A 
ATOM     82  C   UNL A   1      43.403  26.671  25.710  1.00  0.00     0.198 A 
ATOM     83  F   UNL A   1      43.453  28.631  27.011  1.00  0.00    -0.203 F 
ATOM     84  F   UNL A   1      41.679  23.532  26.244  1.00  0.00    -0.200 F 
ATOM     85  C   UNL A   1      42.959  25.374  25.508  1.00  0.00     0.200 A 
ATOM     86  F   UNL A   1      44.235  27.240  24.827  1.00  0.00    -0.200 F 
ATOM     87  F   UNL A   1      43.376  24.679  24.441  1.00  0.00    -0.200 F 
ENDBRANCH  53  77
BRANCH  65  88
ATOM     88  C   UNL A   1      44.377  27.133  34.348  1.00  0.00     0.064 A 
ATOM     89  C   UNL A   1      45.667  27.672  34.466  1.00  0.00     0.173 A 
ATOM     90  C   UNL A   1      44.124  25.898  34.967  1.00  0.00     0.173 A 
ATOM     91  F   UNL A   1      45.965  28.843  33.885  1.00  0.00    -0.203 F 
ATOM     92  C   UNL A   1      46.670  26.987  35.147  1.00  0.00     0.198 A 
ATOM     93  C   UNL A   1      45.120  25.234  35.678  1.00  0.00     0.198 A 
ATOM     94  F   UNL A   1      42.906  25.342  34.895  1.00  0.00    -0.203 F 
ATOM     95  F   UNL A   1      47.910  27.494  35.197  1.00  0.00    -0.200 F 
ATOM     96  C   UNL A   1      46.393  25.773  35.758  1.00  0.00     0.200 A 
ATOM     97  F   UNL A   1      44.844  24.070  36.284  1.00  0.00    -0.200 F 
ATOM     98  F   UNL A   1      47.359  25.118  36.418  1.00  0.00    -0.200 F 
ENDBRANCH  65  88
ENDBRANCH  39  40
ENDBRANCH  32  34
ENDBRANCH  31  32
ENDBRANCH  30  31
ENDBRANCH  29  30
ENDBRANCH  28  29
ENDBRANCH  27  28
ENDBRANCH  26  27
ENDBRANCH  25  26
ENDBRANCH   1  25
TORSDOF 23
ENDMDL
MODEL 3
REMARK VINA RESULT:      -9.7      1.125      7.303
REMARK SMILES CC(C)(NC(=O)[C@]1(C)CCCO1)C(C)(C)C(=O)OCCOCCOCCOCCOC(=O)c1ccc(-c2c3nc(c(-c4c(F)c(F)c(F)c(F)c4F)c4ccc([nH]4)c(-c4c(F)c(F)c(F)c(F)c4F)c4nc(c(-c5c(F)c(F)c(F)c(F)c5F)c5ccc2[nH]5)C=C4)C=C3)cc1
REMARK SMILES IDX 23 1 22 2 21 3 20 4 19 5 18 6 16 7 17 8 13 9 14 10 15 11
REMARK SMILES IDX 2 12 1 13 3 14 4 15 5 16 6 18 7 19 9 20 12 21 8 22 10 23
REMARK SMILES IDX 11 24 24 25 25 26 26 27 27 28 28 29 29 30 30 31 31 32 32 33
REMARK SMILES IDX 33 34 34 35 95 36 35 37 94 38 36 39 37 40 38 41 88 42 39 43
REMARK SMILES IDX 93 44 87 45 89 46 40 47 92 48 86 49 85 50 41 52 73 53 53 54
REMARK SMILES IDX 72 55 54 56 57 57 71 58 90 59 55 60 56 61 70 63 91 64 58 65
REMARK SMILES IDX 42 66 43 67 51 68 44 69 45 70 49 71 52 72 46 73 47 74 50 75
REMARK SMILES IDX 48 76 74 77 75 78 83 79 76 80 77 81 81 82 84 83 78 84 79 85
REMARK SMILES IDX 82 86 80 87 59 88 60 89 68 90 61 91 62 92 66 93 69 94 63 95
REMARK SMILES IDX 64 96 67 97 65 98
REMARK H PARENT 4 17 89 51 57 62
REMARK Flexibility Score: inf
ROOT
ATOM      1  C   UNL A   1      38.646  22.788  26.512  1.00  0.00     0.188 C 
ENDROOT
BRANCH   1   2
ATOM      2  C   UNL A   1      37.786  23.726  25.602  1.00  0.00     0.188 C 
BRANCH   2   3
ATOM      3  O   UNL A   1      36.672  23.083  24.945  1.00  0.00    -0.376 OA
BRANCH   3   4
ATOM      4  C   UNL A   1      36.635  21.658  24.735  1.00  0.00     0.202 C 
BRANCH   4   5
ATOM      5  C   UNL A   1      35.328  20.739  25.279  1.00  0.00     0.261 C 
BRANCH   5   6
ATOM      6  O   UNL A   1      33.774  21.447  25.797  1.00  0.00    -0.463 OA
BRANCH   6   7
ATOM      7  C   UNL A   1      32.274  22.400  25.099  1.00  0.00     0.313 C 
ATOM      8  O   UNL A   1      31.301  22.751  25.829  1.00  0.00    -0.252 OA
BRANCH   7   9
ATOM      9  C   UNL A   1      31.887  22.936  23.635  1.00  0.00     0.085 C 
ATOM     10  C   UNL A   1      30.605  23.646  23.162  1.00  0.00     0.026 C 
ATOM     11  C   UNL A   1      31.946  21.626  22.738  1.00  0.00     0.026 C 
BRANCH   9  12
ATOM     12  C   UNL A   1      33.185  23.860  23.279  1.00  0.00     0.050 C 
ATOM     13  C   UNL A   1      32.783  25.185  22.581  1.00  0.00     0.035 C 
ATOM     14  C   UNL A   1      34.268  23.285  22.286  1.00  0.00     0.035 C 
BRANCH  12  15
ATOM     15  N   UNL A   1      33.880  24.226  24.524  1.00  0.00    -0.348 N 
ATOM     16  C   UNL A   1      33.791  25.293  25.355  1.00  0.00     0.252 C 
ATOM     17  H   UNL A   1      34.544  23.559  24.813  1.00  0.00     0.164 HD
ATOM     18  O   UNL A   1      34.491  25.213  26.375  1.00  0.00    -0.272 OA
BRANCH  16  19
ATOM     19  C   UNL A   1      32.828  26.519  25.148  1.00  0.00     0.143 C 
ATOM     20  C   UNL A   1      30.977  26.119  25.808  1.00  0.00     0.048 C 
ATOM     21  O   UNL A   1      32.669  27.221  23.429  1.00  0.00    -0.365 OA
ATOM     22  C   UNL A   1      33.519  27.742  25.839  1.00  0.00     0.053 C 
ATOM     23  C   UNL A   1      29.698  26.686  24.247  1.00  0.00     0.032 C 
ATOM     24  C   UNL A   1      30.894  27.462  22.845  1.00  0.00     0.162 C 
ENDBRANCH  16  19
ENDBRANCH  12  15
ENDBRANCH   9  12
ENDBRANCH   7   9
ENDBRANCH   6   7
ENDBRANCH   5   6
ENDBRANCH   4   5
ENDBRANCH   3   4
ENDBRANCH   2   3
ENDBRANCH   1   2
BRANCH   1  25
ATOM     25  O   UNL A   1      39.873  22.271  25.989  1.00  0.00    -0.377 OA
BRANCH  25  26
ATOM     26  C   UNL A   1      40.446  21.170  26.675  1.00  0.00     0.188 C 
BRANCH  26  27
ATOM     27  C   UNL A   1      40.162  19.817  26.019  1.00  0.00     0.188 C 
BRANCH  27  28
ATOM     28  O   UNL A   1      41.286  19.246  25.368  1.00  0.00    -0.376 OA
BRANCH  28  29
ATOM     29  C   UNL A   1      42.481  19.020  26.106  1.00  0.00     0.202 C 
BRANCH  29  30
ATOM     30  C   UNL A   1      43.749  18.483  25.415  1.00  0.00     0.261 C 
BRANCH  30  31
ATOM     31  O   UNL A   1      44.169  19.112  24.187  1.00  0.00    -0.460 OA
BRANCH  31  32
ATOM     32  C   UNL A   1      45.325  19.806  24.150  1.00  0.00     0.338 C 
ATOM     33  O   UNL A   1      46.345  19.522  23.552  1.00  0.00    -0.246 OA
BRANCH  32  34
ATOM     34  C   UNL A   1      45.073  21.125  24.779  1.00  0.00     0.060 A 
ATOM     35  C   UNL A   1      44.560  22.163  23.986  1.00  0.00     0.016 A 
ATOM     36  C   UNL A   1      45.314  21.333  26.139  1.00  0.00     0.016 A 
ATOM     37  C   UNL A   1      44.324  23.419  24.538  1.00  0.00     0.010 A 
ATOM     38  C   UNL A   1      45.117  22.605  26.684  1.00  0.00     0.010 A 
ATOM     39  C   UNL A   1      44.662  23.661  25.873  1.00  0.00    -0.014 A 
BRANCH  39  40
ATOM     40  C   UNL A   1      44.796  25.065  26.325  1.00  0.00     0.031 A 
ATOM     41  C   UNL A   1      46.150  25.710  26.205  1.00  0.00     0.074 A 
ATOM     42  C   UNL A   1      43.744  25.770  26.772  1.00  0.00     0.049 A 
ATOM     43  N   UNL A   1      46.534  26.917  26.532  1.00  0.00    -0.248 NA
ATOM     44  C   UNL A   1      47.219  24.873  25.634  1.00  0.00     0.031 C 
ATOM     45  C   UNL A   1      42.376  25.271  26.879  1.00  0.00     0.029 A 
ATOM     46  N   UNL A   1      43.670  27.064  27.221  1.00  0.00    -0.354 N 
ATOM     47  C   UNL A   1      47.884  26.979  26.212  1.00  0.00     0.074 A 
ATOM     48  C   UNL A   1      48.262  25.684  25.697  1.00  0.00     0.031 C 
ATOM     49  C   UNL A   1      41.597  26.247  27.380  1.00  0.00     0.029 A 
ATOM     50  C   UNL A   1      42.419  27.426  27.654  1.00  0.00     0.049 A 
ATOM     51  H   UNL A   1      44.442  27.676  27.233  1.00  0.00     0.167 HD
ATOM     52  C   UNL A   1      48.730  28.028  26.331  1.00  0.00     0.037 A 
ATOM     53  C   UNL A   1      41.998  28.571  28.226  1.00  0.00     0.037 A 
ATOM     54  C   UNL A   1      48.349  29.314  26.853  1.00  0.00     0.049 A 
ATOM     55  C   UNL A   1      42.980  29.700  28.424  1.00  0.00     0.074 A 
ATOM     56  C   UNL A   1      49.126  30.448  27.002  1.00  0.00     0.029 A 
ATOM     57  N   UNL A   1      47.083  29.629  27.324  1.00  0.00    -0.354 N 
ATOM     58  N   UNL A   1      44.249  29.764  28.097  1.00  0.00    -0.248 NA
ATOM     59  C   UNL A   1      42.466  30.919  29.067  1.00  0.00     0.031 C 
ATOM     60  C   UNL A   1      48.347  31.428  27.626  1.00  0.00     0.029 A 
ATOM     61  C   UNL A   1      47.065  30.930  27.798  1.00  0.00     0.049 A 
ATOM     62  H   UNL A   1      46.312  29.017  27.321  1.00  0.00     0.167 HD
ATOM     63  C   UNL A   1      44.677  31.033  28.468  1.00  0.00     0.074 A 
ATOM     64  C   UNL A   1      43.527  31.712  29.028  1.00  0.00     0.031 C 
ATOM     65  C   UNL A   1      45.910  31.589  28.354  1.00  0.00     0.037 A 
BRANCH  52  66
ATOM     66  C   UNL A   1      50.162  27.808  25.931  1.00  0.00     0.064 A 
ATOM     67  C   UNL A   1      51.183  27.653  26.880  1.00  0.00     0.173 A 
ATOM     68  C   UNL A   1      50.513  27.747  24.574  1.00  0.00     0.173 A 
ATOM     69  F   UNL A   1      50.905  27.723  28.190  1.00  0.00    -0.203 F 
ATOM     70  C   UNL A   1      52.507  27.475  26.485  1.00  0.00     0.198 A 
ATOM     71  C   UNL A   1      51.832  27.535  24.183  1.00  0.00     0.198 A 
ATOM     72  F   UNL A   1      49.576  27.891  23.625  1.00  0.00    -0.203 F 
ATOM     73  F   UNL A   1      53.474  27.387  27.408  1.00  0.00    -0.200 F 
ATOM     74  C   UNL A   1      52.829  27.409  25.137  1.00  0.00     0.200 A 
ATOM     75  F   UNL A   1      52.139  27.458  22.880  1.00  0.00    -0.200 F 
ATOM     76  F   UNL A   1      54.103  27.233  24.759  1.00  0.00    -0.200 F 
ENDBRANCH  52  66
BRANCH  53  77
ATOM     77  C   UNL A   1      40.584  28.704  28.668  1.00  0.00     0.064 A 
ATOM     78  C   UNL A   1      40.201  28.408  29.983  1.00  0.00     0.173 A 
ATOM     79  C   UNL A   1      39.582  29.113  27.775  1.00  0.00     0.173 A 
ATOM     80  F   UNL A   1      41.116  27.986  30.868  1.00  0.00    -0.203 F 
ATOM     81  C   UNL A   1      38.869  28.502  30.385  1.00  0.00     0.198 A 
ATOM     82  C   UNL A   1      38.256  29.237  28.186  1.00  0.00     0.198 A 
ATOM     83  F   UNL A   1      39.893  29.404  26.504  1.00  0.00    -0.203 F 
ATOM     84  F   UNL A   1      38.524  28.169  31.636  1.00  0.00    -0.200 F 
ATOM     85  C   UNL A   1      37.899  28.924  29.487  1.00  0.00     0.200 A 
ATOM     86  F   UNL A   1      37.326  29.658  27.318  1.00  0.00    -0.200 F 
ATOM     87  F   UNL A   1      36.621  29.021  29.876  1.00  0.00    -0.200 F 
ENDBRANCH  53  77
BRANCH  65  88
ATOM     88  C   UNL A   1      46.073  33.011  28.814  1.00  0.00     0.064 A 
ATOM     89  C   UNL A   1      46.476  33.326  30.120  1.00  0.00     0.173 A 
ATOM     90  C   UNL A   1      45.857  34.074  27.922  1.00  0.00     0.173 A 
ATOM     91  F   UNL A   1      46.685  32.350  31.016  1.00  0.00    -0.203 F 
ATOM     92  C   UNL A   1      46.622  34.650  30.526  1.00  0.00     0.198 A 
ATOM     93  C   UNL A   1      46.040  35.395  28.320  1.00  0.00     0.198 A 
ATOM     94  F   UNL A   1      45.481  33.831  26.657  1.00  0.00    -0.203 F 
ATOM     95  F   UNL A   1      46.951  34.928  31.795  1.00  0.00    -0.200 F 
ATOM     96  C   UNL A   1      46.412  35.683  29.624  1.00  0.00     0.200 A 
ATOM     97  F   UNL A   1      45.854  36.390  27.441  1.00  0.00    -0.200 F 
ATOM     98  F   UNL A   1      46.559  36.957  30.014  1.00  0.00    -0.200 F 
ENDBRANCH  65  88
ENDBRANCH  39  40
ENDBRANCH  32  34
ENDBRANCH  31  32
ENDBRANCH  30  31
ENDBRANCH  29  30
ENDBRANCH  28  29
ENDBRANCH  27  28
ENDBRANCH  26  27
ENDBRANCH  25  26
ENDBRANCH   1  25
TORSDOF 23
ENDMDL
