MODEL 1
REMARK VINA RESULT:     -10.7      0.000      0.000
REMARK SMILES O=C(CC1CC[NH+](C[C@@H]2Cc3ccccc32)CC1)OCCOCCOCCOCCOC(=O)c1ccc(-c2c3nc(c(-c4c(F)c(F)c(F)c(F)c4F)c4ccc([nH]4)c(-c4c(F)c(F)c(F)c(F)c4F)c4nc(c(-c5c(F)c(F)c(F)c(F)c5F)c5ccc2[nH]5)C=C4)C=C3)cc1
REMARK SMILES IDX 24 1 23 2 22 3 21 4 20 5 19 6 2 7 1 8 3 9 4 10 5 11 18 12
REMARK SMILES IDX 6 13 17 14 7 15 8 17 9 18 10 19 16 20 11 21 15 22 12 23
REMARK SMILES IDX 14 24 13 25 25 26 26 27 27 28 28 29 29 30 30 31 31 32 32 33
REMARK SMILES IDX 33 34 34 35 35 36 96 37 36 38 95 39 37 40 38 41 39 42 89 43
REMARK SMILES IDX 40 44 94 45 88 46 90 47 41 48 93 49 87 50 86 51 42 53 74 54
REMARK SMILES IDX 54 55 73 56 55 57 58 58 72 59 91 60 56 61 57 62 71 64 92 65
REMARK SMILES IDX 59 66 43 67 44 68 52 69 45 70 46 71 50 72 53 73 47 74 48 75
REMARK SMILES IDX 51 76 49 77 75 78 76 79 84 80 77 81 78 82 82 83 85 84 79 85
REMARK SMILES IDX 80 86 83 87 81 88 60 89 61 90 69 91 62 92 63 93 67 94 70 95
REMARK SMILES IDX 64 96 65 97 68 98 66 99
REMARK H PARENT 7 16 90 52 58 63
REMARK Flexibility Score: inf
ROOT
ATOM      1  C   UNL A   1      34.405  33.341  28.318  1.00  0.00     0.188 C 
ENDROOT
BRANCH   1   2
ATOM      2  C   UNL A   1      33.922  31.891  28.086  1.00  0.00     0.188 C 
BRANCH   2   3
ATOM      3  O   UNL A   1      34.942  30.993  27.679  1.00  0.00    -0.376 OA
BRANCH   3   4
ATOM      4  C   UNL A   1      34.834  29.669  27.216  1.00  0.00     0.202 C 
BRANCH   4   5
ATOM      5  C   UNL A   1      33.502  29.234  26.603  1.00  0.00     0.261 C 
BRANCH   5   6
ATOM      6  O   UNL A   1      33.207  27.843  26.615  1.00  0.00    -0.463 OA
BRANCH   6   7
ATOM      7  C   UNL A   1      32.041  27.310  26.991  1.00  0.00     0.306 C 
ATOM      8  O   UNL A   1      31.538  27.703  28.038  1.00  0.00    -0.252 OA
BRANCH   7   9
ATOM      9  C   UNL A   1      31.392  26.217  26.168  1.00  0.00     0.126 C 
BRANCH   9  10
ATOM     10  C   UNL A   1      31.624  24.756  26.548  1.00  0.00     0.011 C 
ATOM     11  C   UNL A   1      33.032  24.263  26.266  1.00  0.00     0.066 C 
ATOM     12  C   UNL A   1      30.672  23.870  25.737  1.00  0.00     0.066 C 
ATOM     13  C   UNL A   1      33.389  24.465  24.798  1.00  0.00     0.262 C 
ATOM     14  C   UNL A   1      30.965  23.971  24.234  1.00  0.00     0.262 C 
ATOM     15  N   UNL A   1      32.371  24.027  23.856  1.00  0.00    -0.334 N 
ATOM     16  H   UNL A   1      32.528  23.025  23.962  1.00  0.00     0.348 HD
BRANCH  15  17
ATOM     17  C   UNL A   1      32.648  24.348  22.446  1.00  0.00     0.270 C 
BRANCH  17  18
ATOM     18  C   UNL A   1      32.535  25.783  21.880  1.00  0.00     0.079 C 
ATOM     19  C   UNL A   1      33.597  26.926  22.087  1.00  0.00     0.050 C 
ATOM     20  C   UNL A   1      31.533  26.756  22.456  1.00  0.00    -0.036 A 
ATOM     21  C   UNL A   1      32.470  27.741  22.655  1.00  0.00    -0.043 A 
ATOM     22  C   UNL A   1      30.205  26.955  22.761  1.00  0.00     0.004 A 
ATOM     23  C   UNL A   1      32.147  28.963  23.205  1.00  0.00     0.004 A 
ATOM     24  C   UNL A   1      29.848  28.178  23.338  1.00  0.00     0.000 A 
ATOM     25  C   UNL A   1      30.813  29.177  23.563  1.00  0.00     0.000 A 
ENDBRANCH  17  18
ENDBRANCH  15  17
ENDBRANCH   9  10
ENDBRANCH   7   9
ENDBRANCH   6   7
ENDBRANCH   5   6
ENDBRANCH   4   5
ENDBRANCH   3   4
ENDBRANCH   2   3
ENDBRANCH   1   2
BRANCH   1  26
ATOM     26  O   UNL A   1      33.408  34.335  28.526  1.00  0.00    -0.377 OA
BRANCH  26  27
ATOM     27  C   UNL A   1      33.889  35.546  29.082  1.00  0.00     0.188 C 
BRANCH  27  28
ATOM     28  C   UNL A   1      32.988  36.111  30.211  1.00  0.00     0.188 C 
BRANCH  28  29
ATOM     29  O   UNL A   1      32.693  35.361  31.381  1.00  0.00    -0.376 OA
BRANCH  29  30
ATOM     30  C   UNL A   1      33.717  34.864  32.226  1.00  0.00     0.202 C 
BRANCH  30  31
ATOM     31  C   UNL A   1      34.231  33.412  32.200  1.00  0.00     0.261 C 
BRANCH  31  32
ATOM     32  O   UNL A   1      35.608  33.202  31.882  1.00  0.00    -0.460 OA
BRANCH  32  33
ATOM     33  C   UNL A   1      36.307  32.447  32.754  1.00  0.00     0.338 C 
ATOM     34  O   UNL A   1      36.140  32.355  33.960  1.00  0.00    -0.246 OA
BRANCH  33  35
ATOM     35  C   UNL A   1      37.181  31.545  31.976  1.00  0.00     0.060 A 
ATOM     36  C   UNL A   1      38.148  30.793  32.665  1.00  0.00     0.016 A 
ATOM     37  C   UNL A   1      37.034  31.413  30.594  1.00  0.00     0.016 A 
ATOM     38  C   UNL A   1      38.990  29.931  31.976  1.00  0.00     0.010 A 
ATOM     39  C   UNL A   1      37.924  30.599  29.891  1.00  0.00     0.010 A 
ATOM     40  C   UNL A   1      38.932  29.900  30.579  1.00  0.00    -0.014 A 
BRANCH  40  41
ATOM     41  C   UNL A   1      40.135  29.441  29.854  1.00  0.00     0.031 A 
ATOM     42  C   UNL A   1      41.248  30.438  29.685  1.00  0.00     0.074 A 
ATOM     43  C   UNL A   1      40.266  28.181  29.414  1.00  0.00     0.049 A 
ATOM     44  N   UNL A   1      42.396  30.315  29.073  1.00  0.00    -0.248 NA
ATOM     45  C   UNL A   1      41.028  31.763  30.293  1.00  0.00     0.031 C 
ATOM     46  C   UNL A   1      39.285  27.115  29.587  1.00  0.00     0.029 A 
ATOM     47  N   UNL A   1      41.294  27.593  28.724  1.00  0.00    -0.354 N 
ATOM     48  C   UNL A   1      43.024  31.548  29.211  1.00  0.00     0.074 A 
ATOM     49  C   UNL A   1      42.121  32.413  29.934  1.00  0.00     0.031 C 
ATOM     50  C   UNL A   1      39.754  25.997  29.005  1.00  0.00     0.029 A 
ATOM     51  C   UNL A   1      41.053  26.285  28.392  1.00  0.00     0.049 A 
ATOM     52  H   UNL A   1      42.127  28.064  28.489  1.00  0.00     0.167 HD
ATOM     53  C   UNL A   1      44.248  31.922  28.777  1.00  0.00     0.037 A 
ATOM     54  C   UNL A   1      41.794  25.432  27.659  1.00  0.00     0.037 A 
ATOM     55  C   UNL A   1      45.133  31.058  28.046  1.00  0.00     0.049 A 
ATOM     56  C   UNL A   1      43.116  25.900  27.104  1.00  0.00     0.074 A 
ATOM     57  C   UNL A   1      46.398  31.329  27.559  1.00  0.00     0.029 A 
ATOM     58  N   UNL A   1      44.834  29.751  27.685  1.00  0.00    -0.354 N 
ATOM     59  N   UNL A   1      43.717  27.057  27.245  1.00  0.00    -0.248 NA
ATOM     60  C   UNL A   1      43.868  24.933  26.291  1.00  0.00     0.031 C 
ATOM     61  C   UNL A   1      46.837  30.210  26.844  1.00  0.00     0.029 A 
ATOM     62  C   UNL A   1      45.879  29.213  26.953  1.00  0.00     0.049 A 
ATOM     63  H   UNL A   1      44.001  29.278  27.914  1.00  0.00     0.167 HD
ATOM     64  C   UNL A   1      44.930  26.948  26.576  1.00  0.00     0.074 A 
ATOM     65  C   UNL A   1      44.982  25.605  26.034  1.00  0.00     0.031 C 
ATOM     66  C   UNL A   1      45.917  27.869  26.431  1.00  0.00     0.037 A 
BRANCH  53  67
ATOM     67  C   UNL A   1      44.659  33.344  29.033  1.00  0.00     0.064 A 
ATOM     68  C   UNL A   1      44.334  34.386  28.149  1.00  0.00     0.173 A 
ATOM     69  C   UNL A   1      45.414  33.664  30.172  1.00  0.00     0.173 A 
ATOM     70  F   UNL A   1      43.634  34.132  27.033  1.00  0.00    -0.203 F 
ATOM     71  C   UNL A   1      44.786  35.684  28.374  1.00  0.00     0.198 A 
ATOM     72  C   UNL A   1      45.830  34.971  30.413  1.00  0.00     0.198 A 
ATOM     73  F   UNL A   1      45.754  32.709  31.049  1.00  0.00    -0.203 F 
ATOM     74  F   UNL A   1      44.527  36.647  27.478  1.00  0.00    -0.200 F 
ATOM     75  C   UNL A   1      45.528  35.976  29.508  1.00  0.00     0.200 A 
ATOM     76  F   UNL A   1      46.535  35.252  31.517  1.00  0.00    -0.200 F 
ATOM     77  F   UNL A   1      45.964  37.225  29.723  1.00  0.00    -0.200 F 
ENDBRANCH  53  67
BRANCH  54  78
ATOM     78  C   UNL A   1      41.306  24.050  27.412  1.00  0.00     0.064 A 
ATOM     79  C   UNL A   1      41.945  22.946  27.991  1.00  0.00     0.173 A 
ATOM     80  C   UNL A   1      40.200  23.803  26.586  1.00  0.00     0.173 A 
ATOM     81  F   UNL A   1      43.023  23.128  28.768  1.00  0.00    -0.203 F 
ATOM     82  C   UNL A   1      41.504  21.647  27.745  1.00  0.00     0.198 A 
ATOM     83  C   UNL A   1      39.741  22.506  26.363  1.00  0.00     0.198 A 
ATOM     84  F   UNL A   1      39.555  24.825  26.002  1.00  0.00    -0.203 F 
ATOM     85  F   UNL A   1      42.159  20.608  28.279  1.00  0.00    -0.200 F 
ATOM     86  C   UNL A   1      40.397  21.430  26.938  1.00  0.00     0.200 A 
ATOM     87  F   UNL A   1      38.665  22.301  25.591  1.00  0.00    -0.200 F 
ATOM     88  F   UNL A   1      39.970  20.180  26.707  1.00  0.00    -0.200 F 
ENDBRANCH  54  78
BRANCH  66  89
ATOM     89  C   UNL A   1      47.165  27.441  25.712  1.00  0.00     0.064 A 
ATOM     90  C   UNL A   1      47.340  27.644  24.334  1.00  0.00     0.173 A 
ATOM     91  C   UNL A   1      48.222  26.853  26.426  1.00  0.00     0.173 A 
ATOM     92  F   UNL A   1      46.359  28.191  23.602  1.00  0.00    -0.203 F 
ATOM     93  C   UNL A   1      48.511  27.243  23.695  1.00  0.00     0.198 A 
ATOM     94  C   UNL A   1      49.406  26.491  25.791  1.00  0.00     0.198 A 
ATOM     95  F   UNL A   1      48.113  26.647  27.747  1.00  0.00    -0.203 F 
ATOM     96  F   UNL A   1      48.632  27.393  22.369  1.00  0.00    -0.200 F 
ATOM     97  C   UNL A   1      49.545  26.675  24.425  1.00  0.00     0.200 A 
ATOM     98  F   UNL A   1      50.410  25.961  26.502  1.00  0.00    -0.200 F 
ATOM     99  F   UNL A   1      50.673  26.298  23.808  1.00  0.00    -0.200 F 
ENDBRANCH  66  89
ENDBRANCH  40  41
ENDBRANCH  33  35
ENDBRANCH  32  33
ENDBRANCH  31  32
ENDBRANCH  30  31
ENDBRANCH  29  30
ENDBRANCH  28  29
ENDBRANCH  27  28
ENDBRANCH  26  27
ENDBRANCH   1  26
TORSDOF 23
ENDMDL
MODEL 2
REMARK VINA RESULT:     -10.0      5.374     10.799
REMARK SMILES O=C(CC1CC[NH+](C[C@@H]2Cc3ccccc32)CC1)OCCOCCOCCOCCOC(=O)c1ccc(-c2c3nc(c(-c4c(F)c(F)c(F)c(F)c4F)c4ccc([nH]4)c(-c4c(F)c(F)c(F)c(F)c4F)c4nc(c(-c5c(F)c(F)c(F)c(F)c5F)c5ccc2[nH]5)C=C4)C=C3)cc1
REMARK SMILES IDX 24 1 23 2 22 3 21 4 20 5 19 6 2 7 1 8 3 9 4 10 5 11 18 12
REMARK SMILES IDX 6 13 17 14 7 15 8 17 9 18 10 19 16 20 11 21 15 22 12 23
REMARK SMILES IDX 14 24 13 25 25 26 26 27 27 28 28 29 29 30 30 31 31 32 32 33
REMARK SMILES IDX 33 34 34 35 35 36 96 37 36 38 95 39 37 40 38 41 39 42 89 43
REMARK SMILES IDX 40 44 94 45 88 46 90 47 41 48 93 49 87 50 86 51 42 53 74 54
REMARK SMILES IDX 54 55 73 56 55 57 58 58 72 59 91 60 56 61 57 62 71 64 92 65
REMARK SMILES IDX 59 66 43 67 44 68 52 69 45 70 46 71 50 72 53 73 47 74 48 75
REMARK SMILES IDX 51 76 49 77 75 78 76 79 84 80 77 81 78 82 82 83 85 84 79 85
REMARK SMILES IDX 80 86 83 87 81 88 60 89 61 90 69 91 62 92 63 93 67 94 70 95
REMARK SMILES IDX 64 96 65 97 68 98 66 99
REMARK H PARENT 7 16 90 52 58 63
REMARK Flexibility Score: inf
ROOT
ATOM      1  C   UNL A   1      40.787  21.875  26.677  1.00  0.00     0.188 C 
ENDROOT
BRANCH   1   2
ATOM      2  C   UNL A   1      39.340  21.826  26.136  1.00  0.00     0.188 C 
BRANCH   2   3
ATOM      3  O   UNL A   1      38.677  23.080  26.126  1.00  0.00    -0.376 OA
BRANCH   3   4
ATOM      4  C   UNL A   1      37.374  23.399  25.701  1.00  0.00     0.202 C 
BRANCH   4   5
ATOM      5  C   UNL A   1      37.043  23.214  24.221  1.00  0.00     0.261 C 
BRANCH   5   6
ATOM      6  O   UNL A   1      36.315  22.046  23.860  1.00  0.00    -0.463 OA
BRANCH   6   7
ATOM      7  C   UNL A   1      35.330  21.504  24.582  1.00  0.00     0.306 C 
ATOM      8  O   UNL A   1      35.472  20.352  24.979  1.00  0.00    -0.252 OA
BRANCH   7   9
ATOM      9  C   UNL A   1      34.057  22.278  24.853  1.00  0.00     0.126 C 
BRANCH   9  10
ATOM     10  C   UNL A   1      33.719  22.683  26.286  1.00  0.00     0.011 C 
ATOM     11  C   UNL A   1      32.318  22.290  26.722  1.00  0.00     0.066 C 
ATOM     12  C   UNL A   1      33.813  24.207  26.412  1.00  0.00     0.066 C 
ATOM     13  C   UNL A   1      31.276  22.873  25.774  1.00  0.00     0.262 C 
ATOM     14  C   UNL A   1      32.779  24.903  25.516  1.00  0.00     0.262 C 
ATOM     15  N   UNL A   1      31.463  24.279  25.452  1.00  0.00    -0.334 N 
ATOM     16  H   UNL A   1      31.147  24.653  26.347  1.00  0.00     0.348 HD
BRANCH  15  17
ATOM     17  C   UNL A   1      30.546  24.811  24.430  1.00  0.00     0.270 C 
BRANCH  17  18
ATOM     18  C   UNL A   1      29.788  26.147  24.604  1.00  0.00     0.079 C 
ATOM     19  C   UNL A   1      28.395  26.490  23.956  1.00  0.00     0.050 C 
ATOM     20  C   UNL A   1      30.289  27.405  23.934  1.00  0.00    -0.036 A 
ATOM     21  C   UNL A   1      29.076  27.686  23.353  1.00  0.00    -0.043 A 
ATOM     22  C   UNL A   1      31.372  28.239  23.774  1.00  0.00     0.004 A 
ATOM     23  C   UNL A   1      28.883  28.788  22.548  1.00  0.00     0.004 A 
ATOM     24  C   UNL A   1      31.216  29.356  22.948  1.00  0.00     0.000 A 
ATOM     25  C   UNL A   1      29.979  29.629  22.334  1.00  0.00     0.000 A 
ENDBRANCH  17  18
ENDBRANCH  15  17
ENDBRANCH   9  10
ENDBRANCH   7   9
ENDBRANCH   6   7
ENDBRANCH   5   6
ENDBRANCH   4   5
ENDBRANCH   3   4
ENDBRANCH   2   3
ENDBRANCH   1   2
BRANCH   1  26
ATOM     26  O   UNL A   1      41.819  21.396  25.821  1.00  0.00    -0.377 OA
BRANCH  26  27
ATOM     27  C   UNL A   1      42.124  20.021  25.975  1.00  0.00     0.188 C 
BRANCH  27  28
ATOM     28  C   UNL A   1      43.563  19.651  25.532  1.00  0.00     0.188 C 
BRANCH  28  29
ATOM     29  O   UNL A   1      44.612  20.609  25.515  1.00  0.00    -0.376 OA
BRANCH  29  30
ATOM     30  C   UNL A   1      44.962  21.311  24.335  1.00  0.00     0.202 C 
BRANCH  30  31
ATOM     31  C   UNL A   1      44.822  22.835  24.161  1.00  0.00     0.261 C 
BRANCH  31  32
ATOM     32  O   UNL A   1      44.401  23.596  25.294  1.00  0.00    -0.460 OA
BRANCH  32  33
ATOM     33  C   UNL A   1      44.863  24.862  25.360  1.00  0.00     0.338 C 
ATOM     34  O   UNL A   1      45.716  25.381  24.655  1.00  0.00    -0.246 OA
BRANCH  33  35
ATOM     35  C   UNL A   1      43.995  25.616  26.287  1.00  0.00     0.060 A 
ATOM     36  C   UNL A   1      44.129  27.013  26.340  1.00  0.00     0.016 A 
ATOM     37  C   UNL A   1      43.040  24.965  27.069  1.00  0.00     0.016 A 
ATOM     38  C   UNL A   1      43.333  27.763  27.194  1.00  0.00     0.010 A 
ATOM     39  C   UNL A   1      42.286  25.709  27.979  1.00  0.00     0.010 A 
ATOM     40  C   UNL A   1      42.472  27.101  28.075  1.00  0.00    -0.014 A 
BRANCH  40  41
ATOM     41  C   UNL A   1      42.066  27.813  29.304  1.00  0.00     0.031 A 
ATOM     42  C   UNL A   1      40.774  28.581  29.248  1.00  0.00     0.074 A 
ATOM     43  C   UNL A   1      42.775  27.739  30.440  1.00  0.00     0.049 A 
ATOM     44  N   UNL A   1      40.196  29.313  30.163  1.00  0.00    -0.248 NA
ATOM     45  C   UNL A   1      40.035  28.513  27.975  1.00  0.00     0.031 C 
ATOM     46  C   UNL A   1      43.999  26.966  30.627  1.00  0.00     0.029 A 
ATOM     47  N   UNL A   1      42.555  28.333  31.655  1.00  0.00    -0.354 N 
ATOM     48  C   UNL A   1      39.037  29.801  29.571  1.00  0.00     0.074 A 
ATOM     49  C   UNL A   1      39.009  29.311  28.213  1.00  0.00     0.031 C 
ATOM     50  C   UNL A   1      44.432  27.143  31.888  1.00  0.00     0.029 A 
ATOM     51  C   UNL A   1      43.532  28.067  32.579  1.00  0.00     0.049 A 
ATOM     52  H   UNL A   1      41.770  28.897  31.846  1.00  0.00     0.167 HD
ATOM     53  C   UNL A   1      38.079  30.585  30.115  1.00  0.00     0.037 A 
ATOM     54  C   UNL A   1      43.682  28.539  33.832  1.00  0.00     0.037 A 
ATOM     55  C   UNL A   1      38.124  31.079  31.464  1.00  0.00     0.049 A 
ATOM     56  C   UNL A   1      42.650  29.487  34.388  1.00  0.00     0.074 A 
ATOM     57  C   UNL A   1      37.208  31.877  32.122  1.00  0.00     0.029 A 
ATOM     58  N   UNL A   1      39.156  30.828  32.358  1.00  0.00    -0.354 N 
ATOM     59  N   UNL A   1      41.548  29.938  33.835  1.00  0.00    -0.248 NA
ATOM     60  C   UNL A   1      42.881  29.988  35.751  1.00  0.00     0.031 C 
ATOM     61  C   UNL A   1      37.718  32.167  33.391  1.00  0.00     0.029 A 
ATOM     62  C   UNL A   1      38.914  31.483  33.553  1.00  0.00     0.049 A 
ATOM     63  H   UNL A   1      39.944  30.269  32.169  1.00  0.00     0.167 HD
ATOM     64  C   UNL A   1      40.935  30.739  34.792  1.00  0.00     0.074 A 
ATOM     65  C   UNL A   1      41.787  30.707  35.963  1.00  0.00     0.031 C 
ATOM     66  C   UNL A   1      39.770  31.430  34.713  1.00  0.00     0.037 A 
BRANCH  53  67
ATOM     67  C   UNL A   1      36.944  30.997  29.222  1.00  0.00     0.064 A 
ATOM     68  C   UNL A   1      36.820  32.307  28.728  1.00  0.00     0.173 A 
ATOM     69  C   UNL A   1      35.950  30.070  28.873  1.00  0.00     0.173 A 
ATOM     70  F   UNL A   1      37.731  33.239  29.049  1.00  0.00    -0.203 F 
ATOM     71  C   UNL A   1      35.722  32.681  27.958  1.00  0.00     0.198 A 
ATOM     72  C   UNL A   1      34.874  30.439  28.070  1.00  0.00     0.198 A 
ATOM     73  F   UNL A   1      36.017  28.807  29.317  1.00  0.00    -0.203 F 
ATOM     74  F   UNL A   1      35.587  33.955  27.561  1.00  0.00    -0.200 F 
ATOM     75  C   UNL A   1      34.753  31.746  27.625  1.00  0.00     0.200 A 
ATOM     76  F   UNL A   1      33.947  29.531  27.739  1.00  0.00    -0.200 F 
ATOM     77  F   UNL A   1      33.696  32.108  26.885  1.00  0.00    -0.200 F 
ENDBRANCH  53  67
BRANCH  54  78
ATOM     78  C   UNL A   1      44.852  28.119  34.646  1.00  0.00     0.064 A 
ATOM     79  C   UNL A   1      46.031  28.877  34.660  1.00  0.00     0.173 A 
ATOM     80  C   UNL A   1      44.820  26.949  35.420  1.00  0.00     0.173 A 
ATOM     81  F   UNL A   1      46.120  29.990  33.917  1.00  0.00    -0.203 F 
ATOM     82  C   UNL A   1      47.137  28.475  35.407  1.00  0.00     0.198 A 
ATOM     83  C   UNL A   1      45.916  26.564  36.189  1.00  0.00     0.198 A 
ATOM     84  F   UNL A   1      43.718  26.185  35.438  1.00  0.00    -0.203 F 
ATOM     85  F   UNL A   1      48.265  29.197  35.368  1.00  0.00    -0.200 F 
ATOM     86  C   UNL A   1      47.075  27.323  36.176  1.00  0.00     0.200 A 
ATOM     87  F   UNL A   1      45.849  25.456  36.940  1.00  0.00    -0.200 F 
ATOM     88  F   UNL A   1      48.138  26.941  36.899  1.00  0.00    -0.200 F 
ENDBRANCH  54  78
BRANCH  66  89
ATOM     89  C   UNL A   1      39.311  32.159  35.945  1.00  0.00     0.064 A 
ATOM     90  C   UNL A   1      38.389  31.600  36.843  1.00  0.00     0.173 A 
ATOM     91  C   UNL A   1      39.838  33.424  36.251  1.00  0.00     0.173 A 
ATOM     92  F   UNL A   1      37.846  30.400  36.595  1.00  0.00    -0.203 F 
ATOM     93  C   UNL A   1      37.987  32.296  37.981  1.00  0.00     0.198 A 
ATOM     94  C   UNL A   1      39.464  34.099  37.409  1.00  0.00     0.198 A 
ATOM     95  F   UNL A   1      40.733  34.000  35.433  1.00  0.00    -0.203 F 
ATOM     96  F   UNL A   1      37.061  31.768  38.793  1.00  0.00    -0.200 F 
ATOM     97  C   UNL A   1      38.530  33.540  38.267  1.00  0.00     0.200 A 
ATOM     98  F   UNL A   1      40.006  35.290  37.693  1.00  0.00    -0.200 F 
ATOM     99  F   UNL A   1      38.148  34.203  39.366  1.00  0.00    -0.200 F 
ENDBRANCH  66  89
ENDBRANCH  40  41
ENDBRANCH  33  35
ENDBRANCH  32  33
ENDBRANCH  31  32
ENDBRANCH  30  31
ENDBRANCH  29  30
ENDBRANCH  28  29
ENDBRANCH  27  28
ENDBRANCH  26  27
ENDBRANCH   1  26
TORSDOF 23
ENDMDL
MODEL 3
REMARK VINA RESULT:      -9.9      3.966      9.146
REMARK SMILES O=C(CC1CC[NH+](C[C@@H]2Cc3ccccc32)CC1)OCCOCCOCCOCCOC(=O)c1ccc(-c2c3nc(c(-c4c(F)c(F)c(F)c(F)c4F)c4ccc([nH]4)c(-c4c(F)c(F)c(F)c(F)c4F)c4nc(c(-c5c(F)c(F)c(F)c(F)c5F)c5ccc2[nH]5)C=C4)C=C3)cc1
REMARK SMILES IDX 24 1 23 2 22 3 21 4 20 5 19 6 2 7 1 8 3 9 4 10 5 11 18 12
REMARK SMILES IDX 6 13 17 14 7 15 8 17 9 18 10 19 16 20 11 21 15 22 12 23
REMARK SMILES IDX 14 24 13 25 25 26 26 27 27 28 28 29 29 30 30 31 31 32 32 33
REMARK SMILES IDX 33 34 34 35 35 36 96 37 36 38 95 39 37 40 38 41 39 42 89 43
REMARK SMILES IDX 40 44 94 45 88 46 90 47 41 48 93 49 87 50 86 51 42 53 74 54
REMARK SMILES IDX 54 55 73 56 55 57 58 58 72 59 91 60 56 61 57 62 71 64 92 65
REMARK SMILES IDX 59 66 43 67 44 68 52 69 45 70 46 71 50 72 53 73 47 74 48 75
REMARK SMILES IDX 51 76 49 77 75 78 76 79 84 80 77 81 78 82 82 83 85 84 79 85
REMARK SMILES IDX 80 86 83 87 81 88 60 89 61 90 69 91 62 92 63 93 67 94 70 95
REMARK SMILES IDX 64 96 65 97 68 98 66 99
REMARK H PARENT 7 16 90 52 58 63
REMARK Flexibility Score: inf
ROOT
ATOM      1  C   UNL A   1      37.957  21.715  25.384  1.00  0.00     0.188 C 
ENDROOT
BRANCH   1   2
ATOM      2  C   UNL A   1      36.418  21.770  25.511  1.00  0.00     0.188 C 
BRANCH   2   3
ATOM      3  O   UNL A   1      35.936  22.823  26.331  1.00  0.00    -0.376 OA
BRANCH   3   4
ATOM      4  C   UNL A   1      34.612  23.168  26.657  1.00  0.00     0.202 C 
BRANCH   4   5
ATOM      5  C   UNL A   1      33.702  22.068  27.203  1.00  0.00     0.261 C 
BRANCH   5   6
ATOM      6  O   UNL A   1      32.392  21.978  26.655  1.00  0.00    -0.463 OA
BRANCH   6   7
ATOM      7  C   UNL A   1      31.489  22.962  26.664  1.00  0.00     0.306 C 
ATOM      8  O   UNL A   1      30.680  22.996  27.587  1.00  0.00    -0.252 OA
BRANCH   7   9
ATOM      9  C   UNL A   1      31.440  23.973  25.538  1.00  0.00     0.126 C 
BRANCH   9  10
ATOM     10  C   UNL A   1      31.019  23.519  24.143  1.00  0.00     0.011 C 
ATOM     11  C   UNL A   1      32.181  23.139  23.243  1.00  0.00     0.066 C 
ATOM     12  C   UNL A   1      30.273  24.662  23.446  1.00  0.00     0.066 C 
ATOM     13  C   UNL A   1      33.168  24.295  23.120  1.00  0.00     0.262 C 
ATOM     14  C   UNL A   1      31.187  25.878  23.242  1.00  0.00     0.262 C 
ATOM     15  N   UNL A   1      32.561  25.589  22.850  1.00  0.00    -0.334 N 
ATOM     16  H   UNL A   1      32.336  25.416  21.870  1.00  0.00     0.348 HD
BRANCH  15  17
ATOM     17  C   UNL A   1      33.492  26.730  22.871  1.00  0.00     0.270 C 
BRANCH  17  18
ATOM     18  C   UNL A   1      33.969  27.392  24.185  1.00  0.00     0.079 C 
ATOM     19  C   UNL A   1      34.077  26.666  25.578  1.00  0.00     0.050 C 
ATOM     20  C   UNL A   1      33.094  28.397  24.897  1.00  0.00    -0.036 A 
ATOM     21  C   UNL A   1      33.174  27.746  26.104  1.00  0.00    -0.043 A 
ATOM     22  C   UNL A   1      32.392  29.573  24.760  1.00  0.00     0.004 A 
ATOM     23  C   UNL A   1      32.528  28.206  27.232  1.00  0.00     0.004 A 
ATOM     24  C   UNL A   1      31.710  30.057  25.881  1.00  0.00     0.000 A 
ATOM     25  C   UNL A   1      31.774  29.376  27.111  1.00  0.00     0.000 A 
ENDBRANCH  17  18
ENDBRANCH  15  17
ENDBRANCH   9  10
ENDBRANCH   7   9
ENDBRANCH   6   7
ENDBRANCH   5   6
ENDBRANCH   4   5
ENDBRANCH   3   4
ENDBRANCH   2   3
ENDBRANCH   1   2
BRANCH   1  26
ATOM     26  O   UNL A   1      38.719  22.249  26.461  1.00  0.00    -0.377 OA
BRANCH  26  27
ATOM     27  C   UNL A   1      40.113  22.327  26.216  1.00  0.00     0.188 C 
BRANCH  27  28
ATOM     28  C   UNL A   1      40.979  21.799  27.389  1.00  0.00     0.188 C 
BRANCH  28  29
ATOM     29  O   UNL A   1      40.946  20.438  27.792  1.00  0.00    -0.376 OA
BRANCH  29  30
ATOM     30  C   UNL A   1      41.132  19.381  26.866  1.00  0.00     0.202 C 
BRANCH  30  31
ATOM     31  C   UNL A   1      42.473  19.055  26.182  1.00  0.00     0.261 C 
BRANCH  31  32
ATOM     32  O   UNL A   1      42.829  19.813  25.025  1.00  0.00    -0.460 OA
BRANCH  32  33
ATOM     33  C   UNL A   1      44.138  19.810  24.697  1.00  0.00     0.338 C 
ATOM     34  O   UNL A   1      44.758  18.933  24.116  1.00  0.00    -0.246 OA
BRANCH  33  35
ATOM     35  C   UNL A   1      44.672  21.165  24.946  1.00  0.00     0.060 A 
ATOM     36  C   UNL A   1      45.282  21.424  26.185  1.00  0.00     0.016 A 
ATOM     37  C   UNL A   1      44.606  22.157  23.967  1.00  0.00     0.016 A 
ATOM     38  C   UNL A   1      45.801  22.681  26.464  1.00  0.00     0.010 A 
ATOM     39  C   UNL A   1      45.065  23.440  24.269  1.00  0.00     0.010 A 
ATOM     40  C   UNL A   1      45.615  23.711  25.536  1.00  0.00    -0.014 A 
BRANCH  40  41
ATOM     41  C   UNL A   1      45.657  25.101  26.038  1.00  0.00     0.031 A 
ATOM     42  C   UNL A   1      46.978  25.814  25.952  1.00  0.00     0.074 A 
ATOM     43  C   UNL A   1      44.563  25.728  26.494  1.00  0.00     0.049 A 
ATOM     44  N   UNL A   1      47.305  27.018  26.338  1.00  0.00    -0.248 NA
ATOM     45  C   UNL A   1      48.086  25.054  25.345  1.00  0.00     0.031 C 
ATOM     46  C   UNL A   1      43.220  25.160  26.554  1.00  0.00     0.029 A 
ATOM     47  N   UNL A   1      44.422  26.995  26.999  1.00  0.00    -0.354 N 
ATOM     48  C   UNL A   1      48.655  27.151  26.034  1.00  0.00     0.074 A 
ATOM     49  C   UNL A   1      49.094  25.900  25.463  1.00  0.00     0.031 C 
ATOM     50  C   UNL A   1      42.387  26.075  27.080  1.00  0.00     0.029 A 
ATOM     51  C   UNL A   1      43.149  27.277  27.422  1.00  0.00     0.049 A 
ATOM     52  H   UNL A   1      45.164  27.641  27.052  1.00  0.00     0.167 HD
ATOM     53  C   UNL A   1      49.457  28.226  26.213  1.00  0.00     0.037 A 
ATOM     54  C   UNL A   1      42.670  28.377  28.035  1.00  0.00     0.037 A 
ATOM     55  C   UNL A   1      49.014  29.462  26.796  1.00  0.00     0.049 A 
ATOM     56  C   UNL A   1      43.603  29.530  28.308  1.00  0.00     0.074 A 
ATOM     57  C   UNL A   1      49.737  30.618  27.022  1.00  0.00     0.029 A 
ATOM     58  N   UNL A   1      47.726  29.695  27.259  1.00  0.00    -0.354 N 
ATOM     59  N   UNL A   1      44.874  29.663  28.010  1.00  0.00    -0.248 NA
ATOM     60  C   UNL A   1      43.029  30.692  29.002  1.00  0.00     0.031 C 
ATOM     61  C   UNL A   1      48.906  31.527  27.685  1.00  0.00     0.029 A 
ATOM     62  C   UNL A   1      47.642  30.967  27.799  1.00  0.00     0.049 A 
ATOM     63  H   UNL A   1      46.983  29.051  27.212  1.00  0.00     0.167 HD
ATOM     64  C   UNL A   1      45.241  30.933  28.440  1.00  0.00     0.074 A 
ATOM     65  C   UNL A   1      44.055  31.532  29.015  1.00  0.00     0.031 C 
ATOM     66  C   UNL A   1      46.447  31.551  28.357  1.00  0.00     0.037 A 
BRANCH  53  67
ATOM     67  C   UNL A   1      50.900  28.074  25.827  1.00  0.00     0.064 A 
ATOM     68  C   UNL A   1      51.904  27.816  26.775  1.00  0.00     0.173 A 
ATOM     69  C   UNL A   1      51.288  28.214  24.486  1.00  0.00     0.173 A 
ATOM     70  F   UNL A   1      51.590  27.695  28.075  1.00  0.00    -0.203 F 
ATOM     71  C   UNL A   1      53.243  27.748  26.401  1.00  0.00     0.198 A 
ATOM     72  C   UNL A   1      52.625  28.106  24.110  1.00  0.00     0.198 A 
ATOM     73  F   UNL A   1      50.373  28.463  23.538  1.00  0.00    -0.203 F 
ATOM     74  F   UNL A   1      54.190  27.575  27.334  1.00  0.00    -0.200 F 
ATOM     75  C   UNL A   1      53.602  27.887  25.069  1.00  0.00     0.200 A 
ATOM     76  F   UNL A   1      52.967  28.227  22.820  1.00  0.00    -0.200 F 
ATOM     77  F   UNL A   1      54.891  27.822  24.710  1.00  0.00    -0.200 F 
ENDBRANCH  53  67
BRANCH  54  78
ATOM     78  C   UNL A   1      41.238  28.443  28.425  1.00  0.00     0.064 A 
ATOM     79  C   UNL A   1      40.276  28.969  27.552  1.00  0.00     0.173 A 
ATOM     80  C   UNL A   1      40.801  27.991  29.679  1.00  0.00     0.173 A 
ATOM     81  F   UNL A   1      40.648  29.438  26.351  1.00  0.00    -0.203 F 
ATOM     82  C   UNL A   1      38.935  29.052  27.922  1.00  0.00     0.198 A 
ATOM     83  C   UNL A   1      39.456  28.048  30.037  1.00  0.00     0.198 A 
ATOM     84  F   UNL A   1      41.682  27.483  30.554  1.00  0.00    -0.203 F 
ATOM     85  F   UNL A   1      38.044  29.598  27.083  1.00  0.00    -0.200 F 
ATOM     86  C   UNL A   1      38.526  28.584  29.161  1.00  0.00     0.200 A 
ATOM     87  F   UNL A   1      39.062  27.585  31.231  1.00  0.00    -0.200 F 
ATOM     88  F   UNL A   1      37.234  28.658  29.514  1.00  0.00    -0.200 F 
ENDBRANCH  54  78
BRANCH  66  89
ATOM     89  C   UNL A   1      46.532  32.971  28.843  1.00  0.00     0.064 A 
ATOM     90  C   UNL A   1      46.888  33.289  30.162  1.00  0.00     0.173 A 
ATOM     91  C   UNL A   1      46.293  34.033  27.956  1.00  0.00     0.173 A 
ATOM     92  F   UNL A   1      47.117  32.314  31.054  1.00  0.00    -0.203 F 
ATOM     93  C   UNL A   1      46.966  34.615  30.583  1.00  0.00     0.198 A 
ATOM     94  C   UNL A   1      46.411  35.356  28.369  1.00  0.00     0.198 A 
ATOM     95  F   UNL A   1      45.962  33.786  26.679  1.00  0.00    -0.203 F 
ATOM     96  F   UNL A   1      47.249  34.893  31.863  1.00  0.00    -0.200 F 
ATOM     97  C   UNL A   1      46.736  35.646  29.684  1.00  0.00     0.200 A 
ATOM     98  F   UNL A   1      46.209  36.351  27.494  1.00  0.00    -0.200 F 
ATOM     99  F   UNL A   1      46.820  36.921  30.090  1.00  0.00    -0.200 F 
ENDBRANCH  66  89
ENDBRANCH  40  41
ENDBRANCH  33  35
ENDBRANCH  32  33
ENDBRANCH  31  32
ENDBRANCH  30  31
ENDBRANCH  29  30
ENDBRANCH  28  29
ENDBRANCH  27  28
ENDBRANCH  26  27
ENDBRANCH   1  26
TORSDOF 23
ENDMDL
