MODEL 1
REMARK VINA RESULT:     -10.0      0.000      0.000
REMARK SMILES CCn1ccc([C@@H](C)NC(=O)[C@H](C)n2ccc(C(=O)OCCOCCOCCOCCOC(=O)c3ccc(-c4c5nc(c(-c6c(F)c(F)c(F)c(F)c6F)c6ccc([nH]6)c(-c6c(F)c(F)c(F)c(F)c6F)c6nc(c(-c7c(F)c(F)c(F)c(F)c7F)c7ccc4[nH]7)C=C6)C=C5)cc3)n2)n1
REMARK SMILES IDX 24 1 23 2 22 3 21 4 20 5 18 6 19 7 17 8 14 9 15 10 98 11
REMARK SMILES IDX 16 12 12 13 13 14 10 15 9 16 11 18 7 19 8 20 6 21 3 22 4 23
REMARK SMILES IDX 99 24 5 25 2 26 1 27 25 28 26 29 27 30 28 31 29 32 30 33
REMARK SMILES IDX 31 34 32 35 33 36 34 37 35 38 36 39 97 40 37 41 96 42 38 43
REMARK SMILES IDX 39 44 40 45 90 46 41 47 95 48 89 49 91 50 42 51 94 52 88 53
REMARK SMILES IDX 87 54 43 56 75 57 55 58 74 59 56 60 59 61 73 62 92 63 57 64
REMARK SMILES IDX 58 65 72 67 93 68 60 69 44 70 45 71 53 72 46 73 47 74 51 75
REMARK SMILES IDX 54 76 48 77 49 78 52 79 50 80 76 81 77 82 85 83 78 84 79 85
REMARK SMILES IDX 83 86 86 87 80 88 81 89 84 90 82 91 61 92 62 93 70 94 63 95
REMARK SMILES IDX 64 96 68 97 71 98 65 99 66 100 69 101 67 102
REMARK H PARENT 9 17 91 55 59 66
REMARK Flexibility Score: inf
ROOT
ATOM      1  C   UNL A   1      33.604  27.811  25.826  1.00  0.00     0.188 C 
ENDROOT
BRANCH   1   2
ATOM      2  O   UNL A   1      33.829  28.382  24.554  1.00  0.00    -0.376 OA
BRANCH   2   3
ATOM      3  C   UNL A   1      32.789  28.989  23.826  1.00  0.00     0.202 C 
BRANCH   3   4
ATOM      4  C   UNL A   1      31.355  28.860  24.352  1.00  0.00     0.261 C 
BRANCH   4   5
ATOM      5  O   UNL A   1      30.710  27.604  24.119  1.00  0.00    -0.458 OA
BRANCH   5   6
ATOM      6  C   UNL A   1      31.007  26.956  22.959  1.00  0.00     0.358 C 
ATOM      7  O   UNL A   1      30.662  27.351  21.845  1.00  0.00    -0.244 OA
BRANCH   6   8
ATOM      8  C   UNL A   1      31.965  25.862  23.171  1.00  0.00     0.170 A 
ATOM      9  N   UNL A   1      33.080  24.312  24.137  1.00  0.00    -0.260 N 
ATOM     10  C   UNL A   1      33.708  24.497  22.941  1.00  0.00     0.110 A 
ATOM     11  N   UNL A   1      32.045  25.167  24.322  1.00  0.00    -0.165 NA
ATOM     12  C   UNL A   1      32.991  25.462  22.276  1.00  0.00     0.057 A 
BRANCH   9  13
ATOM     13  C   UNL A   1      33.362  23.328  25.185  1.00  0.00     0.193 C 
ATOM     14  C   UNL A   1      32.296  23.346  26.278  1.00  0.00     0.044 C 
BRANCH  13  15
ATOM     15  C   UNL A   1      33.767  21.958  24.638  1.00  0.00     0.245 C 
ATOM     16  N   UNL A   1      35.043  21.584  24.361  1.00  0.00    -0.346 N 
ATOM     17  H   UNL A   1      35.127  20.661  24.024  1.00  0.00     0.164 HD
ATOM     18  O   UNL A   1      32.903  21.089  24.454  1.00  0.00    -0.273 OA
BRANCH  16  19
ATOM     19  C   UNL A   1      36.311  22.294  24.466  1.00  0.00     0.130 C 
ATOM     20  C   UNL A   1      36.658  22.953  23.132  1.00  0.00     0.038 C 
BRANCH  19  21
ATOM     21  C   UNL A   1      37.375  21.333  24.921  1.00  0.00     0.084 A 
ATOM     22  N   UNL A   1      39.266  20.705  25.668  1.00  0.00    -0.273 N 
ATOM     23  C   UNL A   1      38.603  19.548  25.383  1.00  0.00     0.109 A 
ATOM     24  N   UNL A   1      38.537  21.805  25.397  1.00  0.00    -0.176 NA
ATOM     25  C   UNL A   1      37.367  19.917  24.910  1.00  0.00     0.047 A 
BRANCH  22  26
ATOM     26  C   UNL A   1      40.623  20.884  26.149  1.00  0.00     0.141 C 
ATOM     27  C   UNL A   1      40.753  21.432  27.560  1.00  0.00     0.029 C 
ENDBRANCH  22  26
ENDBRANCH  19  21
ENDBRANCH  16  19
ENDBRANCH  13  15
ENDBRANCH   9  13
ENDBRANCH   6   8
ENDBRANCH   5   6
ENDBRANCH   4   5
ENDBRANCH   3   4
ENDBRANCH   2   3
ENDBRANCH   1   2
BRANCH   1  28
ATOM     28  C   UNL A   1      34.040  28.699  27.017  1.00  0.00     0.188 C 
BRANCH  28  29
ATOM     29  O   UNL A   1      33.791  30.102  27.082  1.00  0.00    -0.377 OA
BRANCH  29  30
ATOM     30  C   UNL A   1      34.459  30.895  28.046  1.00  0.00     0.188 C 
BRANCH  30  31
ATOM     31  C   UNL A   1      34.628  32.402  27.731  1.00  0.00     0.188 C 
BRANCH  31  32
ATOM     32  O   UNL A   1      33.594  33.276  28.143  1.00  0.00    -0.376 OA
BRANCH  32  33
ATOM     33  C   UNL A   1      33.689  34.677  28.327  1.00  0.00     0.202 C 
BRANCH  33  34
ATOM     34  C   UNL A   1      33.805  35.409  29.660  1.00  0.00     0.261 C 
BRANCH  34  35
ATOM     35  O   UNL A   1      34.319  34.639  30.711  1.00  0.00    -0.460 OA
BRANCH  35  36
ATOM     36  C   UNL A   1      33.716  34.836  31.887  1.00  0.00     0.338 C 
ATOM     37  O   UNL A   1      32.605  35.327  32.079  1.00  0.00    -0.246 OA
BRANCH  36  38
ATOM     38  C   UNL A   1      34.656  34.440  32.945  1.00  0.00     0.060 A 
ATOM     39  C   UNL A   1      35.814  35.209  32.946  1.00  0.00     0.016 A 
ATOM     40  C   UNL A   1      34.646  33.078  33.289  1.00  0.00     0.016 A 
ATOM     41  C   UNL A   1      36.986  34.525  32.795  1.00  0.00     0.010 A 
ATOM     42  C   UNL A   1      35.811  32.391  33.107  1.00  0.00     0.010 A 
ATOM     43  C   UNL A   1      36.933  33.126  32.740  1.00  0.00    -0.014 A 
BRANCH  43  44
ATOM     44  C   UNL A   1      38.146  32.438  32.393  1.00  0.00     0.031 A 
ATOM     45  C   UNL A   1      39.014  32.297  33.573  1.00  0.00     0.074 A 
ATOM     46  C   UNL A   1      38.380  31.960  31.161  1.00  0.00     0.049 A 
ATOM     47  N   UNL A   1      40.112  32.928  33.817  1.00  0.00    -0.248 NA
ATOM     48  C   UNL A   1      38.464  31.560  34.723  1.00  0.00     0.031 C 
ATOM     49  C   UNL A   1      37.458  31.830  30.030  1.00  0.00     0.029 A 
ATOM     50  N   UNL A   1      39.521  31.393  30.694  1.00  0.00    -0.354 N 
ATOM     51  C   UNL A   1      40.497  32.496  35.079  1.00  0.00     0.074 A 
ATOM     52  C   UNL A   1      39.350  31.865  35.668  1.00  0.00     0.031 C 
ATOM     53  C   UNL A   1      38.013  31.018  29.098  1.00  0.00     0.029 A 
ATOM     54  C   UNL A   1      39.366  30.688  29.509  1.00  0.00     0.049 A 
ATOM     55  H   UNL A   1      40.386  31.476  31.156  1.00  0.00     0.167 HD
ATOM     56  C   UNL A   1      41.814  32.410  35.398  1.00  0.00     0.037 A 
ATOM     57  C   UNL A   1      40.279  29.822  29.003  1.00  0.00     0.037 A 
ATOM     58  C   UNL A   1      42.611  33.241  34.529  1.00  0.00     0.049 A 
ATOM     59  C   UNL A   1      41.583  30.127  29.657  1.00  0.00     0.074 A 
ATOM     60  C   UNL A   1      42.668  34.597  34.270  1.00  0.00     0.029 A 
ATOM     61  N   UNL A   1      43.251  32.631  33.477  1.00  0.00    -0.354 N 
ATOM     62  N   UNL A   1      42.253  31.230  29.456  1.00  0.00    -0.248 NA
ATOM     63  C   UNL A   1      41.896  29.426  30.896  1.00  0.00     0.031 C 
ATOM     64  C   UNL A   1      42.934  34.702  32.873  1.00  0.00     0.029 A 
ATOM     65  C   UNL A   1      43.079  33.411  32.363  1.00  0.00     0.049 A 
ATOM     66  H   UNL A   1      43.747  31.782  33.517  1.00  0.00     0.167 HD
ATOM     67  C   UNL A   1      42.751  31.577  30.706  1.00  0.00     0.074 A 
ATOM     68  C   UNL A   1      42.560  30.392  31.536  1.00  0.00     0.031 C 
ATOM     69  C   UNL A   1      43.000  32.882  31.022  1.00  0.00     0.037 A 
BRANCH  56  70
ATOM     70  C   UNL A   1      42.392  31.253  36.176  1.00  0.00     0.064 A 
ATOM     71  C   UNL A   1      43.263  31.535  37.242  1.00  0.00     0.173 A 
ATOM     72  C   UNL A   1      42.380  29.906  35.742  1.00  0.00     0.173 A 
ATOM     73  F   UNL A   1      43.363  32.781  37.730  1.00  0.00    -0.203 F 
ATOM     74  C   UNL A   1      44.127  30.569  37.762  1.00  0.00     0.198 A 
ATOM     75  C   UNL A   1      43.202  28.933  36.300  1.00  0.00     0.198 A 
ATOM     76  F   UNL A   1      41.667  29.484  34.692  1.00  0.00    -0.203 F 
ATOM     77  F   UNL A   1      45.037  30.919  38.680  1.00  0.00    -0.200 F 
ATOM     78  C   UNL A   1      44.103  29.272  37.284  1.00  0.00     0.200 A 
ATOM     79  F   UNL A   1      43.171  27.686  35.809  1.00  0.00    -0.200 F 
ATOM     80  F   UNL A   1      44.977  28.362  37.731  1.00  0.00    -0.200 F 
ENDBRANCH  56  70
BRANCH  57  81
ATOM     81  C   UNL A   1      40.024  28.534  28.315  1.00  0.00     0.064 A 
ATOM     82  C   UNL A   1      40.607  28.250  27.071  1.00  0.00     0.173 A 
ATOM     83  C   UNL A   1      39.431  27.450  28.992  1.00  0.00     0.173 A 
ATOM     84  F   UNL A   1      41.238  29.215  26.388  1.00  0.00    -0.203 F 
ATOM     85  C   UNL A   1      40.613  26.954  26.543  1.00  0.00     0.198 A 
ATOM     86  C   UNL A   1      39.433  26.158  28.461  1.00  0.00     0.198 A 
ATOM     87  F   UNL A   1      38.926  27.600  30.225  1.00  0.00    -0.203 F 
ATOM     88  F   UNL A   1      41.231  26.709  25.379  1.00  0.00    -0.200 F 
ATOM     89  C   UNL A   1      40.034  25.908  27.243  1.00  0.00     0.200 A 
ATOM     90  F   UNL A   1      38.906  25.149  29.169  1.00  0.00    -0.200 F 
ATOM     91  F   UNL A   1      40.091  24.657  26.766  1.00  0.00    -0.200 F 
ENDBRANCH  57  81
BRANCH  69  92
ATOM     92  C   UNL A   1      42.967  33.886  29.905  1.00  0.00     0.064 A 
ATOM     93  C   UNL A   1      41.819  34.606  29.529  1.00  0.00     0.173 A 
ATOM     94  C   UNL A   1      44.179  34.243  29.302  1.00  0.00     0.173 A 
ATOM     95  F   UNL A   1      40.642  34.385  30.127  1.00  0.00    -0.203 F 
ATOM     96  C   UNL A   1      41.882  35.613  28.565  1.00  0.00     0.198 A 
ATOM     97  C   UNL A   1      44.246  35.273  28.368  1.00  0.00     0.198 A 
ATOM     98  F   UNL A   1      45.315  33.625  29.661  1.00  0.00    -0.203 F 
ATOM     99  F   UNL A   1      40.772  36.282  28.217  1.00  0.00    -0.200 F 
ATOM    100  C   UNL A   1      43.098  35.952  27.994  1.00  0.00     0.200 A 
ATOM    101  F   UNL A   1      45.432  35.630  27.855  1.00  0.00    -0.200 F 
ATOM    102  F   UNL A   1      43.168  36.952  27.104  1.00  0.00    -0.200 F 
ENDBRANCH  69  92
ENDBRANCH  43  44
ENDBRANCH  36  38
ENDBRANCH  35  36
ENDBRANCH  34  35
ENDBRANCH  33  34
ENDBRANCH  32  33
ENDBRANCH  31  32
ENDBRANCH  30  31
ENDBRANCH  29  30
ENDBRANCH  28  29
ENDBRANCH   1  28
TORSDOF 25
ENDMDL
MODEL 2
REMARK VINA RESULT:     -10.0      1.531      2.149
REMARK SMILES CCn1ccc([C@@H](C)NC(=O)[C@H](C)n2ccc(C(=O)OCCOCCOCCOCCOC(=O)c3ccc(-c4c5nc(c(-c6c(F)c(F)c(F)c(F)c6F)c6ccc([nH]6)c(-c6c(F)c(F)c(F)c(F)c6F)c6nc(c(-c7c(F)c(F)c(F)c(F)c7F)c7ccc4[nH]7)C=C6)C=C5)cc3)n2)n1
REMARK SMILES IDX 24 1 23 2 22 3 21 4 20 5 18 6 19 7 17 8 14 9 15 10 98 11
REMARK SMILES IDX 16 12 12 13 13 14 10 15 9 16 11 18 7 19 8 20 6 21 3 22 4 23
REMARK SMILES IDX 99 24 5 25 2 26 1 27 25 28 26 29 27 30 28 31 29 32 30 33
REMARK SMILES IDX 31 34 32 35 33 36 34 37 35 38 36 39 97 40 37 41 96 42 38 43
REMARK SMILES IDX 39 44 40 45 90 46 41 47 95 48 89 49 91 50 42 51 94 52 88 53
REMARK SMILES IDX 87 54 43 56 75 57 55 58 74 59 56 60 59 61 73 62 92 63 57 64
REMARK SMILES IDX 58 65 72 67 93 68 60 69 44 70 45 71 53 72 46 73 47 74 51 75
REMARK SMILES IDX 54 76 48 77 49 78 52 79 50 80 76 81 77 82 85 83 78 84 79 85
REMARK SMILES IDX 83 86 86 87 80 88 81 89 84 90 82 91 61 92 62 93 70 94 63 95
REMARK SMILES IDX 64 96 68 97 71 98 65 99 66 100 69 101 67 102
REMARK H PARENT 9 17 91 55 59 66
REMARK Flexibility Score: inf
ROOT
ATOM      1  C   UNL A   1      33.686  27.707  25.835  1.00  0.00     0.188 C 
ENDROOT
BRANCH   1   2
ATOM      2  O   UNL A   1      33.788  28.310  24.562  1.00  0.00    -0.376 OA
BRANCH   2   3
ATOM      3  C   UNL A   1      32.682  28.928  23.950  1.00  0.00     0.202 C 
BRANCH   3   4
ATOM      4  C   UNL A   1      31.294  28.726  24.571  1.00  0.00     0.261 C 
BRANCH   4   5
ATOM      5  O   UNL A   1      30.700  27.438  24.380  1.00  0.00    -0.458 OA
BRANCH   5   6
ATOM      6  C   UNL A   1      30.929  26.817  23.190  1.00  0.00     0.358 C 
ATOM      7  O   UNL A   1      30.501  27.227  22.110  1.00  0.00    -0.244 OA
BRANCH   6   8
ATOM      8  C   UNL A   1      31.916  25.737  23.315  1.00  0.00     0.170 A 
ATOM      9  N   UNL A   1      33.059  24.130  24.147  1.00  0.00    -0.260 N 
ATOM     10  C   UNL A   1      33.709  24.457  22.994  1.00  0.00     0.110 A 
ATOM     11  N   UNL A   1      31.991  24.929  24.390  1.00  0.00    -0.165 NA
ATOM     12  C   UNL A   1      32.977  25.464  22.413  1.00  0.00     0.057 A 
BRANCH   9  13
ATOM     13  C   UNL A   1      33.347  23.051  25.096  1.00  0.00     0.193 C 
ATOM     14  C   UNL A   1      34.054  23.572  26.345  1.00  0.00     0.044 C 
BRANCH  13  15
ATOM     15  C   UNL A   1      32.166  22.103  25.314  1.00  0.00     0.245 C 
ATOM     16  N   UNL A   1      32.019  20.900  24.702  1.00  0.00    -0.346 N 
ATOM     17  H   UNL A   1      31.205  20.412  24.966  1.00  0.00     0.164 HD
ATOM     18  O   UNL A   1      31.279  22.403  26.124  1.00  0.00    -0.273 OA
BRANCH  16  19
ATOM     19  C   UNL A   1      32.842  20.195  23.726  1.00  0.00     0.130 C 
ATOM     20  C   UNL A   1      32.113  20.109  22.387  1.00  0.00     0.038 C 
BRANCH  19  21
ATOM     21  C   UNL A   1      33.196  18.839  24.271  1.00  0.00     0.084 A 
ATOM     22  N   UNL A   1      32.904  16.994  25.290  1.00  0.00    -0.273 N 
ATOM     23  C   UNL A   1      34.219  16.987  24.928  1.00  0.00     0.109 A 
ATOM     24  N   UNL A   1      32.261  18.111  24.899  1.00  0.00    -0.176 NA
ATOM     25  C   UNL A   1      34.440  18.162  24.251  1.00  0.00     0.047 A 
BRANCH  22  26
ATOM     26  C   UNL A   1      32.166  16.015  26.066  1.00  0.00     0.141 C 
ATOM     27  C   UNL A   1      32.424  14.561  25.704  1.00  0.00     0.029 C 
ENDBRANCH  22  26
ENDBRANCH  19  21
ENDBRANCH  16  19
ENDBRANCH  13  15
ENDBRANCH   9  13
ENDBRANCH   6   8
ENDBRANCH   5   6
ENDBRANCH   4   5
ENDBRANCH   3   4
ENDBRANCH   2   3
ENDBRANCH   1   2
BRANCH   1  28
ATOM     28  C   UNL A   1      34.151  28.602  27.011  1.00  0.00     0.188 C 
BRANCH  28  29
ATOM     29  O   UNL A   1      33.810  29.982  27.129  1.00  0.00    -0.377 OA
BRANCH  29  30
ATOM     30  C   UNL A   1      34.515  30.810  28.036  1.00  0.00     0.188 C 
BRANCH  30  31
ATOM     31  C   UNL A   1      34.597  32.319  27.701  1.00  0.00     0.188 C 
BRANCH  31  32
ATOM     32  O   UNL A   1      33.535  33.146  28.139  1.00  0.00    -0.376 OA
BRANCH  32  33
ATOM     33  C   UNL A   1      33.531  34.560  28.208  1.00  0.00     0.202 C 
BRANCH  33  34
ATOM     34  C   UNL A   1      33.678  35.405  29.470  1.00  0.00     0.261 C 
BRANCH  34  35
ATOM     35  O   UNL A   1      34.262  34.741  30.557  1.00  0.00    -0.460 OA
BRANCH  35  36
ATOM     36  C   UNL A   1      33.612  34.899  31.714  1.00  0.00     0.338 C 
ATOM     37  O   UNL A   1      32.497  35.392  31.879  1.00  0.00    -0.246 OA
BRANCH  36  38
ATOM     38  C   UNL A   1      34.505  34.454  32.794  1.00  0.00     0.060 A 
ATOM     39  C   UNL A   1      35.662  35.221  32.878  1.00  0.00     0.016 A 
ATOM     40  C   UNL A   1      34.479  33.079  33.077  1.00  0.00     0.016 A 
ATOM     41  C   UNL A   1      36.840  34.540  32.748  1.00  0.00     0.010 A 
ATOM     42  C   UNL A   1      35.651  32.398  32.916  1.00  0.00     0.010 A 
ATOM     43  C   UNL A   1      36.788  33.145  32.631  1.00  0.00    -0.014 A 
BRANCH  43  44
ATOM     44  C   UNL A   1      38.014  32.470  32.307  1.00  0.00     0.031 A 
ATOM     45  C   UNL A   1      38.869  32.353  33.499  1.00  0.00     0.074 A 
ATOM     46  C   UNL A   1      38.272  31.983  31.083  1.00  0.00     0.049 A 
ATOM     47  N   UNL A   1      39.955  33.001  33.751  1.00  0.00    -0.248 NA
ATOM     48  C   UNL A   1      38.313  31.620  34.650  1.00  0.00     0.031 C 
ATOM     49  C   UNL A   1      37.367  31.828  29.941  1.00  0.00     0.029 A 
ATOM     50  N   UNL A   1      39.425  31.426  30.637  1.00  0.00    -0.354 N 
ATOM     51  C   UNL A   1      40.328  32.588  35.023  1.00  0.00     0.074 A 
ATOM     52  C   UNL A   1      39.182  31.947  35.604  1.00  0.00     0.031 C 
ATOM     53  C   UNL A   1      37.944  31.014  29.026  1.00  0.00     0.029 A 
ATOM     54  C   UNL A   1      39.297  30.707  29.458  1.00  0.00     0.049 A 
ATOM     55  H   UNL A   1      40.283  31.525  31.110  1.00  0.00     0.167 HD
ATOM     56  C   UNL A   1      41.642  32.523  35.360  1.00  0.00     0.037 A 
ATOM     57  C   UNL A   1      40.228  29.848  28.973  1.00  0.00     0.037 A 
ATOM     58  C   UNL A   1      42.439  33.355  34.493  1.00  0.00     0.049 A 
ATOM     59  C   UNL A   1      41.518  30.177  29.641  1.00  0.00     0.074 A 
ATOM     60  C   UNL A   1      42.482  34.709  34.221  1.00  0.00     0.029 A 
ATOM     61  N   UNL A   1      43.101  32.743  33.457  1.00  0.00    -0.354 N 
ATOM     62  N   UNL A   1      42.176  31.287  29.438  1.00  0.00    -0.248 NA
ATOM     63  C   UNL A   1      41.824  29.493  30.891  1.00  0.00     0.031 C 
ATOM     64  C   UNL A   1      42.765  34.803  32.827  1.00  0.00     0.029 A 
ATOM     65  C   UNL A   1      42.934  33.509  32.333  1.00  0.00     0.049 A 
ATOM     66  H   UNL A   1      43.608  31.901  33.512  1.00  0.00     0.167 HD
ATOM     67  C   UNL A   1      42.652  31.653  30.690  1.00  0.00     0.074 A 
ATOM     68  C   UNL A   1      42.466  30.475  31.530  1.00  0.00     0.031 C 
ATOM     69  C   UNL A   1      42.880  32.965  30.996  1.00  0.00     0.037 A 
BRANCH  56  70
ATOM     70  C   UNL A   1      42.224  31.382  36.158  1.00  0.00     0.064 A 
ATOM     71  C   UNL A   1      43.095  31.686  37.220  1.00  0.00     0.173 A 
ATOM     72  C   UNL A   1      42.219  30.027  35.747  1.00  0.00     0.173 A 
ATOM     73  F   UNL A   1      43.189  32.940  37.686  1.00  0.00    -0.203 F 
ATOM     74  C   UNL A   1      43.963  30.732  37.756  1.00  0.00     0.198 A 
ATOM     75  C   UNL A   1      43.045  29.068  36.322  1.00  0.00     0.198 A 
ATOM     76  F   UNL A   1      41.509  29.585  34.704  1.00  0.00    -0.203 F 
ATOM     77  F   UNL A   1      44.870  31.103  38.668  1.00  0.00    -0.200 F 
ATOM     78  C   UNL A   1      43.944  29.427  37.300  1.00  0.00     0.200 A 
ATOM     79  F   UNL A   1      43.020  27.812  35.853  1.00  0.00    -0.200 F 
ATOM     80  F   UNL A   1      44.822  28.529  37.763  1.00  0.00    -0.200 F 
ENDBRANCH  56  70
BRANCH  57  81
ATOM     81  C   UNL A   1      39.998  28.550  28.296  1.00  0.00     0.064 A 
ATOM     82  C   UNL A   1      40.623  28.249  27.075  1.00  0.00     0.173 A 
ATOM     83  C   UNL A   1      39.386  27.473  28.968  1.00  0.00     0.173 A 
ATOM     84  F   UNL A   1      41.274  29.207  26.400  1.00  0.00    -0.203 F 
ATOM     85  C   UNL A   1      40.650  26.946  26.567  1.00  0.00     0.198 A 
ATOM     86  C   UNL A   1      39.409  26.174  28.456  1.00  0.00     0.198 A 
ATOM     87  F   UNL A   1      38.841  27.639  30.182  1.00  0.00    -0.203 F 
ATOM     88  F   UNL A   1      41.307  26.687  25.428  1.00  0.00    -0.200 F 
ATOM     89  C   UNL A   1      40.051  25.909  27.262  1.00  0.00     0.200 A 
ATOM     90  F   UNL A   1      38.862  25.173  29.160  1.00  0.00    -0.200 F 
ATOM     91  F   UNL A   1      40.127  24.651  26.805  1.00  0.00    -0.200 F 
ENDBRANCH  57  81
BRANCH  69  92
ATOM     92  C   UNL A   1      42.848  33.957  29.868  1.00  0.00     0.064 A 
ATOM     93  C   UNL A   1      41.688  34.628  29.443  1.00  0.00     0.173 A 
ATOM     94  C   UNL A   1      44.067  34.356  29.305  1.00  0.00     0.173 A 
ATOM     95  F   UNL A   1      40.499  34.366  30.001  1.00  0.00    -0.203 F 
ATOM     96  C   UNL A   1      41.747  35.628  28.472  1.00  0.00     0.198 A 
ATOM     97  C   UNL A   1      44.128  35.379  28.364  1.00  0.00     0.198 A 
ATOM     98  F   UNL A   1      45.213  33.786  29.712  1.00  0.00    -0.203 F 
ATOM     99  F   UNL A   1      40.625  36.250  28.077  1.00  0.00    -0.200 F 
ATOM    100  C   UNL A   1      42.968  36.009  27.942  1.00  0.00     0.200 A 
ATOM    101  F   UNL A   1      45.317  35.778  27.890  1.00  0.00    -0.200 F 
ATOM    102  F   UNL A   1      43.032  37.003  27.044  1.00  0.00    -0.200 F 
ENDBRANCH  69  92
ENDBRANCH  43  44
ENDBRANCH  36  38
ENDBRANCH  35  36
ENDBRANCH  34  35
ENDBRANCH  33  34
ENDBRANCH  32  33
ENDBRANCH  31  32
ENDBRANCH  30  31
ENDBRANCH  29  30
ENDBRANCH  28  29
ENDBRANCH   1  28
TORSDOF 25
ENDMDL
MODEL 3
REMARK VINA RESULT:      -9.6      3.169      8.223
REMARK SMILES CCn1ccc([C@@H](C)NC(=O)[C@H](C)n2ccc(C(=O)OCCOCCOCCOCCOC(=O)c3ccc(-c4c5nc(c(-c6c(F)c(F)c(F)c(F)c6F)c6ccc([nH]6)c(-c6c(F)c(F)c(F)c(F)c6F)c6nc(c(-c7c(F)c(F)c(F)c(F)c7F)c7ccc4[nH]7)C=C6)C=C5)cc3)n2)n1
REMARK SMILES IDX 24 1 23 2 22 3 21 4 20 5 18 6 19 7 17 8 14 9 15 10 98 11
REMARK SMILES IDX 16 12 12 13 13 14 10 15 9 16 11 18 7 19 8 20 6 21 3 22 4 23
REMARK SMILES IDX 99 24 5 25 2 26 1 27 25 28 26 29 27 30 28 31 29 32 30 33
REMARK SMILES IDX 31 34 32 35 33 36 34 37 35 38 36 39 97 40 37 41 96 42 38 43
REMARK SMILES IDX 39 44 40 45 90 46 41 47 95 48 89 49 91 50 42 51 94 52 88 53
REMARK SMILES IDX 87 54 43 56 75 57 55 58 74 59 56 60 59 61 73 62 92 63 57 64
REMARK SMILES IDX 58 65 72 67 93 68 60 69 44 70 45 71 53 72 46 73 47 74 51 75
REMARK SMILES IDX 54 76 48 77 49 78 52 79 50 80 76 81 77 82 85 83 78 84 79 85
REMARK SMILES IDX 83 86 86 87 80 88 81 89 84 90 82 91 61 92 62 93 70 94 63 95
REMARK SMILES IDX 64 96 68 97 71 98 65 99 66 100 69 101 67 102
REMARK H PARENT 9 17 91 55 59 66
REMARK Flexibility Score: inf
ROOT
ATOM      1  C   UNL A   1      39.338  23.368  27.118  1.00  0.00     0.188 C 
ENDROOT
BRANCH   1   2
ATOM      2  O   UNL A   1      38.361  23.812  26.200  1.00  0.00    -0.376 OA
BRANCH   2   3
ATOM      3  C   UNL A   1      37.410  22.930  25.653  1.00  0.00     0.202 C 
BRANCH   3   4
ATOM      4  C   UNL A   1      36.503  23.439  24.527  1.00  0.00     0.261 C 
BRANCH   4   5
ATOM      5  O   UNL A   1      35.105  23.512  24.827  1.00  0.00    -0.458 OA
BRANCH   5   6
ATOM      6  C   UNL A   1      34.236  23.286  23.804  1.00  0.00     0.358 C 
ATOM      7  O   UNL A   1      33.894  22.164  23.430  1.00  0.00    -0.244 OA
BRANCH   6   8
ATOM      8  C   UNL A   1      33.593  24.525  23.347  1.00  0.00     0.170 A 
ATOM      9  N   UNL A   1      33.043  26.590  23.223  1.00  0.00    -0.260 N 
ATOM     10  C   UNL A   1      32.167  25.948  22.397  1.00  0.00     0.110 A 
ATOM     11  N   UNL A   1      33.889  25.738  23.850  1.00  0.00    -0.165 NA
ATOM     12  C   UNL A   1      32.518  24.620  22.424  1.00  0.00     0.057 A 
BRANCH   9  13
ATOM     13  C   UNL A   1      33.188  28.025  23.477  1.00  0.00     0.193 C 
ATOM     14  C   UNL A   1      34.101  28.691  22.451  1.00  0.00     0.044 C 
BRANCH  13  15
ATOM     15  C   UNL A   1      31.861  28.725  23.779  1.00  0.00     0.245 C 
ATOM     16  N   UNL A   1      31.232  28.700  24.983  1.00  0.00    -0.346 N 
ATOM     17  H   UNL A   1      30.391  29.213  25.007  1.00  0.00     0.164 HD
ATOM     18  O   UNL A   1      31.308  29.400  22.901  1.00  0.00    -0.273 OA
BRANCH  16  19
ATOM     19  C   UNL A   1      31.568  28.053  26.245  1.00  0.00     0.130 C 
ATOM     20  C   UNL A   1      33.055  28.231  26.548  1.00  0.00     0.038 C 
BRANCH  19  21
ATOM     21  C   UNL A   1      31.170  26.605  26.176  1.00  0.00     0.084 A 
ATOM     22  N   UNL A   1      31.321  24.508  26.505  1.00  0.00    -0.273 N 
ATOM     23  C   UNL A   1      30.212  24.658  25.725  1.00  0.00     0.109 A 
ATOM     24  N   UNL A   1      31.919  25.680  26.794  1.00  0.00    -0.176 NA
ATOM     25  C   UNL A   1      30.075  26.008  25.504  1.00  0.00     0.047 A 
BRANCH  22  26
ATOM     26  C   UNL A   1      31.938  23.286  26.985  1.00  0.00     0.141 C 
ATOM     27  C   UNL A   1      31.816  22.083  26.065  1.00  0.00     0.029 C 
ENDBRANCH  22  26
ENDBRANCH  19  21
ENDBRANCH  16  19
ENDBRANCH  13  15
ENDBRANCH   9  13
ENDBRANCH   6   8
ENDBRANCH   5   6
ENDBRANCH   4   5
ENDBRANCH   3   4
ENDBRANCH   2   3
ENDBRANCH   1   2
BRANCH   1  28
ATOM     28  C   UNL A   1      39.921  21.966  26.809  1.00  0.00     0.188 C 
BRANCH  28  29
ATOM     29  O   UNL A   1      40.678  21.207  27.750  1.00  0.00    -0.377 OA
BRANCH  29  30
ATOM     30  C   UNL A   1      42.092  21.259  27.728  1.00  0.00     0.188 C 
BRANCH  30  31
ATOM     31  C   UNL A   1      42.763  22.537  28.290  1.00  0.00     0.188 C 
BRANCH  31  32
ATOM     32  O   UNL A   1      43.064  23.574  27.375  1.00  0.00    -0.376 OA
BRANCH  32  33
ATOM     33  C   UNL A   1      43.346  23.433  25.995  1.00  0.00     0.202 C 
BRANCH  33  34
ATOM     34  C   UNL A   1      43.481  24.564  24.979  1.00  0.00     0.261 C 
BRANCH  34  35
ATOM     35  O   UNL A   1      42.416  25.473  24.967  1.00  0.00    -0.460 OA
BRANCH  35  36
ATOM     36  C   UNL A   1      42.711  26.677  25.468  1.00  0.00     0.338 C 
ATOM     37  O   UNL A   1      43.831  27.145  25.665  1.00  0.00    -0.246 OA
BRANCH  36  38
ATOM     38  C   UNL A   1      41.448  27.332  25.835  1.00  0.00     0.060 A 
ATOM     39  C   UNL A   1      41.535  28.719  25.797  1.00  0.00     0.016 A 
ATOM     40  C   UNL A   1      40.654  26.644  26.766  1.00  0.00     0.016 A 
ATOM     41  C   UNL A   1      41.249  29.368  26.965  1.00  0.00     0.010 A 
ATOM     42  C   UNL A   1      40.398  27.283  27.945  1.00  0.00     0.010 A 
ATOM     43  C   UNL A   1      40.818  28.604  28.057  1.00  0.00    -0.014 A 
BRANCH  43  44
ATOM     44  C   UNL A   1      40.705  29.276  29.322  1.00  0.00     0.031 A 
ATOM     45  C   UNL A   1      39.530  30.162  29.333  1.00  0.00     0.074 A 
ATOM     46  C   UNL A   1      41.550  29.049  30.340  1.00  0.00     0.049 A 
ATOM     47  N   UNL A   1      39.521  31.451  29.290  1.00  0.00    -0.248 NA
ATOM     48  C   UNL A   1      38.218  29.533  29.109  1.00  0.00     0.031 C 
ATOM     49  C   UNL A   1      42.560  27.998  30.485  1.00  0.00     0.029 A 
ATOM     50  N   UNL A   1      41.606  29.694  31.532  1.00  0.00    -0.354 N 
ATOM     51  C   UNL A   1      38.177  31.795  29.246  1.00  0.00     0.074 A 
ATOM     52  C   UNL A   1      37.455  30.603  28.897  1.00  0.00     0.031 C 
ATOM     53  C   UNL A   1      42.959  27.942  31.779  1.00  0.00     0.029 A 
ATOM     54  C   UNL A   1      42.334  29.031  32.509  1.00  0.00     0.049 A 
ATOM     55  H   UNL A   1      41.167  30.561  31.690  1.00  0.00     0.167 HD
ATOM     56  C   UNL A   1      37.750  32.950  29.815  1.00  0.00     0.037 A 
ATOM     57  C   UNL A   1      42.304  29.333  33.831  1.00  0.00     0.037 A 
ATOM     58  C   UNL A   1      38.838  33.884  29.967  1.00  0.00     0.049 A 
ATOM     59  C   UNL A   1      41.764  30.717  33.953  1.00  0.00     0.074 A 
ATOM     60  C   UNL A   1      39.693  34.526  29.090  1.00  0.00     0.029 A 
ATOM     61  N   UNL A   1      39.429  33.978  31.203  1.00  0.00    -0.354 N 
ATOM     62  N   UNL A   1      42.401  31.781  33.542  1.00  0.00    -0.248 NA
ATOM     63  C   UNL A   1      40.321  30.869  34.086  1.00  0.00     0.031 C 
ATOM     64  C   UNL A   1      40.952  34.571  29.758  1.00  0.00     0.029 A 
ATOM     65  C   UNL A   1      40.788  34.007  31.025  1.00  0.00     0.049 A 
ATOM     66  H   UNL A   1      38.959  34.018  32.066  1.00  0.00     0.167 HD
ATOM     67  C   UNL A   1      41.421  32.585  32.973  1.00  0.00     0.074 A 
ATOM     68  C   UNL A   1      40.153  32.004  33.403  1.00  0.00     0.031 C 
ATOM     69  C   UNL A   1      41.730  33.465  31.975  1.00  0.00     0.037 A 
BRANCH  56  70
ATOM     70  C   UNL A   1      36.479  33.041  30.625  1.00  0.00     0.064 A 
ATOM     71  C   UNL A   1      35.426  33.831  30.128  1.00  0.00     0.173 A 
ATOM     72  C   UNL A   1      36.359  32.654  31.981  1.00  0.00     0.173 A 
ATOM     73  F   UNL A   1      35.439  34.263  28.858  1.00  0.00    -0.203 F 
ATOM     74  C   UNL A   1      34.391  34.280  30.951  1.00  0.00     0.198 A 
ATOM     75  C   UNL A   1      35.297  33.058  32.782  1.00  0.00     0.198 A 
ATOM     76  F   UNL A   1      37.306  31.969  32.629  1.00  0.00    -0.203 F 
ATOM     77  F   UNL A   1      33.490  35.143  30.468  1.00  0.00    -0.200 F 
ATOM     78  C   UNL A   1      34.334  33.902  32.279  1.00  0.00     0.200 A 
ATOM     79  F   UNL A   1      35.270  32.691  34.072  1.00  0.00    -0.200 F 
ATOM     80  F   UNL A   1      33.382  34.387  33.087  1.00  0.00    -0.200 F 
ENDBRANCH  56  70
BRANCH  57  81
ATOM     81  C   UNL A   1      42.330  28.393  34.976  1.00  0.00     0.064 A 
ATOM     82  C   UNL A   1      41.548  27.227  34.974  1.00  0.00     0.173 A 
ATOM     83  C   UNL A   1      43.329  28.476  35.967  1.00  0.00     0.173 A 
ATOM     84  F   UNL A   1      40.612  27.048  34.031  1.00  0.00    -0.203 F 
ATOM     85  C   UNL A   1      41.765  26.198  35.896  1.00  0.00     0.198 A 
ATOM     86  C   UNL A   1      43.540  27.449  36.890  1.00  0.00     0.198 A 
ATOM     87  F   UNL A   1      44.185  29.506  35.998  1.00  0.00    -0.203 F 
ATOM     88  F   UNL A   1      41.037  25.074  35.826  1.00  0.00    -0.200 F 
ATOM     89  C   UNL A   1      42.766  26.305  36.847  1.00  0.00     0.200 A 
ATOM     90  F   UNL A   1      44.540  27.550  37.777  1.00  0.00    -0.200 F 
ATOM     91  F   UNL A   1      43.013  25.295  37.692  1.00  0.00    -0.200 F 
ENDBRANCH  57  81
BRANCH  69  92
ATOM     92  C   UNL A   1      43.185  33.718  31.698  1.00  0.00     0.064 A 
ATOM     93  C   UNL A   1      43.971  34.642  32.410  1.00  0.00     0.173 A 
ATOM     94  C   UNL A   1      43.840  32.880  30.787  1.00  0.00     0.173 A 
ATOM     95  F   UNL A   1      43.433  35.413  33.363  1.00  0.00    -0.203 F 
ATOM     96  C   UNL A   1      45.345  34.743  32.187  1.00  0.00     0.198 A 
ATOM     97  C   UNL A   1      45.216  32.957  30.594  1.00  0.00     0.198 A 
ATOM     98  F   UNL A   1      43.147  31.944  30.119  1.00  0.00    -0.203 F 
ATOM     99  F   UNL A   1      46.074  35.637  32.872  1.00  0.00    -0.200 F 
ATOM    100  C   UNL A   1      45.967  33.893  31.287  1.00  0.00     0.200 A 
ATOM    101  F   UNL A   1      45.819  32.100  29.758  1.00  0.00    -0.200 F 
ATOM    102  F   UNL A   1      47.293  33.955  31.108  1.00  0.00    -0.200 F 
ENDBRANCH  69  92
ENDBRANCH  43  44
ENDBRANCH  36  38
ENDBRANCH  35  36
ENDBRANCH  34  35
ENDBRANCH  33  34
ENDBRANCH  32  33
ENDBRANCH  31  32
ENDBRANCH  30  31
ENDBRANCH  29  30
ENDBRANCH  28  29
ENDBRANCH   1  28
TORSDOF 25
ENDMDL
