MODEL 1
REMARK VINA RESULT:     -11.7      0.000      0.000
REMARK SMILES Cc1ccc(-c2nn(-c3ccccc3)cc2[C@@H]2[NH2+][C@H](C(=O)OCCOCCOCCOCCOC(=O)c3ccc(-c4c5nc(c(-c6c(F)c(F)c(F)c(F)c6F)c6ccc([nH]6)c(-c6c(F)c(F)c(F)c(F)c6F)c6nc(c(-c7c(F)c(F)c(F)c(F)c7F)c7ccc4[nH]7)C=C6)C=C5)cc3)CS2)cc1
REMARK SMILES IDX 28 1 27 2 26 3 25 4 24 5 23 6 22 7 20 8 21 9 19 10 17 11
REMARK SMILES IDX 18 12 101 13 100 16 16 17 6 18 7 19 8 20 15 21 5 22 1 23
REMARK SMILES IDX 2 24 3 25 103 26 4 27 102 28 9 29 10 30 14 31 11 32 13 33
REMARK SMILES IDX 12 34 29 35 30 36 31 37 32 38 33 39 34 40 35 41 36 42 37 43
REMARK SMILES IDX 38 44 99 45 39 46 98 47 40 48 41 49 42 50 92 51 43 52 97 53
REMARK SMILES IDX 91 54 93 55 44 56 96 57 90 58 89 59 45 61 77 62 57 63 76 64
REMARK SMILES IDX 58 65 61 66 75 67 94 68 59 69 60 70 74 72 95 73 62 74 46 75
REMARK SMILES IDX 47 76 55 77 48 78 49 79 53 80 56 81 50 82 51 83 54 84 52 85
REMARK SMILES IDX 78 86 79 87 87 88 80 89 81 90 85 91 88 92 82 93 83 94 86 95
REMARK SMILES IDX 84 96 63 97 64 98 72 99 65 100 66 101 70 102 73 103 67 104
REMARK SMILES IDX 68 105 71 106 69 107
REMARK H PARENT 18 14 18 15 93 60 61 71
REMARK Flexibility Score: inf
ROOT
ATOM      1  O   UNL A   1      33.444  31.493  27.103  1.00  0.00    -0.377 OA
ENDROOT
BRANCH   1   2
ATOM      2  C   UNL A   1      32.679  30.288  27.000  1.00  0.00     0.188 C 
BRANCH   2   3
ATOM      3  C   UNL A   1      32.866  29.423  25.741  1.00  0.00     0.188 C 
BRANCH   3   4
ATOM      4  O   UNL A   1      31.833  28.531  25.354  1.00  0.00    -0.376 OA
BRANCH   4   5
ATOM      5  C   UNL A   1      31.068  28.902  24.204  1.00  0.00     0.202 C 
BRANCH   5   6
ATOM      6  C   UNL A   1      31.268  28.162  22.867  1.00  0.00     0.261 C 
BRANCH   6   7
ATOM      7  O   UNL A   1      30.952  26.771  23.077  1.00  0.00    -0.459 OA
BRANCH   7   8
ATOM      8  C   UNL A   1      31.358  25.780  22.248  1.00  0.00     0.365 C 
ATOM      9  O   UNL A   1      31.729  25.945  21.096  1.00  0.00    -0.245 OA
BRANCH   8  10
ATOM     10  C   UNL A   1      31.481  24.449  23.051  1.00  0.00     0.304 C 
ATOM     11  C   UNL A   1      33.150  22.694  23.540  1.00  0.00     0.278 C 
ATOM     12  N   UNL A   1      32.696  23.702  22.596  1.00  0.00    -0.319 N 
ATOM     13  S   UNL A   1      32.439  23.240  25.184  1.00  0.00    -0.087 SA
ATOM     14  H   UNL A   1      32.479  23.242  21.712  1.00  0.00     0.348 HD
ATOM     15  H   UNL A   1      33.449  24.385  22.506  1.00  0.00     0.348 HD
ATOM     16  C   UNL A   1      31.529  24.678  24.541  1.00  0.00     0.153 C 
BRANCH  11  17
ATOM     17  C   UNL A   1      34.858  22.253  23.594  1.00  0.00     0.067 A 
ATOM     18  C   UNL A   1      34.933  20.904  25.010  1.00  0.00     0.103 A 
ATOM     19  N   UNL A   1      36.377  21.056  25.885  1.00  0.00    -0.167 NA
ATOM     20  N   UNL A   1      37.463  22.393  25.181  1.00  0.00    -0.240 N 
ATOM     21  C   UNL A   1      36.576  23.063  23.606  1.00  0.00     0.126 A 
BRANCH  18  22
ATOM     22  C   UNL A   1      34.138  19.506  24.725  1.00  0.00     0.003 A 
ATOM     23  C   UNL A   1      32.965  15.263  25.365  1.00  0.00     0.044 C 
ATOM     24  C   UNL A   1      33.270  16.706  25.053  1.00  0.00    -0.051 A 
ATOM     25  C   UNL A   1      34.486  17.012  24.486  1.00  0.00     0.004 A 
ATOM     26  C   UNL A   1      32.447  17.800  25.375  1.00  0.00     0.004 A 
ATOM     27  C   UNL A   1      34.847  18.359  24.266  1.00  0.00     0.011 A 
ATOM     28  C   UNL A   1      32.879  19.176  25.241  1.00  0.00     0.011 A 
ENDBRANCH  18  22
BRANCH  20  29
ATOM     29  C   UNL A   1      38.724  22.755  25.877  1.00  0.00     0.065 A 
ATOM     30  C   UNL A   1      38.967  24.001  26.469  1.00  0.00     0.028 A 
ATOM     31  C   UNL A   1      39.664  21.756  26.132  1.00  0.00     0.028 A 
ATOM     32  C   UNL A   1      39.847  24.153  27.532  1.00  0.00     0.002 A 
ATOM     33  C   UNL A   1      40.487  21.870  27.265  1.00  0.00     0.002 A 
ATOM     34  C   UNL A   1      40.526  23.050  28.004  1.00  0.00     0.000 A 
ENDBRANCH  20  29
ENDBRANCH  11  17
ENDBRANCH   8  10
ENDBRANCH   7   8
ENDBRANCH   6   7
ENDBRANCH   5   6
ENDBRANCH   4   5
ENDBRANCH   3   4
ENDBRANCH   2   3
ENDBRANCH   1   2
BRANCH   1  35
ATOM     35  C   UNL A   1      34.260  31.675  28.261  1.00  0.00     0.188 C 
BRANCH  35  36
ATOM     36  C   UNL A   1      34.346  33.083  28.733  1.00  0.00     0.188 C 
BRANCH  36  37
ATOM     37  O   UNL A   1      34.021  33.029  30.110  1.00  0.00    -0.376 OA
BRANCH  37  38
ATOM     38  C   UNL A   1      35.102  33.252  30.991  1.00  0.00     0.202 C 
BRANCH  38  39
ATOM     39  C   UNL A   1      35.975  32.012  31.168  1.00  0.00     0.261 C 
BRANCH  39  40
ATOM     40  O   UNL A   1      37.273  32.283  30.584  1.00  0.00    -0.460 OA
BRANCH  40  41
ATOM     41  C   UNL A   1      37.871  31.257  29.913  1.00  0.00     0.338 C 
ATOM     42  O   UNL A   1      37.376  30.686  28.955  1.00  0.00    -0.246 OA
BRANCH  41  43
ATOM     43  C   UNL A   1      39.150  30.825  30.574  1.00  0.00     0.060 A 
ATOM     44  C   UNL A   1      40.388  31.279  30.100  1.00  0.00     0.016 A 
ATOM     45  C   UNL A   1      39.147  29.785  31.495  1.00  0.00     0.016 A 
ATOM     46  C   UNL A   1      41.577  30.572  30.411  1.00  0.00     0.010 A 
ATOM     47  C   UNL A   1      40.304  29.029  31.693  1.00  0.00     0.010 A 
ATOM     48  C   UNL A   1      41.536  29.359  31.111  1.00  0.00    -0.014 A 
BRANCH  48  49
ATOM     49  C   UNL A   1      42.714  28.457  31.376  1.00  0.00     0.031 A 
ATOM     50  C   UNL A   1      42.808  27.225  30.563  1.00  0.00     0.074 A 
ATOM     51  C   UNL A   1      43.845  28.784  32.083  1.00  0.00     0.049 A 
ATOM     52  N   UNL A   1      43.686  26.307  30.756  1.00  0.00    -0.248 NA
ATOM     53  C   UNL A   1      42.051  26.994  29.335  1.00  0.00     0.031 C 
ATOM     54  C   UNL A   1      45.109  28.139  32.368  1.00  0.00     0.029 A 
ATOM     55  N   UNL A   1      44.128  29.912  32.798  1.00  0.00    -0.354 N 
ATOM     56  C   UNL A   1      44.017  25.835  29.508  1.00  0.00     0.074 A 
ATOM     57  C   UNL A   1      42.847  26.117  28.712  1.00  0.00     0.031 C 
ATOM     58  C   UNL A   1      45.709  28.600  33.498  1.00  0.00     0.029 A 
ATOM     59  C   UNL A   1      44.774  29.542  34.086  1.00  0.00     0.049 A 
ATOM     60  H   UNL A   1      43.934  30.833  32.506  1.00  0.00     0.167 HD
ATOM     61  C   UNL A   1      45.321  25.488  29.283  1.00  0.00     0.037 A 
ATOM     62  C   UNL A   1      44.172  29.938  35.497  1.00  0.00     0.037 A 
ATOM     63  C   UNL A   1      46.130  25.477  30.545  1.00  0.00     0.049 A 
ATOM     64  C   UNL A   1      44.602  28.197  35.790  1.00  0.00     0.074 A 
ATOM     65  C   UNL A   1      47.386  25.937  30.918  1.00  0.00     0.029 A 
ATOM     66  N   UNL A   1      45.521  25.094  31.767  1.00  0.00    -0.354 N 
ATOM     67  N   UNL A   1      44.336  27.166  34.954  1.00  0.00    -0.248 NA
ATOM     68  C   UNL A   1      45.591  27.755  36.795  1.00  0.00     0.031 C 
ATOM     69  C   UNL A   1      47.461  25.945  32.356  1.00  0.00     0.029 A 
ATOM     70  C   UNL A   1      46.238  25.519  32.886  1.00  0.00     0.049 A 
ATOM     71  H   UNL A   1      44.682  24.583  31.820  1.00  0.00     0.167 HD
ATOM     72  C   UNL A   1      45.240  26.094  35.159  1.00  0.00     0.074 A 
ATOM     73  C   UNL A   1      45.884  26.486  36.421  1.00  0.00     0.031 C 
ATOM     74  C   UNL A   1      45.798  25.168  34.254  1.00  0.00     0.037 A 
BRANCH  61  75
ATOM     75  C   UNL A   1      45.938  25.367  27.881  1.00  0.00     0.064 A 
ATOM     76  C   UNL A   1      45.835  24.156  27.161  1.00  0.00     0.173 A 
ATOM     77  C   UNL A   1      46.708  26.358  27.220  1.00  0.00     0.173 A 
ATOM     78  F   UNL A   1      45.136  23.123  27.649  1.00  0.00    -0.203 F 
ATOM     79  C   UNL A   1      46.444  23.953  25.913  1.00  0.00     0.198 A 
ATOM     80  C   UNL A   1      47.257  26.178  25.939  1.00  0.00     0.198 A 
ATOM     81  F   UNL A   1      47.024  27.520  27.799  1.00  0.00    -0.203 F 
ATOM     82  F   UNL A   1      46.358  22.755  25.318  1.00  0.00    -0.200 F 
ATOM     83  C   UNL A   1      47.138  24.970  25.291  1.00  0.00     0.200 A 
ATOM     84  F   UNL A   1      47.926  27.184  25.354  1.00  0.00    -0.200 F 
ATOM     85  F   UNL A   1      47.700  24.784  24.089  1.00  0.00    -0.200 F 
ENDBRANCH  61  75
BRANCH  62  86
ATOM     86  C   UNL A   1      42.512  31.302  35.895  1.00  0.00     0.064 A 
ATOM     87  C   UNL A   1      42.375  32.707  36.631  1.00  0.00     0.173 A 
ATOM     88  C   UNL A   1      41.274  31.705  34.879  1.00  0.00     0.173 A 
ATOM     89  F   UNL A   1      43.451  33.308  37.178  1.00  0.00    -0.203 F 
ATOM     90  C   UNL A   1      41.368  33.753  36.564  1.00  0.00     0.198 A 
ATOM     91  C   UNL A   1      40.269  32.706  34.821  1.00  0.00     0.198 A 
ATOM     92  F   UNL A   1      41.475  31.428  33.573  1.00  0.00    -0.203 F 
ATOM     93  F   UNL A   1      41.604  34.898  37.229  1.00  0.00    -0.200 F 
ATOM     94  C   UNL A   1      40.328  33.749  35.675  1.00  0.00     0.200 A 
ATOM     95  F   UNL A   1      39.534  32.811  33.698  1.00  0.00    -0.200 F 
ATOM     96  F   UNL A   1      39.593  34.847  35.452  1.00  0.00    -0.200 F 
ENDBRANCH  62  86
BRANCH  74  97
ATOM     97  C   UNL A   1      46.104  23.688  34.586  1.00  0.00     0.064 A 
ATOM     98  C   UNL A   1      45.141  22.676  34.559  1.00  0.00     0.173 A 
ATOM     99  C   UNL A   1      47.452  23.216  34.746  1.00  0.00     0.173 A 
ATOM    100  F   UNL A   1      43.845  22.961  34.381  1.00  0.00    -0.203 F 
ATOM    101  C   UNL A   1      45.492  21.321  34.685  1.00  0.00     0.198 A 
ATOM    102  C   UNL A   1      47.799  21.872  34.811  1.00  0.00     0.198 A 
ATOM    103  F   UNL A   1      48.512  24.032  34.824  1.00  0.00    -0.203 F 
ATOM    104  F   UNL A   1      44.529  20.390  34.681  1.00  0.00    -0.200 F 
ATOM    105  C   UNL A   1      46.814  20.920  34.791  1.00  0.00     0.200 A 
ATOM    106  F   UNL A   1      49.092  21.518  34.872  1.00  0.00    -0.200 F 
ATOM    107  F   UNL A   1      47.139  19.623  34.865  1.00  0.00    -0.200 F 
ENDBRANCH  74  97
ENDBRANCH  48  49
ENDBRANCH  41  43
ENDBRANCH  40  41
ENDBRANCH  39  40
ENDBRANCH  38  39
ENDBRANCH  37  38
ENDBRANCH  36  37
ENDBRANCH  35  36
ENDBRANCH   1  35
TORSDOF 23
ENDMDL
MODEL 2
REMARK VINA RESULT:     -10.5      4.624      9.611
REMARK SMILES Cc1ccc(-c2nn(-c3ccccc3)cc2[C@@H]2[NH2+][C@H](C(=O)OCCOCCOCCOCCOC(=O)c3ccc(-c4c5nc(c(-c6c(F)c(F)c(F)c(F)c6F)c6ccc([nH]6)c(-c6c(F)c(F)c(F)c(F)c6F)c6nc(c(-c7c(F)c(F)c(F)c(F)c7F)c7ccc4[nH]7)C=C6)C=C5)cc3)CS2)cc1
REMARK SMILES IDX 28 1 27 2 26 3 25 4 24 5 23 6 22 7 20 8 21 9 19 10 17 11
REMARK SMILES IDX 18 12 101 13 100 16 16 17 6 18 7 19 8 20 15 21 5 22 1 23
REMARK SMILES IDX 2 24 3 25 103 26 4 27 102 28 9 29 10 30 14 31 11 32 13 33
REMARK SMILES IDX 12 34 29 35 30 36 31 37 32 38 33 39 34 40 35 41 36 42 37 43
REMARK SMILES IDX 38 44 99 45 39 46 98 47 40 48 41 49 42 50 92 51 43 52 97 53
REMARK SMILES IDX 91 54 93 55 44 56 96 57 90 58 89 59 45 61 77 62 57 63 76 64
REMARK SMILES IDX 58 65 61 66 75 67 94 68 59 69 60 70 74 72 95 73 62 74 46 75
REMARK SMILES IDX 47 76 55 77 48 78 49 79 53 80 56 81 50 82 51 83 54 84 52 85
REMARK SMILES IDX 78 86 79 87 87 88 80 89 81 90 85 91 88 92 82 93 83 94 86 95
REMARK SMILES IDX 84 96 63 97 64 98 72 99 65 100 66 101 70 102 73 103 67 104
REMARK SMILES IDX 68 105 71 106 69 107
REMARK H PARENT 18 14 18 15 93 60 61 71
REMARK Flexibility Score: inf
ROOT
ATOM      1  O   UNL A   1      33.216  26.614  24.810  1.00  0.00    -0.377 OA
ENDROOT
BRANCH   1   2
ATOM      2  C   UNL A   1      33.225  26.013  26.109  1.00  0.00     0.188 C 
BRANCH   2   3
ATOM      3  C   UNL A   1      33.961  24.671  26.276  1.00  0.00     0.188 C 
BRANCH   3   4
ATOM      4  O   UNL A   1      33.209  23.470  26.322  1.00  0.00    -0.376 OA
BRANCH   4   5
ATOM      5  C   UNL A   1      32.190  23.394  27.323  1.00  0.00     0.202 C 
BRANCH   5   6
ATOM      6  C   UNL A   1      30.714  23.632  26.948  1.00  0.00     0.261 C 
BRANCH   6   7
ATOM      7  O   UNL A   1      30.536  23.241  25.572  1.00  0.00    -0.459 OA
BRANCH   7   8
ATOM      8  C   UNL A   1      30.537  24.118  24.540  1.00  0.00     0.365 C 
ATOM      9  O   UNL A   1      30.151  25.275  24.611  1.00  0.00    -0.245 OA
BRANCH   8  10
ATOM     10  C   UNL A   1      31.296  23.495  23.329  1.00  0.00     0.304 C 
ATOM     11  C   UNL A   1      33.578  22.787  22.701  1.00  0.00     0.278 C 
ATOM     12  N   UNL A   1      32.770  23.679  23.515  1.00  0.00    -0.319 N 
ATOM     13  S   UNL A   1      32.437  21.356  22.305  1.00  0.00    -0.087 SA
ATOM     14  H   UNL A   1      33.008  24.641  23.272  1.00  0.00     0.348 HD
ATOM     15  H   UNL A   1      32.976  23.462  24.491  1.00  0.00     0.348 HD
ATOM     16  C   UNL A   1      30.967  22.037  23.132  1.00  0.00     0.153 C 
BRANCH  11  17
ATOM     17  C   UNL A   1      35.182  22.307  23.260  1.00  0.00     0.067 A 
ATOM     18  C   UNL A   1      34.809  21.286  24.888  1.00  0.00     0.103 A 
ATOM     19  N   UNL A   1      36.017  21.569  26.044  1.00  0.00    -0.167 NA
ATOM     20  N   UNL A   1      37.348  22.687  25.379  1.00  0.00    -0.240 N 
ATOM     21  C   UNL A   1      36.913  23.039  23.534  1.00  0.00     0.126 A 
BRANCH  18  22
ATOM     22  C   UNL A   1      33.985  19.889  24.697  1.00  0.00     0.003 A 
ATOM     23  C   UNL A   1      32.857  15.662  25.503  1.00  0.00     0.044 C 
ATOM     24  C   UNL A   1      33.138  17.100  25.143  1.00  0.00    -0.051 A 
ATOM     25  C   UNL A   1      34.299  17.390  24.463  1.00  0.00     0.004 A 
ATOM     26  C   UNL A   1      32.353  18.202  25.524  1.00  0.00     0.004 A 
ATOM     27  C   UNL A   1      34.644  18.732  24.191  1.00  0.00     0.011 A 
ATOM     28  C   UNL A   1      32.778  19.573  25.330  1.00  0.00     0.011 A 
ENDBRANCH  18  22
BRANCH  20  29
ATOM     29  C   UNL A   1      38.438  23.143  26.279  1.00  0.00     0.065 A 
ATOM     30  C   UNL A   1      39.592  22.399  26.557  1.00  0.00     0.028 A 
ATOM     31  C   UNL A   1      38.424  24.459  26.740  1.00  0.00     0.028 A 
ATOM     32  C   UNL A   1      40.789  23.004  26.918  1.00  0.00     0.002 A 
ATOM     33  C   UNL A   1      39.647  25.097  27.012  1.00  0.00     0.002 A 
ATOM     34  C   UNL A   1      40.839  24.377  27.035  1.00  0.00     0.000 A 
ENDBRANCH  20  29
ENDBRANCH  11  17
ENDBRANCH   8  10
ENDBRANCH   7   8
ENDBRANCH   6   7
ENDBRANCH   5   6
ENDBRANCH   4   5
ENDBRANCH   3   4
ENDBRANCH   2   3
ENDBRANCH   1   2
BRANCH   1  35
ATOM     35  C   UNL A   1      32.440  27.798  24.622  1.00  0.00     0.188 C 
BRANCH  35  36
ATOM     36  C   UNL A   1      31.829  28.334  25.867  1.00  0.00     0.188 C 
BRANCH  36  37
ATOM     37  O   UNL A   1      32.188  29.704  25.893  1.00  0.00    -0.376 OA
BRANCH  37  38
ATOM     38  C   UNL A   1      33.535  29.965  26.226  1.00  0.00     0.202 C 
BRANCH  38  39
ATOM     39  C   UNL A   1      33.707  30.359  27.691  1.00  0.00     0.261 C 
BRANCH  39  40
ATOM     40  O   UNL A   1      35.010  30.975  27.847  1.00  0.00    -0.460 OA
BRANCH  40  41
ATOM     41  C   UNL A   1      35.960  30.245  28.498  1.00  0.00     0.338 C 
ATOM     42  O   UNL A   1      36.317  29.130  28.158  1.00  0.00    -0.246 OA
BRANCH  41  43
ATOM     43  C   UNL A   1      36.420  30.922  29.759  1.00  0.00     0.060 A 
ATOM     44  C   UNL A   1      36.972  32.208  29.719  1.00  0.00     0.016 A 
ATOM     45  C   UNL A   1      36.539  30.198  30.940  1.00  0.00     0.016 A 
ATOM     46  C   UNL A   1      37.783  32.673  30.784  1.00  0.00     0.010 A 
ATOM     47  C   UNL A   1      37.436  30.618  31.924  1.00  0.00     0.010 A 
ATOM     48  C   UNL A   1      38.132  31.833  31.850  1.00  0.00    -0.014 A 
BRANCH  48  49
ATOM     49  C   UNL A   1      39.094  32.172  32.959  1.00  0.00     0.031 A 
ATOM     50  C   UNL A   1      38.627  33.141  33.975  1.00  0.00     0.074 A 
ATOM     51  C   UNL A   1      40.236  31.482  33.284  1.00  0.00     0.049 A 
ATOM     52  N   UNL A   1      39.375  33.614  34.907  1.00  0.00    -0.248 NA
ATOM     53  C   UNL A   1      37.230  33.523  34.161  1.00  0.00     0.031 C 
ATOM     54  C   UNL A   1      41.225  31.557  34.337  1.00  0.00     0.029 A 
ATOM     55  N   UNL A   1      40.832  30.435  32.642  1.00  0.00    -0.354 N 
ATOM     56  C   UNL A   1      38.561  33.748  36.008  1.00  0.00     0.074 A 
ATOM     57  C   UNL A   1      37.241  33.897  35.446  1.00  0.00     0.031 C 
ATOM     58  C   UNL A   1      42.427  31.023  33.992  1.00  0.00     0.029 A 
ATOM     59  C   UNL A   1      42.304  30.645  32.595  1.00  0.00     0.049 A 
ATOM     60  H   UNL A   1      40.360  29.657  32.266  1.00  0.00     0.167 HD
ATOM     61  C   UNL A   1      39.102  33.478  37.236  1.00  0.00     0.037 A 
ATOM     62  C   UNL A   1      43.122  30.714  31.240  1.00  0.00     0.037 A 
ATOM     63  C   UNL A   1      40.589  33.294  37.172  1.00  0.00     0.049 A 
ATOM     64  C   UNL A   1      43.830  32.129  32.135  1.00  0.00     0.074 A 
ATOM     65  C   UNL A   1      41.497  32.391  37.710  1.00  0.00     0.029 A 
ATOM     66  N   UNL A   1      41.350  34.042  36.239  1.00  0.00    -0.354 N 
ATOM     67  N   UNL A   1      43.129  33.067  32.813  1.00  0.00    -0.248 NA
ATOM     68  C   UNL A   1      45.254  32.224  32.520  1.00  0.00     0.031 C 
ATOM     69  C   UNL A   1      42.744  32.524  37.003  1.00  0.00     0.029 A 
ATOM     70  C   UNL A   1      42.609  33.489  35.999  1.00  0.00     0.049 A 
ATOM     71  H   UNL A   1      41.026  34.864  35.806  1.00  0.00     0.167 HD
ATOM     72  C   UNL A   1      43.920  33.669  33.823  1.00  0.00     0.074 A 
ATOM     73  C   UNL A   1      45.265  33.194  33.468  1.00  0.00     0.031 C 
ATOM     74  C   UNL A   1      43.577  34.154  35.100  1.00  0.00     0.037 A 
BRANCH  61  75
ATOM     75  C   UNL A   1      38.262  33.156  38.481  1.00  0.00     0.064 A 
ATOM     76  C   UNL A   1      37.457  31.996  38.515  1.00  0.00     0.173 A 
ATOM     77  C   UNL A   1      38.133  33.972  39.634  1.00  0.00     0.173 A 
ATOM     78  F   UNL A   1      37.469  31.120  37.503  1.00  0.00    -0.203 F 
ATOM     79  C   UNL A   1      36.605  31.686  39.588  1.00  0.00     0.198 A 
ATOM     80  C   UNL A   1      37.335  33.625  40.737  1.00  0.00     0.198 A 
ATOM     81  F   UNL A   1      38.717  35.171  39.729  1.00  0.00    -0.203 F 
ATOM     82  F   UNL A   1      35.820  30.602  39.521  1.00  0.00    -0.200 F 
ATOM     83  C   UNL A   1      36.559  32.489  40.709  1.00  0.00     0.200 A 
ATOM     84  F   UNL A   1      37.310  34.421  41.818  1.00  0.00    -0.200 F 
ATOM     85  F   UNL A   1      35.764  32.181  41.742  1.00  0.00    -0.200 F 
ENDBRANCH  61  75
BRANCH  62  86
ATOM     86  C   UNL A   1      42.402  30.245  29.231  1.00  0.00     0.064 A 
ATOM     87  C   UNL A   1      43.079  29.667  27.911  1.00  0.00     0.173 A 
ATOM     88  C   UNL A   1      40.969  29.538  28.814  1.00  0.00     0.173 A 
ATOM     89  F   UNL A   1      44.389  29.352  27.888  1.00  0.00    -0.203 F 
ATOM     90  C   UNL A   1      42.529  29.024  26.730  1.00  0.00     0.198 A 
ATOM     91  C   UNL A   1      40.413  28.934  27.656  1.00  0.00     0.198 A 
ATOM     92  F   UNL A   1      40.323  28.893  29.809  1.00  0.00    -0.203 F 
ATOM     93  F   UNL A   1      43.390  28.529  25.823  1.00  0.00    -0.200 F 
ATOM     94  C   UNL A   1      41.214  28.668  26.603  1.00  0.00     0.200 A 
ATOM     95  F   UNL A   1      39.236  28.291  27.772  1.00  0.00    -0.200 F 
ATOM     96  F   UNL A   1      40.804  27.836  25.636  1.00  0.00    -0.200 F 
ENDBRANCH  62  86
BRANCH  74  97
ATOM     97  C   UNL A   1      44.218  35.392  35.774  1.00  0.00     0.064 A 
ATOM     98  C   UNL A   1      45.415  35.346  36.493  1.00  0.00     0.173 A 
ATOM     99  C   UNL A   1      43.725  36.720  35.531  1.00  0.00     0.173 A 
ATOM    100  F   UNL A   1      46.012  34.179  36.764  1.00  0.00    -0.203 F 
ATOM    101  C   UNL A   1      46.057  36.516  36.930  1.00  0.00     0.198 A 
ATOM    102  C   UNL A   1      44.395  37.876  35.915  1.00  0.00     0.198 A 
ATOM    103  F   UNL A   1      42.578  36.972  34.885  1.00  0.00    -0.203 F 
ATOM    104  F   UNL A   1      47.189  36.419  37.640  1.00  0.00    -0.200 F 
ATOM    105  C   UNL A   1      45.561  37.775  36.627  1.00  0.00     0.200 A 
ATOM    106  F   UNL A   1      43.906  39.076  35.569  1.00  0.00    -0.200 F 
ATOM    107  F   UNL A   1      46.206  38.883  37.012  1.00  0.00    -0.200 F 
ENDBRANCH  74  97
ENDBRANCH  48  49
ENDBRANCH  41  43
ENDBRANCH  40  41
ENDBRANCH  39  40
ENDBRANCH  38  39
ENDBRANCH  37  38
ENDBRANCH  36  37
ENDBRANCH  35  36
ENDBRANCH   1  35
TORSDOF 23
ENDMDL
MODEL 3
REMARK VINA RESULT:     -10.3      3.561      6.351
REMARK SMILES Cc1ccc(-c2nn(-c3ccccc3)cc2[C@@H]2[NH2+][C@H](C(=O)OCCOCCOCCOCCOC(=O)c3ccc(-c4c5nc(c(-c6c(F)c(F)c(F)c(F)c6F)c6ccc([nH]6)c(-c6c(F)c(F)c(F)c(F)c6F)c6nc(c(-c7c(F)c(F)c(F)c(F)c7F)c7ccc4[nH]7)C=C6)C=C5)cc3)CS2)cc1
REMARK SMILES IDX 28 1 27 2 26 3 25 4 24 5 23 6 22 7 20 8 21 9 19 10 17 11
REMARK SMILES IDX 18 12 101 13 100 16 16 17 6 18 7 19 8 20 15 21 5 22 1 23
REMARK SMILES IDX 2 24 3 25 103 26 4 27 102 28 9 29 10 30 14 31 11 32 13 33
REMARK SMILES IDX 12 34 29 35 30 36 31 37 32 38 33 39 34 40 35 41 36 42 37 43
REMARK SMILES IDX 38 44 99 45 39 46 98 47 40 48 41 49 42 50 92 51 43 52 97 53
REMARK SMILES IDX 91 54 93 55 44 56 96 57 90 58 89 59 45 61 77 62 57 63 76 64
REMARK SMILES IDX 58 65 61 66 75 67 94 68 59 69 60 70 74 72 95 73 62 74 46 75
REMARK SMILES IDX 47 76 55 77 48 78 49 79 53 80 56 81 50 82 51 83 54 84 52 85
REMARK SMILES IDX 78 86 79 87 87 88 80 89 81 90 85 91 88 92 82 93 83 94 86 95
REMARK SMILES IDX 84 96 63 97 64 98 72 99 65 100 66 101 70 102 73 103 67 104
REMARK SMILES IDX 68 105 71 106 69 107
REMARK H PARENT 18 14 18 15 93 60 61 71
REMARK Flexibility Score: inf
ROOT
ATOM      1  O   UNL A   1      33.700  30.850  26.752  1.00  0.00    -0.377 OA
ENDROOT
BRANCH   1   2
ATOM      2  C   UNL A   1      33.351  29.467  26.644  1.00  0.00     0.188 C 
BRANCH   2   3
ATOM      3  C   UNL A   1      33.448  28.808  25.256  1.00  0.00     0.188 C 
BRANCH   3   4
ATOM      4  O   UNL A   1      32.427  27.916  24.841  1.00  0.00    -0.376 OA
BRANCH   4   5
ATOM      5  C   UNL A   1      31.143  28.491  24.581  1.00  0.00     0.202 C 
BRANCH   5   6
ATOM      6  C   UNL A   1      30.226  27.887  23.500  1.00  0.00     0.261 C 
BRANCH   6   7
ATOM      7  O   UNL A   1      30.258  26.453  23.641  1.00  0.00    -0.459 OA
BRANCH   7   8
ATOM      8  C   UNL A   1      30.948  25.636  22.810  1.00  0.00     0.365 C 
ATOM      9  O   UNL A   1      31.464  25.988  21.760  1.00  0.00    -0.245 OA
BRANCH   8  10
ATOM     10  C   UNL A   1      31.160  24.253  23.498  1.00  0.00     0.304 C 
ATOM     11  C   UNL A   1      32.919  22.541  23.778  1.00  0.00     0.278 C 
ATOM     12  N   UNL A   1      32.384  23.599  22.937  1.00  0.00    -0.319 N 
ATOM     13  S   UNL A   1      32.257  22.925  25.488  1.00  0.00    -0.087 SA
ATOM     14  H   UNL A   1      32.149  23.200  22.028  1.00  0.00     0.348 HD
ATOM     15  H   UNL A   1      33.103  24.320  22.872  1.00  0.00     0.348 HD
ATOM     16  C   UNL A   1      31.262  24.367  24.998  1.00  0.00     0.153 C 
BRANCH  11  17
ATOM     17  C   UNL A   1      34.645  22.174  23.729  1.00  0.00     0.067 A 
ATOM     18  C   UNL A   1      34.843  20.752  25.059  1.00  0.00     0.103 A 
ATOM     19  N   UNL A   1      36.320  20.919  25.876  1.00  0.00    -0.167 NA
ATOM     20  N   UNL A   1      37.315  22.340  25.204  1.00  0.00    -0.240 N 
ATOM     21  C   UNL A   1      36.326  23.058  23.711  1.00  0.00     0.126 A 
BRANCH  18  22
ATOM     22  C   UNL A   1      34.095  19.338  24.729  1.00  0.00     0.003 A 
ATOM     23  C   UNL A   1      32.881  15.106  25.364  1.00  0.00     0.044 C 
ATOM     24  C   UNL A   1      33.211  16.542  25.043  1.00  0.00    -0.051 A 
ATOM     25  C   UNL A   1      34.483  16.842  24.612  1.00  0.00     0.004 A 
ATOM     26  C   UNL A   1      32.350  17.638  25.233  1.00  0.00     0.004 A 
ATOM     27  C   UNL A   1      34.859  18.185  24.392  1.00  0.00     0.011 A 
ATOM     28  C   UNL A   1      32.787  19.012  25.106  1.00  0.00     0.011 A 
ENDBRANCH  18  22
BRANCH  20  29
ATOM     29  C   UNL A   1      38.591  22.718  25.863  1.00  0.00     0.065 A 
ATOM     30  C   UNL A   1      38.830  23.962  26.460  1.00  0.00     0.028 A 
ATOM     31  C   UNL A   1      39.556  21.734  26.075  1.00  0.00     0.028 A 
ATOM     32  C   UNL A   1      39.741  24.118  27.496  1.00  0.00     0.002 A 
ATOM     33  C   UNL A   1      40.414  21.850  27.182  1.00  0.00     0.002 A 
ATOM     34  C   UNL A   1      40.456  23.023  27.933  1.00  0.00     0.000 A 
ENDBRANCH  20  29
ENDBRANCH  11  17
ENDBRANCH   8  10
ENDBRANCH   7   8
ENDBRANCH   6   7
ENDBRANCH   5   6
ENDBRANCH   4   5
ENDBRANCH   3   4
ENDBRANCH   2   3
ENDBRANCH   1   2
BRANCH   1  35
ATOM     35  C   UNL A   1      34.499  31.257  27.863  1.00  0.00     0.188 C 
BRANCH  35  36
ATOM     36  C   UNL A   1      35.851  30.639  27.903  1.00  0.00     0.188 C 
BRANCH  36  37
ATOM     37  O   UNL A   1      35.796  29.703  28.964  1.00  0.00    -0.376 OA
BRANCH  37  38
ATOM     38  C   UNL A   1      36.846  29.797  29.903  1.00  0.00     0.202 C 
BRANCH  38  39
ATOM     39  C   UNL A   1      37.805  28.611  29.826  1.00  0.00     0.261 C 
BRANCH  39  40
ATOM     40  O   UNL A   1      38.921  28.870  30.714  1.00  0.00    -0.460 OA
BRANCH  40  41
ATOM     41  C   UNL A   1      38.642  28.939  32.047  1.00  0.00     0.338 C 
ATOM     42  O   UNL A   1      37.514  28.930  32.511  1.00  0.00    -0.246 OA
BRANCH  41  43
ATOM     43  C   UNL A   1      39.882  29.160  32.868  1.00  0.00     0.060 A 
ATOM     44  C   UNL A   1      41.108  28.608  32.474  1.00  0.00     0.016 A 
ATOM     45  C   UNL A   1      39.790  29.694  34.147  1.00  0.00     0.016 A 
ATOM     46  C   UNL A   1      42.152  28.437  33.416  1.00  0.00     0.010 A 
ATOM     47  C   UNL A   1      40.778  29.409  35.092  1.00  0.00     0.010 A 
ATOM     48  C   UNL A   1      41.956  28.720  34.774  1.00  0.00    -0.014 A 
BRANCH  48  49
ATOM     49  C   UNL A   1      42.943  28.448  35.880  1.00  0.00     0.031 A 
ATOM     50  C   UNL A   1      42.747  27.205  36.659  1.00  0.00     0.074 A 
ATOM     51  C   UNL A   1      44.151  29.073  36.064  1.00  0.00     0.049 A 
ATOM     52  N   UNL A   1      43.433  26.900  37.702  1.00  0.00    -0.248 NA
ATOM     53  C   UNL A   1      41.897  26.096  36.233  1.00  0.00     0.031 C 
ATOM     54  C   UNL A   1      45.274  28.911  36.962  1.00  0.00     0.029 A 
ATOM     55  N   UNL A   1      44.691  30.137  35.398  1.00  0.00    -0.354 N 
ATOM     56  C   UNL A   1      43.598  25.536  37.657  1.00  0.00     0.074 A 
ATOM     57  C   UNL A   1      42.469  25.077  36.885  1.00  0.00     0.031 C 
ATOM     58  C   UNL A   1      46.012  30.042  37.117  1.00  0.00     0.029 A 
ATOM     59  C   UNL A   1      45.316  31.074  36.369  1.00  0.00     0.049 A 
ATOM     60  H   UNL A   1      44.669  30.264  34.421  1.00  0.00     0.167 HD
ATOM     61  C   UNL A   1      44.794  25.024  38.083  1.00  0.00     0.037 A 
ATOM     62  C   UNL A   1      44.879  32.590  36.506  1.00  0.00     0.037 A 
ATOM     63  C   UNL A   1      45.649  26.060  38.748  1.00  0.00     0.049 A 
ATOM     64  C   UNL A   1      44.967  32.105  38.256  1.00  0.00     0.074 A 
ATOM     65  C   UNL A   1      46.989  26.420  38.693  1.00  0.00     0.029 A 
ATOM     66  N   UNL A   1      45.040  27.095  39.503  1.00  0.00    -0.354 N 
ATOM     67  N   UNL A   1      44.458  30.969  38.787  1.00  0.00    -0.248 NA
ATOM     68  C   UNL A   1      45.899  32.713  39.228  1.00  0.00     0.031 C 
ATOM     69  C   UNL A   1      47.138  27.718  39.298  1.00  0.00     0.029 A 
ATOM     70  C   UNL A   1      45.884  28.188  39.703  1.00  0.00     0.049 A 
ATOM     71  H   UNL A   1      44.120  27.048  39.848  1.00  0.00     0.167 HD
ATOM     72  C   UNL A   1      45.140  30.609  39.977  1.00  0.00     0.074 A 
ATOM     73  C   UNL A   1      45.913  31.828  40.255  1.00  0.00     0.031 C 
ATOM     74  C   UNL A   1      45.454  29.346  40.517  1.00  0.00     0.037 A 
BRANCH  61  75
ATOM     75  C   UNL A   1      45.301  23.624  37.705  1.00  0.00     0.064 A 
ATOM     76  C   UNL A   1      45.724  22.726  38.711  1.00  0.00     0.173 A 
ATOM     77  C   UNL A   1      45.477  23.127  36.389  1.00  0.00     0.173 A 
ATOM     78  F   UNL A   1      45.619  23.046  40.007  1.00  0.00    -0.203 F 
ATOM     79  C   UNL A   1      46.273  21.465  38.431  1.00  0.00     0.198 A 
ATOM     80  C   UNL A   1      45.959  21.836  36.112  1.00  0.00     0.198 A 
ATOM     81  F   UNL A   1      45.254  23.879  35.307  1.00  0.00    -0.203 F 
ATOM     82  F   UNL A   1      46.713  20.694  39.434  1.00  0.00    -0.200 F 
ATOM     83  C   UNL A   1      46.371  21.010  37.132  1.00  0.00     0.200 A 
ATOM     84  F   UNL A   1      46.043  21.416  34.840  1.00  0.00    -0.200 F 
ATOM     85  F   UNL A   1      46.874  19.797  36.865  1.00  0.00    -0.200 F 
ENDBRANCH  61  75
BRANCH  62  86
ATOM     86  C   UNL A   1      43.546  33.711  35.186  1.00  0.00     0.064 A 
ATOM     87  C   UNL A   1      43.652  34.249  33.690  1.00  0.00     0.173 A 
ATOM     88  C   UNL A   1      41.914  33.532  35.014  1.00  0.00     0.173 A 
ATOM     89  F   UNL A   1      44.761  34.031  32.955  1.00  0.00    -0.203 F 
ATOM     90  C   UNL A   1      42.646  34.653  32.723  1.00  0.00     0.198 A 
ATOM     91  C   UNL A   1      40.920  33.948  34.089  1.00  0.00     0.198 A 
ATOM     92  F   UNL A   1      41.400  32.376  35.485  1.00  0.00    -0.203 F 
ATOM     93  F   UNL A   1      43.054  34.949  31.476  1.00  0.00    -0.200 F 
ATOM     94  C   UNL A   1      41.300  34.508  32.922  1.00  0.00     0.200 A 
ATOM     95  F   UNL A   1      39.683  33.428  34.202  1.00  0.00    -0.200 F 
ATOM     96  F   UNL A   1      40.426  34.627  31.913  1.00  0.00    -0.200 F 
ENDBRANCH  62  86
BRANCH  74  97
ATOM     97  C   UNL A   1      45.476  29.016  42.029  1.00  0.00     0.064 A 
ATOM     98  C   UNL A   1      44.326  28.944  42.820  1.00  0.00     0.173 A 
ATOM     99  C   UNL A   1      46.671  28.558  42.682  1.00  0.00     0.173 A 
ATOM    100  F   UNL A   1      43.131  29.303  42.334  1.00  0.00    -0.203 F 
ATOM    101  C   UNL A   1      44.368  28.463  44.139  1.00  0.00     0.198 A 
ATOM    102  C   UNL A   1      46.696  28.028  43.967  1.00  0.00     0.198 A 
ATOM    103  F   UNL A   1      47.879  28.575  42.101  1.00  0.00    -0.203 F 
ATOM    104  F   UNL A   1      43.243  28.440  44.866  1.00  0.00    -0.200 F 
ATOM    105  C   UNL A   1      45.543  27.990  44.703  1.00  0.00     0.200 A 
ATOM    106  F   UNL A   1      47.843  27.543  44.465  1.00  0.00    -0.200 F 
ATOM    107  F   UNL A   1      45.560  27.493  45.946  1.00  0.00    -0.200 F 
ENDBRANCH  74  97
ENDBRANCH  48  49
ENDBRANCH  41  43
ENDBRANCH  40  41
ENDBRANCH  39  40
ENDBRANCH  38  39
ENDBRANCH  37  38
ENDBRANCH  36  37
ENDBRANCH  35  36
ENDBRANCH   1  35
TORSDOF 23
ENDMDL
