MODEL 1
REMARK VINA RESULT:      -9.6      0.000      0.000
REMARK SMILES O=C(OCCOCCOCCOCCOC(=O)[C@H](CCOCC(F)(F)F)c1ccccc1Br)c1ccc(-c2c3nc(c(-c4c(F)c(F)c(F)c(F)c4F)c4ccc([nH]4)c(-c4c(F)c(F)c(F)c(F)c4F)c4nc(c(-c5c(F)c(F)c(F)c(F)c5F)c5ccc2[nH]5)C=C4)C=C3)cc1
REMARK SMILES IDX 10 1 9 2 8 3 7 4 6 5 5 6 4 7 3 8 2 9 1 10 34 11 35 12 96 13
REMARK SMILES IDX 36 14 95 15 37 16 38 17 39 18 89 19 40 20 94 21 88 22 90 23
REMARK SMILES IDX 41 24 93 25 87 26 86 27 42 29 74 30 54 31 73 32 55 33 58 34
REMARK SMILES IDX 72 35 91 36 56 37 57 38 71 40 92 41 59 42 43 43 44 44 52 45
REMARK SMILES IDX 45 46 46 47 50 48 53 49 47 50 48 51 51 52 49 53 75 54 76 55
REMARK SMILES IDX 84 56 77 57 78 58 82 59 85 60 79 61 80 62 83 63 81 64 60 65
REMARK SMILES IDX 61 66 69 67 62 68 63 69 67 70 70 71 64 72 65 73 68 74 66 75
REMARK SMILES IDX 11 76 12 77 13 78 14 79 15 80 16 81 17 82 18 83 27 84 28 85
REMARK SMILES IDX 32 86 29 87 31 88 33 89 30 90 19 91 20 92 21 93 22 94 23 95
REMARK SMILES IDX 24 96 25 97 26 98
REMARK H PARENT 90 28 58 39
REMARK Flexibility Score: inf
ROOT
ATOM      1  C   UNL A   1      30.212  26.495  24.933  1.00  0.00     0.188 C 
ENDROOT
BRANCH   1   2
ATOM      2  O   UNL A   1      30.810  27.689  24.463  1.00  0.00    -0.377 OA
BRANCH   2   3
ATOM      3  C   UNL A   1      31.483  28.446  25.465  1.00  0.00     0.188 C 
BRANCH   3   4
ATOM      4  C   UNL A   1      32.184  29.710  24.955  1.00  0.00     0.188 C 
BRANCH   4   5
ATOM      5  O   UNL A   1      32.827  30.398  26.027  1.00  0.00    -0.376 OA
BRANCH   5   6
ATOM      6  C   UNL A   1      32.028  31.144  26.944  1.00  0.00     0.202 C 
BRANCH   6   7
ATOM      7  C   UNL A   1      32.062  32.657  26.812  1.00  0.00     0.261 C 
BRANCH   7   8
ATOM      8  O   UNL A   1      32.816  33.354  27.811  1.00  0.00    -0.460 OA
BRANCH   8   9
ATOM      9  C   UNL A   1      34.121  33.679  27.903  1.00  0.00     0.338 C 
ATOM     10  O   UNL A   1      34.452  34.806  27.530  1.00  0.00    -0.246 OA
BRANCH   9  11
ATOM     11  C   UNL A   1      35.212  32.789  28.398  1.00  0.00     0.060 A 
ATOM     12  C   UNL A   1      35.122  31.419  28.640  1.00  0.00     0.016 A 
ATOM     13  C   UNL A   1      36.476  33.386  28.539  1.00  0.00     0.016 A 
ATOM     14  C   UNL A   1      36.211  30.652  29.000  1.00  0.00     0.010 A 
ATOM     15  C   UNL A   1      37.583  32.638  28.940  1.00  0.00     0.010 A 
ATOM     16  C   UNL A   1      37.431  31.273  29.194  1.00  0.00    -0.014 A 
BRANCH  16  17
ATOM     17  C   UNL A   1      38.424  30.525  29.960  1.00  0.00     0.031 A 
ATOM     18  C   UNL A   1      38.481  30.819  31.421  1.00  0.00     0.074 A 
ATOM     19  C   UNL A   1      39.109  29.523  29.393  1.00  0.00     0.049 A 
ATOM     20  N   UNL A   1      39.383  30.497  32.300  1.00  0.00    -0.248 NA
ATOM     21  C   UNL A   1      37.350  31.593  31.969  1.00  0.00     0.031 C 
ATOM     22  C   UNL A   1      38.916  29.034  28.026  1.00  0.00     0.029 A 
ATOM     23  N   UNL A   1      40.100  28.733  29.900  1.00  0.00    -0.354 N 
ATOM     24  C   UNL A   1      38.972  31.099  33.481  1.00  0.00     0.074 A 
ATOM     25  C   UNL A   1      37.726  31.777  33.222  1.00  0.00     0.031 C 
ATOM     26  C   UNL A   1      39.790  28.042  27.793  1.00  0.00     0.029 A 
ATOM     27  C   UNL A   1      40.657  27.908  28.958  1.00  0.00     0.049 A 
ATOM     28  H   UNL A   1      40.383  28.754  30.843  1.00  0.00     0.167 HD
ATOM     29  C   UNL A   1      39.626  31.100  34.663  1.00  0.00     0.037 A 
ATOM     30  C   UNL A   1      41.800  27.205  29.025  1.00  0.00     0.037 A 
ATOM     31  C   UNL A   1      40.864  30.394  34.836  1.00  0.00     0.049 A 
ATOM     32  C   UNL A   1      42.583  27.300  30.307  1.00  0.00     0.074 A 
ATOM     33  C   UNL A   1      41.699  30.347  35.933  1.00  0.00     0.029 A 
ATOM     34  N   UNL A   1      41.444  29.600  33.848  1.00  0.00    -0.354 N 
ATOM     35  N   UNL A   1      42.292  27.971  31.401  1.00  0.00    -0.248 NA
ATOM     36  C   UNL A   1      43.851  26.570  30.368  1.00  0.00     0.031 C 
ATOM     37  C   UNL A   1      42.810  29.571  35.585  1.00  0.00     0.029 A 
ATOM     38  C   UNL A   1      42.635  29.071  34.300  1.00  0.00     0.049 A 
ATOM     39  H   UNL A   1      41.057  29.438  32.956  1.00  0.00     0.167 HD
ATOM     40  C   UNL A   1      43.324  27.725  32.292  1.00  0.00     0.074 A 
ATOM     41  C   UNL A   1      44.251  26.842  31.605  1.00  0.00     0.031 C 
ATOM     42  C   UNL A   1      43.496  28.177  33.560  1.00  0.00     0.037 A 
BRANCH  29  43
ATOM     43  C   UNL A   1      39.075  31.983  35.743  1.00  0.00     0.064 A 
ATOM     44  C   UNL A   1      39.448  33.329  35.884  1.00  0.00     0.173 A 
ATOM     45  C   UNL A   1      38.239  31.434  36.727  1.00  0.00     0.173 A 
ATOM     46  F   UNL A   1      40.278  33.897  34.995  1.00  0.00    -0.203 F 
ATOM     47  C   UNL A   1      39.050  34.073  36.994  1.00  0.00     0.198 A 
ATOM     48  C   UNL A   1      37.813  32.190  37.816  1.00  0.00     0.198 A 
ATOM     49  F   UNL A   1      37.862  30.149  36.655  1.00  0.00    -0.203 F 
ATOM     50  F   UNL A   1      39.499  35.326  37.156  1.00  0.00    -0.200 F 
ATOM     51  C   UNL A   1      38.233  33.503  37.959  1.00  0.00     0.200 A 
ATOM     52  F   UNL A   1      37.023  31.636  38.747  1.00  0.00    -0.200 F 
ATOM     53  F   UNL A   1      37.870  34.212  39.037  1.00  0.00    -0.200 F 
ENDBRANCH  29  43
BRANCH  30  54
ATOM     54  C   UNL A   1      42.277  26.458  27.834  1.00  0.00     0.064 A 
ATOM     55  C   UNL A   1      43.005  27.093  26.819  1.00  0.00     0.173 A 
ATOM     56  C   UNL A   1      42.071  25.073  27.713  1.00  0.00     0.173 A 
ATOM     57  F   UNL A   1      43.220  28.415  26.878  1.00  0.00    -0.203 F 
ATOM     58  C   UNL A   1      43.506  26.374  25.734  1.00  0.00     0.198 A 
ATOM     59  C   UNL A   1      42.596  24.351  26.644  1.00  0.00     0.198 A 
ATOM     60  F   UNL A   1      41.385  24.411  28.657  1.00  0.00    -0.203 F 
ATOM     61  F   UNL A   1      44.180  27.011  24.766  1.00  0.00    -0.200 F 
ATOM     62  C   UNL A   1      43.311  25.003  25.653  1.00  0.00     0.200 A 
ATOM     63  F   UNL A   1      42.423  23.024  26.583  1.00  0.00    -0.200 F 
ATOM     64  F   UNL A   1      43.811  24.311  24.619  1.00  0.00    -0.200 F 
ENDBRANCH  30  54
BRANCH  42  65
ATOM     65  C   UNL A   1      44.690  27.665  34.303  1.00  0.00     0.064 A 
ATOM     66  C   UNL A   1      44.656  26.459  35.013  1.00  0.00     0.173 A 
ATOM     67  C   UNL A   1      45.913  28.345  34.197  1.00  0.00     0.173 A 
ATOM     68  F   UNL A   1      43.504  25.786  35.147  1.00  0.00    -0.203 F 
ATOM     69  C   UNL A   1      45.810  25.951  35.597  1.00  0.00     0.198 A 
ATOM     70  C   UNL A   1      47.070  27.817  34.755  1.00  0.00     0.198 A 
ATOM     71  F   UNL A   1      45.989  29.499  33.517  1.00  0.00    -0.203 F 
ATOM     72  F   UNL A   1      45.756  24.807  36.295  1.00  0.00    -0.200 F 
ATOM     73  C   UNL A   1      47.017  26.621  35.456  1.00  0.00     0.200 A 
ATOM     74  F   UNL A   1      48.238  28.454  34.599  1.00  0.00    -0.200 F 
ATOM     75  F   UNL A   1      48.134  26.112  35.993  1.00  0.00    -0.200 F 
ENDBRANCH  42  65
ENDBRANCH  16  17
ENDBRANCH   9  11
ENDBRANCH   8   9
ENDBRANCH   7   8
ENDBRANCH   6   7
ENDBRANCH   5   6
ENDBRANCH   4   5
ENDBRANCH   3   4
ENDBRANCH   2   3
ENDBRANCH   1   2
BRANCH   1  76
ATOM     76  C   UNL A   1      30.314  25.213  24.079  1.00  0.00     0.188 C 
BRANCH  76  77
ATOM     77  O   UNL A   1      31.060  24.181  24.698  1.00  0.00    -0.376 OA
BRANCH  77  78
ATOM     78  C   UNL A   1      30.702  23.879  26.043  1.00  0.00     0.202 C 
BRANCH  78  79
ATOM     79  C   UNL A   1      31.726  23.121  26.904  1.00  0.00     0.261 C 
BRANCH  79  80
ATOM     80  O   UNL A   1      32.369  21.989  26.285  1.00  0.00    -0.463 OA
BRANCH  80  81
ATOM     81  C   UNL A   1      33.614  21.593  26.673  1.00  0.00     0.313 C 
ATOM     82  O   UNL A   1      33.977  21.490  27.838  1.00  0.00    -0.252 OA
BRANCH  81  83
ATOM     83  C   UNL A   1      34.424  21.204  25.421  1.00  0.00     0.132 C 
BRANCH  83  84
ATOM     84  C   UNL A   1      33.501  20.849  24.272  1.00  0.00    -0.019 A 
ATOM     85  C   UNL A   1      33.063  21.926  23.460  1.00  0.00     0.006 A 
ATOM     86  C   UNL A   1      33.131  19.553  23.906  1.00  0.00     0.022 A 
ATOM     87  C   UNL A   1      32.258  21.718  22.345  1.00  0.00     0.000 A 
ATOM     88  C   UNL A   1      32.302  19.351  22.796  1.00  0.00     0.016 A 
ATOM     89  Br  UNL A   1      33.762  18.004  24.800  1.00  0.00    -0.051 Br
ATOM     90  C   UNL A   1      31.867  20.427  22.020  1.00  0.00     0.001 A 
ENDBRANCH  83  84
BRANCH  83  91
ATOM     91  C   UNL A   1      35.686  22.066  25.161  1.00  0.00     0.048 C 
BRANCH  91  92
ATOM     92  C   UNL A   1      36.993  21.254  24.983  1.00  0.00     0.162 C 
BRANCH  92  93
ATOM     93  O   UNL A   1      38.152  22.093  24.994  1.00  0.00    -0.372 OA
BRANCH  93  94
ATOM     94  C   UNL A   1      38.617  22.538  26.279  1.00  0.00     0.275 C 
BRANCH  94  95
ATOM     95  C   UNL A   1      38.466  24.030  26.591  1.00  0.00     0.411 C 
ATOM     96  F   UNL A   1      38.676  24.307  27.898  1.00  0.00    -0.168 F 
ATOM     97  F   UNL A   1      39.376  24.750  25.890  1.00  0.00    -0.168 F 
ATOM     98  F   UNL A   1      37.245  24.504  26.266  1.00  0.00    -0.168 F 
ENDBRANCH  94  95
ENDBRANCH  93  94
ENDBRANCH  92  93
ENDBRANCH  91  92
ENDBRANCH  83  91
ENDBRANCH  81  83
ENDBRANCH  80  81
ENDBRANCH  79  80
ENDBRANCH  78  79
ENDBRANCH  77  78
ENDBRANCH  76  77
ENDBRANCH   1  76
TORSDOF 26
ENDMDL
MODEL 2
REMARK VINA RESULT:      -9.2      1.289      7.226
REMARK SMILES O=C(OCCOCCOCCOCCOC(=O)[C@H](CCOCC(F)(F)F)c1ccccc1Br)c1ccc(-c2c3nc(c(-c4c(F)c(F)c(F)c(F)c4F)c4ccc([nH]4)c(-c4c(F)c(F)c(F)c(F)c4F)c4nc(c(-c5c(F)c(F)c(F)c(F)c5F)c5ccc2[nH]5)C=C4)C=C3)cc1
REMARK SMILES IDX 10 1 9 2 8 3 7 4 6 5 5 6 4 7 3 8 2 9 1 10 34 11 35 12 96 13
REMARK SMILES IDX 36 14 95 15 37 16 38 17 39 18 89 19 40 20 94 21 88 22 90 23
REMARK SMILES IDX 41 24 93 25 87 26 86 27 42 29 74 30 54 31 73 32 55 33 58 34
REMARK SMILES IDX 72 35 91 36 56 37 57 38 71 40 92 41 59 42 43 43 44 44 52 45
REMARK SMILES IDX 45 46 46 47 50 48 53 49 47 50 48 51 51 52 49 53 75 54 76 55
REMARK SMILES IDX 84 56 77 57 78 58 82 59 85 60 79 61 80 62 83 63 81 64 60 65
REMARK SMILES IDX 61 66 69 67 62 68 63 69 67 70 70 71 64 72 65 73 68 74 66 75
REMARK SMILES IDX 11 76 12 77 13 78 14 79 15 80 16 81 17 82 18 83 27 84 28 85
REMARK SMILES IDX 32 86 29 87 31 88 33 89 30 90 19 91 20 92 21 93 22 94 23 95
REMARK SMILES IDX 24 96 25 97 26 98
REMARK H PARENT 90 28 58 39
REMARK Flexibility Score: inf
ROOT
ATOM      1  C   UNL A   1      30.620  25.973  23.691  1.00  0.00     0.188 C 
ENDROOT
BRANCH   1   2
ATOM      2  O   UNL A   1      31.342  26.809  22.806  1.00  0.00    -0.377 OA
BRANCH   2   3
ATOM      3  C   UNL A   1      32.473  27.450  23.391  1.00  0.00     0.188 C 
BRANCH   3   4
ATOM      4  C   UNL A   1      32.306  28.953  23.635  1.00  0.00     0.188 C 
BRANCH   4   5
ATOM      5  O   UNL A   1      31.265  29.198  24.580  1.00  0.00    -0.376 OA
BRANCH   5   6
ATOM      6  C   UNL A   1      31.330  30.375  25.385  1.00  0.00     0.202 C 
BRANCH   6   7
ATOM      7  C   UNL A   1      32.071  30.263  26.706  1.00  0.00     0.261 C 
BRANCH   7   8
ATOM      8  O   UNL A   1      33.409  30.777  26.716  1.00  0.00    -0.460 OA
BRANCH   8   9
ATOM      9  C   UNL A   1      34.114  31.458  27.641  1.00  0.00     0.338 C 
ATOM     10  O   UNL A   1      33.674  32.553  27.995  1.00  0.00    -0.246 OA
BRANCH   9  11
ATOM     11  C   UNL A   1      35.395  31.016  28.266  1.00  0.00     0.060 A 
ATOM     12  C   UNL A   1      35.723  29.721  28.663  1.00  0.00     0.016 A 
ATOM     13  C   UNL A   1      36.398  31.995  28.369  1.00  0.00     0.016 A 
ATOM     14  C   UNL A   1      36.972  29.381  29.140  1.00  0.00     0.010 A 
ATOM     15  C   UNL A   1      37.655  31.683  28.884  1.00  0.00     0.010 A 
ATOM     16  C   UNL A   1      37.923  30.373  29.292  1.00  0.00    -0.014 A 
BRANCH  16  17
ATOM     17  C   UNL A   1      39.050  30.062  30.167  1.00  0.00     0.031 A 
ATOM     18  C   UNL A   1      40.106  29.183  29.586  1.00  0.00     0.074 A 
ATOM     19  C   UNL A   1      39.183  30.676  31.350  1.00  0.00     0.049 A 
ATOM     20  N   UNL A   1      41.084  28.560  30.172  1.00  0.00    -0.248 NA
ATOM     21  C   UNL A   1      40.047  28.980  28.126  1.00  0.00     0.031 C 
ATOM     22  C   UNL A   1      38.302  31.726  31.862  1.00  0.00     0.029 A 
ATOM     23  N   UNL A   1      40.117  30.507  32.330  1.00  0.00    -0.354 N 
ATOM     24  C   UNL A   1      41.703  27.827  29.169  1.00  0.00     0.074 A 
ATOM     25  C   UNL A   1      41.016  28.104  27.931  1.00  0.00     0.031 C 
ATOM     26  C   UNL A   1      38.723  32.088  33.083  1.00  0.00     0.029 A 
ATOM     27  C   UNL A   1      39.832  31.222  33.465  1.00  0.00     0.049 A 
ATOM     28  H   UNL A   1      40.912  29.933  32.233  1.00  0.00     0.167 HD
ATOM     29  C   UNL A   1      42.735  26.968  29.310  1.00  0.00     0.037 A 
ATOM     30  C   UNL A   1      40.365  31.101  34.692  1.00  0.00     0.037 A 
ATOM     31  C   UNL A   1      43.365  26.752  30.581  1.00  0.00     0.049 A 
ATOM     32  C   UNL A   1      41.440  30.062  34.869  1.00  0.00     0.074 A 
ATOM     33  C   UNL A   1      44.368  25.869  30.923  1.00  0.00     0.029 A 
ATOM     34  N   UNL A   1      43.027  27.453  31.738  1.00  0.00    -0.354 N 
ATOM     35  N   UNL A   1      41.956  29.252  33.969  1.00  0.00    -0.248 NA
ATOM     36  C   UNL A   1      41.991  29.896  36.215  1.00  0.00     0.031 C 
ATOM     37  C   UNL A   1      44.593  25.998  32.299  1.00  0.00     0.029 A 
ATOM     38  C   UNL A   1      43.786  27.012  32.801  1.00  0.00     0.049 A 
ATOM     39  H   UNL A   1      42.344  28.162  31.788  1.00  0.00     0.167 HD
ATOM     40  C   UNL A   1      42.913  28.499  34.630  1.00  0.00     0.074 A 
ATOM     41  C   UNL A   1      42.901  28.950  36.011  1.00  0.00     0.031 C 
ATOM     42  C   UNL A   1      43.732  27.529  34.150  1.00  0.00     0.037 A 
BRANCH  29  43
ATOM     43  C   UNL A   1      43.104  26.147  28.109  1.00  0.00     0.064 A 
ATOM     44  C   UNL A   1      44.022  26.589  27.143  1.00  0.00     0.173 A 
ATOM     45  C   UNL A   1      42.434  24.938  27.864  1.00  0.00     0.173 A 
ATOM     46  F   UNL A   1      44.662  27.757  27.304  1.00  0.00    -0.203 F 
ATOM     47  C   UNL A   1      44.214  25.881  25.957  1.00  0.00     0.198 A 
ATOM     48  C   UNL A   1      42.655  24.214  26.696  1.00  0.00     0.198 A 
ATOM     49  F   UNL A   1      41.534  24.474  28.743  1.00  0.00    -0.203 F 
ATOM     50  F   UNL A   1      45.023  26.373  25.008  1.00  0.00    -0.200 F 
ATOM     51  C   UNL A   1      43.531  24.694  25.735  1.00  0.00     0.200 A 
ATOM     52  F   UNL A   1      41.994  23.068  26.484  1.00  0.00    -0.200 F 
ATOM     53  F   UNL A   1      43.700  24.027  24.585  1.00  0.00    -0.200 F 
ENDBRANCH  29  43
BRANCH  30  54
ATOM     54  C   UNL A   1      39.823  31.909  35.814  1.00  0.00     0.064 A 
ATOM     55  C   UNL A   1      40.371  33.156  36.145  1.00  0.00     0.173 A 
ATOM     56  C   UNL A   1      38.701  31.481  36.543  1.00  0.00     0.173 A 
ATOM     57  F   UNL A   1      41.450  33.607  35.490  1.00  0.00    -0.203 F 
ATOM     58  C   UNL A   1      39.818  33.939  37.159  1.00  0.00     0.198 A 
ATOM     59  C   UNL A   1      38.132  32.276  37.535  1.00  0.00     0.198 A 
ATOM     60  F   UNL A   1      38.131  30.298  36.267  1.00  0.00    -0.203 F 
ATOM     61  F   UNL A   1      40.375  35.117  37.469  1.00  0.00    -0.200 F 
ATOM     62  C   UNL A   1      38.693  33.504  37.845  1.00  0.00     0.200 A 
ATOM     63  F   UNL A   1      37.033  31.859  38.179  1.00  0.00    -0.200 F 
ATOM     64  F   UNL A   1      38.152  34.267  38.804  1.00  0.00    -0.200 F 
ENDBRANCH  30  54
BRANCH  42  65
ATOM     65  C   UNL A   1      44.724  26.948  35.108  1.00  0.00     0.064 A 
ATOM     66  C   UNL A   1      44.409  25.854  35.922  1.00  0.00     0.173 A 
ATOM     67  C   UNL A   1      46.041  27.432  35.116  1.00  0.00     0.173 A 
ATOM     68  F   UNL A   1      43.159  25.370  35.953  1.00  0.00    -0.203 F 
ATOM     69  C   UNL A   1      45.384  25.263  36.718  1.00  0.00     0.198 A 
ATOM     70  C   UNL A   1      47.019  26.818  35.888  1.00  0.00     0.198 A 
ATOM     71  F   UNL A   1      46.384  28.473  34.342  1.00  0.00    -0.203 F 
ATOM     72  F   UNL A   1      45.062  24.232  37.511  1.00  0.00    -0.200 F 
ATOM     73  C   UNL A   1      46.689  25.735  36.690  1.00  0.00     0.200 A 
ATOM     74  F   UNL A   1      48.282  27.262  35.842  1.00  0.00    -0.200 F 
ATOM     75  F   UNL A   1      47.633  25.144  37.433  1.00  0.00    -0.200 F 
ENDBRANCH  42  65
ENDBRANCH  16  17
ENDBRANCH   9  11
ENDBRANCH   8   9
ENDBRANCH   7   8
ENDBRANCH   6   7
ENDBRANCH   5   6
ENDBRANCH   4   5
ENDBRANCH   3   4
ENDBRANCH   2   3
ENDBRANCH   1   2
BRANCH   1  76
ATOM     76  C   UNL A   1      30.708  24.441  23.522  1.00  0.00     0.188 C 
BRANCH  76  77
ATOM     77  O   UNL A   1      30.550  23.729  24.736  1.00  0.00    -0.376 OA
BRANCH  77  78
ATOM     78  C   UNL A   1      30.896  24.439  25.920  1.00  0.00     0.202 C 
BRANCH  78  79
ATOM     79  C   UNL A   1      32.227  24.083  26.606  1.00  0.00     0.261 C 
BRANCH  79  80
ATOM     80  O   UNL A   1      32.717  22.745  26.394  1.00  0.00    -0.463 OA
BRANCH  80  81
ATOM     81  C   UNL A   1      33.966  22.385  26.806  1.00  0.00     0.313 C 
ATOM     82  O   UNL A   1      34.409  22.580  27.931  1.00  0.00    -0.252 OA
BRANCH  81  83
ATOM     83  C   UNL A   1      34.660  21.612  25.667  1.00  0.00     0.132 C 
BRANCH  83  84
ATOM     84  C   UNL A   1      33.723  21.433  24.490  1.00  0.00    -0.019 A 
ATOM     85  C   UNL A   1      33.735  22.460  23.512  1.00  0.00     0.006 A 
ATOM     86  C   UNL A   1      32.930  20.307  24.254  1.00  0.00     0.022 A 
ATOM     87  C   UNL A   1      32.958  22.380  22.361  1.00  0.00     0.000 A 
ATOM     88  C   UNL A   1      32.133  20.242  23.105  1.00  0.00     0.016 A 
ATOM     89  Br  UNL A   1      32.926  18.788  25.390  1.00  0.00    -0.051 Br
ATOM     90  C   UNL A   1      32.146  21.272  22.164  1.00  0.00     0.001 A 
ENDBRANCH  83  84
BRANCH  83  91
ATOM     91  C   UNL A   1      36.143  21.993  25.424  1.00  0.00     0.048 C 
BRANCH  91  92
ATOM     92  C   UNL A   1      37.050  20.810  25.001  1.00  0.00     0.162 C 
BRANCH  92  93
ATOM     93  O   UNL A   1      38.398  20.981  25.446  1.00  0.00    -0.372 OA
BRANCH  93  94
ATOM     94  C   UNL A   1      39.142  19.784  25.732  1.00  0.00     0.275 C 
BRANCH  94  95
ATOM     95  C   UNL A   1      40.586  19.964  26.210  1.00  0.00     0.411 C 
ATOM     96  F   UNL A   1      41.238  20.933  25.527  1.00  0.00    -0.168 F 
ATOM     97  F   UNL A   1      40.605  20.330  27.516  1.00  0.00    -0.168 F 
ATOM     98  F   UNL A   1      41.310  18.831  26.102  1.00  0.00    -0.168 F 
ENDBRANCH  94  95
ENDBRANCH  93  94
ENDBRANCH  92  93
ENDBRANCH  91  92
ENDBRANCH  83  91
ENDBRANCH  81  83
ENDBRANCH  80  81
ENDBRANCH  79  80
ENDBRANCH  78  79
ENDBRANCH  77  78
ENDBRANCH  76  77
ENDBRANCH   1  76
TORSDOF 26
ENDMDL
MODEL 3
REMARK VINA RESULT:      -9.2      1.140      7.338
REMARK SMILES O=C(OCCOCCOCCOCCOC(=O)[C@H](CCOCC(F)(F)F)c1ccccc1Br)c1ccc(-c2c3nc(c(-c4c(F)c(F)c(F)c(F)c4F)c4ccc([nH]4)c(-c4c(F)c(F)c(F)c(F)c4F)c4nc(c(-c5c(F)c(F)c(F)c(F)c5F)c5ccc2[nH]5)C=C4)C=C3)cc1
REMARK SMILES IDX 10 1 9 2 8 3 7 4 6 5 5 6 4 7 3 8 2 9 1 10 34 11 35 12 96 13
REMARK SMILES IDX 36 14 95 15 37 16 38 17 39 18 89 19 40 20 94 21 88 22 90 23
REMARK SMILES IDX 41 24 93 25 87 26 86 27 42 29 74 30 54 31 73 32 55 33 58 34
REMARK SMILES IDX 72 35 91 36 56 37 57 38 71 40 92 41 59 42 43 43 44 44 52 45
REMARK SMILES IDX 45 46 46 47 50 48 53 49 47 50 48 51 51 52 49 53 75 54 76 55
REMARK SMILES IDX 84 56 77 57 78 58 82 59 85 60 79 61 80 62 83 63 81 64 60 65
REMARK SMILES IDX 61 66 69 67 62 68 63 69 67 70 70 71 64 72 65 73 68 74 66 75
REMARK SMILES IDX 11 76 12 77 13 78 14 79 15 80 16 81 17 82 18 83 27 84 28 85
REMARK SMILES IDX 32 86 29 87 31 88 33 89 30 90 19 91 20 92 21 93 22 94 23 95
REMARK SMILES IDX 24 96 25 97 26 98
REMARK H PARENT 90 28 58 39
REMARK Flexibility Score: inf
ROOT
ATOM      1  C   UNL A   1      30.912  25.959  23.960  1.00  0.00     0.188 C 
ENDROOT
BRANCH   1   2
ATOM      2  O   UNL A   1      32.094  26.423  23.333  1.00  0.00    -0.377 OA
BRANCH   2   3
ATOM      3  C   UNL A   1      32.962  27.165  24.186  1.00  0.00     0.188 C 
BRANCH   3   4
ATOM      4  C   UNL A   1      32.740  28.681  24.169  1.00  0.00     0.188 C 
BRANCH   4   5
ATOM      5  O   UNL A   1      31.512  29.019  24.813  1.00  0.00    -0.376 OA
BRANCH   5   6
ATOM      6  C   UNL A   1      31.345  30.340  25.327  1.00  0.00     0.202 C 
BRANCH   6   7
ATOM      7  C   UNL A   1      31.902  30.613  26.713  1.00  0.00     0.261 C 
BRANCH   7   8
ATOM      8  O   UNL A   1      33.307  30.883  26.779  1.00  0.00    -0.460 OA
BRANCH   8   9
ATOM      9  C   UNL A   1      34.063  31.557  27.669  1.00  0.00     0.338 C 
ATOM     10  O   UNL A   1      33.672  32.674  28.012  1.00  0.00    -0.246 OA
BRANCH   9  11
ATOM     11  C   UNL A   1      35.345  31.082  28.267  1.00  0.00     0.060 A 
ATOM     12  C   UNL A   1      35.604  29.810  28.774  1.00  0.00     0.016 A 
ATOM     13  C   UNL A   1      36.418  31.987  28.220  1.00  0.00     0.016 A 
ATOM     14  C   UNL A   1      36.853  29.423  29.216  1.00  0.00     0.010 A 
ATOM     15  C   UNL A   1      37.679  31.631  28.697  1.00  0.00     0.010 A 
ATOM     16  C   UNL A   1      37.878  30.351  29.219  1.00  0.00    -0.014 A 
BRANCH  16  17
ATOM     17  C   UNL A   1      39.030  30.040  30.060  1.00  0.00     0.031 A 
ATOM     18  C   UNL A   1      40.061  29.148  29.456  1.00  0.00     0.074 A 
ATOM     19  C   UNL A   1      39.206  30.666  31.231  1.00  0.00     0.049 A 
ATOM     20  N   UNL A   1      41.053  28.523  30.017  1.00  0.00    -0.248 NA
ATOM     21  C   UNL A   1      39.953  28.929  28.000  1.00  0.00     0.031 C 
ATOM     22  C   UNL A   1      38.349  31.729  31.760  1.00  0.00     0.029 A 
ATOM     23  N   UNL A   1      40.170  30.501  32.183  1.00  0.00    -0.354 N 
ATOM     24  C   UNL A   1      41.633  27.775  29.002  1.00  0.00     0.074 A 
ATOM     25  C   UNL A   1      40.909  28.044  27.784  1.00  0.00     0.031 C 
ATOM     26  C   UNL A   1      38.812  32.101  32.963  1.00  0.00     0.029 A 
ATOM     27  C   UNL A   1      39.927  31.231  33.318  1.00  0.00     0.049 A 
ATOM     28  H   UNL A   1      40.957  29.920  32.067  1.00  0.00     0.167 HD
ATOM     29  C   UNL A   1      42.664  26.910  29.119  1.00  0.00     0.037 A 
ATOM     30  C   UNL A   1      40.498  31.119  34.529  1.00  0.00     0.037 A 
ATOM     31  C   UNL A   1      43.333  26.703  30.372  1.00  0.00     0.049 A 
ATOM     32  C   UNL A   1      41.571  30.073  34.682  1.00  0.00     0.074 A 
ATOM     33  C   UNL A   1      44.340  25.816  30.691  1.00  0.00     0.029 A 
ATOM     34  N   UNL A   1      43.037  27.419  31.531  1.00  0.00    -0.354 N 
ATOM     35  N   UNL A   1      42.052  29.250  33.776  1.00  0.00    -0.248 NA
ATOM     36  C   UNL A   1      42.164  29.918  36.012  1.00  0.00     0.031 C 
ATOM     37  C   UNL A   1      44.611  25.958  32.057  1.00  0.00     0.029 A 
ATOM     38  C   UNL A   1      43.827  26.984  32.574  1.00  0.00     0.049 A 
ATOM     39  H   UNL A   1      42.362  28.133  31.595  1.00  0.00     0.167 HD
ATOM     40  C   UNL A   1      43.024  28.497  34.414  1.00  0.00     0.074 A 
ATOM     41  C   UNL A   1      43.060  28.963  35.790  1.00  0.00     0.031 C 
ATOM     42  C   UNL A   1      43.820  27.516  33.918  1.00  0.00     0.037 A 
BRANCH  29  43
ATOM     43  C   UNL A   1      42.987  26.073  27.916  1.00  0.00     0.064 A 
ATOM     44  C   UNL A   1      42.479  24.777  27.736  1.00  0.00     0.173 A 
ATOM     45  C   UNL A   1      43.919  26.542  26.977  1.00  0.00     0.173 A 
ATOM     46  F   UNL A   1      41.615  24.261  28.625  1.00  0.00    -0.203 F 
ATOM     47  C   UNL A   1      42.932  23.965  26.697  1.00  0.00     0.198 A 
ATOM     48  C   UNL A   1      44.342  25.742  25.918  1.00  0.00     0.198 A 
ATOM     49  F   UNL A   1      44.452  27.766  27.105  1.00  0.00    -0.203 F 
ATOM     50  F   UNL A   1      42.504  22.698  26.604  1.00  0.00    -0.200 F 
ATOM     51  C   UNL A   1      43.862  24.448  25.789  1.00  0.00     0.200 A 
ATOM     52  F   UNL A   1      45.241  26.212  25.042  1.00  0.00    -0.200 F 
ATOM     53  F   UNL A   1      44.313  23.659  24.804  1.00  0.00    -0.200 F 
ENDBRANCH  29  43
BRANCH  30  54
ATOM     54  C   UNL A   1      39.999  31.943  35.659  1.00  0.00     0.064 A 
ATOM     55  C   UNL A   1      40.585  33.175  35.977  1.00  0.00     0.173 A 
ATOM     56  C   UNL A   1      38.878  31.546  36.409  1.00  0.00     0.173 A 
ATOM     57  F   UNL A   1      41.664  33.596  35.302  1.00  0.00    -0.203 F 
ATOM     58  C   UNL A   1      40.073  33.974  36.999  1.00  0.00     0.198 A 
ATOM     59  C   UNL A   1      38.349  32.357  37.410  1.00  0.00     0.198 A 
ATOM     60  F   UNL A   1      38.273  30.378  36.146  1.00  0.00    -0.203 F 
ATOM     61  F   UNL A   1      40.666  35.138  37.297  1.00  0.00    -0.200 F 
ATOM     62  C   UNL A   1      38.949  33.571  37.707  1.00  0.00     0.200 A 
ATOM     63  F   UNL A   1      37.252  31.972  38.074  1.00  0.00    -0.200 F 
ATOM     64  F   UNL A   1      38.446  34.350  38.674  1.00  0.00    -0.200 F 
ENDBRANCH  30  54
BRANCH  42  65
ATOM     65  C   UNL A   1      44.839  26.938  34.850  1.00  0.00     0.064 A 
ATOM     66  C   UNL A   1      46.110  27.506  34.996  1.00  0.00     0.173 A 
ATOM     67  C   UNL A   1      44.483  25.869  35.687  1.00  0.00     0.173 A 
ATOM     68  F   UNL A   1      46.493  28.520  34.206  1.00  0.00    -0.203 F 
ATOM     69  C   UNL A   1      46.995  27.019  35.951  1.00  0.00     0.198 A 
ATOM     70  C   UNL A   1      45.358  25.408  36.661  1.00  0.00     0.198 A 
ATOM     71  F   UNL A   1      43.270  25.305  35.584  1.00  0.00    -0.203 F 
ATOM     72  F   UNL A   1      48.218  27.556  36.062  1.00  0.00    -0.200 F 
ATOM     73  C   UNL A   1      46.614  25.982  36.791  1.00  0.00     0.200 A 
ATOM     74  F   UNL A   1      44.980  24.422  37.485  1.00  0.00    -0.200 F 
ATOM     75  F   UNL A   1      47.457  25.536  37.731  1.00  0.00    -0.200 F 
ENDBRANCH  42  65
ENDBRANCH  16  17
ENDBRANCH   9  11
ENDBRANCH   8   9
ENDBRANCH   7   8
ENDBRANCH   6   7
ENDBRANCH   5   6
ENDBRANCH   4   5
ENDBRANCH   3   4
ENDBRANCH   2   3
ENDBRANCH   1   2
BRANCH   1  76
ATOM     76  C   UNL A   1      30.425  24.522  23.681  1.00  0.00     0.188 C 
BRANCH  76  77
ATOM     77  O   UNL A   1      30.765  23.602  24.703  1.00  0.00    -0.376 OA
BRANCH  77  78
ATOM     78  C   UNL A   1      31.406  24.157  25.847  1.00  0.00     0.202 C 
BRANCH  78  79
ATOM     79  C   UNL A   1      31.704  23.216  27.028  1.00  0.00     0.261 C 
BRANCH  79  80
ATOM     80  O   UNL A   1      32.572  22.100  26.753  1.00  0.00    -0.463 OA
BRANCH  80  81
ATOM     81  C   UNL A   1      33.875  22.112  27.151  1.00  0.00     0.313 C 
ATOM     82  O   UNL A   1      34.259  22.469  28.257  1.00  0.00    -0.252 OA
BRANCH  81  83
ATOM     83  C   UNL A   1      34.743  21.510  26.028  1.00  0.00     0.132 C 
BRANCH  83  84
ATOM     84  C   UNL A   1      33.875  20.902  24.945  1.00  0.00    -0.019 A 
ATOM     85  C   UNL A   1      33.342  19.616  25.214  1.00  0.00     0.006 A 
ATOM     86  C   UNL A   1      33.493  21.541  23.763  1.00  0.00     0.022 A 
ATOM     87  C   UNL A   1      32.488  18.979  24.320  1.00  0.00     0.000 A 
ATOM     88  C   UNL A   1      32.652  20.887  22.856  1.00  0.00     0.016 A 
ATOM     89  Br  UNL A   1      33.999  23.318  23.337  1.00  0.00    -0.051 Br
ATOM     90  C   UNL A   1      32.151  19.613  23.132  1.00  0.00     0.001 A 
ENDBRANCH  83  84
BRANCH  83  91
ATOM     91  C   UNL A   1      35.990  22.346  25.642  1.00  0.00     0.048 C 
BRANCH  91  92
ATOM     92  C   UNL A   1      37.098  21.548  24.910  1.00  0.00     0.162 C 
BRANCH  92  93
ATOM     93  O   UNL A   1      38.404  22.055  25.197  1.00  0.00    -0.372 OA
BRANCH  93  94
ATOM     94  C   UNL A   1      38.616  22.588  26.515  1.00  0.00     0.275 C 
BRANCH  94  95
ATOM     95  C   UNL A   1      38.679  24.113  26.642  1.00  0.00     0.411 C 
ATOM     96  F   UNL A   1      38.827  24.518  27.924  1.00  0.00    -0.168 F 
ATOM     97  F   UNL A   1      39.745  24.598  25.957  1.00  0.00    -0.168 F 
ATOM     98  F   UNL A   1      37.579  24.719  26.148  1.00  0.00    -0.168 F 
ENDBRANCH  94  95
ENDBRANCH  93  94
ENDBRANCH  92  93
ENDBRANCH  91  92
ENDBRANCH  83  91
ENDBRANCH  81  83
ENDBRANCH  80  81
ENDBRANCH  79  80
ENDBRANCH  78  79
ENDBRANCH  77  78
ENDBRANCH  76  77
ENDBRANCH   1  76
TORSDOF 26
ENDMDL
