MODEL 1
REMARK VINA RESULT:      -8.6      0.000      0.000
REMARK SMILES CCCc1nc(C)cc(N2CCC(C(=O)OCCOCCOCCOCCOC(=O)c3ccc(-c4c5nc(c(-c6c(F)c(F)c(F)c(F)c6F)c6ccc([nH]6)c(-c6c(F)c(F)c(F)c(F)c6F)c6nc(c(-c7c(F)c(F)c(F)c(F)c7F)c7ccc4[nH]7)C=C6)C=C5)cc3)(n3ccc(C(C)C)n3)CC2)n1
REMARK SMILES IDX 21 1 20 2 19 3 18 4 17 5 16 6 14 7 15 8 13 9 10 10 11 11
REMARK SMILES IDX 103 12 12 13 102 14 9 15 4 16 5 17 104 18 6 19 7 20 8 21
REMARK SMILES IDX 3 22 2 23 1 24 94 25 95 26 101 27 96 28 97 29 98 30 99 31
REMARK SMILES IDX 100 32 22 33 23 34 24 35 25 36 26 37 27 38 28 39 29 40 30 41
REMARK SMILES IDX 31 42 32 43 93 44 33 45 92 46 34 47 35 48 36 49 86 50 37 51
REMARK SMILES IDX 91 52 85 53 87 54 38 55 90 56 84 57 83 58 39 60 71 61 51 62
REMARK SMILES IDX 70 63 52 64 55 65 69 66 88 67 53 68 54 69 68 71 89 72 56 73
REMARK SMILES IDX 40 74 41 75 49 76 42 77 43 78 47 79 50 80 44 81 45 82 48 83
REMARK SMILES IDX 46 84 72 85 73 86 81 87 74 88 75 89 79 90 82 91 76 92 77 93
REMARK SMILES IDX 80 94 78 95 57 96 58 97 66 98 59 99 60 100 64 101 67 102
REMARK SMILES IDX 61 103 62 104 65 105 63 106
REMARK H PARENT 87 59 55 70
REMARK Flexibility Score: inf
ROOT
ATOM      1  C   UNL A   1      39.461  28.723  29.034  1.00  0.00     0.188 C 
ENDROOT
BRANCH   1   2
ATOM      2  C   UNL A   1      38.379  29.683  29.534  1.00  0.00     0.188 C 
BRANCH   2   3
ATOM      3  O   UNL A   1      37.026  29.374  29.270  1.00  0.00    -0.376 OA
BRANCH   3   4
ATOM      4  C   UNL A   1      36.335  30.009  28.206  1.00  0.00     0.202 C 
BRANCH   4   5
ATOM      5  C   UNL A   1      35.367  29.319  27.219  1.00  0.00     0.261 C 
BRANCH   5   6
ATOM      6  O   UNL A   1      34.197  30.036  26.797  1.00  0.00    -0.461 OA
BRANCH   6   7
ATOM      7  C   UNL A   1      33.008  29.382  26.885  1.00  0.00     0.334 C 
ATOM      8  O   UNL A   1      32.478  29.120  27.965  1.00  0.00    -0.249 OA
BRANCH   7   9
ATOM      9  C   UNL A   1      32.450  28.879  25.521  1.00  0.00     0.163 C 
ATOM     10  N   UNL A   1      32.567  26.517  23.869  1.00  0.00    -0.356 N 
ATOM     11  C   UNL A   1      33.083  27.737  23.296  1.00  0.00     0.121 C 
ATOM     12  C   UNL A   1      31.490  26.563  24.827  1.00  0.00     0.121 C 
ATOM     13  C   UNL A   1      33.508  28.685  24.402  1.00  0.00     0.064 C 
ATOM     14  C   UNL A   1      31.869  27.505  25.953  1.00  0.00     0.064 C 
BRANCH  10  15
ATOM     15  C   UNL A   1      32.976  25.341  23.284  1.00  0.00     0.132 A 
ATOM     16  C   UNL A   1      33.995  23.299  23.523  1.00  0.00     0.130 A 
ATOM     17  N   UNL A   1      33.878  23.006  22.218  1.00  0.00    -0.238 NA
ATOM     18  N   UNL A   1      33.598  24.454  24.075  1.00  0.00    -0.216 NA
ATOM     19  C   UNL A   1      33.248  23.906  21.444  1.00  0.00     0.043 A 
ATOM     20  C   UNL A   1      33.055  23.541  20.007  1.00  0.00     0.067 C 
ATOM     21  C   UNL A   1      32.758  25.090  21.947  1.00  0.00     0.070 A 
BRANCH  16  22
ATOM     22  C   UNL A   1      34.594  22.265  24.437  1.00  0.00     0.077 C 
BRANCH  22  23
ATOM     23  C   UNL A   1      35.836  22.750  25.191  1.00  0.00     0.005 C 
ATOM     24  C   UNL A   1      36.867  21.659  25.450  1.00  0.00     0.004 C 
ENDBRANCH  22  23
ENDBRANCH  16  22
ENDBRANCH  10  15
BRANCH   9  25
ATOM     25  N   UNL A   1      31.418  29.833  25.060  1.00  0.00    -0.255 N 
ATOM     26  C   UNL A   1      31.103  31.068  25.568  1.00  0.00     0.110 A 
ATOM     27  N   UNL A   1      30.534  29.464  24.104  1.00  0.00    -0.177 NA
ATOM     28  C   UNL A   1      30.073  31.563  24.809  1.00  0.00     0.045 A 
ATOM     29  C   UNL A   1      29.783  30.548  23.877  1.00  0.00     0.065 A 
BRANCH  29  30
ATOM     30  C   UNL A   1      28.803  30.580  22.738  1.00  0.00     0.034 C 
ATOM     31  C   UNL A   1      27.557  29.742  23.027  1.00  0.00     0.014 C 
ATOM     32  C   UNL A   1      28.408  32.023  22.404  1.00  0.00     0.014 C 
ENDBRANCH  29  30
ENDBRANCH   9  25
ENDBRANCH   7   9
ENDBRANCH   6   7
ENDBRANCH   5   6
ENDBRANCH   4   5
ENDBRANCH   3   4
ENDBRANCH   2   3
ENDBRANCH   1   2
BRANCH   1  33
ATOM     33  O   UNL A   1      39.157  28.004  27.851  1.00  0.00    -0.377 OA
BRANCH  33  34
ATOM     34  C   UNL A   1      39.108  26.585  27.924  1.00  0.00     0.188 C 
BRANCH  34  35
ATOM     35  C   UNL A   1      40.221  25.818  28.664  1.00  0.00     0.188 C 
BRANCH  35  36
ATOM     36  O   UNL A   1      40.941  24.897  27.863  1.00  0.00    -0.376 OA
BRANCH  36  37
ATOM     37  C   UNL A   1      40.278  23.768  27.316  1.00  0.00     0.202 C 
BRANCH  37  38
ATOM     38  C   UNL A   1      41.109  22.531  26.932  1.00  0.00     0.261 C 
BRANCH  38  39
ATOM     39  O   UNL A   1      42.536  22.658  27.019  1.00  0.00    -0.460 OA
BRANCH  39  40
ATOM     40  C   UNL A   1      43.220  22.984  25.905  1.00  0.00     0.338 C 
ATOM     41  O   UNL A   1      43.248  22.378  24.846  1.00  0.00    -0.246 OA
BRANCH  40  42
ATOM     42  C   UNL A   1      43.791  24.330  26.111  1.00  0.00     0.060 A 
ATOM     43  C   UNL A   1      43.764  25.248  25.054  1.00  0.00     0.016 A 
ATOM     44  C   UNL A   1      44.352  24.684  27.341  1.00  0.00     0.016 A 
ATOM     45  C   UNL A   1      44.335  26.510  25.208  1.00  0.00     0.010 A 
ATOM     46  C   UNL A   1      44.946  25.940  27.487  1.00  0.00     0.010 A 
ATOM     47  C   UNL A   1      44.973  26.843  26.408  1.00  0.00    -0.014 A 
BRANCH  47  48
ATOM     48  C   UNL A   1      45.854  28.034  26.462  1.00  0.00     0.031 A 
ATOM     49  C   UNL A   1      47.330  27.833  26.249  1.00  0.00     0.074 A 
ATOM     50  C   UNL A   1      45.360  29.266  26.667  1.00  0.00     0.049 A 
ATOM     51  N   UNL A   1      48.307  28.699  26.311  1.00  0.00    -0.248 NA
ATOM     52  C   UNL A   1      47.759  26.462  25.925  1.00  0.00     0.031 C 
ATOM     53  C   UNL A   1      43.947  29.594  26.832  1.00  0.00     0.029 A 
ATOM     54  N   UNL A   1      46.004  30.473  26.781  1.00  0.00    -0.354 N 
ATOM     55  C   UNL A   1      49.464  27.978  26.045  1.00  0.00     0.074 A 
ATOM     56  C   UNL A   1      49.073  26.599  25.853  1.00  0.00     0.031 C 
ATOM     57  C   UNL A   1      43.830  30.917  27.043  1.00  0.00     0.029 A 
ATOM     58  C   UNL A   1      45.163  31.520  27.066  1.00  0.00     0.049 A 
ATOM     59  H   UNL A   1      46.976  30.579  26.668  1.00  0.00     0.167 HD
ATOM     60  C   UNL A   1      50.739  28.428  25.964  1.00  0.00     0.037 A 
ATOM     61  C   UNL A   1      45.443  32.808  27.344  1.00  0.00     0.037 A 
ATOM     62  C   UNL A   1      51.122  29.801  26.159  1.00  0.00     0.049 A 
ATOM     63  C   UNL A   1      46.881  33.269  27.332  1.00  0.00     0.074 A 
ATOM     64  C   UNL A   1      52.384  30.363  26.082  1.00  0.00     0.029 A 
ATOM     65  N   UNL A   1      50.246  30.827  26.481  1.00  0.00    -0.354 N 
ATOM     66  N   UNL A   1      47.969  32.589  27.060  1.00  0.00    -0.248 NA
ATOM     67  C   UNL A   1      47.127  34.681  27.663  1.00  0.00     0.031 C 
ATOM     68  C   UNL A   1      52.280  31.715  26.424  1.00  0.00     0.029 A 
ATOM     69  C   UNL A   1      50.944  32.013  26.640  1.00  0.00     0.049 A 
ATOM     70  H   UNL A   1      49.272  30.727  26.582  1.00  0.00     0.167 HD
ATOM     71  C   UNL A   1      49.021  33.494  27.152  1.00  0.00     0.074 A 
ATOM     72  C   UNL A   1      48.439  34.775  27.493  1.00  0.00     0.031 C 
ATOM     73  C   UNL A   1      50.348  33.284  26.968  1.00  0.00     0.037 A 
BRANCH  60  74
ATOM     74  C   UNL A   1      51.816  27.419  25.687  1.00  0.00     0.064 A 
ATOM     75  C   UNL A   1      52.173  27.052  24.381  1.00  0.00     0.173 A 
ATOM     76  C   UNL A   1      52.518  26.828  26.749  1.00  0.00     0.173 A 
ATOM     77  F   UNL A   1      51.523  27.575  23.330  1.00  0.00    -0.203 F 
ATOM     78  C   UNL A   1      53.175  26.113  24.149  1.00  0.00     0.198 A 
ATOM     79  C   UNL A   1      53.543  25.915  26.513  1.00  0.00     0.198 A 
ATOM     80  F   UNL A   1      52.218  27.142  28.018  1.00  0.00    -0.203 F 
ATOM     81  F   UNL A   1      53.463  25.740  22.895  1.00  0.00    -0.200 F 
ATOM     82  C   UNL A   1      53.865  25.553  25.214  1.00  0.00     0.200 A 
ATOM     83  F   UNL A   1      54.217  25.386  27.543  1.00  0.00    -0.200 F 
ATOM     84  F   UNL A   1      54.835  24.656  24.989  1.00  0.00    -0.200 F 
ENDBRANCH  60  74
BRANCH  61  85
ATOM     85  C   UNL A   1      44.347  33.757  27.680  1.00  0.00     0.064 A 
ATOM     86  C   UNL A   1      43.781  33.788  28.961  1.00  0.00     0.173 A 
ATOM     87  C   UNL A   1      43.824  34.632  26.716  1.00  0.00     0.173 A 
ATOM     88  F   UNL A   1      44.226  32.951  29.910  1.00  0.00    -0.203 F 
ATOM     89  C   UNL A   1      42.719  34.641  29.260  1.00  0.00     0.198 A 
ATOM     90  C   UNL A   1      42.786  35.509  27.025  1.00  0.00     0.198 A 
ATOM     91  F   UNL A   1      44.326  34.641  25.473  1.00  0.00    -0.203 F 
ATOM     92  F   UNL A   1      42.160  34.609  30.477  1.00  0.00    -0.200 F 
ATOM     93  C   UNL A   1      42.227  35.505  28.293  1.00  0.00     0.200 A 
ATOM     94  F   UNL A   1      42.322  36.350  26.091  1.00  0.00    -0.200 F 
ATOM     95  F   UNL A   1      41.208  36.326  28.582  1.00  0.00    -0.200 F 
ENDBRANCH  61  85
BRANCH  73  96
ATOM     96  C   UNL A   1      51.264  34.472  27.082  1.00  0.00     0.064 A 
ATOM     97  C   UNL A   1      51.915  34.796  28.281  1.00  0.00     0.173 A 
ATOM     98  C   UNL A   1      51.531  35.267  25.956  1.00  0.00     0.173 A 
ATOM     99  F   UNL A   1      51.685  34.076  29.391  1.00  0.00    -0.203 F 
ATOM    100  C   UNL A   1      52.775  35.889  28.357  1.00  0.00     0.198 A 
ATOM    101  C   UNL A   1      52.420  36.335  26.026  1.00  0.00     0.198 A 
ATOM    102  F   UNL A   1      50.945  34.995  24.781  1.00  0.00    -0.203 F 
ATOM    103  F   UNL A   1      53.344  36.211  29.527  1.00  0.00    -0.200 F 
ATOM    104  C   UNL A   1      53.034  36.652  27.228  1.00  0.00     0.200 A 
ATOM    105  F   UNL A   1      52.683  37.059  24.929  1.00  0.00    -0.200 F 
ATOM    106  F   UNL A   1      53.870  37.696  27.300  1.00  0.00    -0.200 F 
ENDBRANCH  73  96
ENDBRANCH  47  48
ENDBRANCH  40  42
ENDBRANCH  39  40
ENDBRANCH  38  39
ENDBRANCH  37  38
ENDBRANCH  36  37
ENDBRANCH  35  36
ENDBRANCH  34  35
ENDBRANCH  33  34
ENDBRANCH   1  33
TORSDOF 25
ENDMDL
MODEL 2
REMARK VINA RESULT:      -8.5      7.831     14.736
REMARK SMILES CCCc1nc(C)cc(N2CCC(C(=O)OCCOCCOCCOCCOC(=O)c3ccc(-c4c5nc(c(-c6c(F)c(F)c(F)c(F)c6F)c6ccc([nH]6)c(-c6c(F)c(F)c(F)c(F)c6F)c6nc(c(-c7c(F)c(F)c(F)c(F)c7F)c7ccc4[nH]7)C=C6)C=C5)cc3)(n3ccc(C(C)C)n3)CC2)n1
REMARK SMILES IDX 21 1 20 2 19 3 18 4 17 5 16 6 14 7 15 8 13 9 10 10 11 11
REMARK SMILES IDX 103 12 12 13 102 14 9 15 4 16 5 17 104 18 6 19 7 20 8 21
REMARK SMILES IDX 3 22 2 23 1 24 94 25 95 26 101 27 96 28 97 29 98 30 99 31
REMARK SMILES IDX 100 32 22 33 23 34 24 35 25 36 26 37 27 38 28 39 29 40 30 41
REMARK SMILES IDX 31 42 32 43 93 44 33 45 92 46 34 47 35 48 36 49 86 50 37 51
REMARK SMILES IDX 91 52 85 53 87 54 38 55 90 56 84 57 83 58 39 60 71 61 51 62
REMARK SMILES IDX 70 63 52 64 55 65 69 66 88 67 53 68 54 69 68 71 89 72 56 73
REMARK SMILES IDX 40 74 41 75 49 76 42 77 43 78 47 79 50 80 44 81 45 82 48 83
REMARK SMILES IDX 46 84 72 85 73 86 81 87 74 88 75 89 79 90 82 91 76 92 77 93
REMARK SMILES IDX 80 94 78 95 57 96 58 97 66 98 59 99 60 100 64 101 67 102
REMARK SMILES IDX 61 103 62 104 65 105 63 106
REMARK H PARENT 87 59 55 70
REMARK Flexibility Score: inf
ROOT
ATOM      1  C   UNL A   1      45.122  44.005  32.333  1.00  0.00     0.188 C 
ENDROOT
BRANCH   1   2
ATOM      2  C   UNL A   1      43.782  44.632  31.937  1.00  0.00     0.188 C 
BRANCH   2   3
ATOM      3  O   UNL A   1      42.641  43.801  31.869  1.00  0.00    -0.376 OA
BRANCH   3   4
ATOM      4  C   UNL A   1      42.443  42.937  30.760  1.00  0.00     0.202 C 
BRANCH   4   5
ATOM      5  C   UNL A   1      41.620  41.630  30.770  1.00  0.00     0.261 C 
BRANCH   5   6
ATOM      6  O   UNL A   1      42.272  40.415  31.167  1.00  0.00    -0.461 OA
BRANCH   6   7
ATOM      7  C   UNL A   1      43.536  40.214  30.706  1.00  0.00     0.334 C 
ATOM      8  O   UNL A   1      44.533  40.446  31.390  1.00  0.00    -0.249 OA
BRANCH   7   9
ATOM      9  C   UNL A   1      43.612  39.799  29.207  1.00  0.00     0.163 C 
ATOM     10  N   UNL A   1      43.662  41.056  26.610  1.00  0.00    -0.356 N 
ATOM     11  C   UNL A   1      42.560  40.164  26.881  1.00  0.00     0.121 C 
ATOM     12  C   UNL A   1      44.947  40.829  27.225  1.00  0.00     0.121 C 
ATOM     13  C   UNL A   1      42.329  40.070  28.377  1.00  0.00     0.064 C 
ATOM     14  C   UNL A   1      44.765  40.723  28.726  1.00  0.00     0.064 C 
BRANCH  10  15
ATOM     15  C   UNL A   1      43.493  41.950  25.580  1.00  0.00     0.132 A 
ATOM     16  C   UNL A   1      44.079  43.952  24.622  1.00  0.00     0.130 A 
ATOM     17  N   UNL A   1      43.195  43.816  23.621  1.00  0.00    -0.238 NA
ATOM     18  N   UNL A   1      44.226  43.073  25.624  1.00  0.00    -0.216 NA
ATOM     19  C   UNL A   1      42.473  42.682  23.593  1.00  0.00     0.043 A 
ATOM     20  C   UNL A   1      41.545  42.503  22.436  1.00  0.00     0.067 C 
ATOM     21  C   UNL A   1      42.608  41.704  24.552  1.00  0.00     0.070 A 
BRANCH  16  22
ATOM     22  C   UNL A   1      44.980  45.156  24.621  1.00  0.00     0.077 C 
BRANCH  22  23
ATOM     23  C   UNL A   1      46.458  44.823  24.392  1.00  0.00     0.005 C 
ATOM     24  C   UNL A   1      46.951  45.139  22.986  1.00  0.00     0.004 C 
ENDBRANCH  22  23
ENDBRANCH  16  22
ENDBRANCH  10  15
BRANCH   9  25
ATOM     25  N   UNL A   1      43.947  38.360  29.138  1.00  0.00    -0.255 N 
ATOM     26  C   UNL A   1      44.664  37.692  28.179  1.00  0.00     0.110 A 
ATOM     27  N   UNL A   1      43.403  37.496  30.025  1.00  0.00    -0.177 NA
ATOM     28  C   UNL A   1      44.698  36.372  28.551  1.00  0.00     0.045 A 
ATOM     29  C   UNL A   1      43.938  36.305  29.735  1.00  0.00     0.065 A 
BRANCH  29  30
ATOM     30  C   UNL A   1      43.713  35.120  30.632  1.00  0.00     0.034 C 
ATOM     31  C   UNL A   1      42.498  34.295  30.203  1.00  0.00     0.014 C 
ATOM     32  C   UNL A   1      44.963  34.235  30.687  1.00  0.00     0.014 C 
ENDBRANCH  29  30
ENDBRANCH   9  25
ENDBRANCH   7   9
ENDBRANCH   6   7
ENDBRANCH   5   6
ENDBRANCH   4   5
ENDBRANCH   3   4
ENDBRANCH   2   3
ENDBRANCH   1   2
BRANCH   1  33
ATOM     33  O   UNL A   1      45.665  44.428  33.571  1.00  0.00    -0.377 OA
BRANCH  33  34
ATOM     34  C   UNL A   1      45.785  43.467  34.612  1.00  0.00     0.188 C 
BRANCH  34  35
ATOM     35  C   UNL A   1      44.805  42.280  34.673  1.00  0.00     0.188 C 
BRANCH  35  36
ATOM     36  O   UNL A   1      43.946  42.276  35.802  1.00  0.00    -0.376 OA
BRANCH  36  37
ATOM     37  C   UNL A   1      44.371  41.663  37.010  1.00  0.00     0.202 C 
BRANCH  37  38
ATOM     38  C   UNL A   1      44.871  40.208  36.970  1.00  0.00     0.261 C 
BRANCH  38  39
ATOM     39  O   UNL A   1      43.887  39.181  37.163  1.00  0.00    -0.460 OA
BRANCH  39  40
ATOM     40  C   UNL A   1      44.309  37.937  37.460  1.00  0.00     0.338 C 
ATOM     41  O   UNL A   1      45.002  37.594  38.405  1.00  0.00    -0.246 OA
BRANCH  40  42
ATOM     42  C   UNL A   1      43.622  37.002  36.547  1.00  0.00     0.060 A 
ATOM     43  C   UNL A   1      42.918  35.919  37.087  1.00  0.00     0.016 A 
ATOM     44  C   UNL A   1      43.674  37.193  35.164  1.00  0.00     0.016 A 
ATOM     45  C   UNL A   1      42.296  34.998  36.246  1.00  0.00     0.010 A 
ATOM     46  C   UNL A   1      43.073  36.256  34.320  1.00  0.00     0.010 A 
ATOM     47  C   UNL A   1      42.415  35.134  34.858  1.00  0.00    -0.014 A 
BRANCH  47  48
ATOM     48  C   UNL A   1      42.046  34.000  33.979  1.00  0.00     0.031 A 
ATOM     49  C   UNL A   1      43.078  32.933  33.730  1.00  0.00     0.074 A 
ATOM     50  C   UNL A   1      40.822  33.899  33.434  1.00  0.00     0.049 A 
ATOM     51  N   UNL A   1      43.022  31.882  32.954  1.00  0.00    -0.248 NA
ATOM     52  C   UNL A   1      44.350  33.078  34.457  1.00  0.00     0.031 C 
ATOM     53  C   UNL A   1      39.724  34.838  33.644  1.00  0.00     0.029 A 
ATOM     54  N   UNL A   1      40.305  32.957  32.579  1.00  0.00    -0.354 N 
ATOM     55  C   UNL A   1      44.250  31.248  33.091  1.00  0.00     0.074 A 
ATOM     56  C   UNL A   1      45.043  32.048  33.999  1.00  0.00     0.031 C 
ATOM     57  C   UNL A   1      38.663  34.434  32.922  1.00  0.00     0.029 A 
ATOM     58  C   UNL A   1      39.024  33.230  32.172  1.00  0.00     0.049 A 
ATOM     59  H   UNL A   1      40.806  32.161  32.287  1.00  0.00     0.167 HD
ATOM     60  C   UNL A   1      44.676  30.099  32.516  1.00  0.00     0.037 A 
ATOM     61  C   UNL A   1      38.246  32.596  31.273  1.00  0.00     0.037 A 
ATOM     62  C   UNL A   1      43.882  29.309  31.611  1.00  0.00     0.049 A 
ATOM     63  C   UNL A   1      38.774  31.364  30.577  1.00  0.00     0.074 A 
ATOM     64  C   UNL A   1      44.215  28.121  30.986  1.00  0.00     0.029 A 
ATOM     65  N   UNL A   1      42.601  29.637  31.194  1.00  0.00    -0.354 N 
ATOM     66  N   UNL A   1      39.927  30.757  30.726  1.00  0.00    -0.248 NA
ATOM     67  C   UNL A   1      37.887  30.728  29.592  1.00  0.00     0.031 C 
ATOM     68  C   UNL A   1      43.160  27.765  30.139  1.00  0.00     0.029 A 
ATOM     69  C   UNL A   1      42.140  28.690  30.294  1.00  0.00     0.049 A 
ATOM     70  H   UNL A   1      42.093  30.425  31.494  1.00  0.00     0.167 HD
ATOM     71  C   UNL A   1      39.891  29.653  29.882  1.00  0.00     0.074 A 
ATOM     72  C   UNL A   1      38.597  29.666  29.234  1.00  0.00     0.031 C 
ATOM     73  C   UNL A   1      40.843  28.711  29.665  1.00  0.00     0.037 A 
BRANCH  60  74
ATOM     74  C   UNL A   1      46.076  29.647  32.818  1.00  0.00     0.064 A 
ATOM     75  C   UNL A   1      47.169  30.035  32.029  1.00  0.00     0.173 A 
ATOM     76  C   UNL A   1      46.329  28.832  33.932  1.00  0.00     0.173 A 
ATOM     77  F   UNL A   1      46.980  30.801  30.943  1.00  0.00    -0.203 F 
ATOM     78  C   UNL A   1      48.458  29.602  32.328  1.00  0.00     0.198 A 
ATOM     79  C   UNL A   1      47.624  28.430  34.249  1.00  0.00     0.198 A 
ATOM     80  F   UNL A   1      45.321  28.432  34.721  1.00  0.00    -0.203 F 
ATOM     81  F   UNL A   1      49.479  29.943  31.529  1.00  0.00    -0.200 F 
ATOM     82  C   UNL A   1      48.685  28.808  33.441  1.00  0.00     0.200 A 
ATOM     83  F   UNL A   1      47.842  27.674  35.333  1.00  0.00    -0.200 F 
ATOM     84  F   UNL A   1      49.928  28.400  33.734  1.00  0.00    -0.200 F 
ENDBRANCH  60  74
BRANCH  61  85
ATOM     85  C   UNL A   1      36.889  33.122  30.955  1.00  0.00     0.064 A 
ATOM     86  C   UNL A   1      36.635  33.797  29.754  1.00  0.00     0.173 A 
ATOM     87  C   UNL A   1      35.827  32.983  31.862  1.00  0.00     0.173 A 
ATOM     88  F   UNL A   1      37.624  33.980  28.867  1.00  0.00    -0.203 F 
ATOM     89  C   UNL A   1      35.377  34.333  29.481  1.00  0.00     0.198 A 
ATOM     90  C   UNL A   1      34.562  33.489  31.572  1.00  0.00     0.198 A 
ATOM     91  F   UNL A   1      36.016  32.349  33.028  1.00  0.00    -0.203 F 
ATOM     92  F   UNL A   1      35.178  35.022  28.350  1.00  0.00    -0.200 F 
ATOM     93  C   UNL A   1      34.340  34.173  30.387  1.00  0.00     0.200 A 
ATOM     94  F   UNL A   1      33.560  33.322  32.447  1.00  0.00    -0.200 F 
ATOM     95  F   UNL A   1      33.131  34.687  30.123  1.00  0.00    -0.200 F 
ENDBRANCH  61  85
BRANCH  73  96
ATOM     96  C   UNL A   1      40.508  27.586  28.725  1.00  0.00     0.064 A 
ATOM     97  C   UNL A   1      39.621  26.559  29.082  1.00  0.00     0.173 A 
ATOM     98  C   UNL A   1      41.045  27.565  27.428  1.00  0.00     0.173 A 
ATOM     99  F   UNL A   1      39.088  26.524  30.314  1.00  0.00    -0.203 F 
ATOM    100  C   UNL A   1      39.309  25.539  28.187  1.00  0.00     0.198 A 
ATOM    101  C   UNL A   1      40.702  26.565  26.524  1.00  0.00     0.198 A 
ATOM    102  F   UNL A   1      41.890  28.529  27.030  1.00  0.00    -0.203 F 
ATOM    103  F   UNL A   1      38.501  24.540  28.568  1.00  0.00    -0.200 F 
ATOM    104  C   UNL A   1      39.842  25.547  26.907  1.00  0.00     0.200 A 
ATOM    105  F   UNL A   1      41.203  26.587  25.281  1.00  0.00    -0.200 F 
ATOM    106  F   UNL A   1      39.531  24.571  26.043  1.00  0.00    -0.200 F 
ENDBRANCH  73  96
ENDBRANCH  47  48
ENDBRANCH  40  42
ENDBRANCH  39  40
ENDBRANCH  38  39
ENDBRANCH  37  38
ENDBRANCH  36  37
ENDBRANCH  35  36
ENDBRANCH  34  35
ENDBRANCH  33  34
ENDBRANCH   1  33
TORSDOF 25
ENDMDL
MODEL 3
REMARK VINA RESULT:      -8.1      3.646      7.032
REMARK SMILES CCCc1nc(C)cc(N2CCC(C(=O)OCCOCCOCCOCCOC(=O)c3ccc(-c4c5nc(c(-c6c(F)c(F)c(F)c(F)c6F)c6ccc([nH]6)c(-c6c(F)c(F)c(F)c(F)c6F)c6nc(c(-c7c(F)c(F)c(F)c(F)c7F)c7ccc4[nH]7)C=C6)C=C5)cc3)(n3ccc(C(C)C)n3)CC2)n1
REMARK SMILES IDX 21 1 20 2 19 3 18 4 17 5 16 6 14 7 15 8 13 9 10 10 11 11
REMARK SMILES IDX 103 12 12 13 102 14 9 15 4 16 5 17 104 18 6 19 7 20 8 21
REMARK SMILES IDX 3 22 2 23 1 24 94 25 95 26 101 27 96 28 97 29 98 30 99 31
REMARK SMILES IDX 100 32 22 33 23 34 24 35 25 36 26 37 27 38 28 39 29 40 30 41
REMARK SMILES IDX 31 42 32 43 93 44 33 45 92 46 34 47 35 48 36 49 86 50 37 51
REMARK SMILES IDX 91 52 85 53 87 54 38 55 90 56 84 57 83 58 39 60 71 61 51 62
REMARK SMILES IDX 70 63 52 64 55 65 69 66 88 67 53 68 54 69 68 71 89 72 56 73
REMARK SMILES IDX 40 74 41 75 49 76 42 77 43 78 47 79 50 80 44 81 45 82 48 83
REMARK SMILES IDX 46 84 72 85 73 86 81 87 74 88 75 89 79 90 82 91 76 92 77 93
REMARK SMILES IDX 80 94 78 95 57 96 58 97 66 98 59 99 60 100 64 101 67 102
REMARK SMILES IDX 61 103 62 104 65 105 63 106
REMARK H PARENT 87 59 55 70
REMARK Flexibility Score: inf
ROOT
ATOM      1  C   UNL A   1      41.598  28.263  30.727  1.00  0.00     0.188 C 
ENDROOT
BRANCH   1   2
ATOM      2  C   UNL A   1      41.009  28.047  32.124  1.00  0.00     0.188 C 
BRANCH   2   3
ATOM      3  O   UNL A   1      41.715  28.551  33.239  1.00  0.00    -0.376 OA
BRANCH   3   4
ATOM      4  C   UNL A   1      42.268  29.858  33.212  1.00  0.00     0.202 C 
BRANCH   4   5
ATOM      5  C   UNL A   1      41.472  31.178  33.313  1.00  0.00     0.261 C 
BRANCH   5   6
ATOM      6  O   UNL A   1      40.489  31.305  34.351  1.00  0.00    -0.461 OA
BRANCH   6   7
ATOM      7  C   UNL A   1      39.192  31.093  34.002  1.00  0.00     0.334 C 
ATOM      8  O   UNL A   1      38.766  29.981  33.689  1.00  0.00    -0.249 OA
BRANCH   7   9
ATOM      9  C   UNL A   1      38.335  32.389  33.902  1.00  0.00     0.163 C 
ATOM     10  N   UNL A   1      36.272  33.499  32.218  1.00  0.00    -0.356 N 
ATOM     11  C   UNL A   1      37.513  34.233  32.297  1.00  0.00     0.121 C 
ATOM     12  C   UNL A   1      35.815  32.721  33.344  1.00  0.00     0.121 C 
ATOM     13  C   UNL A   1      38.642  33.296  32.681  1.00  0.00     0.064 C 
ATOM     14  C   UNL A   1      36.917  31.769  33.766  1.00  0.00     0.064 C 
BRANCH  10  15
ATOM     15  C   UNL A   1      35.461  33.775  31.143  1.00  0.00     0.132 A 
ATOM     16  C   UNL A   1      34.857  33.288  28.982  1.00  0.00     0.130 A 
ATOM     17  N   UNL A   1      33.949  34.276  28.936  1.00  0.00    -0.238 NA
ATOM     18  N   UNL A   1      35.646  33.038  30.037  1.00  0.00    -0.216 NA
ATOM     19  C   UNL A   1      33.776  35.000  30.055  1.00  0.00     0.043 A 
ATOM     20  C   UNL A   1      32.711  36.048  30.020  1.00  0.00     0.067 C 
ATOM     21  C   UNL A   1      34.505  34.766  31.199  1.00  0.00     0.070 A 
BRANCH  16  22
ATOM     22  C   UNL A   1      34.997  32.388  27.786  1.00  0.00     0.077 C 
BRANCH  22  23
ATOM     23  C   UNL A   1      34.830  30.900  28.108  1.00  0.00     0.005 C 
ATOM     24  C   UNL A   1      33.638  30.248  27.418  1.00  0.00     0.004 C 
ENDBRANCH  22  23
ENDBRANCH  16  22
ENDBRANCH  10  15
BRANCH   9  25
ATOM     25  N   UNL A   1      38.517  33.165  35.148  1.00  0.00    -0.255 N 
ATOM     26  C   UNL A   1      37.758  33.145  36.290  1.00  0.00     0.110 A 
ATOM     27  N   UNL A   1      39.450  34.144  35.205  1.00  0.00    -0.177 NA
ATOM     28  C   UNL A   1      38.320  34.043  37.161  1.00  0.00     0.045 A 
ATOM     29  C   UNL A   1      39.402  34.607  36.459  1.00  0.00     0.065 A 
BRANCH  29  30
ATOM     30  C   UNL A   1      40.430  35.584  36.958  1.00  0.00     0.034 C 
ATOM     31  C   UNL A   1      40.835  36.593  35.882  1.00  0.00     0.014 C 
ATOM     32  C   UNL A   1      39.922  36.314  38.206  1.00  0.00     0.014 C 
ENDBRANCH  29  30
ENDBRANCH   9  25
ENDBRANCH   7   9
ENDBRANCH   6   7
ENDBRANCH   5   6
ENDBRANCH   4   5
ENDBRANCH   3   4
ENDBRANCH   2   3
ENDBRANCH   1   2
BRANCH   1  33
ATOM     33  O   UNL A   1      40.732  28.846  29.769  1.00  0.00    -0.377 OA
BRANCH  33  34
ATOM     34  C   UNL A   1      39.674  28.050  29.251  1.00  0.00     0.188 C 
BRANCH  34  35
ATOM     35  C   UNL A   1      39.760  26.514  29.337  1.00  0.00     0.188 C 
BRANCH  35  36
ATOM     36  O   UNL A   1      40.590  25.910  28.359  1.00  0.00    -0.376 OA
BRANCH  36  37
ATOM     37  C   UNL A   1      40.007  25.308  27.213  1.00  0.00     0.202 C 
BRANCH  37  38
ATOM     38  C   UNL A   1      40.747  24.148  26.524  1.00  0.00     0.261 C 
BRANCH  38  39
ATOM     39  O   UNL A   1      41.929  23.657  27.175  1.00  0.00    -0.460 OA
BRANCH  39  40
ATOM     40  C   UNL A   1      43.075  23.609  26.469  1.00  0.00     0.338 C 
ATOM     41  O   UNL A   1      43.474  22.700  25.760  1.00  0.00    -0.246 OA
BRANCH  40  42
ATOM     42  C   UNL A   1      43.698  24.947  26.538  1.00  0.00     0.060 A 
ATOM     43  C   UNL A   1      43.877  25.674  25.354  1.00  0.00     0.016 A 
ATOM     44  C   UNL A   1      44.105  25.479  27.764  1.00  0.00     0.016 A 
ATOM     45  C   UNL A   1      44.500  26.921  25.386  1.00  0.00     0.010 A 
ATOM     46  C   UNL A   1      44.753  26.716  27.792  1.00  0.00     0.010 A 
ATOM     47  C   UNL A   1      44.986  27.424  26.598  1.00  0.00    -0.014 A 
BRANCH  47  48
ATOM     48  C   UNL A   1      45.926  28.570  26.589  1.00  0.00     0.031 A 
ATOM     49  C   UNL A   1      47.381  28.291  26.329  1.00  0.00     0.074 A 
ATOM     50  C   UNL A   1      45.500  29.831  26.778  1.00  0.00     0.049 A 
ATOM     51  N   UNL A   1      48.402  29.108  26.334  1.00  0.00    -0.248 NA
ATOM     52  C   UNL A   1      47.730  26.893  26.028  1.00  0.00     0.031 C 
ATOM     53  C   UNL A   1      44.112  30.232  26.984  1.00  0.00     0.029 A 
ATOM     54  N   UNL A   1      46.206  31.006  26.837  1.00  0.00    -0.354 N 
ATOM     55  C   UNL A   1      49.512  28.324  26.046  1.00  0.00     0.074 A 
ATOM     56  C   UNL A   1      49.046  26.962  25.905  1.00  0.00     0.031 C 
ATOM     57  C   UNL A   1      44.068  31.565  27.164  1.00  0.00     0.029 A 
ATOM     58  C   UNL A   1      45.429  32.100  27.124  1.00  0.00     0.049 A 
ATOM     59  H   UNL A   1      47.178  31.061  26.688  1.00  0.00     0.167 HD
ATOM     60  C   UNL A   1      50.803  28.707  25.908  1.00  0.00     0.037 A 
ATOM     61  C   UNL A   1      45.782  33.379  27.357  1.00  0.00     0.037 A 
ATOM     62  C   UNL A   1      51.260  30.065  26.053  1.00  0.00     0.049 A 
ATOM     63  C   UNL A   1      47.239  33.768  27.282  1.00  0.00     0.074 A 
ATOM     64  C   UNL A   1      52.544  30.560  25.917  1.00  0.00     0.029 A 
ATOM     65  N   UNL A   1      50.447  31.140  26.379  1.00  0.00    -0.354 N 
ATOM     66  N   UNL A   1      48.282  33.028  26.990  1.00  0.00    -0.248 NA
ATOM     67  C   UNL A   1      47.566  35.173  27.566  1.00  0.00     0.031 C 
ATOM     68  C   UNL A   1      52.519  31.924  26.226  1.00  0.00     0.029 A 
ATOM     69  C   UNL A   1      51.207  32.294  26.480  1.00  0.00     0.049 A 
ATOM     70  H   UNL A   1      49.473  31.091  26.516  1.00  0.00     0.167 HD
ATOM     71  C   UNL A   1      49.380  33.881  27.021  1.00  0.00     0.074 A 
ATOM     72  C   UNL A   1      48.874  35.197  27.348  1.00  0.00     0.031 C 
ATOM     73  C   UNL A   1      50.687  33.600  26.796  1.00  0.00     0.037 A 
BRANCH  60  74
ATOM     74  C   UNL A   1      51.818  27.639  25.621  1.00  0.00     0.064 A 
ATOM     75  C   UNL A   1      52.501  26.967  26.646  1.00  0.00     0.173 A 
ATOM     76  C   UNL A   1      52.093  27.266  24.295  1.00  0.00     0.173 A 
ATOM     77  F   UNL A   1      52.287  27.297  27.929  1.00  0.00    -0.203 F 
ATOM     78  C   UNL A   1      53.439  25.981  26.354  1.00  0.00     0.198 A 
ATOM     79  C   UNL A   1      53.006  26.254  24.009  1.00  0.00     0.198 A 
ATOM     80  F   UNL A   1      51.469  27.875  23.277  1.00  0.00    -0.203 F 
ATOM     81  F   UNL A   1      54.117  25.389  27.347  1.00  0.00    -0.200 F 
ATOM     82  C   UNL A   1      53.685  25.619  25.038  1.00  0.00     0.200 A 
ATOM     83  F   UNL A   1      53.231  25.898  22.738  1.00  0.00    -0.200 F 
ATOM     84  F   UNL A   1      54.581  24.663  24.760  1.00  0.00    -0.200 F 
ENDBRANCH  60  74
BRANCH  61  85
ATOM     85  C   UNL A   1      44.746  34.390  27.706  1.00  0.00     0.064 A 
ATOM     86  C   UNL A   1      44.355  34.600  29.035  1.00  0.00     0.173 A 
ATOM     87  C   UNL A   1      44.106  35.146  26.712  1.00  0.00     0.173 A 
ATOM     88  F   UNL A   1      44.917  33.882  30.019  1.00  0.00    -0.203 F 
ATOM     89  C   UNL A   1      43.349  35.510  29.355  1.00  0.00     0.198 A 
ATOM     90  C   UNL A   1      43.124  36.080  27.037  1.00  0.00     0.198 A 
ATOM     91  F   UNL A   1      44.439  34.982  25.423  1.00  0.00    -0.203 F 
ATOM     92  F   UNL A   1      42.957  35.649  30.629  1.00  0.00    -0.200 F 
ATOM     93  C   UNL A   1      42.739  36.254  28.356  1.00  0.00     0.200 A 
ATOM     94  F   UNL A   1      42.547  36.804  26.069  1.00  0.00    -0.200 F 
ATOM     95  F   UNL A   1      41.773  37.129  28.665  1.00  0.00    -0.200 F 
ENDBRANCH  61  85
BRANCH  73  96
ATOM     96  C   UNL A   1      51.663  34.744  26.845  1.00  0.00     0.064 A 
ATOM     97  C   UNL A   1      51.892  35.574  25.738  1.00  0.00     0.173 A 
ATOM     98  C   UNL A   1      52.341  35.042  28.038  1.00  0.00     0.173 A 
ATOM     99  F   UNL A   1      51.279  35.326  24.569  1.00  0.00    -0.203 F 
ATOM    100  C   UNL A   1      52.785  36.640  25.814  1.00  0.00     0.198 A 
ATOM    101  C   UNL A   1      53.204  36.131  28.121  1.00  0.00     0.198 A 
ATOM    102  F   UNL A   1      52.152  34.288  29.131  1.00  0.00    -0.203 F 
ATOM    103  F   UNL A   1      53.027  37.387  24.727  1.00  0.00    -0.200 F 
ATOM    104  C   UNL A   1      53.433  36.924  27.007  1.00  0.00     0.200 A 
ATOM    105  F   UNL A   1      53.813  36.414  29.281  1.00  0.00    -0.200 F 
ATOM    106  F   UNL A   1      54.282  37.957  27.081  1.00  0.00    -0.200 F 
ENDBRANCH  73  96
ENDBRANCH  47  48
ENDBRANCH  40  42
ENDBRANCH  39  40
ENDBRANCH  38  39
ENDBRANCH  37  38
ENDBRANCH  36  37
ENDBRANCH  35  36
ENDBRANCH  34  35
ENDBRANCH  33  34
ENDBRANCH   1  33
TORSDOF 25
ENDMDL
