MODEL 1
REMARK VINA RESULT:      -9.2      0.000      0.000
REMARK SMILES O=C(C[C@H]1c2ccccc2CCN1C(=O)Nc1ccccc1Br)OCCOCCOCCOCCOC(=O)c1ccc(-c2c3nc(c(-c4c(F)c(F)c(F)c(F)c4F)c4ccc([nH]4)c(-c4c(F)c(F)c(F)c(F)c4F)c4nc(c(-c5c(F)c(F)c(F)c(F)c5F)c5ccc2[nH]5)C=C4)C=C3)cc1
REMARK SMILES IDX 29 1 28 2 27 3 26 4 25 5 24 6 2 7 1 8 3 9 4 10 5 11 13 12
REMARK SMILES IDX 6 13 10 14 12 15 7 16 9 17 11 18 8 19 14 20 15 21 16 22
REMARK SMILES IDX 17 24 18 25 22 26 19 27 21 28 23 29 20 30 30 31 31 32 32 33
REMARK SMILES IDX 33 34 34 35 35 36 36 37 37 38 38 39 39 40 40 41 101 42 41 43
REMARK SMILES IDX 100 44 42 45 43 46 44 47 94 48 45 49 99 50 93 51 95 52 46 53
REMARK SMILES IDX 98 54 92 55 91 56 47 58 79 59 59 60 78 61 60 62 63 63 77 64
REMARK SMILES IDX 96 65 61 66 62 67 76 69 97 70 64 71 48 72 49 73 57 74 50 75
REMARK SMILES IDX 51 76 55 77 58 78 52 79 53 80 56 81 54 82 80 83 81 84 89 85
REMARK SMILES IDX 82 86 83 87 87 88 90 89 84 90 85 91 88 92 86 93 65 94 66 95
REMARK SMILES IDX 74 96 67 97 68 98 72 99 75 100 69 101 70 102 73 103 71 104
REMARK H PARENT 16 23 95 57 63 68
REMARK Flexibility Score: inf
ROOT
ATOM      1  C   UNL A   1      37.500  31.248  29.577  1.00  0.00     0.188 C 
ENDROOT
BRANCH   1   2
ATOM      2  C   UNL A   1      37.902  30.286  28.465  1.00  0.00     0.188 C 
BRANCH   2   3
ATOM      3  O   UNL A   1      36.864  29.700  27.698  1.00  0.00    -0.376 OA
BRANCH   3   4
ATOM      4  C   UNL A   1      35.477  29.687  27.969  1.00  0.00     0.202 C 
BRANCH   4   5
ATOM      5  C   UNL A   1      34.377  29.695  26.915  1.00  0.00     0.261 C 
BRANCH   5   6
ATOM      6  O   UNL A   1      34.072  28.470  26.260  1.00  0.00    -0.463 OA
BRANCH   6   7
ATOM      7  C   UNL A   1      33.091  27.623  26.632  1.00  0.00     0.308 C 
ATOM      8  O   UNL A   1      32.295  27.981  27.499  1.00  0.00    -0.252 OA
BRANCH   7   9
ATOM      9  C   UNL A   1      33.141  26.194  26.152  1.00  0.00     0.152 C 
BRANCH   9  10
ATOM     10  C   UNL A   1      31.803  25.553  25.761  1.00  0.00     0.128 C 
ATOM     11  C   UNL A   1      31.242  26.261  24.524  1.00  0.00    -0.022 A 
ATOM     12  N   UNL A   1      32.099  24.136  25.516  1.00  0.00    -0.317 N 
ATOM     13  C   UNL A   1      30.188  27.180  24.593  1.00  0.00     0.006 A 
ATOM     14  C   UNL A   1      31.863  26.037  23.283  1.00  0.00    -0.041 A 
ATOM     15  C   UNL A   1      32.332  23.769  24.101  1.00  0.00     0.127 C 
ATOM     16  C   UNL A   1      29.835  27.930  23.468  1.00  0.00     0.000 A 
ATOM     17  C   UNL A   1      31.532  26.809  22.168  1.00  0.00     0.004 A 
ATOM     18  C   UNL A   1      32.856  24.914  23.214  1.00  0.00     0.057 C 
ATOM     19  C   UNL A   1      30.522  27.762  22.265  1.00  0.00     0.000 A 
BRANCH  12  20
ATOM     20  C   UNL A   1      32.265  23.406  26.674  1.00  0.00     0.322 C 
ATOM     21  O   UNL A   1      31.382  23.391  27.541  1.00  0.00    -0.248 OA
ATOM     22  N   UNL A   1      33.420  22.773  26.987  1.00  0.00    -0.307 N 
ATOM     23  H   UNL A   1      33.513  22.513  27.932  1.00  0.00     0.171 HD
BRANCH  22  24
ATOM     24  C   UNL A   1      34.492  22.435  26.173  1.00  0.00     0.057 A 
ATOM     25  C   UNL A   1      35.560  23.335  26.162  1.00  0.00     0.027 A 
ATOM     26  C   UNL A   1      34.587  21.203  25.511  1.00  0.00     0.041 A 
ATOM     27  C   UNL A   1      36.765  22.967  25.576  1.00  0.00     0.002 A 
ATOM     28  C   UNL A   1      35.803  20.836  24.929  1.00  0.00     0.018 A 
ATOM     29  Br  UNL A   1      33.165  19.951  25.477  1.00  0.00    -0.049 Br
ATOM     30  C   UNL A   1      36.894  21.710  24.983  1.00  0.00     0.001 A 
ENDBRANCH  22  24
ENDBRANCH  12  20
ENDBRANCH   9  10
ENDBRANCH   7   9
ENDBRANCH   6   7
ENDBRANCH   5   6
ENDBRANCH   4   5
ENDBRANCH   3   4
ENDBRANCH   2   3
ENDBRANCH   1   2
BRANCH   1  31
ATOM     31  O   UNL A   1      37.540  32.619  29.201  1.00  0.00    -0.377 OA
BRANCH  31  32
ATOM     32  C   UNL A   1      38.295  33.425  30.089  1.00  0.00     0.188 C 
BRANCH  32  33
ATOM     33  C   UNL A   1      37.704  33.607  31.512  1.00  0.00     0.188 C 
BRANCH  33  34
ATOM     34  O   UNL A   1      38.507  33.889  32.646  1.00  0.00    -0.376 OA
BRANCH  34  35
ATOM     35  C   UNL A   1      37.956  34.531  33.781  1.00  0.00     0.202 C 
BRANCH  35  36
ATOM     36  C   UNL A   1      36.833  33.871  34.597  1.00  0.00     0.261 C 
BRANCH  36  37
ATOM     37  O   UNL A   1      36.860  32.440  34.658  1.00  0.00    -0.460 OA
BRANCH  37  38
ATOM     38  C   UNL A   1      37.629  31.906  35.645  1.00  0.00     0.338 C 
ATOM     39  O   UNL A   1      37.366  31.812  36.817  1.00  0.00    -0.246 OA
BRANCH  38  40
ATOM     40  C   UNL A   1      38.783  31.222  35.006  1.00  0.00     0.060 A 
ATOM     41  C   UNL A   1      40.063  31.462  35.531  1.00  0.00     0.016 A 
ATOM     42  C   UNL A   1      38.608  30.310  33.963  1.00  0.00     0.016 A 
ATOM     43  C   UNL A   1      41.173  30.809  35.004  1.00  0.00     0.010 A 
ATOM     44  C   UNL A   1      39.728  29.692  33.399  1.00  0.00     0.010 A 
ATOM     45  C   UNL A   1      41.015  29.970  33.896  1.00  0.00    -0.014 A 
BRANCH  45  46
ATOM     46  C   UNL A   1      42.205  29.639  33.079  1.00  0.00     0.031 A 
ATOM     47  C   UNL A   1      42.983  28.413  33.471  1.00  0.00     0.074 A 
ATOM     48  C   UNL A   1      42.572  30.371  32.014  1.00  0.00     0.049 A 
ATOM     49  N   UNL A   1      44.084  27.924  32.962  1.00  0.00    -0.248 NA
ATOM     50  C   UNL A   1      42.440  27.631  34.595  1.00  0.00     0.031 C 
ATOM     51  C   UNL A   1      41.866  31.544  31.507  1.00  0.00     0.029 A 
ATOM     52  N   UNL A   1      43.646  30.230  31.172  1.00  0.00    -0.354 N 
ATOM     53  C   UNL A   1      44.363  26.786  33.708  1.00  0.00     0.074 A 
ATOM     54  C   UNL A   1      43.338  26.668  34.718  1.00  0.00     0.031 C 
ATOM     55  C   UNL A   1      42.540  32.032  30.448  1.00  0.00     0.029 A 
ATOM     56  C   UNL A   1      43.738  31.222  30.226  1.00  0.00     0.049 A 
ATOM     57  H   UNL A   1      44.289  29.489  31.239  1.00  0.00     0.167 HD
ATOM     58  C   UNL A   1      45.384  25.912  33.559  1.00  0.00     0.037 A 
ATOM     59  C   UNL A   1      44.698  31.455  29.309  1.00  0.00     0.037 A 
ATOM     60  C   UNL A   1      46.410  26.040  32.561  1.00  0.00     0.049 A 
ATOM     61  C   UNL A   1      45.876  30.512  29.220  1.00  0.00     0.074 A 
ATOM     62  C   UNL A   1      47.489  25.208  32.322  1.00  0.00     0.029 A 
ATOM     63  N   UNL A   1      46.487  27.075  31.641  1.00  0.00    -0.354 N 
ATOM     64  N   UNL A   1      46.125  29.426  29.910  1.00  0.00    -0.248 NA
ATOM     65  C   UNL A   1      46.905  30.831  28.219  1.00  0.00     0.031 C 
ATOM     66  C   UNL A   1      48.251  25.770  31.294  1.00  0.00     0.029 A 
ATOM     67  C   UNL A   1      47.612  26.917  30.849  1.00  0.00     0.049 A 
ATOM     68  H   UNL A   1      45.840  27.813  31.565  1.00  0.00     0.167 HD
ATOM     69  C   UNL A   1      47.315  28.913  29.405  1.00  0.00     0.074 A 
ATOM     70  C   UNL A   1      47.733  29.803  28.343  1.00  0.00     0.031 C 
ATOM     71  C   UNL A   1      48.000  27.806  29.784  1.00  0.00     0.037 A 
BRANCH  58  72
ATOM     72  C   UNL A   1      45.457  24.766  34.522  1.00  0.00     0.064 A 
ATOM     73  C   UNL A   1      46.031  24.906  35.795  1.00  0.00     0.173 A 
ATOM     74  C   UNL A   1      44.930  23.513  34.173  1.00  0.00     0.173 A 
ATOM     75  F   UNL A   1      46.570  26.076  36.168  1.00  0.00    -0.203 F 
ATOM     76  C   UNL A   1      46.093  23.828  36.674  1.00  0.00     0.198 A 
ATOM     77  C   UNL A   1      44.965  22.447  35.066  1.00  0.00     0.198 A 
ATOM     78  F   UNL A   1      44.375  23.327  32.966  1.00  0.00    -0.203 F 
ATOM     79  F   UNL A   1      46.688  23.971  37.866  1.00  0.00    -0.200 F 
ATOM     80  C   UNL A   1      45.552  22.603  36.313  1.00  0.00     0.200 A 
ATOM     81  F   UNL A   1      44.434  21.267  34.718  1.00  0.00    -0.200 F 
ATOM     82  F   UNL A   1      45.604  21.569  37.164  1.00  0.00    -0.200 F 
ENDBRANCH  58  72
BRANCH  59  83
ATOM     83  C   UNL A   1      44.608  32.638  28.412  1.00  0.00     0.064 A 
ATOM     84  C   UNL A   1      44.177  32.510  27.084  1.00  0.00     0.173 A 
ATOM     85  C   UNL A   1      44.989  33.915  28.852  1.00  0.00     0.173 A 
ATOM     86  F   UNL A   1      43.829  31.306  26.606  1.00  0.00    -0.203 F 
ATOM     87  C   UNL A   1      44.154  33.608  26.225  1.00  0.00     0.198 A 
ATOM     88  C   UNL A   1      44.936  35.016  28.001  1.00  0.00     0.198 A 
ATOM     89  F   UNL A   1      45.416  34.092  30.111  1.00  0.00    -0.203 F 
ATOM     90  F   UNL A   1      43.791  33.446  24.945  1.00  0.00    -0.200 F 
ATOM     91  C   UNL A   1      44.528  34.860  26.685  1.00  0.00     0.200 A 
ATOM     92  F   UNL A   1      45.290  36.227  28.453  1.00  0.00    -0.200 F 
ATOM     93  F   UNL A   1      44.506  35.915  25.858  1.00  0.00    -0.200 F 
ENDBRANCH  59  83
BRANCH  71  94
ATOM     94  C   UNL A   1      49.242  27.458  29.015  1.00  0.00     0.064 A 
ATOM     95  C   UNL A   1      49.199  26.662  27.860  1.00  0.00     0.173 A 
ATOM     96  C   UNL A   1      50.486  27.976  29.409  1.00  0.00     0.173 A 
ATOM     97  F   UNL A   1      48.038  26.134  27.448  1.00  0.00    -0.203 F 
ATOM     98  C   UNL A   1      50.360  26.380  27.143  1.00  0.00     0.198 A 
ATOM     99  C   UNL A   1      51.637  27.719  28.671  1.00  0.00     0.198 A 
ATOM    100  F   UNL A   1      50.579  28.752  30.500  1.00  0.00    -0.203 F 
ATOM    101  F   UNL A   1      50.303  25.580  26.070  1.00  0.00    -0.200 F 
ATOM    102  C   UNL A   1      51.575  26.915  27.545  1.00  0.00     0.200 A 
ATOM    103  F   UNL A   1      52.807  28.253  29.050  1.00  0.00    -0.200 F 
ATOM    104  F   UNL A   1      52.688  26.651  26.847  1.00  0.00    -0.200 F 
ENDBRANCH  71  94
ENDBRANCH  45  46
ENDBRANCH  38  40
ENDBRANCH  37  38
ENDBRANCH  36  37
ENDBRANCH  35  36
ENDBRANCH  34  35
ENDBRANCH  33  34
ENDBRANCH  32  33
ENDBRANCH  31  32
ENDBRANCH   1  31
TORSDOF 23
ENDMDL
MODEL 2
REMARK VINA RESULT:      -9.2      5.068     11.994
REMARK SMILES O=C(C[C@H]1c2ccccc2CCN1C(=O)Nc1ccccc1Br)OCCOCCOCCOCCOC(=O)c1ccc(-c2c3nc(c(-c4c(F)c(F)c(F)c(F)c4F)c4ccc([nH]4)c(-c4c(F)c(F)c(F)c(F)c4F)c4nc(c(-c5c(F)c(F)c(F)c(F)c5F)c5ccc2[nH]5)C=C4)C=C3)cc1
REMARK SMILES IDX 29 1 28 2 27 3 26 4 25 5 24 6 2 7 1 8 3 9 4 10 5 11 13 12
REMARK SMILES IDX 6 13 10 14 12 15 7 16 9 17 11 18 8 19 14 20 15 21 16 22
REMARK SMILES IDX 17 24 18 25 22 26 19 27 21 28 23 29 20 30 30 31 31 32 32 33
REMARK SMILES IDX 33 34 34 35 35 36 36 37 37 38 38 39 39 40 40 41 101 42 41 43
REMARK SMILES IDX 100 44 42 45 43 46 44 47 94 48 45 49 99 50 93 51 95 52 46 53
REMARK SMILES IDX 98 54 92 55 91 56 47 58 79 59 59 60 78 61 60 62 63 63 77 64
REMARK SMILES IDX 96 65 61 66 62 67 76 69 97 70 64 71 48 72 49 73 57 74 50 75
REMARK SMILES IDX 51 76 55 77 58 78 52 79 53 80 56 81 54 82 80 83 81 84 89 85
REMARK SMILES IDX 82 86 83 87 87 88 90 89 84 90 85 91 88 92 86 93 65 94 66 95
REMARK SMILES IDX 74 96 67 97 68 98 72 99 75 100 69 101 70 102 73 103 71 104
REMARK H PARENT 16 23 95 57 63 68
REMARK Flexibility Score: inf
ROOT
ATOM      1  C   UNL A   1      41.945  25.222  26.903  1.00  0.00     0.188 C 
ENDROOT
BRANCH   1   2
ATOM      2  C   UNL A   1      40.469  25.601  26.896  1.00  0.00     0.188 C 
BRANCH   2   3
ATOM      3  O   UNL A   1      40.101  26.819  27.519  1.00  0.00    -0.376 OA
BRANCH   3   4
ATOM      4  C   UNL A   1      39.107  27.034  28.501  1.00  0.00     0.202 C 
BRANCH   4   5
ATOM      5  C   UNL A   1      38.623  28.399  28.974  1.00  0.00     0.261 C 
BRANCH   5   6
ATOM      6  O   UNL A   1      38.123  29.304  27.998  1.00  0.00    -0.463 OA
BRANCH   6   7
ATOM      7  C   UNL A   1      36.895  29.862  28.025  1.00  0.00     0.308 C 
ATOM      8  O   UNL A   1      35.928  29.184  27.682  1.00  0.00    -0.252 OA
BRANCH   7   9
ATOM      9  C   UNL A   1      36.774  31.349  28.245  1.00  0.00     0.152 C 
BRANCH   9  10
ATOM     10  C   UNL A   1      36.643  31.821  29.699  1.00  0.00     0.128 C 
ATOM     11  C   UNL A   1      38.038  31.978  30.311  1.00  0.00    -0.022 A 
ATOM     12  N   UNL A   1      35.905  33.089  29.640  1.00  0.00    -0.317 N 
ATOM     13  C   UNL A   1      38.579  31.048  31.207  1.00  0.00     0.006 A 
ATOM     14  C   UNL A   1      38.835  33.058  29.894  1.00  0.00    -0.041 A 
ATOM     15  C   UNL A   1      36.739  34.312  29.646  1.00  0.00     0.127 C 
ATOM     16  C   UNL A   1      39.919  31.143  31.594  1.00  0.00     0.000 A 
ATOM     17  C   UNL A   1      40.182  33.134  30.255  1.00  0.00     0.004 A 
ATOM     18  C   UNL A   1      38.162  34.127  29.086  1.00  0.00     0.057 C 
ATOM     19  C   UNL A   1      40.724  32.169  31.099  1.00  0.00     0.000 A 
BRANCH  12  20
ATOM     20  C   UNL A   1      34.552  32.922  29.429  1.00  0.00     0.322 C 
ATOM     21  O   UNL A   1      34.129  31.948  28.794  1.00  0.00    -0.248 OA
ATOM     22  N   UNL A   1      33.631  33.848  29.787  1.00  0.00    -0.307 N 
ATOM     23  H   UNL A   1      32.749  33.747  29.362  1.00  0.00     0.171 HD
BRANCH  22  24
ATOM     24  C   UNL A   1      33.746  34.917  30.664  1.00  0.00     0.057 A 
ATOM     25  C   UNL A   1      33.428  36.173  30.145  1.00  0.00     0.027 A 
ATOM     26  C   UNL A   1      34.017  34.755  32.031  1.00  0.00     0.041 A 
ATOM     27  C   UNL A   1      33.279  37.256  31.003  1.00  0.00     0.002 A 
ATOM     28  C   UNL A   1      33.858  35.846  32.889  1.00  0.00     0.018 A 
ATOM     29  Br  UNL A   1      34.470  33.078  32.788  1.00  0.00    -0.049 Br
ATOM     30  C   UNL A   1      33.469  37.087  32.375  1.00  0.00     0.001 A 
ENDBRANCH  22  24
ENDBRANCH  12  20
ENDBRANCH   9  10
ENDBRANCH   7   9
ENDBRANCH   6   7
ENDBRANCH   5   6
ENDBRANCH   4   5
ENDBRANCH   3   4
ENDBRANCH   2   3
ENDBRANCH   1   2
BRANCH   1  31
ATOM     31  O   UNL A   1      42.209  23.923  27.418  1.00  0.00    -0.377 OA
BRANCH  31  32
ATOM     32  C   UNL A   1      42.394  22.944  26.411  1.00  0.00     0.188 C 
BRANCH  32  33
ATOM     33  C   UNL A   1      42.883  23.467  25.034  1.00  0.00     0.188 C 
BRANCH  33  34
ATOM     34  O   UNL A   1      43.878  22.806  24.271  1.00  0.00    -0.376 OA
BRANCH  34  35
ATOM     35  C   UNL A   1      45.239  22.855  24.657  1.00  0.00     0.202 C 
BRANCH  35  36
ATOM     36  C   UNL A   1      45.856  24.143  25.224  1.00  0.00     0.261 C 
BRANCH  36  37
ATOM     37  O   UNL A   1      45.410  25.367  24.626  1.00  0.00    -0.460 OA
BRANCH  37  38
ATOM     38  C   UNL A   1      46.294  26.400  24.668  1.00  0.00     0.338 C 
ATOM     39  O   UNL A   1      47.225  26.607  23.931  1.00  0.00    -0.246 OA
BRANCH  38  40
ATOM     40  C   UNL A   1      45.788  27.396  25.649  1.00  0.00     0.060 A 
ATOM     41  C   UNL A   1      46.728  28.080  26.437  1.00  0.00     0.016 A 
ATOM     42  C   UNL A   1      44.430  27.704  25.744  1.00  0.00     0.016 A 
ATOM     43  C   UNL A   1      46.313  29.059  27.335  1.00  0.00     0.010 A 
ATOM     44  C   UNL A   1      44.007  28.652  26.681  1.00  0.00     0.010 A 
ATOM     45  C   UNL A   1      44.946  29.303  27.503  1.00  0.00    -0.014 A 
BRANCH  45  46
ATOM     46  C   UNL A   1      44.493  29.993  28.733  1.00  0.00     0.031 A 
ATOM     47  C   UNL A   1      44.344  31.488  28.660  1.00  0.00     0.074 A 
ATOM     48  C   UNL A   1      44.195  29.329  29.862  1.00  0.00     0.049 A 
ATOM     49  N   UNL A   1      44.013  32.340  29.594  1.00  0.00    -0.248 NA
ATOM     50  C   UNL A   1      44.606  32.104  27.348  1.00  0.00     0.031 C 
ATOM     51  C   UNL A   1      44.248  27.880  30.033  1.00  0.00     0.029 A 
ATOM     52  N   UNL A   1      43.794  29.802  31.086  1.00  0.00    -0.354 N 
ATOM     53  C   UNL A   1      44.034  33.587  28.983  1.00  0.00     0.074 A 
ATOM     54  C   UNL A   1      44.435  33.389  27.610  1.00  0.00     0.031 C 
ATOM     55  C   UNL A   1      43.910  27.581  31.302  1.00  0.00     0.029 A 
ATOM     56  C   UNL A   1      43.650  28.820  32.035  1.00  0.00     0.049 A 
ATOM     57  H   UNL A   1      43.625  30.754  31.266  1.00  0.00     0.167 HD
ATOM     58  C   UNL A   1      43.740  34.793  29.520  1.00  0.00     0.037 A 
ATOM     59  C   UNL A   1      43.366  28.923  33.348  1.00  0.00     0.037 A 
ATOM     60  C   UNL A   1      43.355  34.988  30.890  1.00  0.00     0.049 A 
ATOM     61  C   UNL A   1      43.126  30.290  33.945  1.00  0.00     0.074 A 
ATOM     62  C   UNL A   1      43.032  36.168  31.535  1.00  0.00     0.029 A 
ATOM     63  N   UNL A   1      43.250  33.973  31.829  1.00  0.00    -0.354 N 
ATOM     64  N   UNL A   1      43.125  31.464  33.360  1.00  0.00    -0.248 NA
ATOM     65  C   UNL A   1      42.847  30.345  35.388  1.00  0.00     0.031 C 
ATOM     66  C   UNL A   1      42.787  35.875  32.879  1.00  0.00     0.029 A 
ATOM     67  C   UNL A   1      42.893  34.504  33.058  1.00  0.00     0.049 A 
ATOM     68  H   UNL A   1      43.408  33.018  31.650  1.00  0.00     0.167 HD
ATOM     69  C   UNL A   1      42.810  32.388  34.351  1.00  0.00     0.074 A 
ATOM     70  C   UNL A   1      42.618  31.637  35.573  1.00  0.00     0.031 C 
ATOM     71  C   UNL A   1      42.690  33.736  34.258  1.00  0.00     0.037 A 
BRANCH  58  72
ATOM     72  C   UNL A   1      43.862  35.993  28.629  1.00  0.00     0.064 A 
ATOM     73  C   UNL A   1      45.095  36.623  28.402  1.00  0.00     0.173 A 
ATOM     74  C   UNL A   1      42.730  36.509  27.979  1.00  0.00     0.173 A 
ATOM     75  F   UNL A   1      46.202  36.183  29.019  1.00  0.00    -0.203 F 
ATOM     76  C   UNL A   1      45.186  37.739  27.575  1.00  0.00     0.198 A 
ATOM     77  C   UNL A   1      42.831  37.605  27.128  1.00  0.00     0.198 A 
ATOM     78  F   UNL A   1      41.528  35.945  28.167  1.00  0.00    -0.203 F 
ATOM     79  F   UNL A   1      46.365  38.354  27.411  1.00  0.00    -0.200 F 
ATOM     80  C   UNL A   1      44.057  38.223  26.931  1.00  0.00     0.200 A 
ATOM     81  F   UNL A   1      41.741  38.066  26.500  1.00  0.00    -0.200 F 
ATOM     82  F   UNL A   1      44.149  39.291  26.128  1.00  0.00    -0.200 F 
ENDBRANCH  58  72
BRANCH  59  83
ATOM     83  C   UNL A   1      43.311  27.707  34.202  1.00  0.00     0.064 A 
ATOM     84  C   UNL A   1      42.096  27.056  34.461  1.00  0.00     0.173 A 
ATOM     85  C   UNL A   1      44.466  27.192  34.810  1.00  0.00     0.173 A 
ATOM     86  F   UNL A   1      40.958  27.525  33.928  1.00  0.00    -0.203 F 
ATOM     87  C   UNL A   1      42.035  25.954  35.312  1.00  0.00     0.198 A 
ATOM     88  C   UNL A   1      44.408  26.072  35.637  1.00  0.00     0.198 A 
ATOM     89  F   UNL A   1      45.653  27.780  34.602  1.00  0.00    -0.203 F 
ATOM     90  F   UNL A   1      40.852  25.387  35.586  1.00  0.00    -0.200 F 
ATOM     91  C   UNL A   1      43.191  25.460  35.895  1.00  0.00     0.200 A 
ATOM     92  F   UNL A   1      45.530  25.592  36.191  1.00  0.00    -0.200 F 
ATOM     93  F   UNL A   1      43.132  24.401  36.715  1.00  0.00    -0.200 F 
ENDBRANCH  59  83
BRANCH  71  94
ATOM     94  C   UNL A   1      42.279  34.484  35.494  1.00  0.00     0.064 A 
ATOM     95  C   UNL A   1      43.217  34.915  36.444  1.00  0.00     0.173 A 
ATOM     96  C   UNL A   1      40.933  34.824  35.700  1.00  0.00     0.173 A 
ATOM     97  F   UNL A   1      44.514  34.607  36.300  1.00  0.00    -0.203 F 
ATOM     98  C   UNL A   1      42.818  35.637  37.566  1.00  0.00     0.198 A 
ATOM     99  C   UNL A   1      40.542  35.574  36.805  1.00  0.00     0.198 A 
ATOM    100  F   UNL A   1      39.997  34.445  34.815  1.00  0.00    -0.203 F 
ATOM    101  F   UNL A   1      43.724  35.999  38.484  1.00  0.00    -0.200 F 
ATOM    102  C   UNL A   1      41.483  35.973  37.741  1.00  0.00     0.200 A 
ATOM    103  F   UNL A   1      39.255  35.913  36.962  1.00  0.00    -0.200 F 
ATOM    104  F   UNL A   1      41.103  36.677  38.816  1.00  0.00    -0.200 F 
ENDBRANCH  71  94
ENDBRANCH  45  46
ENDBRANCH  38  40
ENDBRANCH  37  38
ENDBRANCH  36  37
ENDBRANCH  35  36
ENDBRANCH  34  35
ENDBRANCH  33  34
ENDBRANCH  32  33
ENDBRANCH  31  32
ENDBRANCH   1  31
TORSDOF 23
ENDMDL
MODEL 3
REMARK VINA RESULT:      -9.2      4.694      7.785
REMARK SMILES O=C(C[C@H]1c2ccccc2CCN1C(=O)Nc1ccccc1Br)OCCOCCOCCOCCOC(=O)c1ccc(-c2c3nc(c(-c4c(F)c(F)c(F)c(F)c4F)c4ccc([nH]4)c(-c4c(F)c(F)c(F)c(F)c4F)c4nc(c(-c5c(F)c(F)c(F)c(F)c5F)c5ccc2[nH]5)C=C4)C=C3)cc1
REMARK SMILES IDX 29 1 28 2 27 3 26 4 25 5 24 6 2 7 1 8 3 9 4 10 5 11 13 12
REMARK SMILES IDX 6 13 10 14 12 15 7 16 9 17 11 18 8 19 14 20 15 21 16 22
REMARK SMILES IDX 17 24 18 25 22 26 19 27 21 28 23 29 20 30 30 31 31 32 32 33
REMARK SMILES IDX 33 34 34 35 35 36 36 37 37 38 38 39 39 40 40 41 101 42 41 43
REMARK SMILES IDX 100 44 42 45 43 46 44 47 94 48 45 49 99 50 93 51 95 52 46 53
REMARK SMILES IDX 98 54 92 55 91 56 47 58 79 59 59 60 78 61 60 62 63 63 77 64
REMARK SMILES IDX 96 65 61 66 62 67 76 69 97 70 64 71 48 72 49 73 57 74 50 75
REMARK SMILES IDX 51 76 55 77 58 78 52 79 53 80 56 81 54 82 80 83 81 84 89 85
REMARK SMILES IDX 82 86 83 87 87 88 90 89 84 90 85 91 88 92 86 93 65 94 66 95
REMARK SMILES IDX 74 96 67 97 68 98 72 99 75 100 69 101 70 102 73 103 71 104
REMARK H PARENT 16 23 95 57 63 68
REMARK Flexibility Score: inf
ROOT
ATOM      1  C   UNL A   1      38.908  29.248  29.610  1.00  0.00     0.188 C 
ENDROOT
BRANCH   1   2
ATOM      2  C   UNL A   1      38.071  29.519  28.366  1.00  0.00     0.188 C 
BRANCH   2   3
ATOM      3  O   UNL A   1      36.661  29.516  28.511  1.00  0.00    -0.376 OA
BRANCH   3   4
ATOM      4  C   UNL A   1      35.711  30.316  27.838  1.00  0.00     0.202 C 
BRANCH   4   5
ATOM      5  C   UNL A   1      34.459  29.795  27.144  1.00  0.00     0.261 C 
BRANCH   5   6
ATOM      6  O   UNL A   1      34.404  28.412  26.818  1.00  0.00    -0.463 OA
BRANCH   6   7
ATOM      7  C   UNL A   1      33.271  27.683  26.749  1.00  0.00     0.308 C 
ATOM      8  O   UNL A   1      32.305  28.022  27.429  1.00  0.00    -0.252 OA
BRANCH   7   9
ATOM      9  C   UNL A   1      33.301  26.356  26.031  1.00  0.00     0.152 C 
BRANCH   9  10
ATOM     10  C   UNL A   1      31.943  25.712  25.722  1.00  0.00     0.128 C 
ATOM     11  C   UNL A   1      31.324  26.393  24.498  1.00  0.00    -0.022 A 
ATOM     12  N   UNL A   1      32.223  24.288  25.496  1.00  0.00    -0.317 N 
ATOM     13  C   UNL A   1      30.278  27.318  24.597  1.00  0.00     0.006 A 
ATOM     14  C   UNL A   1      31.882  26.137  23.233  1.00  0.00    -0.041 A 
ATOM     15  C   UNL A   1      32.385  23.888  24.080  1.00  0.00     0.127 C 
ATOM     16  C   UNL A   1      29.871  28.043  23.473  1.00  0.00     0.000 A 
ATOM     17  C   UNL A   1      31.499  26.884  22.118  1.00  0.00     0.004 A 
ATOM     18  C   UNL A   1      32.867  25.010  23.142  1.00  0.00     0.057 C 
ATOM     19  C   UNL A   1      30.498  27.844  22.242  1.00  0.00     0.000 A 
BRANCH  12  20
ATOM     20  C   UNL A   1      32.444  23.585  26.661  1.00  0.00     0.322 C 
ATOM     21  O   UNL A   1      31.590  23.566  27.557  1.00  0.00    -0.248 OA
ATOM     22  N   UNL A   1      33.623  22.985  26.948  1.00  0.00    -0.307 N 
ATOM     23  H   UNL A   1      33.753  22.746  27.894  1.00  0.00     0.171 HD
BRANCH  22  24
ATOM     24  C   UNL A   1      34.676  22.657  26.106  1.00  0.00     0.057 A 
ATOM     25  C   UNL A   1      35.729  23.572  26.055  1.00  0.00     0.027 A 
ATOM     26  C   UNL A   1      34.771  21.420  25.451  1.00  0.00     0.041 A 
ATOM     27  C   UNL A   1      36.922  23.217  25.437  1.00  0.00     0.002 A 
ATOM     28  C   UNL A   1      35.975  21.067  24.837  1.00  0.00     0.018 A 
ATOM     29  Br  UNL A   1      33.368  20.147  25.469  1.00  0.00    -0.049 Br
ATOM     30  C   UNL A   1      37.054  21.957  24.851  1.00  0.00     0.001 A 
ENDBRANCH  22  24
ENDBRANCH  12  20
ENDBRANCH   9  10
ENDBRANCH   7   9
ENDBRANCH   6   7
ENDBRANCH   5   6
ENDBRANCH   4   5
ENDBRANCH   3   4
ENDBRANCH   2   3
ENDBRANCH   1   2
BRANCH   1  31
ATOM     31  O   UNL A   1      40.016  28.384  29.388  1.00  0.00    -0.377 OA
BRANCH  31  32
ATOM     32  C   UNL A   1      39.800  27.447  28.347  1.00  0.00     0.188 C 
BRANCH  32  33
ATOM     33  C   UNL A   1      39.357  26.028  28.790  1.00  0.00     0.188 C 
BRANCH  33  34
ATOM     34  O   UNL A   1      39.384  24.908  27.920  1.00  0.00    -0.376 OA
BRANCH  34  35
ATOM     35  C   UNL A   1      40.598  24.234  27.644  1.00  0.00     0.202 C 
BRANCH  35  36
ATOM     36  C   UNL A   1      41.387  24.520  26.357  1.00  0.00     0.261 C 
BRANCH  36  37
ATOM     37  O   UNL A   1      42.179  23.437  25.853  1.00  0.00    -0.460 OA
BRANCH  37  38
ATOM     38  C   UNL A   1      43.426  23.321  26.383  1.00  0.00     0.338 C 
ATOM     39  O   UNL A   1      44.062  22.313  26.561  1.00  0.00    -0.246 OA
BRANCH  38  40
ATOM     40  C   UNL A   1      44.002  24.686  26.498  1.00  0.00     0.060 A 
ATOM     41  C   UNL A   1      44.170  25.430  25.319  1.00  0.00     0.016 A 
ATOM     42  C   UNL A   1      44.303  25.252  27.738  1.00  0.00     0.016 A 
ATOM     43  C   UNL A   1      44.658  26.733  25.373  1.00  0.00     0.010 A 
ATOM     44  C   UNL A   1      44.840  26.541  27.790  1.00  0.00     0.010 A 
ATOM     45  C   UNL A   1      45.052  27.269  26.604  1.00  0.00    -0.014 A 
BRANCH  45  46
ATOM     46  C   UNL A   1      45.958  28.440  26.612  1.00  0.00     0.031 A 
ATOM     47  C   UNL A   1      47.419  28.175  26.375  1.00  0.00     0.074 A 
ATOM     48  C   UNL A   1      45.509  29.694  26.791  1.00  0.00     0.049 A 
ATOM     49  N   UNL A   1      48.429  29.004  26.377  1.00  0.00    -0.248 NA
ATOM     50  C   UNL A   1      47.789  26.776  26.097  1.00  0.00     0.031 C 
ATOM     51  C   UNL A   1      44.113  30.078  26.973  1.00  0.00     0.029 A 
ATOM     52  N   UNL A   1      46.199  30.879  26.855  1.00  0.00    -0.354 N 
ATOM     53  C   UNL A   1      49.548  28.226  26.108  1.00  0.00     0.074 A 
ATOM     54  C   UNL A   1      49.102  26.859  25.974  1.00  0.00     0.031 C 
ATOM     55  C   UNL A   1      44.049  31.411  27.150  1.00  0.00     0.029 A 
ATOM     56  C   UNL A   1      45.403  31.965  27.124  1.00  0.00     0.049 A 
ATOM     57  H   UNL A   1      47.172  30.944  26.721  1.00  0.00     0.167 HD
ATOM     58  C   UNL A   1      50.835  28.620  25.979  1.00  0.00     0.037 A 
ATOM     59  C   UNL A   1      45.743  33.250  27.348  1.00  0.00     0.037 A 
ATOM     60  C   UNL A   1      51.278  29.979  26.126  1.00  0.00     0.049 A 
ATOM     61  C   UNL A   1      47.198  33.650  27.284  1.00  0.00     0.074 A 
ATOM     62  C   UNL A   1      52.559  30.486  26.012  1.00  0.00     0.029 A 
ATOM     63  N   UNL A   1      50.447  31.047  26.430  1.00  0.00    -0.354 N 
ATOM     64  N   UNL A   1      48.250  32.917  27.008  1.00  0.00    -0.248 NA
ATOM     65  C   UNL A   1      47.512  35.059  27.563  1.00  0.00     0.031 C 
ATOM     66  C   UNL A   1      52.513  31.852  26.303  1.00  0.00     0.029 A 
ATOM     67  C   UNL A   1      51.193  32.209  26.534  1.00  0.00     0.049 A 
ATOM     68  H   UNL A   1      49.472  30.987  26.555  1.00  0.00     0.167 HD
ATOM     69  C   UNL A   1      49.340  33.779  27.043  1.00  0.00     0.074 A 
ATOM     70  C   UNL A   1      48.821  35.093  27.359  1.00  0.00     0.031 C 
ATOM     71  C   UNL A   1      50.653  33.510  26.832  1.00  0.00     0.037 A 
BRANCH  58  72
ATOM     72  C   UNL A   1      51.856  27.558  25.700  1.00  0.00     0.064 A 
ATOM     73  C   UNL A   1      52.553  26.913  26.734  1.00  0.00     0.173 A 
ATOM     74  C   UNL A   1      52.129  27.168  24.380  1.00  0.00     0.173 A 
ATOM     75  F   UNL A   1      52.345  27.266  28.011  1.00  0.00    -0.203 F 
ATOM     76  C   UNL A   1      53.501  25.932  26.454  1.00  0.00     0.198 A 
ATOM     77  C   UNL A   1      53.054  26.165  24.106  1.00  0.00     0.198 A 
ATOM     78  F   UNL A   1      51.494  27.758  23.357  1.00  0.00    -0.203 F 
ATOM     79  F   UNL A   1      54.188  25.363  27.453  1.00  0.00    -0.200 F 
ATOM     80  C   UNL A   1      53.744  25.552  25.142  1.00  0.00     0.200 A 
ATOM     81  F   UNL A   1      53.281  25.794  22.839  1.00  0.00    -0.200 F 
ATOM     82  F   UNL A   1      54.649  24.602  24.876  1.00  0.00    -0.200 F 
ENDBRANCH  58  72
BRANCH  59  83
ATOM     83  C   UNL A   1      44.697  34.256  27.676  1.00  0.00     0.064 A 
ATOM     84  C   UNL A   1      44.304  34.489  29.002  1.00  0.00     0.173 A 
ATOM     85  C   UNL A   1      44.041  34.978  26.667  1.00  0.00     0.173 A 
ATOM     86  F   UNL A   1      44.880  33.803  30.001  1.00  0.00    -0.203 F 
ATOM     87  C   UNL A   1      43.281  35.385  29.303  1.00  0.00     0.198 A 
ATOM     88  C   UNL A   1      43.039  35.897  26.973  1.00  0.00     0.198 A 
ATOM     89  F   UNL A   1      44.373  34.790  25.382  1.00  0.00    -0.203 F 
ATOM     90  F   UNL A   1      42.888  35.546  30.575  1.00  0.00    -0.200 F 
ATOM     91  C   UNL A   1      42.653  36.092  28.290  1.00  0.00     0.200 A 
ATOM     92  F   UNL A   1      42.441  36.585  25.991  1.00  0.00    -0.200 F 
ATOM     93  F   UNL A   1      41.668  36.953  28.581  1.00  0.00    -0.200 F 
ENDBRANCH  59  83
BRANCH  71  94
ATOM     94  C   UNL A   1      51.616  34.661  26.879  1.00  0.00     0.064 A 
ATOM     95  C   UNL A   1      51.887  35.446  25.749  1.00  0.00     0.173 A 
ATOM     96  C   UNL A   1      52.233  35.017  28.089  1.00  0.00     0.173 A 
ATOM     97  F   UNL A   1      51.332  35.142  24.566  1.00  0.00    -0.203 F 
ATOM     98  C   UNL A   1      52.759  36.530  25.824  1.00  0.00     0.198 A 
ATOM     99  C   UNL A   1      53.077  36.120  28.167  1.00  0.00     0.198 A 
ATOM    100  F   UNL A   1      51.998  34.305  29.202  1.00  0.00    -0.203 F 
ATOM    101  F   UNL A   1      53.040  37.238  24.721  1.00  0.00    -0.200 F 
ATOM    102  C   UNL A   1      53.346  36.871  27.034  1.00  0.00     0.200 A 
ATOM    103  F   UNL A   1      53.628  36.459  29.342  1.00  0.00    -0.200 F 
ATOM    104  F   UNL A   1      54.176  37.921  27.105  1.00  0.00    -0.200 F 
ENDBRANCH  71  94
ENDBRANCH  45  46
ENDBRANCH  38  40
ENDBRANCH  37  38
ENDBRANCH  36  37
ENDBRANCH  35  36
ENDBRANCH  34  35
ENDBRANCH  33  34
ENDBRANCH  32  33
ENDBRANCH  31  32
ENDBRANCH   1  31
TORSDOF 23
ENDMDL
