MODEL 1
REMARK VINA RESULT:     -10.6      0.000      0.000
REMARK SMILES Cc1cccc(-c2cc(OCC(=O)OCCOCCOCCOCCOC(=O)c3ccc(-c4c5nc(c(-c6c(F)c(F)c(F)c(F)c6F)c6ccc([nH]6)c(-c6c(F)c(F)c(F)c(F)c6F)c6nc(c(-c7c(F)c(F)c(F)c(F)c7F)c7ccc4[nH]7)C=C6)C=C5)cc3)ncn2)c1
REMARK SMILES IDX 19 1 18 2 17 3 16 4 15 5 14 6 12 7 13 8 11 9 10 10 9 11 7 12
REMARK SMILES IDX 8 13 94 14 93 15 92 16 6 17 1 18 2 19 3 20 95 21 4 22 5 23
REMARK SMILES IDX 20 24 21 25 22 26 23 27 24 28 25 29 26 30 27 31 28 32 29 33
REMARK SMILES IDX 30 34 91 35 31 36 90 37 32 38 33 39 34 40 84 41 35 42 89 43
REMARK SMILES IDX 83 44 85 45 36 46 88 47 82 48 81 49 37 51 69 52 49 53 68 54
REMARK SMILES IDX 50 55 53 56 67 57 86 58 51 59 52 60 66 62 87 63 54 64 38 65
REMARK SMILES IDX 39 66 47 67 40 68 41 69 45 70 48 71 42 72 43 73 46 74 44 75
REMARK SMILES IDX 70 76 71 77 79 78 72 79 73 80 77 81 80 82 74 83 75 84 78 85
REMARK SMILES IDX 76 86 55 87 56 88 64 89 57 90 58 91 62 92 65 93 59 94 60 95
REMARK SMILES IDX 63 96 61 97
REMARK H PARENT 85 50 53 61
REMARK Flexibility Score: inf
ROOT
ATOM      1  C   UNL A   1      32.427  29.743  25.436  1.00  0.00     0.188 C 
ENDROOT
BRANCH   1   2
ATOM      2  C   UNL A   1      33.121  29.202  24.169  1.00  0.00     0.188 C 
BRANCH   2   3
ATOM      3  O   UNL A   1      32.441  28.489  23.157  1.00  0.00    -0.376 OA
BRANCH   3   4
ATOM      4  C   UNL A   1      31.073  28.882  22.927  1.00  0.00     0.202 C 
BRANCH   4   5
ATOM      5  C   UNL A   1      29.967  27.871  23.226  1.00  0.00     0.261 C 
BRANCH   5   6
ATOM      6  O   UNL A   1      30.058  27.303  24.526  1.00  0.00    -0.461 OA
BRANCH   6   7
ATOM      7  C   UNL A   1      30.090  25.954  24.578  1.00  0.00     0.344 C 
ATOM      8  O   UNL A   1      30.178  25.211  23.611  1.00  0.00    -0.248 OA
BRANCH   7   9
ATOM      9  C   UNL A   1      30.096  25.500  26.030  1.00  0.00     0.353 C 
BRANCH   9  10
ATOM     10  O   UNL A   1      31.161  24.865  26.703  1.00  0.00    -0.466 OA
BRANCH  10  11
ATOM     11  C   UNL A   1      31.981  23.913  26.197  1.00  0.00     0.217 A 
ATOM     12  C   UNL A   1      33.978  22.824  25.539  1.00  0.00     0.077 A 
ATOM     13  C   UNL A   1      33.348  23.980  26.004  1.00  0.00     0.097 A 
ATOM     14  N   UNL A   1      33.282  21.719  25.201  1.00  0.00    -0.236 NA
ATOM     15  C   UNL A   1      31.962  21.772  25.382  1.00  0.00     0.226 A 
ATOM     16  N   UNL A   1      31.283  22.807  25.888  1.00  0.00    -0.202 NA
BRANCH  12  17
ATOM     17  C   UNL A   1      35.445  22.630  25.505  1.00  0.00     0.001 A 
ATOM     18  C   UNL A   1      38.620  24.451  26.694  1.00  0.00     0.044 C 
ATOM     19  C   UNL A   1      37.721  23.393  26.122  1.00  0.00    -0.050 A 
ATOM     20  C   UNL A   1      38.246  22.202  25.637  1.00  0.00     0.003 A 
ATOM     21  C   UNL A   1      36.331  23.569  26.068  1.00  0.00     0.013 A 
ATOM     22  C   UNL A   1      37.394  21.224  25.122  1.00  0.00     0.001 A 
ATOM     23  C   UNL A   1      36.011  21.438  25.052  1.00  0.00     0.010 A 
ENDBRANCH  12  17
ENDBRANCH  10  11
ENDBRANCH   9  10
ENDBRANCH   7   9
ENDBRANCH   6   7
ENDBRANCH   5   6
ENDBRANCH   4   5
ENDBRANCH   3   4
ENDBRANCH   2   3
ENDBRANCH   1   2
BRANCH   1  24
ATOM     24  O   UNL A   1      33.148  30.002  26.625  1.00  0.00    -0.377 OA
BRANCH  24  25
ATOM     25  C   UNL A   1      32.832  31.229  27.251  1.00  0.00     0.188 C 
BRANCH  25  26
ATOM     26  C   UNL A   1      31.616  31.960  26.737  1.00  0.00     0.188 C 
BRANCH  26  27
ATOM     27  O   UNL A   1      31.777  33.326  27.110  1.00  0.00    -0.376 OA
BRANCH  27  28
ATOM     28  C   UNL A   1      32.914  33.594  27.924  1.00  0.00     0.202 C 
BRANCH  28  29
ATOM     29  C   UNL A   1      33.087  35.081  28.282  1.00  0.00     0.261 C 
BRANCH  29  30
ATOM     30  O   UNL A   1      34.181  35.212  29.218  1.00  0.00    -0.460 OA
BRANCH  30  31
ATOM     31  C   UNL A   1      34.054  34.561  30.404  1.00  0.00     0.338 C 
ATOM     32  O   UNL A   1      33.497  35.007  31.405  1.00  0.00    -0.246 OA
BRANCH  31  33
ATOM     33  C   UNL A   1      34.939  33.354  30.422  1.00  0.00     0.060 A 
ATOM     34  C   UNL A   1      34.740  32.329  31.369  1.00  0.00     0.016 A 
ATOM     35  C   UNL A   1      36.134  33.392  29.713  1.00  0.00     0.016 A 
ATOM     36  C   UNL A   1      35.785  31.436  31.707  1.00  0.00     0.010 A 
ATOM     37  C   UNL A   1      37.170  32.551  30.095  1.00  0.00     0.010 A 
ATOM     38  C   UNL A   1      37.040  31.582  31.114  1.00  0.00    -0.014 A 
BRANCH  38  39
ATOM     39  C   UNL A   1      38.328  30.972  31.563  1.00  0.00     0.031 A 
ATOM     40  C   UNL A   1      38.846  29.749  30.832  1.00  0.00     0.074 A 
ATOM     41  C   UNL A   1      39.219  31.743  32.245  1.00  0.00     0.049 A 
ATOM     42  N   UNL A   1      40.035  29.239  30.908  1.00  0.00    -0.248 NA
ATOM     43  C   UNL A   1      38.017  29.005  29.891  1.00  0.00     0.031 C 
ATOM     44  C   UNL A   1      40.656  31.732  32.004  1.00  0.00     0.029 A 
ATOM     45  N   UNL A   1      39.081  32.851  33.080  1.00  0.00    -0.354 N 
ATOM     46  C   UNL A   1      40.237  28.348  29.863  1.00  0.00     0.074 A 
ATOM     47  C   UNL A   1      38.908  28.188  29.319  1.00  0.00     0.031 C 
ATOM     48  C   UNL A   1      41.268  32.770  32.578  1.00  0.00     0.029 A 
ATOM     49  C   UNL A   1      40.357  33.247  33.567  1.00  0.00     0.049 A 
ATOM     50  H   UNL A   1      38.229  33.293  33.300  1.00  0.00     0.167 HD
ATOM     51  C   UNL A   1      41.515  27.939  29.535  1.00  0.00     0.037 A 
ATOM     52  C   UNL A   1      40.636  33.151  34.898  1.00  0.00     0.037 A 
ATOM     53  C   UNL A   1      42.539  28.452  30.506  1.00  0.00     0.049 A 
ATOM     54  C   UNL A   1      41.396  31.853  35.200  1.00  0.00     0.074 A 
ATOM     55  C   UNL A   1      43.807  29.026  30.457  1.00  0.00     0.029 A 
ATOM     56  N   UNL A   1      42.202  28.534  31.858  1.00  0.00    -0.354 N 
ATOM     57  N   UNL A   1      42.181  31.217  34.354  1.00  0.00    -0.248 NA
ATOM     58  C   UNL A   1      41.241  31.115  36.447  1.00  0.00     0.031 C 
ATOM     59  C   UNL A   1      44.196  29.441  31.777  1.00  0.00     0.029 A 
ATOM     60  C   UNL A   1      43.193  29.074  32.651  1.00  0.00     0.049 A 
ATOM     61  H   UNL A   1      41.335  28.232  32.213  1.00  0.00     0.167 HD
ATOM     62  C   UNL A   1      42.450  29.955  34.821  1.00  0.00     0.074 A 
ATOM     63  C   UNL A   1      41.883  29.969  36.164  1.00  0.00     0.031 C 
ATOM     64  C   UNL A   1      43.031  28.941  34.093  1.00  0.00     0.037 A 
BRANCH  51  65
ATOM     65  C   UNL A   1      41.922  27.145  28.250  1.00  0.00     0.064 A 
ATOM     66  C   UNL A   1      42.039  27.787  26.988  1.00  0.00     0.173 A 
ATOM     67  C   UNL A   1      42.178  25.756  28.161  1.00  0.00     0.173 A 
ATOM     68  F   UNL A   1      41.944  29.114  26.862  1.00  0.00    -0.203 F 
ATOM     69  C   UNL A   1      42.293  27.106  25.780  1.00  0.00     0.198 A 
ATOM     70  C   UNL A   1      42.471  25.078  26.962  1.00  0.00     0.198 A 
ATOM     71  F   UNL A   1      42.172  24.952  29.219  1.00  0.00    -0.203 F 
ATOM     72  F   UNL A   1      42.335  27.790  24.628  1.00  0.00    -0.200 F 
ATOM     73  C   UNL A   1      42.509  25.749  25.766  1.00  0.00     0.200 A 
ATOM     74  F   UNL A   1      42.712  23.759  26.993  1.00  0.00    -0.200 F 
ATOM     75  F   UNL A   1      42.768  25.099  24.624  1.00  0.00    -0.200 F 
ENDBRANCH  51  65
BRANCH  52  76
ATOM     76  C   UNL A   1      39.584  33.934  35.635  1.00  0.00     0.064 A 
ATOM     77  C   UNL A   1      38.715  33.098  36.387  1.00  0.00     0.173 A 
ATOM     78  C   UNL A   1      39.922  35.172  36.206  1.00  0.00     0.173 A 
ATOM     79  F   UNL A   1      38.311  31.925  35.872  1.00  0.00    -0.203 F 
ATOM     80  C   UNL A   1      38.474  33.340  37.740  1.00  0.00     0.198 A 
ATOM     81  C   UNL A   1      39.676  35.409  37.567  1.00  0.00     0.198 A 
ATOM     82  F   UNL A   1      40.707  36.027  35.536  1.00  0.00    -0.203 F 
ATOM     83  F   UNL A   1      37.849  32.418  38.487  1.00  0.00    -0.200 F 
ATOM     84  C   UNL A   1      39.008  34.466  38.341  1.00  0.00     0.200 A 
ATOM     85  F   UNL A   1      40.222  36.478  38.165  1.00  0.00    -0.200 F 
ATOM     86  F   UNL A   1      38.951  34.607  39.675  1.00  0.00    -0.200 F 
ENDBRANCH  52  76
BRANCH  64  87
ATOM     87  C   UNL A   1      43.377  27.591  34.692  1.00  0.00     0.064 A 
ATOM     88  C   UNL A   1      44.688  27.253  35.049  1.00  0.00     0.173 A 
ATOM     89  C   UNL A   1      42.421  26.557  34.857  1.00  0.00     0.173 A 
ATOM     90  F   UNL A   1      45.713  28.065  34.750  1.00  0.00    -0.203 F 
ATOM     91  C   UNL A   1      44.986  26.058  35.706  1.00  0.00     0.198 A 
ATOM     92  C   UNL A   1      42.729  25.343  35.462  1.00  0.00     0.198 A 
ATOM     93  F   UNL A   1      41.151  26.673  34.447  1.00  0.00    -0.203 F 
ATOM     94  F   UNL A   1      46.236  25.832  36.129  1.00  0.00    -0.200 F 
ATOM     95  C   UNL A   1      44.003  25.112  35.929  1.00  0.00     0.200 A 
ATOM     96  F   UNL A   1      41.777  24.409  35.599  1.00  0.00    -0.200 F 
ATOM     97  F   UNL A   1      44.286  23.974  36.576  1.00  0.00    -0.200 F 
ENDBRANCH  64  87
ENDBRANCH  38  39
ENDBRANCH  31  33
ENDBRANCH  30  31
ENDBRANCH  29  30
ENDBRANCH  28  29
ENDBRANCH  27  28
ENDBRANCH  26  27
ENDBRANCH  25  26
ENDBRANCH  24  25
ENDBRANCH   1  24
TORSDOF 23
ENDMDL
MODEL 2
REMARK VINA RESULT:      -9.9      1.865      3.744
REMARK SMILES Cc1cccc(-c2cc(OCC(=O)OCCOCCOCCOCCOC(=O)c3ccc(-c4c5nc(c(-c6c(F)c(F)c(F)c(F)c6F)c6ccc([nH]6)c(-c6c(F)c(F)c(F)c(F)c6F)c6nc(c(-c7c(F)c(F)c(F)c(F)c7F)c7ccc4[nH]7)C=C6)C=C5)cc3)ncn2)c1
REMARK SMILES IDX 19 1 18 2 17 3 16 4 15 5 14 6 12 7 13 8 11 9 10 10 9 11 7 12
REMARK SMILES IDX 8 13 94 14 93 15 92 16 6 17 1 18 2 19 3 20 95 21 4 22 5 23
REMARK SMILES IDX 20 24 21 25 22 26 23 27 24 28 25 29 26 30 27 31 28 32 29 33
REMARK SMILES IDX 30 34 91 35 31 36 90 37 32 38 33 39 34 40 84 41 35 42 89 43
REMARK SMILES IDX 83 44 85 45 36 46 88 47 82 48 81 49 37 51 69 52 49 53 68 54
REMARK SMILES IDX 50 55 53 56 67 57 86 58 51 59 52 60 66 62 87 63 54 64 38 65
REMARK SMILES IDX 39 66 47 67 40 68 41 69 45 70 48 71 42 72 43 73 46 74 44 75
REMARK SMILES IDX 70 76 71 77 79 78 72 79 73 80 77 81 80 82 74 83 75 84 78 85
REMARK SMILES IDX 76 86 55 87 56 88 64 89 57 90 58 91 62 92 65 93 59 94 60 95
REMARK SMILES IDX 63 96 61 97
REMARK H PARENT 85 50 53 61
REMARK Flexibility Score: inf
ROOT
ATOM      1  C   UNL A   1      33.117  24.907  26.190  1.00  0.00     0.188 C 
ENDROOT
BRANCH   1   2
ATOM      2  C   UNL A   1      32.064  23.876  26.646  1.00  0.00     0.188 C 
BRANCH   2   3
ATOM      3  O   UNL A   1      32.308  22.909  27.647  1.00  0.00    -0.376 OA
BRANCH   3   4
ATOM      4  C   UNL A   1      33.695  22.652  27.942  1.00  0.00     0.202 C 
BRANCH   4   5
ATOM      5  C   UNL A   1      34.388  21.495  27.222  1.00  0.00     0.261 C 
BRANCH   5   6
ATOM      6  O   UNL A   1      35.465  21.911  26.391  1.00  0.00    -0.461 OA
BRANCH   6   7
ATOM      7  C   UNL A   1      35.636  21.206  25.253  1.00  0.00     0.344 C 
ATOM      8  O   UNL A   1      36.363  21.528  24.324  1.00  0.00    -0.248 OA
BRANCH   7   9
ATOM      9  C   UNL A   1      34.861  19.899  25.341  1.00  0.00     0.353 C 
BRANCH   9  10
ATOM     10  O   UNL A   1      33.600  19.635  24.766  1.00  0.00    -0.466 OA
BRANCH  10  11
ATOM     11  C   UNL A   1      32.913  20.443  23.923  1.00  0.00     0.217 A 
ATOM     12  C   UNL A   1      31.973  22.416  23.011  1.00  0.00     0.077 A 
ATOM     13  C   UNL A   1      32.633  21.788  24.070  1.00  0.00     0.097 A 
ATOM     14  N   UNL A   1      31.543  21.731  21.932  1.00  0.00    -0.236 NA
ATOM     15  C   UNL A   1      31.825  20.427  21.907  1.00  0.00     0.226 A 
ATOM     16  N   UNL A   1      32.512  19.757  22.838  1.00  0.00    -0.202 NA
BRANCH  12  17
ATOM     17  C   UNL A   1      31.808  23.881  22.884  1.00  0.00     0.001 A 
ATOM     18  C   UNL A   1      29.231  26.582  23.815  1.00  0.00     0.044 C 
ATOM     19  C   UNL A   1      30.495  25.935  23.329  1.00  0.00    -0.050 A 
ATOM     20  C   UNL A   1      31.542  26.705  22.838  1.00  0.00     0.003 A 
ATOM     21  C   UNL A   1      30.662  24.543  23.364  1.00  0.00     0.013 A 
ATOM     22  C   UNL A   1      32.717  26.087  22.404  1.00  0.00     0.001 A 
ATOM     23  C   UNL A   1      32.846  24.692  22.422  1.00  0.00     0.010 A 
ENDBRANCH  12  17
ENDBRANCH  10  11
ENDBRANCH   9  10
ENDBRANCH   7   9
ENDBRANCH   6   7
ENDBRANCH   5   6
ENDBRANCH   4   5
ENDBRANCH   3   4
ENDBRANCH   2   3
ENDBRANCH   1   2
BRANCH   1  24
ATOM     24  O   UNL A   1      32.808  26.283  26.075  1.00  0.00    -0.377 OA
BRANCH  24  25
ATOM     25  C   UNL A   1      31.643  26.685  26.765  1.00  0.00     0.188 C 
BRANCH  25  26
ATOM     26  C   UNL A   1      31.580  28.125  27.211  1.00  0.00     0.188 C 
BRANCH  26  27
ATOM     27  O   UNL A   1      31.678  28.919  26.031  1.00  0.00    -0.376 OA
BRANCH  27  28
ATOM     28  C   UNL A   1      31.855  30.313  26.262  1.00  0.00     0.202 C 
BRANCH  28  29
ATOM     29  C   UNL A   1      33.306  30.710  26.589  1.00  0.00     0.261 C 
BRANCH  29  30
ATOM     30  O   UNL A   1      33.370  31.152  27.965  1.00  0.00    -0.460 OA
BRANCH  30  31
ATOM     31  C   UNL A   1      33.680  32.457  28.176  1.00  0.00     0.338 C 
ATOM     32  O   UNL A   1      33.112  33.417  27.658  1.00  0.00    -0.246 OA
BRANCH  31  33
ATOM     33  C   UNL A   1      34.991  32.563  28.889  1.00  0.00     0.060 A 
ATOM     34  C   UNL A   1      36.178  32.842  28.181  1.00  0.00     0.016 A 
ATOM     35  C   UNL A   1      35.084  32.085  30.191  1.00  0.00     0.016 A 
ATOM     36  C   UNL A   1      37.444  32.508  28.718  1.00  0.00     0.010 A 
ATOM     37  C   UNL A   1      36.324  31.705  30.683  1.00  0.00     0.010 A 
ATOM     38  C   UNL A   1      37.525  31.872  29.957  1.00  0.00    -0.014 A 
BRANCH  38  39
ATOM     39  C   UNL A   1      38.706  31.160  30.532  1.00  0.00     0.031 A 
ATOM     40  C   UNL A   1      39.091  29.811  29.957  1.00  0.00     0.074 A 
ATOM     41  C   UNL A   1      39.660  31.884  31.179  1.00  0.00     0.049 A 
ATOM     42  N   UNL A   1      40.201  29.170  30.146  1.00  0.00    -0.248 NA
ATOM     43  C   UNL A   1      38.212  29.079  29.053  1.00  0.00     0.031 C 
ATOM     44  C   UNL A   1      41.093  31.670  31.016  1.00  0.00     0.029 A 
ATOM     45  N   UNL A   1      39.632  33.083  31.890  1.00  0.00    -0.354 N 
ATOM     46  C   UNL A   1      40.329  28.154  29.208  1.00  0.00     0.074 A 
ATOM     47  C   UNL A   1      39.013  28.102  28.614  1.00  0.00     0.031 C 
ATOM     48  C   UNL A   1      41.809  32.681  31.514  1.00  0.00     0.029 A 
ATOM     49  C   UNL A   1      40.928  33.369  32.400  1.00  0.00     0.049 A 
ATOM     50  H   UNL A   1      38.836  33.647  32.019  1.00  0.00     0.167 HD
ATOM     51  C   UNL A   1      41.556  27.559  28.991  1.00  0.00     0.037 A 
ATOM     52  C   UNL A   1      41.140  33.381  33.747  1.00  0.00     0.037 A 
ATOM     53  C   UNL A   1      42.599  28.043  29.958  1.00  0.00     0.049 A 
ATOM     54  C   UNL A   1      41.715  32.040  34.218  1.00  0.00     0.074 A 
ATOM     55  C   UNL A   1      43.930  28.448  29.918  1.00  0.00     0.029 A 
ATOM     56  N   UNL A   1      42.221  28.309  31.275  1.00  0.00    -0.354 N 
ATOM     57  N   UNL A   1      42.445  31.225  33.483  1.00  0.00    -0.248 NA
ATOM     58  C   UNL A   1      41.418  31.464  35.523  1.00  0.00     0.031 C 
ATOM     59  C   UNL A   1      44.316  28.950  31.208  1.00  0.00     0.029 A 
ATOM     60  C   UNL A   1      43.242  28.805  32.061  1.00  0.00     0.049 A 
ATOM     61  H   UNL A   1      41.310  28.156  31.613  1.00  0.00     0.167 HD
ATOM     62  C   UNL A   1      42.531  29.996  34.089  1.00  0.00     0.074 A 
ATOM     63  C   UNL A   1      41.919  30.223  35.392  1.00  0.00     0.031 C 
ATOM     64  C   UNL A   1      43.006  28.847  33.498  1.00  0.00     0.037 A 
BRANCH  51  65
ATOM     65  C   UNL A   1      41.909  26.589  27.815  1.00  0.00     0.064 A 
ATOM     66  C   UNL A   1      41.272  25.326  27.679  1.00  0.00     0.173 A 
ATOM     67  C   UNL A   1      42.879  26.802  26.807  1.00  0.00     0.173 A 
ATOM     68  F   UNL A   1      40.250  24.966  28.461  1.00  0.00    -0.203 F 
ATOM     69  C   UNL A   1      41.627  24.367  26.709  1.00  0.00     0.198 A 
ATOM     70  C   UNL A   1      43.208  25.862  25.811  1.00  0.00     0.198 A 
ATOM     71  F   UNL A   1      43.573  27.929  26.700  1.00  0.00    -0.203 F 
ATOM     72  F   UNL A   1      41.005  23.180  26.690  1.00  0.00    -0.200 F 
ATOM     73  C   UNL A   1      42.597  24.634  25.773  1.00  0.00     0.200 A 
ATOM     74  F   UNL A   1      44.135  26.172  24.892  1.00  0.00    -0.200 F 
ATOM     75  F   UNL A   1      42.926  23.734  24.838  1.00  0.00    -0.200 F 
ENDBRANCH  51  65
BRANCH  52  76
ATOM     76  C   UNL A   1      40.168  34.362  34.345  1.00  0.00     0.064 A 
ATOM     77  C   UNL A   1      39.083  33.718  35.000  1.00  0.00     0.173 A 
ATOM     78  C   UNL A   1      40.655  35.539  34.937  1.00  0.00     0.173 A 
ATOM     79  F   UNL A   1      38.538  32.618  34.456  1.00  0.00    -0.203 F 
ATOM     80  C   UNL A   1      38.737  34.044  36.312  1.00  0.00     0.198 A 
ATOM     81  C   UNL A   1      40.302  35.861  36.256  1.00  0.00     0.198 A 
ATOM     82  F   UNL A   1      41.652  36.219  34.354  1.00  0.00    -0.203 F 
ATOM     83  F   UNL A   1      37.877  33.271  36.992  1.00  0.00    -0.200 F 
ATOM     84  C   UNL A   1      39.392  35.077  36.958  1.00  0.00     0.200 A 
ATOM     85  F   UNL A   1      40.959  36.836  36.902  1.00  0.00    -0.200 F 
ATOM     86  F   UNL A   1      39.210  35.270  38.273  1.00  0.00    -0.200 F 
ENDBRANCH  52  76
BRANCH  64  87
ATOM     87  C   UNL A   1      43.154  27.537  34.247  1.00  0.00     0.064 A 
ATOM     88  C   UNL A   1      44.407  27.016  34.592  1.00  0.00     0.173 A 
ATOM     89  C   UNL A   1      42.047  26.714  34.579  1.00  0.00     0.173 A 
ATOM     90  F   UNL A   1      45.535  27.594  34.152  1.00  0.00    -0.203 F 
ATOM     91  C   UNL A   1      44.536  25.873  35.381  1.00  0.00     0.198 A 
ATOM     92  C   UNL A   1      42.180  25.544  35.319  1.00  0.00     0.198 A 
ATOM     93  F   UNL A   1      40.793  27.005  34.209  1.00  0.00    -0.203 F 
ATOM     94  F   UNL A   1      45.753  25.479  35.778  1.00  0.00    -0.200 F 
ATOM     95  C   UNL A   1      43.422  25.147  35.760  1.00  0.00     0.200 A 
ATOM     96  F   UNL A   1      41.093  24.816  35.610  1.00  0.00    -0.200 F 
ATOM     97  F   UNL A   1      43.546  24.061  36.532  1.00  0.00    -0.200 F 
ENDBRANCH  64  87
ENDBRANCH  38  39
ENDBRANCH  31  33
ENDBRANCH  30  31
ENDBRANCH  29  30
ENDBRANCH  28  29
ENDBRANCH  27  28
ENDBRANCH  26  27
ENDBRANCH  25  26
ENDBRANCH  24  25
ENDBRANCH   1  24
TORSDOF 23
ENDMDL
MODEL 3
REMARK VINA RESULT:      -9.8      4.441     11.111
REMARK SMILES Cc1cccc(-c2cc(OCC(=O)OCCOCCOCCOCCOC(=O)c3ccc(-c4c5nc(c(-c6c(F)c(F)c(F)c(F)c6F)c6ccc([nH]6)c(-c6c(F)c(F)c(F)c(F)c6F)c6nc(c(-c7c(F)c(F)c(F)c(F)c7F)c7ccc4[nH]7)C=C6)C=C5)cc3)ncn2)c1
REMARK SMILES IDX 19 1 18 2 17 3 16 4 15 5 14 6 12 7 13 8 11 9 10 10 9 11 7 12
REMARK SMILES IDX 8 13 94 14 93 15 92 16 6 17 1 18 2 19 3 20 95 21 4 22 5 23
REMARK SMILES IDX 20 24 21 25 22 26 23 27 24 28 25 29 26 30 27 31 28 32 29 33
REMARK SMILES IDX 30 34 91 35 31 36 90 37 32 38 33 39 34 40 84 41 35 42 89 43
REMARK SMILES IDX 83 44 85 45 36 46 88 47 82 48 81 49 37 51 69 52 49 53 68 54
REMARK SMILES IDX 50 55 53 56 67 57 86 58 51 59 52 60 66 62 87 63 54 64 38 65
REMARK SMILES IDX 39 66 47 67 40 68 41 69 45 70 48 71 42 72 43 73 46 74 44 75
REMARK SMILES IDX 70 76 71 77 79 78 72 79 73 80 77 81 80 82 74 83 75 84 78 85
REMARK SMILES IDX 76 86 55 87 56 88 64 89 57 90 58 91 62 92 65 93 59 94 60 95
REMARK SMILES IDX 63 96 61 97
REMARK H PARENT 85 50 53 61
REMARK Flexibility Score: inf
ROOT
ATOM      1  C   UNL A   1      34.969  21.863  25.043  1.00  0.00     0.188 C 
ENDROOT
BRANCH   1   2
ATOM      2  C   UNL A   1      35.202  23.332  24.636  1.00  0.00     0.188 C 
BRANCH   2   3
ATOM      3  O   UNL A   1      35.004  24.421  25.514  1.00  0.00    -0.376 OA
BRANCH   3   4
ATOM      4  C   UNL A   1      33.829  25.219  25.265  1.00  0.00     0.202 C 
BRANCH   4   5
ATOM      5  C   UNL A   1      33.780  26.637  25.833  1.00  0.00     0.261 C 
BRANCH   5   6
ATOM      6  O   UNL A   1      32.674  26.861  26.697  1.00  0.00    -0.461 OA
BRANCH   6   7
ATOM      7  C   UNL A   1      32.406  28.152  26.987  1.00  0.00     0.344 C 
ATOM      8  O   UNL A   1      31.439  28.549  27.621  1.00  0.00    -0.248 OA
BRANCH   7   9
ATOM      9  C   UNL A   1      33.542  29.034  26.486  1.00  0.00     0.353 C 
BRANCH   9  10
ATOM     10  O   UNL A   1      33.594  30.442  26.542  1.00  0.00    -0.466 OA
BRANCH  10  11
ATOM     11  C   UNL A   1      34.124  31.190  27.539  1.00  0.00     0.217 A 
ATOM     12  C   UNL A   1      34.396  32.972  29.074  1.00  0.00     0.077 A 
ATOM     13  C   UNL A   1      33.736  32.447  27.961  1.00  0.00     0.097 A 
ATOM     14  N   UNL A   1      35.428  32.332  29.659  1.00  0.00    -0.236 NA
ATOM     15  C   UNL A   1      35.754  31.143  29.148  1.00  0.00     0.226 A 
ATOM     16  N   UNL A   1      35.134  30.532  28.134  1.00  0.00    -0.202 NA
BRANCH  12  17
ATOM     17  C   UNL A   1      33.958  34.180  29.809  1.00  0.00     0.001 A 
ATOM     18  C   UNL A   1      34.500  35.813  33.251  1.00  0.00     0.044 C 
ATOM     19  C   UNL A   1      34.053  35.608  31.833  1.00  0.00    -0.050 A 
ATOM     20  C   UNL A   1      33.302  36.576  31.178  1.00  0.00     0.003 A 
ATOM     21  C   UNL A   1      34.385  34.443  31.125  1.00  0.00     0.013 A 
ATOM     22  C   UNL A   1      32.907  36.375  29.855  1.00  0.00     0.001 A 
ATOM     23  C   UNL A   1      33.227  35.189  29.180  1.00  0.00     0.010 A 
ENDBRANCH  12  17
ENDBRANCH  10  11
ENDBRANCH   9  10
ENDBRANCH   7   9
ENDBRANCH   6   7
ENDBRANCH   5   6
ENDBRANCH   4   5
ENDBRANCH   3   4
ENDBRANCH   2   3
ENDBRANCH   1   2
BRANCH   1  24
ATOM     24  O   UNL A   1      35.844  20.830  24.629  1.00  0.00    -0.377 OA
BRANCH  24  25
ATOM     25  C   UNL A   1      37.197  21.218  24.507  1.00  0.00     0.188 C 
BRANCH  25  26
ATOM     26  C   UNL A   1      38.051  21.104  25.746  1.00  0.00     0.188 C 
BRANCH  26  27
ATOM     27  O   UNL A   1      38.930  20.003  25.533  1.00  0.00    -0.376 OA
BRANCH  27  28
ATOM     28  C   UNL A   1      40.248  20.182  26.040  1.00  0.00     0.202 C 
BRANCH  28  29
ATOM     29  C   UNL A   1      40.669  21.657  26.170  1.00  0.00     0.261 C 
BRANCH  29  30
ATOM     30  O   UNL A   1      41.911  21.853  25.454  1.00  0.00    -0.460 OA
BRANCH  30  31
ATOM     31  C   UNL A   1      42.896  22.521  26.106  1.00  0.00     0.338 C 
ATOM     32  O   UNL A   1      43.915  22.012  26.571  1.00  0.00    -0.246 OA
BRANCH  31  33
ATOM     33  C   UNL A   1      42.440  23.906  26.443  1.00  0.00     0.060 A 
ATOM     34  C   UNL A   1      42.330  24.893  25.441  1.00  0.00     0.016 A 
ATOM     35  C   UNL A   1      42.424  24.298  27.776  1.00  0.00     0.016 A 
ATOM     36  C   UNL A   1      42.350  26.269  25.769  1.00  0.00     0.010 A 
ATOM     37  C   UNL A   1      42.504  25.649  28.082  1.00  0.00     0.010 A 
ATOM     38  C   UNL A   1      42.503  26.663  27.098  1.00  0.00    -0.014 A 
BRANCH  38  39
ATOM     39  C   UNL A   1      42.870  28.021  27.602  1.00  0.00     0.031 A 
ATOM     40  C   UNL A   1      41.761  28.949  28.060  1.00  0.00     0.074 A 
ATOM     41  C   UNL A   1      44.127  28.228  28.084  1.00  0.00     0.049 A 
ATOM     42  N   UNL A   1      41.891  30.042  28.744  1.00  0.00    -0.248 NA
ATOM     43  C   UNL A   1      40.357  28.665  27.789  1.00  0.00     0.031 C 
ATOM     44  C   UNL A   1      44.420  28.989  29.291  1.00  0.00     0.029 A 
ATOM     45  N   UNL A   1      45.363  27.644  27.810  1.00  0.00    -0.354 N 
ATOM     46  C   UNL A   1      40.660  30.430  29.256  1.00  0.00     0.074 A 
ATOM     47  C   UNL A   1      39.736  29.573  28.549  1.00  0.00     0.031 C 
ATOM     48  C   UNL A   1      45.673  28.799  29.710  1.00  0.00     0.029 A 
ATOM     49  C   UNL A   1      46.374  28.277  28.583  1.00  0.00     0.049 A 
ATOM     50  H   UNL A   1      45.513  26.905  27.178  1.00  0.00     0.167 HD
ATOM     51  C   UNL A   1      40.593  31.356  30.279  1.00  0.00     0.037 A 
ATOM     52  C   UNL A   1      47.356  28.991  27.962  1.00  0.00     0.037 A 
ATOM     53  C   UNL A   1      41.940  31.932  30.609  1.00  0.00     0.049 A 
ATOM     54  C   UNL A   1      47.018  30.487  27.956  1.00  0.00     0.074 A 
ATOM     55  C   UNL A   1      42.677  32.238  31.750  1.00  0.00     0.029 A 
ATOM     56  N   UNL A   1      42.844  32.164  29.571  1.00  0.00    -0.354 N 
ATOM     57  N   UNL A   1      46.278  31.104  28.857  1.00  0.00    -0.248 NA
ATOM     58  C   UNL A   1      47.400  31.383  26.873  1.00  0.00     0.031 C 
ATOM     59  C   UNL A   1      44.003  32.641  31.369  1.00  0.00     0.029 A 
ATOM     60  C   UNL A   1      44.071  32.637  29.992  1.00  0.00     0.049 A 
ATOM     61  H   UNL A   1      42.626  32.005  28.625  1.00  0.00     0.167 HD
ATOM     62  C   UNL A   1      45.919  32.346  28.399  1.00  0.00     0.074 A 
ATOM     63  C   UNL A   1      46.700  32.490  27.177  1.00  0.00     0.031 C 
ATOM     64  C   UNL A   1      44.963  33.160  28.965  1.00  0.00     0.037 A 
BRANCH  51  65
ATOM     65  C   UNL A   1      39.319  31.707  31.116  1.00  0.00     0.064 A 
ATOM     66  C   UNL A   1      38.945  33.054  31.369  1.00  0.00     0.173 A 
ATOM     67  C   UNL A   1      38.435  30.790  31.734  1.00  0.00     0.173 A 
ATOM     68  F   UNL A   1      39.579  34.079  30.792  1.00  0.00    -0.203 F 
ATOM     69  C   UNL A   1      37.875  33.429  32.206  1.00  0.00     0.198 A 
ATOM     70  C   UNL A   1      37.341  31.160  32.539  1.00  0.00     0.198 A 
ATOM     71  F   UNL A   1      38.555  29.473  31.603  1.00  0.00    -0.203 F 
ATOM     72  F   UNL A   1      37.629  34.728  32.427  1.00  0.00    -0.200 F 
ATOM     73  C   UNL A   1      37.071  32.481  32.793  1.00  0.00     0.200 A 
ATOM     74  F   UNL A   1      36.557  30.208  33.065  1.00  0.00    -0.200 F 
ATOM     75  F   UNL A   1      36.042  32.832  33.575  1.00  0.00    -0.200 F 
ENDBRANCH  51  65
BRANCH  52  76
ATOM     76  C   UNL A   1      48.020  28.073  26.972  1.00  0.00     0.064 A 
ATOM     77  C   UNL A   1      48.748  27.029  27.604  1.00  0.00     0.173 A 
ATOM     78  C   UNL A   1      47.350  27.746  25.781  1.00  0.00     0.173 A 
ATOM     79  F   UNL A   1      49.453  27.291  28.717  1.00  0.00    -0.203 F 
ATOM     80  C   UNL A   1      48.546  25.694  27.252  1.00  0.00     0.198 A 
ATOM     81  C   UNL A   1      47.152  26.401  25.433  1.00  0.00     0.198 A 
ATOM     82  F   UNL A   1      46.674  28.690  25.111  1.00  0.00    -0.203 F 
ATOM     83  F   UNL A   1      49.057  24.714  28.012  1.00  0.00    -0.200 F 
ATOM     84  C   UNL A   1      47.699  25.381  26.204  1.00  0.00     0.200 A 
ATOM     85  F   UNL A   1      46.302  26.089  24.443  1.00  0.00    -0.200 F 
ATOM     86  F   UNL A   1      47.344  24.106  25.985  1.00  0.00    -0.200 F 
ENDBRANCH  52  76
BRANCH  64  87
ATOM     87  C   UNL A   1      44.669  34.559  28.460  1.00  0.00     0.064 A 
ATOM     88  C   UNL A   1      43.854  34.790  27.345  1.00  0.00     0.173 A 
ATOM     89  C   UNL A   1      45.257  35.718  29.028  1.00  0.00     0.173 A 
ATOM     90  F   UNL A   1      43.408  33.769  26.597  1.00  0.00    -0.203 F 
ATOM     91  C   UNL A   1      43.492  36.079  26.954  1.00  0.00     0.198 A 
ATOM     92  C   UNL A   1      44.938  37.004  28.602  1.00  0.00     0.198 A 
ATOM     93  F   UNL A   1      46.159  35.662  30.017  1.00  0.00    -0.203 F 
ATOM     94  F   UNL A   1      42.619  36.243  25.951  1.00  0.00    -0.200 F 
ATOM     95  C   UNL A   1      44.019  37.185  27.594  1.00  0.00     0.200 A 
ATOM     96  F   UNL A   1      45.520  38.060  29.187  1.00  0.00    -0.200 F 
ATOM     97  F   UNL A   1      43.656  38.421  27.230  1.00  0.00    -0.200 F 
ENDBRANCH  64  87
ENDBRANCH  38  39
ENDBRANCH  31  33
ENDBRANCH  30  31
ENDBRANCH  29  30
ENDBRANCH  28  29
ENDBRANCH  27  28
ENDBRANCH  26  27
ENDBRANCH  25  26
ENDBRANCH  24  25
ENDBRANCH   1  24
TORSDOF 23
ENDMDL
