MODEL 1
REMARK VINA RESULT:     -10.7      0.000      0.000
REMARK SMILES CCCc1cc(-n2ccc(C(=O)OCCOCCOCCOCCOC(=O)c3ccc(-c4c5nc(c(-c6c(F)c(F)c(F)c(F)c6F)c6ccc([nH]6)c(-c6c(F)c(F)c(F)c(F)c6F)c6nc(c(-c7c(F)c(F)c(F)c(F)c7F)c7ccc4[nH]7)C=C6)C=C5)cc3)n2)nc(C(C)C)n1
REMARK SMILES IDX 18 1 17 2 16 3 15 4 14 5 13 6 11 7 12 8 10 9 7 10 8 11 91 12
REMARK SMILES IDX 9 13 6 14 4 15 5 16 97 17 93 18 92 19 3 20 2 21 1 22 94 23
REMARK SMILES IDX 95 24 96 25 19 26 20 27 21 28 22 29 23 30 24 31 25 32 26 33
REMARK SMILES IDX 27 34 28 35 29 36 90 37 30 38 89 39 31 40 32 41 33 42 83 43
REMARK SMILES IDX 34 44 88 45 82 46 84 47 35 48 87 49 81 50 80 51 36 53 68 54
REMARK SMILES IDX 48 55 67 56 49 57 52 58 66 59 85 60 50 61 51 62 65 64 86 65
REMARK SMILES IDX 53 66 37 67 38 68 46 69 39 70 40 71 44 72 47 73 41 74 42 75
REMARK SMILES IDX 45 76 43 77 69 78 70 79 78 80 71 81 72 82 76 83 79 84 73 85
REMARK SMILES IDX 74 86 77 87 75 88 54 89 55 90 63 91 56 92 57 93 61 94 64 95
REMARK SMILES IDX 58 96 59 97 62 98 60 99
REMARK H PARENT 84 52 52 63
REMARK Flexibility Score: inf
ROOT
ATOM      1  C   UNL A   1      37.841  22.379  25.674  1.00  0.00     0.188 C 
ENDROOT
BRANCH   1   2
ATOM      2  C   UNL A   1      36.675  23.392  25.779  1.00  0.00     0.188 C 
BRANCH   2   3
ATOM      3  O   UNL A   1      35.516  22.864  26.399  1.00  0.00    -0.376 OA
BRANCH   3   4
ATOM      4  C   UNL A   1      34.663  21.996  25.685  1.00  0.00     0.202 C 
BRANCH   4   5
ATOM      5  C   UNL A   1      33.410  21.492  26.416  1.00  0.00     0.261 C 
BRANCH   5   6
ATOM      6  O   UNL A   1      32.162  21.738  25.759  1.00  0.00    -0.458 OA
BRANCH   6   7
ATOM      7  C   UNL A   1      31.380  22.750  26.234  1.00  0.00     0.358 C 
ATOM      8  O   UNL A   1      31.078  22.894  27.412  1.00  0.00    -0.244 OA
BRANCH   7   9
ATOM      9  C   UNL A   1      31.170  23.775  25.202  1.00  0.00     0.170 A 
ATOM     10  N   UNL A   1      30.722  25.690  24.331  1.00  0.00    -0.222 N 
ATOM     11  C   UNL A   1      30.535  24.772  23.319  1.00  0.00     0.118 A 
ATOM     12  N   UNL A   1      31.068  25.081  25.494  1.00  0.00    -0.159 NA
ATOM     13  C   UNL A   1      30.909  23.549  23.826  1.00  0.00     0.058 A 
BRANCH  10  14
ATOM     14  C   UNL A   1      30.643  27.112  24.252  1.00  0.00     0.157 A 
ATOM     15  C   UNL A   1      31.217  29.281  24.956  1.00  0.00     0.046 A 
ATOM     16  C   UNL A   1      31.411  27.915  25.079  1.00  0.00     0.073 A 
ATOM     17  N   UNL A   1      30.285  29.790  24.129  1.00  0.00    -0.238 NA
ATOM     18  C   UNL A   1      29.557  28.935  23.391  1.00  0.00     0.133 A 
ATOM     19  N   UNL A   1      29.737  27.613  23.385  1.00  0.00    -0.213 NA
BRANCH  15  20
ATOM     20  C   UNL A   1      32.028  30.247  25.790  1.00  0.00     0.056 C 
BRANCH  20  21
ATOM     21  C   UNL A   1      33.528  29.936  25.927  1.00  0.00     0.003 C 
ATOM     22  C   UNL A   1      33.928  29.373  27.286  1.00  0.00     0.004 C 
ENDBRANCH  20  21
ENDBRANCH  15  20
BRANCH  18  23
ATOM     23  C   UNL A   1      28.382  29.471  22.611  1.00  0.00     0.051 C 
ATOM     24  C   UNL A   1      27.097  28.749  23.019  1.00  0.00     0.016 C 
ATOM     25  C   UNL A   1      28.258  30.981  22.782  1.00  0.00     0.016 C 
ENDBRANCH  18  23
ENDBRANCH  10  14
ENDBRANCH   7   9
ENDBRANCH   6   7
ENDBRANCH   5   6
ENDBRANCH   4   5
ENDBRANCH   3   4
ENDBRANCH   2   3
ENDBRANCH   1   2
BRANCH   1  26
ATOM     26  O   UNL A   1      38.983  22.505  26.515  1.00  0.00    -0.377 OA
BRANCH  26  27
ATOM     27  C   UNL A   1      40.196  21.948  26.050  1.00  0.00     0.188 C 
BRANCH  27  28
ATOM     28  C   UNL A   1      40.500  20.539  26.610  1.00  0.00     0.188 C 
BRANCH  28  29
ATOM     29  O   UNL A   1      41.115  19.520  25.833  1.00  0.00    -0.376 OA
BRANCH  29  30
ATOM     30  C   UNL A   1      42.394  18.930  26.018  1.00  0.00     0.202 C 
BRANCH  30  31
ATOM     31  C   UNL A   1      43.703  19.315  25.334  1.00  0.00     0.261 C 
BRANCH  31  32
ATOM     32  O   UNL A   1      43.807  20.669  24.997  1.00  0.00    -0.460 OA
BRANCH  32  33
ATOM     33  C   UNL A   1      45.037  21.160  25.189  1.00  0.00     0.338 C 
ATOM     34  O   UNL A   1      45.978  20.609  25.753  1.00  0.00    -0.246 OA
BRANCH  33  35
ATOM     35  C   UNL A   1      45.074  22.527  24.663  1.00  0.00     0.060 A 
ATOM     36  C   UNL A   1      46.186  23.253  25.074  1.00  0.00     0.016 A 
ATOM     37  C   UNL A   1      43.859  23.128  24.293  1.00  0.00     0.016 A 
ATOM     38  C   UNL A   1      45.929  24.490  25.589  1.00  0.00     0.010 A 
ATOM     39  C   UNL A   1      43.605  24.373  24.792  1.00  0.00     0.010 A 
ATOM     40  C   UNL A   1      44.602  24.939  25.572  1.00  0.00    -0.014 A 
BRANCH  40  41
ATOM     41  C   UNL A   1      44.265  25.978  26.503  1.00  0.00     0.031 A 
ATOM     42  C   UNL A   1      45.250  27.061  26.516  1.00  0.00     0.074 A 
ATOM     43  C   UNL A   1      43.169  25.912  27.278  1.00  0.00     0.049 A 
ATOM     44  N   UNL A   1      46.133  27.296  27.424  1.00  0.00    -0.248 NA
ATOM     45  C   UNL A   1      45.400  27.838  25.282  1.00  0.00     0.031 C 
ATOM     46  C   UNL A   1      42.019  25.006  27.215  1.00  0.00     0.029 A 
ATOM     47  N   UNL A   1      42.852  26.741  28.300  1.00  0.00    -0.354 N 
ATOM     48  C   UNL A   1      46.864  28.371  26.947  1.00  0.00     0.074 A 
ATOM     49  C   UNL A   1      46.492  28.547  25.565  1.00  0.00     0.031 C 
ATOM     50  C   UNL A   1      41.037  25.483  28.019  1.00  0.00     0.029 A 
ATOM     51  C   UNL A   1      41.547  26.633  28.746  1.00  0.00     0.049 A 
ATOM     52  H   UNL A   1      43.498  27.371  28.694  1.00  0.00     0.167 HD
ATOM     53  C   UNL A   1      47.547  29.181  27.793  1.00  0.00     0.037 A 
ATOM     54  C   UNL A   1      40.946  27.518  29.577  1.00  0.00     0.037 A 
ATOM     55  C   UNL A   1      47.747  28.567  29.080  1.00  0.00     0.049 A 
ATOM     56  C   UNL A   1      42.032  28.228  30.313  1.00  0.00     0.074 A 
ATOM     57  C   UNL A   1      48.446  27.458  29.519  1.00  0.00     0.029 A 
ATOM     58  N   UNL A   1      46.868  28.876  30.089  1.00  0.00    -0.354 N 
ATOM     59  N   UNL A   1      42.807  27.638  31.185  1.00  0.00    -0.248 NA
ATOM     60  C   UNL A   1      42.579  29.444  29.722  1.00  0.00     0.031 C 
ATOM     61  C   UNL A   1      47.635  26.887  30.544  1.00  0.00     0.029 A 
ATOM     62  C   UNL A   1      46.510  27.698  30.697  1.00  0.00     0.049 A 
ATOM     63  H   UNL A   1      46.551  29.776  30.331  1.00  0.00     0.167 HD
ATOM     64  C   UNL A   1      44.073  28.163  30.958  1.00  0.00     0.074 A 
ATOM     65  C   UNL A   1      43.859  29.321  30.094  1.00  0.00     0.031 C 
ATOM     66  C   UNL A   1      45.199  27.445  31.248  1.00  0.00     0.037 A 
BRANCH  53  67
ATOM     67  C   UNL A   1      47.708  30.651  27.553  1.00  0.00     0.064 A 
ATOM     68  C   UNL A   1      46.565  31.451  27.390  1.00  0.00     0.173 A 
ATOM     69  C   UNL A   1      48.938  31.251  27.199  1.00  0.00     0.173 A 
ATOM     70  F   UNL A   1      45.347  30.964  27.675  1.00  0.00    -0.203 F 
ATOM     71  C   UNL A   1      46.644  32.735  26.850  1.00  0.00     0.198 A 
ATOM     72  C   UNL A   1      49.019  32.552  26.719  1.00  0.00     0.198 A 
ATOM     73  F   UNL A   1      50.089  30.567  27.192  1.00  0.00    -0.203 F 
ATOM     74  F   UNL A   1      45.520  33.418  26.598  1.00  0.00    -0.200 F 
ATOM     75  C   UNL A   1      47.869  33.283  26.513  1.00  0.00     0.200 A 
ATOM     76  F   UNL A   1      50.214  33.055  26.381  1.00  0.00    -0.200 F 
ATOM     77  F   UNL A   1      47.941  34.492  25.942  1.00  0.00    -0.200 F 
ENDBRANCH  53  67
BRANCH  54  78
ATOM     78  C   UNL A   1      39.565  28.040  29.455  1.00  0.00     0.064 A 
ATOM     79  C   UNL A   1      38.726  28.150  30.574  1.00  0.00     0.173 A 
ATOM     80  C   UNL A   1      39.128  28.682  28.279  1.00  0.00     0.173 A 
ATOM     81  F   UNL A   1      39.094  27.613  31.747  1.00  0.00    -0.203 F 
ATOM     82  C   UNL A   1      37.526  28.869  30.522  1.00  0.00     0.198 A 
ATOM     83  C   UNL A   1      37.930  29.393  28.226  1.00  0.00     0.198 A 
ATOM     84  F   UNL A   1      39.897  28.712  27.182  1.00  0.00    -0.203 F 
ATOM     85  F   UNL A   1      36.773  28.996  31.623  1.00  0.00    -0.200 F 
ATOM     86  C   UNL A   1      37.132  29.495  29.349  1.00  0.00     0.200 A 
ATOM     87  F   UNL A   1      37.582  30.026  27.095  1.00  0.00    -0.200 F 
ATOM     88  F   UNL A   1      36.010  30.228  29.313  1.00  0.00    -0.200 F 
ENDBRANCH  54  78
BRANCH  66  89
ATOM     89  C   UNL A   1      45.011  26.149  31.986  1.00  0.00     0.064 A 
ATOM     90  C   UNL A   1      44.655  24.946  31.348  1.00  0.00     0.173 A 
ATOM     91  C   UNL A   1      45.336  26.082  33.345  1.00  0.00     0.173 A 
ATOM     92  F   UNL A   1      44.439  24.910  30.029  1.00  0.00    -0.203 F 
ATOM     93  C   UNL A   1      44.578  23.746  32.051  1.00  0.00     0.198 A 
ATOM     94  C   UNL A   1      45.292  24.875  34.039  1.00  0.00     0.198 A 
ATOM     95  F   UNL A   1      45.747  27.185  33.990  1.00  0.00    -0.203 F 
ATOM     96  F   UNL A   1      44.224  22.616  31.419  1.00  0.00    -0.200 F 
ATOM     97  C   UNL A   1      44.902  23.710  33.396  1.00  0.00     0.200 A 
ATOM     98  F   UNL A   1      45.657  24.835  35.328  1.00  0.00    -0.200 F 
ATOM     99  F   UNL A   1      44.867  22.550  34.066  1.00  0.00    -0.200 F 
ENDBRANCH  66  89
ENDBRANCH  40  41
ENDBRANCH  33  35
ENDBRANCH  32  33
ENDBRANCH  31  32
ENDBRANCH  30  31
ENDBRANCH  29  30
ENDBRANCH  28  29
ENDBRANCH  27  28
ENDBRANCH  26  27
ENDBRANCH   1  26
TORSDOF 24
ENDMDL
MODEL 2
REMARK VINA RESULT:     -10.1      4.339      9.133
REMARK SMILES CCCc1cc(-n2ccc(C(=O)OCCOCCOCCOCCOC(=O)c3ccc(-c4c5nc(c(-c6c(F)c(F)c(F)c(F)c6F)c6ccc([nH]6)c(-c6c(F)c(F)c(F)c(F)c6F)c6nc(c(-c7c(F)c(F)c(F)c(F)c7F)c7ccc4[nH]7)C=C6)C=C5)cc3)n2)nc(C(C)C)n1
REMARK SMILES IDX 18 1 17 2 16 3 15 4 14 5 13 6 11 7 12 8 10 9 7 10 8 11 91 12
REMARK SMILES IDX 9 13 6 14 4 15 5 16 97 17 93 18 92 19 3 20 2 21 1 22 94 23
REMARK SMILES IDX 95 24 96 25 19 26 20 27 21 28 22 29 23 30 24 31 25 32 26 33
REMARK SMILES IDX 27 34 28 35 29 36 90 37 30 38 89 39 31 40 32 41 33 42 83 43
REMARK SMILES IDX 34 44 88 45 82 46 84 47 35 48 87 49 81 50 80 51 36 53 68 54
REMARK SMILES IDX 48 55 67 56 49 57 52 58 66 59 85 60 50 61 51 62 65 64 86 65
REMARK SMILES IDX 53 66 37 67 38 68 46 69 39 70 40 71 44 72 47 73 41 74 42 75
REMARK SMILES IDX 45 76 43 77 69 78 70 79 78 80 71 81 72 82 76 83 79 84 73 85
REMARK SMILES IDX 74 86 77 87 75 88 54 89 55 90 63 91 56 92 57 93 61 94 64 95
REMARK SMILES IDX 58 96 59 97 62 98 60 99
REMARK H PARENT 84 52 52 63
REMARK Flexibility Score: inf
ROOT
ATOM      1  C   UNL A   1      33.823  35.329  31.859  1.00  0.00     0.188 C 
ENDROOT
BRANCH   1   2
ATOM      2  C   UNL A   1      32.939  35.920  30.734  1.00  0.00     0.188 C 
BRANCH   2   3
ATOM      3  O   UNL A   1      32.578  34.980  29.739  1.00  0.00    -0.376 OA
BRANCH   3   4
ATOM      4  C   UNL A   1      33.117  35.082  28.438  1.00  0.00     0.202 C 
BRANCH   4   5
ATOM      5  C   UNL A   1      34.479  34.415  28.193  1.00  0.00     0.261 C 
BRANCH   5   6
ATOM      6  O   UNL A   1      34.440  33.127  27.570  1.00  0.00    -0.458 OA
BRANCH   6   7
ATOM      7  C   UNL A   1      34.478  32.026  28.377  1.00  0.00     0.358 C 
ATOM      8  O   UNL A   1      34.518  32.069  29.600  1.00  0.00    -0.244 OA
BRANCH   7   9
ATOM      9  C   UNL A   1      34.203  30.805  27.606  1.00  0.00     0.170 A 
ATOM     10  N   UNL A   1      33.108  29.366  26.442  1.00  0.00    -0.222 N 
ATOM     11  C   UNL A   1      34.183  28.677  26.965  1.00  0.00     0.118 A 
ATOM     12  N   UNL A   1      33.094  30.656  26.867  1.00  0.00    -0.159 NA
ATOM     13  C   UNL A   1      34.951  29.601  27.635  1.00  0.00     0.058 A 
BRANCH  10  14
ATOM     14  C   UNL A   1      32.123  28.892  25.526  1.00  0.00     0.157 A 
ATOM     15  C   UNL A   1      30.456  29.210  23.899  1.00  0.00     0.046 A 
ATOM     16  C   UNL A   1      31.426  29.770  24.713  1.00  0.00     0.073 A 
ATOM     17  N   UNL A   1      30.163  27.897  23.951  1.00  0.00    -0.238 NA
ATOM     18  C   UNL A   1      30.863  27.124  24.797  1.00  0.00     0.133 A 
ATOM     19  N   UNL A   1      31.870  27.566  25.552  1.00  0.00    -0.213 NA
BRANCH  15  20
ATOM     20  C   UNL A   1      29.659  30.076  22.949  1.00  0.00     0.056 C 
BRANCH  20  21
ATOM     21  C   UNL A   1      28.452  29.410  22.269  1.00  0.00     0.003 C 
ATOM     22  C   UNL A   1      27.318  29.048  23.221  1.00  0.00     0.004 C 
ENDBRANCH  20  21
ENDBRANCH  15  20
BRANCH  18  23
ATOM     23  C   UNL A   1      30.420  25.698  25.010  1.00  0.00     0.051 C 
ATOM     24  C   UNL A   1      30.344  24.958  23.674  1.00  0.00     0.016 C 
ATOM     25  C   UNL A   1      31.336  24.984  25.998  1.00  0.00     0.016 C 
ENDBRANCH  18  23
ENDBRANCH  10  14
ENDBRANCH   7   9
ENDBRANCH   6   7
ENDBRANCH   5   6
ENDBRANCH   4   5
ENDBRANCH   3   4
ENDBRANCH   2   3
ENDBRANCH   1   2
BRANCH   1  26
ATOM     26  O   UNL A   1      33.704  33.958  32.224  1.00  0.00    -0.377 OA
BRANCH  26  27
ATOM     27  C   UNL A   1      34.261  33.566  33.463  1.00  0.00     0.188 C 
BRANCH  27  28
ATOM     28  C   UNL A   1      35.648  34.182  33.756  1.00  0.00     0.188 C 
BRANCH  28  29
ATOM     29  O   UNL A   1      36.771  33.986  32.907  1.00  0.00    -0.376 OA
BRANCH  29  30
ATOM     30  C   UNL A   1      37.551  32.811  32.745  1.00  0.00     0.202 C 
BRANCH  30  31
ATOM     31  C   UNL A   1      39.073  32.696  32.765  1.00  0.00     0.261 C 
BRANCH  31  32
ATOM     32  O   UNL A   1      39.697  33.015  31.554  1.00  0.00    -0.460 OA
BRANCH  32  33
ATOM     33  C   UNL A   1      41.000  32.708  31.543  1.00  0.00     0.338 C 
ATOM     34  O   UNL A   1      41.830  32.957  32.413  1.00  0.00    -0.246 OA
BRANCH  33  35
ATOM     35  C   UNL A   1      41.309  32.064  30.264  1.00  0.00     0.060 A 
ATOM     36  C   UNL A   1      40.325  31.185  29.829  1.00  0.00     0.016 A 
ATOM     37  C   UNL A   1      42.658  31.954  29.886  1.00  0.00     0.016 A 
ATOM     38  C   UNL A   1      40.759  29.949  29.453  1.00  0.00     0.010 A 
ATOM     39  C   UNL A   1      43.093  30.722  29.493  1.00  0.00     0.010 A 
ATOM     40  C   UNL A   1      42.140  29.715  29.455  1.00  0.00    -0.014 A 
BRANCH  40  41
ATOM     41  C   UNL A   1      42.559  28.344  29.527  1.00  0.00     0.031 A 
ATOM     42  C   UNL A   1      43.043  27.976  30.860  1.00  0.00     0.074 A 
ATOM     43  C   UNL A   1      42.520  27.529  28.460  1.00  0.00     0.049 A 
ATOM     44  N   UNL A   1      44.267  27.792  31.217  1.00  0.00    -0.248 NA
ATOM     45  C   UNL A   1      42.073  28.024  31.957  1.00  0.00     0.031 C 
ATOM     46  C   UNL A   1      41.877  27.709  27.156  1.00  0.00     0.029 A 
ATOM     47  N   UNL A   1      43.046  26.285  28.375  1.00  0.00    -0.354 N 
ATOM     48  C   UNL A   1      44.212  27.537  32.576  1.00  0.00     0.074 A 
ATOM     49  C   UNL A   1      42.875  27.865  33.008  1.00  0.00     0.031 C 
ATOM     50  C   UNL A   1      41.870  26.523  26.500  1.00  0.00     0.029 A 
ATOM     51  C   UNL A   1      42.625  25.556  27.277  1.00  0.00     0.049 A 
ATOM     52  H   UNL A   1      43.678  25.927  29.040  1.00  0.00     0.167 HD
ATOM     53  C   UNL A   1      45.204  26.853  33.199  1.00  0.00     0.037 A 
ATOM     54  C   UNL A   1      42.824  24.225  27.121  1.00  0.00     0.037 A 
ATOM     55  C   UNL A   1      46.409  26.821  32.413  1.00  0.00     0.049 A 
ATOM     56  C   UNL A   1      43.982  23.854  27.985  1.00  0.00     0.074 A 
ATOM     57  C   UNL A   1      47.299  27.784  31.975  1.00  0.00     0.029 A 
ATOM     58  N   UNL A   1      46.645  25.715  31.632  1.00  0.00    -0.354 N 
ATOM     59  N   UNL A   1      45.203  24.262  27.755  1.00  0.00    -0.248 NA
ATOM     60  C   UNL A   1      43.711  23.459  29.362  1.00  0.00     0.031 C 
ATOM     61  C   UNL A   1      47.685  27.369  30.665  1.00  0.00     0.029 A 
ATOM     62  C   UNL A   1      47.039  26.162  30.395  1.00  0.00     0.049 A 
ATOM     63  H   UNL A   1      46.547  24.775  31.908  1.00  0.00     0.167 HD
ATOM     64  C   UNL A   1      45.729  24.557  29.007  1.00  0.00     0.074 A 
ATOM     65  C   UNL A   1      44.789  23.977  29.963  1.00  0.00     0.031 C 
ATOM     66  C   UNL A   1      46.714  25.491  29.159  1.00  0.00     0.037 A 
BRANCH  53  67
ATOM     67  C   UNL A   1      44.950  25.925  34.347  1.00  0.00     0.064 A 
ATOM     68  C   UNL A   1      45.609  26.143  35.568  1.00  0.00     0.173 A 
ATOM     69  C   UNL A   1      44.304  24.675  34.208  1.00  0.00     0.173 A 
ATOM     70  F   UNL A   1      46.272  27.289  35.788  1.00  0.00    -0.203 F 
ATOM     71  C   UNL A   1      45.671  25.155  36.551  1.00  0.00     0.198 A 
ATOM     72  C   UNL A   1      44.317  23.716  35.213  1.00  0.00     0.198 A 
ATOM     73  F   UNL A   1      43.740  24.288  33.057  1.00  0.00    -0.203 F 
ATOM     74  F   UNL A   1      46.411  25.357  37.648  1.00  0.00    -0.200 F 
ATOM     75  C   UNL A   1      45.028  23.942  36.371  1.00  0.00     0.200 A 
ATOM     76  F   UNL A   1      43.703  22.542  35.011  1.00  0.00    -0.200 F 
ATOM     77  F   UNL A   1      45.135  22.972  37.288  1.00  0.00    -0.200 F 
ENDBRANCH  53  67
BRANCH  54  78
ATOM     78  C   UNL A   1      41.840  23.244  26.609  1.00  0.00     0.064 A 
ATOM     79  C   UNL A   1      42.238  21.974  26.166  1.00  0.00     0.173 A 
ATOM     80  C   UNL A   1      40.454  23.440  26.783  1.00  0.00     0.173 A 
ATOM     81  F   UNL A   1      43.541  21.688  26.026  1.00  0.00    -0.203 F 
ATOM     82  C   UNL A   1      41.307  20.957  25.924  1.00  0.00     0.198 A 
ATOM     83  C   UNL A   1      39.527  22.429  26.536  1.00  0.00     0.198 A 
ATOM     84  F   UNL A   1      39.978  24.587  27.287  1.00  0.00    -0.203 F 
ATOM     85  F   UNL A   1      41.726  19.740  25.551  1.00  0.00    -0.200 F 
ATOM     86  C   UNL A   1      39.953  21.184  26.115  1.00  0.00     0.200 A 
ATOM     87  F   UNL A   1      38.224  22.652  26.763  1.00  0.00    -0.200 F 
ATOM     88  F   UNL A   1      39.065  20.195  25.934  1.00  0.00    -0.200 F 
ENDBRANCH  54  78
BRANCH  66  89
ATOM     89  C   UNL A   1      47.327  26.047  27.903  1.00  0.00     0.064 A 
ATOM     90  C   UNL A   1      46.816  27.174  27.232  1.00  0.00     0.173 A 
ATOM     91  C   UNL A   1      48.539  25.522  27.444  1.00  0.00     0.173 A 
ATOM     92  F   UNL A   1      45.721  27.797  27.680  1.00  0.00    -0.203 F 
ATOM     93  C   UNL A   1      47.462  27.714  26.123  1.00  0.00     0.198 A 
ATOM     94  C   UNL A   1      49.203  26.085  26.355  1.00  0.00     0.198 A 
ATOM     95  F   UNL A   1      49.108  24.490  28.086  1.00  0.00    -0.203 F 
ATOM     96  F   UNL A   1      46.945  28.781  25.495  1.00  0.00    -0.200 F 
ATOM     97  C   UNL A   1      48.659  27.172  25.689  1.00  0.00     0.200 A 
ATOM     98  F   UNL A   1      50.388  25.590  25.970  1.00  0.00    -0.200 F 
ATOM     99  F   UNL A   1      49.304  27.713  24.645  1.00  0.00    -0.200 F 
ENDBRANCH  66  89
ENDBRANCH  40  41
ENDBRANCH  33  35
ENDBRANCH  32  33
ENDBRANCH  31  32
ENDBRANCH  30  31
ENDBRANCH  29  30
ENDBRANCH  28  29
ENDBRANCH  27  28
ENDBRANCH  26  27
ENDBRANCH   1  26
TORSDOF 24
ENDMDL
MODEL 3
REMARK VINA RESULT:     -10.0      2.884      4.496
REMARK SMILES CCCc1cc(-n2ccc(C(=O)OCCOCCOCCOCCOC(=O)c3ccc(-c4c5nc(c(-c6c(F)c(F)c(F)c(F)c6F)c6ccc([nH]6)c(-c6c(F)c(F)c(F)c(F)c6F)c6nc(c(-c7c(F)c(F)c(F)c(F)c7F)c7ccc4[nH]7)C=C6)C=C5)cc3)n2)nc(C(C)C)n1
REMARK SMILES IDX 18 1 17 2 16 3 15 4 14 5 13 6 11 7 12 8 10 9 7 10 8 11 91 12
REMARK SMILES IDX 9 13 6 14 4 15 5 16 97 17 93 18 92 19 3 20 2 21 1 22 94 23
REMARK SMILES IDX 95 24 96 25 19 26 20 27 21 28 22 29 23 30 24 31 25 32 26 33
REMARK SMILES IDX 27 34 28 35 29 36 90 37 30 38 89 39 31 40 32 41 33 42 83 43
REMARK SMILES IDX 34 44 88 45 82 46 84 47 35 48 87 49 81 50 80 51 36 53 68 54
REMARK SMILES IDX 48 55 67 56 49 57 52 58 66 59 85 60 50 61 51 62 65 64 86 65
REMARK SMILES IDX 53 66 37 67 38 68 46 69 39 70 40 71 44 72 47 73 41 74 42 75
REMARK SMILES IDX 45 76 43 77 69 78 70 79 78 80 71 81 72 82 76 83 79 84 73 85
REMARK SMILES IDX 74 86 77 87 75 88 54 89 55 90 63 91 56 92 57 93 61 94 64 95
REMARK SMILES IDX 58 96 59 97 62 98 60 99
REMARK H PARENT 84 52 52 63
REMARK Flexibility Score: inf
ROOT
ATOM      1  C   UNL A   1      39.079  21.255  25.775  1.00  0.00     0.188 C 
ENDROOT
BRANCH   1   2
ATOM      2  C   UNL A   1      38.788  22.722  26.174  1.00  0.00     0.188 C 
BRANCH   2   3
ATOM      3  O   UNL A   1      37.699  23.297  25.477  1.00  0.00    -0.376 OA
BRANCH   3   4
ATOM      4  C   UNL A   1      36.423  23.355  26.079  1.00  0.00     0.202 C 
BRANCH   4   5
ATOM      5  C   UNL A   1      35.460  22.195  25.786  1.00  0.00     0.261 C 
BRANCH   5   6
ATOM      6  O   UNL A   1      34.803  22.235  24.515  1.00  0.00    -0.458 OA
BRANCH   6   7
ATOM      7  C   UNL A   1      33.466  21.964  24.479  1.00  0.00     0.358 C 
ATOM      8  O   UNL A   1      32.991  20.876  24.176  1.00  0.00    -0.244 OA
BRANCH   7   9
ATOM      9  C   UNL A   1      32.696  23.052  25.098  1.00  0.00     0.170 A 
ATOM     10  N   UNL A   1      32.128  25.051  25.651  1.00  0.00    -0.222 N 
ATOM     11  C   UNL A   1      31.515  24.226  26.570  1.00  0.00     0.118 A 
ATOM     12  N   UNL A   1      32.885  24.341  24.776  1.00  0.00    -0.159 NA
ATOM     13  C   UNL A   1      31.786  22.936  26.179  1.00  0.00     0.058 A 
BRANCH  10  14
ATOM     14  C   UNL A   1      32.001  26.466  25.518  1.00  0.00     0.157 A 
ATOM     15  C   UNL A   1      32.285  28.672  26.281  1.00  0.00     0.046 A 
ATOM     16  C   UNL A   1      32.510  27.320  26.482  1.00  0.00     0.073 A 
ATOM     17  N   UNL A   1      31.552  29.119  25.244  1.00  0.00    -0.238 NA
ATOM     18  C   UNL A   1      31.062  28.216  24.377  1.00  0.00     0.133 A 
ATOM     19  N   UNL A   1      31.304  26.906  24.449  1.00  0.00    -0.213 NA
BRANCH  15  20
ATOM     20  C   UNL A   1      32.826  29.692  27.257  1.00  0.00     0.056 C 
BRANCH  20  21
ATOM     21  C   UNL A   1      34.239  30.227  26.970  1.00  0.00     0.003 C 
ATOM     22  C   UNL A   1      35.159  30.247  28.185  1.00  0.00     0.004 C 
ENDBRANCH  20  21
ENDBRANCH  15  20
BRANCH  18  23
ATOM     23  C   UNL A   1      30.083  28.678  23.328  1.00  0.00     0.051 C 
ATOM     24  C   UNL A   1      28.891  27.721  23.254  1.00  0.00     0.016 C 
ATOM     25  C   UNL A   1      29.638  30.112  23.591  1.00  0.00     0.016 C 
ENDBRANCH  18  23
ENDBRANCH  10  14
ENDBRANCH   7   9
ENDBRANCH   6   7
ENDBRANCH   5   6
ENDBRANCH   4   5
ENDBRANCH   3   4
ENDBRANCH   2   3
ENDBRANCH   1   2
BRANCH   1  26
ATOM     26  O   UNL A   1      39.741  20.379  26.682  1.00  0.00    -0.377 OA
BRANCH  26  27
ATOM     27  C   UNL A   1      40.421  19.268  26.132  1.00  0.00     0.188 C 
BRANCH  27  28
ATOM     28  C   UNL A   1      41.909  19.533  25.811  1.00  0.00     0.188 C 
BRANCH  28  29
ATOM     29  O   UNL A   1      42.798  20.146  26.736  1.00  0.00    -0.376 OA
BRANCH  29  30
ATOM     30  C   UNL A   1      43.139  21.520  26.842  1.00  0.00     0.202 C 
BRANCH  30  31
ATOM     31  C   UNL A   1      43.072  22.583  25.748  1.00  0.00     0.261 C 
BRANCH  31  32
ATOM     32  O   UNL A   1      43.407  23.875  26.171  1.00  0.00    -0.460 OA
BRANCH  32  33
ATOM     33  C   UNL A   1      42.587  24.811  25.678  1.00  0.00     0.338 C 
ATOM     34  O   UNL A   1      42.657  25.358  24.581  1.00  0.00    -0.246 OA
BRANCH  33  35
ATOM     35  C   UNL A   1      41.598  25.143  26.707  1.00  0.00     0.060 A 
ATOM     36  C   UNL A   1      40.535  25.903  26.234  1.00  0.00     0.016 A 
ATOM     37  C   UNL A   1      42.015  25.159  28.048  1.00  0.00     0.016 A 
ATOM     38  C   UNL A   1      40.236  27.020  26.958  1.00  0.00     0.010 A 
ATOM     39  C   UNL A   1      41.704  26.266  28.782  1.00  0.00     0.010 A 
ATOM     40  C   UNL A   1      40.957  27.242  28.138  1.00  0.00    -0.014 A 
BRANCH  40  41
ATOM     41  C   UNL A   1      40.989  28.591  28.626  1.00  0.00     0.031 A 
ATOM     42  C   UNL A   1      42.164  29.329  28.158  1.00  0.00     0.074 A 
ATOM     43  C   UNL A   1      40.039  29.076  29.443  1.00  0.00     0.049 A 
ATOM     44  N   UNL A   1      43.208  29.642  28.844  1.00  0.00    -0.248 NA
ATOM     45  C   UNL A   1      42.274  29.558  26.713  1.00  0.00     0.031 C 
ATOM     46  C   UNL A   1      38.734  28.522  29.810  1.00  0.00     0.029 A 
ATOM     47  N   UNL A   1      40.063  30.264  30.093  1.00  0.00    -0.354 N 
ATOM     48  C   UNL A   1      44.059  30.262  27.944  1.00  0.00     0.074 A 
ATOM     49  C   UNL A   1      43.517  30.026  26.629  1.00  0.00     0.031 C 
ATOM     50  C   UNL A   1      38.009  29.479  30.439  1.00  0.00     0.029 A 
ATOM     51  C   UNL A   1      38.850  30.647  30.637  1.00  0.00     0.049 A 
ATOM     52  H   UNL A   1      40.878  30.811  30.172  1.00  0.00     0.167 HD
ATOM     53  C   UNL A   1      45.018  31.122  28.369  1.00  0.00     0.037 A 
ATOM     54  C   UNL A   1      38.581  31.887  31.110  1.00  0.00     0.037 A 
ATOM     55  C   UNL A   1      45.288  30.972  29.775  1.00  0.00     0.049 A 
ATOM     56  C   UNL A   1      39.892  32.519  31.443  1.00  0.00     0.074 A 
ATOM     57  C   UNL A   1      45.807  29.953  30.552  1.00  0.00     0.029 A 
ATOM     58  N   UNL A   1      44.661  31.824  30.651  1.00  0.00    -0.354 N 
ATOM     59  N   UNL A   1      40.657  32.101  32.417  1.00  0.00    -0.248 NA
ATOM     60  C   UNL A   1      40.575  33.272  30.398  1.00  0.00     0.031 C 
ATOM     61  C   UNL A   1      45.068  30.000  31.772  1.00  0.00     0.029 A 
ATOM     62  C   UNL A   1      44.170  31.064  31.684  1.00  0.00     0.049 A 
ATOM     63  H   UNL A   1      44.577  32.801  30.555  1.00  0.00     0.167 HD
ATOM     64  C   UNL A   1      41.952  32.180  31.920  1.00  0.00     0.074 A 
ATOM     65  C   UNL A   1      41.845  32.974  30.698  1.00  0.00     0.031 C 
ATOM     66  C   UNL A   1      42.939  31.356  32.380  1.00  0.00     0.037 A 
BRANCH  53  67
ATOM     67  C   UNL A   1      45.435  32.324  27.579  1.00  0.00     0.064 A 
ATOM     68  C   UNL A   1      46.752  32.408  27.097  1.00  0.00     0.173 A 
ATOM     69  C   UNL A   1      44.677  33.516  27.518  1.00  0.00     0.173 A 
ATOM     70  F   UNL A   1      47.560  31.337  27.136  1.00  0.00    -0.203 F 
ATOM     71  C   UNL A   1      47.289  33.615  26.648  1.00  0.00     0.198 A 
ATOM     72  C   UNL A   1      45.197  34.701  27.013  1.00  0.00     0.198 A 
ATOM     73  F   UNL A   1      43.451  33.609  28.048  1.00  0.00    -0.203 F 
ATOM     74  F   UNL A   1      48.583  33.680  26.312  1.00  0.00    -0.200 F 
ATOM     75  C   UNL A   1      46.512  34.760  26.609  1.00  0.00     0.200 A 
ATOM     76  F   UNL A   1      44.432  35.802  27.001  1.00  0.00    -0.200 F 
ATOM     77  F   UNL A   1      47.043  35.930  26.233  1.00  0.00    -0.200 F 
ENDBRANCH  53  67
BRANCH  54  78
ATOM     78  C   UNL A   1      37.334  32.658  30.897  1.00  0.00     0.064 A 
ATOM     79  C   UNL A   1      36.990  33.153  29.631  1.00  0.00     0.173 A 
ATOM     80  C   UNL A   1      36.327  32.704  31.883  1.00  0.00     0.173 A 
ATOM     81  F   UNL A   1      37.872  33.096  28.622  1.00  0.00    -0.203 F 
ATOM     82  C   UNL A   1      35.710  33.654  29.363  1.00  0.00     0.198 A 
ATOM     83  C   UNL A   1      35.055  33.209  31.618  1.00  0.00     0.198 A 
ATOM     84  F   UNL A   1      36.527  32.175  33.098  1.00  0.00    -0.203 F 
ATOM     85  F   UNL A   1      35.399  34.072  28.128  1.00  0.00    -0.200 F 
ATOM     86  C   UNL A   1      34.742  33.675  30.355  1.00  0.00     0.200 A 
ATOM     87  F   UNL A   1      34.117  33.186  32.577  1.00  0.00    -0.200 F 
ATOM     88  F   UNL A   1      33.501  34.105  30.086  1.00  0.00    -0.200 F 
ENDBRANCH  54  78
BRANCH  66  89
ATOM     89  C   UNL A   1      42.609  30.493  33.567  1.00  0.00     0.064 A 
ATOM     90  C   UNL A   1      42.691  30.949  34.896  1.00  0.00     0.173 A 
ATOM     91  C   UNL A   1      42.061  29.224  33.357  1.00  0.00     0.173 A 
ATOM     92  F   UNL A   1      43.100  32.193  35.167  1.00  0.00    -0.203 F 
ATOM     93  C   UNL A   1      42.292  30.150  35.964  1.00  0.00     0.198 A 
ATOM     94  C   UNL A   1      41.630  28.439  34.425  1.00  0.00     0.198 A 
ATOM     95  F   UNL A   1      41.896  28.764  32.107  1.00  0.00    -0.203 F 
ATOM     96  F   UNL A   1      42.393  30.607  37.222  1.00  0.00    -0.200 F 
ATOM     97  C   UNL A   1      41.756  28.896  35.727  1.00  0.00     0.200 A 
ATOM     98  F   UNL A   1      41.063  27.247  34.188  1.00  0.00    -0.200 F 
ATOM     99  F   UNL A   1      41.334  28.140  36.750  1.00  0.00    -0.200 F 
ENDBRANCH  66  89
ENDBRANCH  40  41
ENDBRANCH  33  35
ENDBRANCH  32  33
ENDBRANCH  31  32
ENDBRANCH  30  31
ENDBRANCH  29  30
ENDBRANCH  28  29
ENDBRANCH  27  28
ENDBRANCH  26  27
ENDBRANCH   1  26
TORSDOF 24
ENDMDL
