MODEL 1
REMARK VINA RESULT:      -9.9      0.000      0.000
REMARK SMILES CC(C)N1C(=O)C[C@@H](Sc2csc(C(=O)OCCOCCOCCOCCOC(=O)c3ccc(-c4c5nc(c(-c6c(F)c(F)c(F)c(F)c6F)c6ccc([nH]6)c(-c6c(F)c(F)c(F)c(F)c6F)c6nc(c(-c7c(F)c(F)c(F)c(F)c7F)c7ccc4[nH]7)C=C6)C=C5)cc3)c2)C1=O
REMARK SMILES IDX 21 1 20 2 19 3 18 4 17 5 16 6 14 7 15 8 13 9 10 10 11 11
REMARK SMILES IDX 94 12 12 13 9 14 8 15 4 16 5 17 95 18 6 19 7 20 96 21 2 22
REMARK SMILES IDX 1 23 3 24 22 25 23 26 24 27 25 28 26 29 27 30 28 31 29 32
REMARK SMILES IDX 30 33 31 34 32 35 93 36 33 37 92 38 34 39 35 40 36 41 86 42
REMARK SMILES IDX 37 43 91 44 85 45 87 46 38 47 90 48 84 49 83 50 39 52 71 53
REMARK SMILES IDX 51 54 70 55 52 56 55 57 69 58 88 59 53 60 54 61 68 63 89 64
REMARK SMILES IDX 56 65 40 66 41 67 49 68 42 69 43 70 47 71 50 72 44 73 45 74
REMARK SMILES IDX 48 75 46 76 72 77 73 78 81 79 74 80 75 81 79 82 82 83 76 84
REMARK SMILES IDX 77 85 80 86 78 87 57 88 58 89 66 90 59 91 60 92 64 93 67 94
REMARK SMILES IDX 61 95 62 96 65 97 63 98
REMARK H PARENT 87 51 55 62
REMARK Flexibility Score: inf
ROOT
ATOM      1  C   UNL A   1      42.290  19.338  27.027  1.00  0.00     0.188 C 
ENDROOT
BRANCH   1   2
ATOM      2  C   UNL A   1      41.364  20.559  27.135  1.00  0.00     0.188 C 
BRANCH   2   3
ATOM      3  O   UNL A   1      40.501  20.720  26.008  1.00  0.00    -0.376 OA
BRANCH   3   4
ATOM      4  C   UNL A   1      39.421  21.632  26.183  1.00  0.00     0.202 C 
BRANCH   4   5
ATOM      5  C   UNL A   1      38.160  21.259  25.390  1.00  0.00     0.261 C 
BRANCH   5   6
ATOM      6  O   UNL A   1      36.952  21.854  25.888  1.00  0.00    -0.459 OA
BRANCH   6   7
ATOM      7  C   UNL A   1      36.700  23.138  25.514  1.00  0.00     0.348 C 
ATOM      8  O   UNL A   1      37.525  24.040  25.526  1.00  0.00    -0.245 OA
BRANCH   7   9
ATOM      9  C   UNL A   1      35.369  23.187  24.956  1.00  0.00     0.113 A 
ATOM     10  C   UNL A   1      33.069  22.949  24.652  1.00  0.00     0.020 A 
ATOM     11  C   UNL A   1      33.516  22.999  23.353  1.00  0.00     0.080 A 
ATOM     12  C   UNL A   1      34.148  23.011  25.579  1.00  0.00     0.042 A 
ATOM     13  S   UNL A   1      35.190  23.346  23.262  1.00  0.00    -0.136 S 
BRANCH  10  14
ATOM     14  S   UNL A   1      31.416  22.728  25.200  1.00  0.00    -0.111 SA
BRANCH  14  15
ATOM     15  C   UNL A   1      30.630  24.359  25.058  1.00  0.00     0.150 C 
ATOM     16  N   UNL A   1      31.556  26.490  24.778  1.00  0.00    -0.279 N 
ATOM     17  C   UNL A   1      31.021  26.158  23.562  1.00  0.00     0.231 C 
ATOM     18  C   UNL A   1      31.398  25.489  25.701  1.00  0.00     0.243 C 
ATOM     19  O   UNL A   1      31.046  26.837  22.546  1.00  0.00    -0.274 OA
ATOM     20  C   UNL A   1      30.425  24.786  23.617  1.00  0.00     0.125 C 
ATOM     21  O   UNL A   1      31.782  25.488  26.862  1.00  0.00    -0.273 OA
BRANCH  16  22
ATOM     22  C   UNL A   1      32.306  27.741  24.956  1.00  0.00     0.087 C 
ATOM     23  C   UNL A   1      33.557  27.870  24.088  1.00  0.00     0.031 C 
ATOM     24  C   UNL A   1      31.400  28.957  24.745  1.00  0.00     0.031 C 
ENDBRANCH  16  22
ENDBRANCH  14  15
ENDBRANCH  10  14
ENDBRANCH   7   9
ENDBRANCH   6   7
ENDBRANCH   5   6
ENDBRANCH   4   5
ENDBRANCH   3   4
ENDBRANCH   2   3
ENDBRANCH   1   2
BRANCH   1  25
ATOM     25  O   UNL A   1      42.284  18.707  25.759  1.00  0.00    -0.377 OA
BRANCH  25  26
ATOM     26  C   UNL A   1      43.486  18.700  24.994  1.00  0.00     0.188 C 
BRANCH  26  27
ATOM     27  C   UNL A   1      44.536  19.824  25.100  1.00  0.00     0.188 C 
BRANCH  27  28
ATOM     28  O   UNL A   1      44.268  20.957  24.278  1.00  0.00    -0.376 OA
BRANCH  28  29
ATOM     29  C   UNL A   1      44.496  22.230  24.872  1.00  0.00     0.202 C 
BRANCH  29  30
ATOM     30  C   UNL A   1      43.265  23.138  24.800  1.00  0.00     0.261 C 
BRANCH  30  31
ATOM     31  O   UNL A   1      43.557  24.490  24.413  1.00  0.00    -0.460 OA
BRANCH  31  32
ATOM     32  C   UNL A   1      44.425  25.167  25.197  1.00  0.00     0.338 C 
ATOM     33  O   UNL A   1      45.624  25.298  25.033  1.00  0.00    -0.246 OA
BRANCH  32  34
ATOM     34  C   UNL A   1      43.647  25.880  26.225  1.00  0.00     0.060 A 
ATOM     35  C   UNL A   1      43.774  27.272  26.317  1.00  0.00     0.016 A 
ATOM     36  C   UNL A   1      42.813  25.179  27.098  1.00  0.00     0.016 A 
ATOM     37  C   UNL A   1      43.097  27.962  27.320  1.00  0.00     0.010 A 
ATOM     38  C   UNL A   1      42.146  25.869  28.111  1.00  0.00     0.010 A 
ATOM     39  C   UNL A   1      42.315  27.257  28.246  1.00  0.00    -0.014 A 
BRANCH  39  40
ATOM     40  C   UNL A   1      41.830  27.932  29.471  1.00  0.00     0.031 A 
ATOM     41  C   UNL A   1      40.560  28.729  29.388  1.00  0.00     0.074 A 
ATOM     42  C   UNL A   1      42.511  27.851  30.626  1.00  0.00     0.049 A 
ATOM     43  N   UNL A   1      39.963  29.443  30.307  1.00  0.00    -0.248 NA
ATOM     44  C   UNL A   1      39.870  28.723  28.086  1.00  0.00     0.031 C 
ATOM     45  C   UNL A   1      43.742  27.095  30.833  1.00  0.00     0.029 A 
ATOM     46  N   UNL A   1      42.259  28.432  31.843  1.00  0.00    -0.354 N 
ATOM     47  C   UNL A   1      38.831  29.964  29.699  1.00  0.00     0.074 A 
ATOM     48  C   UNL A   1      38.834  29.512  28.325  1.00  0.00     0.031 C 
ATOM     49  C   UNL A   1      44.151  27.270  32.101  1.00  0.00     0.029 A 
ATOM     50  C   UNL A   1      43.222  28.169  32.786  1.00  0.00     0.049 A 
ATOM     51  H   UNL A   1      41.465  28.985  32.024  1.00  0.00     0.167 HD
ATOM     52  C   UNL A   1      37.866  30.746  30.240  1.00  0.00     0.037 A 
ATOM     53  C   UNL A   1      43.342  28.621  34.048  1.00  0.00     0.037 A 
ATOM     54  C   UNL A   1      37.869  31.209  31.600  1.00  0.00     0.049 A 
ATOM     55  C   UNL A   1      42.291  29.546  34.607  1.00  0.00     0.074 A 
ATOM     56  C   UNL A   1      36.931  31.992  32.248  1.00  0.00     0.029 A 
ATOM     57  N   UNL A   1      38.871  30.936  32.520  1.00  0.00    -0.354 N 
ATOM     58  N   UNL A   1      41.202  30.002  34.040  1.00  0.00    -0.248 NA
ATOM     59  C   UNL A   1      42.490  30.017  35.986  1.00  0.00     0.031 C 
ATOM     60  C   UNL A   1      37.386  32.228  33.551  1.00  0.00     0.029 A 
ATOM     61  C   UNL A   1      38.586  31.557  33.725  1.00  0.00     0.049 A 
ATOM     62  H   UNL A   1      39.667  30.384  32.343  1.00  0.00     0.167 HD
ATOM     63  C   UNL A   1      40.573  30.791  34.996  1.00  0.00     0.074 A 
ATOM     64  C   UNL A   1      41.398  30.744  36.185  1.00  0.00     0.031 C 
ATOM     65  C   UNL A   1      39.416  31.489  34.900  1.00  0.00     0.037 A 
BRANCH  52  66
ATOM     66  C   UNL A   1      36.740  31.162  29.346  1.00  0.00     0.064 A 
ATOM     67  C   UNL A   1      36.643  32.471  28.852  1.00  0.00     0.173 A 
ATOM     68  C   UNL A   1      35.757  30.238  28.964  1.00  0.00     0.173 A 
ATOM     69  F   UNL A   1      37.551  33.394  29.205  1.00  0.00    -0.203 F 
ATOM     70  C   UNL A   1      35.589  32.847  28.025  1.00  0.00     0.198 A 
ATOM     71  C   UNL A   1      34.716  30.612  28.119  1.00  0.00     0.198 A 
ATOM     72  F   UNL A   1      35.804  28.974  29.413  1.00  0.00    -0.203 F 
ATOM     73  F   UNL A   1      35.493  34.113  27.598  1.00  0.00    -0.200 F 
ATOM     74  C   UNL A   1      34.630  31.916  27.654  1.00  0.00     0.200 A 
ATOM     75  F   UNL A   1      33.792  29.710  27.757  1.00  0.00    -0.200 F 
ATOM     76  F   UNL A   1      33.616  32.279  26.856  1.00  0.00    -0.200 F 
ENDBRANCH  52  66
BRANCH  53  77
ATOM     77  C   UNL A   1      44.505  28.213  34.875  1.00  0.00     0.064 A 
ATOM     78  C   UNL A   1      45.626  29.044  35.003  1.00  0.00     0.173 A 
ATOM     79  C   UNL A   1      44.531  26.973  35.532  1.00  0.00     0.173 A 
ATOM     80  F   UNL A   1      45.659  30.226  34.370  1.00  0.00    -0.203 F 
ATOM     81  C   UNL A   1      46.736  28.644  35.744  1.00  0.00     0.198 A 
ATOM     82  C   UNL A   1      45.632  26.585  36.291  1.00  0.00     0.198 A 
ATOM     83  F   UNL A   1      43.485  26.140  35.434  1.00  0.00    -0.203 F 
ATOM     84  F   UNL A   1      47.813  29.438  35.815  1.00  0.00    -0.200 F 
ATOM     85  C   UNL A   1      46.737  27.418  36.392  1.00  0.00     0.200 A 
ATOM     86  F   UNL A   1      45.626  25.401  36.919  1.00  0.00    -0.200 F 
ATOM     87  F   UNL A   1      47.805  27.033  37.103  1.00  0.00    -0.200 F 
ENDBRANCH  53  77
BRANCH  65  88
ATOM     88  C   UNL A   1      38.955  32.233  36.117  1.00  0.00     0.064 A 
ATOM     89  C   UNL A   1      38.164  31.617  37.097  1.00  0.00     0.173 A 
ATOM     90  C   UNL A   1      39.353  33.561  36.330  1.00  0.00     0.173 A 
ATOM     91  F   UNL A   1      37.746  30.352  36.931  1.00  0.00    -0.203 F 
ATOM     92  C   UNL A   1      37.773  32.310  38.240  1.00  0.00     0.198 A 
ATOM     93  C   UNL A   1      38.981  34.243  37.485  1.00  0.00     0.198 A 
ATOM     94  F   UNL A   1      40.115  34.192  35.424  1.00  0.00    -0.203 F 
ATOM     95  F   UNL A   1      36.987  31.714  39.147  1.00  0.00    -0.200 F 
ATOM     96  C   UNL A   1      38.188  33.619  38.436  1.00  0.00     0.200 A 
ATOM     97  F   UNL A   1      39.392  35.504  37.678  1.00  0.00    -0.200 F 
ATOM     98  F   UNL A   1      37.818  34.282  39.540  1.00  0.00    -0.200 F 
ENDBRANCH  65  88
ENDBRANCH  39  40
ENDBRANCH  32  34
ENDBRANCH  31  32
ENDBRANCH  30  31
ENDBRANCH  29  30
ENDBRANCH  28  29
ENDBRANCH  27  28
ENDBRANCH  26  27
ENDBRANCH  25  26
ENDBRANCH   1  25
TORSDOF 23
ENDMDL
MODEL 2
REMARK VINA RESULT:      -9.5      4.453      7.172
REMARK SMILES CC(C)N1C(=O)C[C@@H](Sc2csc(C(=O)OCCOCCOCCOCCOC(=O)c3ccc(-c4c5nc(c(-c6c(F)c(F)c(F)c(F)c6F)c6ccc([nH]6)c(-c6c(F)c(F)c(F)c(F)c6F)c6nc(c(-c7c(F)c(F)c(F)c(F)c7F)c7ccc4[nH]7)C=C6)C=C5)cc3)c2)C1=O
REMARK SMILES IDX 21 1 20 2 19 3 18 4 17 5 16 6 14 7 15 8 13 9 10 10 11 11
REMARK SMILES IDX 94 12 12 13 9 14 8 15 4 16 5 17 95 18 6 19 7 20 96 21 2 22
REMARK SMILES IDX 1 23 3 24 22 25 23 26 24 27 25 28 26 29 27 30 28 31 29 32
REMARK SMILES IDX 30 33 31 34 32 35 93 36 33 37 92 38 34 39 35 40 36 41 86 42
REMARK SMILES IDX 37 43 91 44 85 45 87 46 38 47 90 48 84 49 83 50 39 52 71 53
REMARK SMILES IDX 51 54 70 55 52 56 55 57 69 58 88 59 53 60 54 61 68 63 89 64
REMARK SMILES IDX 56 65 40 66 41 67 49 68 42 69 43 70 47 71 50 72 44 73 45 74
REMARK SMILES IDX 48 75 46 76 72 77 73 78 81 79 74 80 75 81 79 82 82 83 76 84
REMARK SMILES IDX 77 85 80 86 78 87 57 88 58 89 66 90 59 91 60 92 64 93 67 94
REMARK SMILES IDX 61 95 62 96 65 97 63 98
REMARK H PARENT 87 51 55 62
REMARK Flexibility Score: inf
ROOT
ATOM      1  C   UNL A   1      33.291  19.891  26.329  1.00  0.00     0.188 C 
ENDROOT
BRANCH   1   2
ATOM      2  C   UNL A   1      33.373  19.080  25.027  1.00  0.00     0.188 C 
BRANCH   2   3
ATOM      3  O   UNL A   1      33.288  19.884  23.850  1.00  0.00    -0.376 OA
BRANCH   3   4
ATOM      4  C   UNL A   1      32.106  19.717  23.072  1.00  0.00     0.202 C 
BRANCH   4   5
ATOM      5  C   UNL A   1      32.066  20.588  21.809  1.00  0.00     0.261 C 
BRANCH   5   6
ATOM      6  O   UNL A   1      31.791  21.975  22.056  1.00  0.00    -0.459 OA
BRANCH   6   7
ATOM      7  C   UNL A   1      32.843  22.835  21.975  1.00  0.00     0.348 C 
ATOM      8  O   UNL A   1      33.495  23.041  20.962  1.00  0.00    -0.245 OA
BRANCH   7   9
ATOM      9  C   UNL A   1      32.924  23.558  23.222  1.00  0.00     0.113 A 
ATOM     10  C   UNL A   1      32.368  24.654  25.204  1.00  0.00     0.020 A 
ATOM     11  C   UNL A   1      33.569  25.245  24.890  1.00  0.00     0.080 A 
ATOM     12  C   UNL A   1      31.972  23.711  24.212  1.00  0.00     0.042 A 
ATOM     13  S   UNL A   1      34.314  24.504  23.538  1.00  0.00    -0.136 S 
BRANCH  10  14
ATOM     14  S   UNL A   1      31.326  25.023  26.568  1.00  0.00    -0.111 SA
BRANCH  14  15
ATOM     15  C   UNL A   1      30.632  26.664  26.227  1.00  0.00     0.150 C 
ATOM     16  N   UNL A   1      31.677  28.725  25.849  1.00  0.00    -0.279 N 
ATOM     17  C   UNL A   1      31.226  28.311  24.625  1.00  0.00     0.231 C 
ATOM     18  C   UNL A   1      31.398  27.814  26.836  1.00  0.00     0.243 C 
ATOM     19  O   UNL A   1      31.364  28.897  23.561  1.00  0.00    -0.274 OA
ATOM     20  C   UNL A   1      30.563  26.974  24.743  1.00  0.00     0.125 C 
ATOM     21  O   UNL A   1      31.688  27.898  28.021  1.00  0.00    -0.273 OA
BRANCH  16  22
ATOM     22  C   UNL A   1      32.468  29.956  25.985  1.00  0.00     0.087 C 
ATOM     23  C   UNL A   1      31.772  31.088  26.739  1.00  0.00     0.031 C 
ATOM     24  C   UNL A   1      33.828  29.665  26.626  1.00  0.00     0.031 C 
ENDBRANCH  16  22
ENDBRANCH  14  15
ENDBRANCH  10  14
ENDBRANCH   7   9
ENDBRANCH   6   7
ENDBRANCH   5   6
ENDBRANCH   4   5
ENDBRANCH   3   4
ENDBRANCH   2   3
ENDBRANCH   1   2
BRANCH   1  25
ATOM     25  O   UNL A   1      33.418  21.291  26.159  1.00  0.00    -0.377 OA
BRANCH  25  26
ATOM     26  C   UNL A   1      34.472  21.969  26.837  1.00  0.00     0.188 C 
BRANCH  26  27
ATOM     27  C   UNL A   1      35.801  22.327  26.143  1.00  0.00     0.188 C 
BRANCH  27  28
ATOM     28  O   UNL A   1      36.502  21.208  25.606  1.00  0.00    -0.376 OA
BRANCH  28  29
ATOM     29  C   UNL A   1      37.775  21.483  25.030  1.00  0.00     0.202 C 
BRANCH  29  30
ATOM     30  C   UNL A   1      38.931  21.073  25.947  1.00  0.00     0.261 C 
BRANCH  30  31
ATOM     31  O   UNL A   1      39.926  20.261  25.305  1.00  0.00    -0.460 OA
BRANCH  31  32
ATOM     32  C   UNL A   1      40.946  19.831  26.079  1.00  0.00     0.338 C 
ATOM     33  O   UNL A   1      41.258  18.680  26.323  1.00  0.00    -0.246 OA
BRANCH  32  34
ATOM     34  C   UNL A   1      41.748  21.005  26.466  1.00  0.00     0.060 A 
ATOM     35  C   UNL A   1      41.941  21.265  27.829  1.00  0.00     0.016 A 
ATOM     36  C   UNL A   1      42.291  21.847  25.493  1.00  0.00     0.016 A 
ATOM     37  C   UNL A   1      42.644  22.403  28.221  1.00  0.00     0.010 A 
ATOM     38  C   UNL A   1      42.982  22.993  25.887  1.00  0.00     0.010 A 
ATOM     39  C   UNL A   1      43.129  23.291  27.253  1.00  0.00    -0.014 A 
BRANCH  39  40
ATOM     40  C   UNL A   1      43.617  24.630  27.654  1.00  0.00     0.031 A 
ATOM     41  C   UNL A   1      42.602  25.683  27.998  1.00  0.00     0.074 A 
ATOM     42  C   UNL A   1      44.930  24.909  27.695  1.00  0.00     0.049 A 
ATOM     43  N   UNL A   1      42.780  26.935  28.330  1.00  0.00    -0.248 NA
ATOM     44  C   UNL A   1      41.190  25.264  27.958  1.00  0.00     0.031 C 
ATOM     45  C   UNL A   1      46.006  23.968  27.402  1.00  0.00     0.029 A 
ATOM     46  N   UNL A   1      45.576  26.083  27.992  1.00  0.00    -0.354 N 
ATOM     47  C   UNL A   1      41.510  27.450  28.543  1.00  0.00     0.074 A 
ATOM     48  C   UNL A   1      40.566  26.388  28.275  1.00  0.00     0.031 C 
ATOM     49  C   UNL A   1      47.184  24.605  27.516  1.00  0.00     0.029 A 
ATOM     50  C   UNL A   1      46.941  26.004  27.869  1.00  0.00     0.049 A 
ATOM     51  H   UNL A   1      45.106  26.903  28.266  1.00  0.00     0.167 HD
ATOM     52  C   UNL A   1      41.161  28.698  28.935  1.00  0.00     0.037 A 
ATOM     53  C   UNL A   1      47.878  26.960  28.008  1.00  0.00     0.037 A 
ATOM     54  C   UNL A   1      42.097  29.759  29.186  1.00  0.00     0.049 A 
ATOM     55  C   UNL A   1      47.459  28.360  28.379  1.00  0.00     0.074 A 
ATOM     56  C   UNL A   1      41.844  31.054  29.602  1.00  0.00     0.029 A 
ATOM     57  N   UNL A   1      43.471  29.646  29.034  1.00  0.00    -0.354 N 
ATOM     58  N   UNL A   1      46.260  28.831  28.618  1.00  0.00    -0.248 NA
ATOM     59  C   UNL A   1      48.529  29.362  28.499  1.00  0.00     0.031 C 
ATOM     60  C   UNL A   1      43.064  31.738  29.662  1.00  0.00     0.029 A 
ATOM     61  C   UNL A   1      44.079  30.856  29.324  1.00  0.00     0.049 A 
ATOM     62  H   UNL A   1      43.944  28.827  28.760  1.00  0.00     0.167 HD
ATOM     63  C   UNL A   1      46.431  30.171  28.940  1.00  0.00     0.074 A 
ATOM     64  C   UNL A   1      47.853  30.438  28.876  1.00  0.00     0.031 C 
ATOM     65  C   UNL A   1      45.497  31.098  29.263  1.00  0.00     0.037 A 
BRANCH  52  66
ATOM     66  C   UNL A   1      39.700  28.981  29.094  1.00  0.00     0.064 A 
ATOM     67  C   UNL A   1      39.056  28.834  30.332  1.00  0.00     0.173 A 
ATOM     68  C   UNL A   1      38.937  29.421  28.003  1.00  0.00     0.173 A 
ATOM     69  F   UNL A   1      39.741  28.398  31.400  1.00  0.00    -0.203 F 
ATOM     70  C   UNL A   1      37.696  29.096  30.466  1.00  0.00     0.198 A 
ATOM     71  C   UNL A   1      37.582  29.704  28.146  1.00  0.00     0.198 A 
ATOM     72  F   UNL A   1      39.507  29.575  26.798  1.00  0.00    -0.203 F 
ATOM     73  F   UNL A   1      37.093  28.909  31.648  1.00  0.00    -0.200 F 
ATOM     74  C   UNL A   1      36.962  29.536  29.375  1.00  0.00     0.200 A 
ATOM     75  F   UNL A   1      36.874  30.134  27.092  1.00  0.00    -0.200 F 
ATOM     76  F   UNL A   1      35.652  29.790  29.506  1.00  0.00    -0.200 F 
ENDBRANCH  52  66
BRANCH  53  77
ATOM     77  C   UNL A   1      49.310  26.633  27.792  1.00  0.00     0.064 A 
ATOM     78  C   UNL A   1      49.830  26.491  26.499  1.00  0.00     0.173 A 
ATOM     79  C   UNL A   1      50.180  26.430  28.874  1.00  0.00     0.173 A 
ATOM     80  F   UNL A   1      49.029  26.647  25.434  1.00  0.00    -0.203 F 
ATOM     81  C   UNL A   1      51.164  26.143  26.295  1.00  0.00     0.198 A 
ATOM     82  C   UNL A   1      51.519  26.105  28.667  1.00  0.00     0.198 A 
ATOM     83  F   UNL A   1      49.729  26.548  30.130  1.00  0.00    -0.203 F 
ATOM     84  F   UNL A   1      51.625  25.970  25.048  1.00  0.00    -0.200 F 
ATOM     85  C   UNL A   1      52.008  25.955  27.378  1.00  0.00     0.200 A 
ATOM     86  F   UNL A   1      52.333  25.929  29.717  1.00  0.00    -0.200 F 
ATOM     87  F   UNL A   1      53.290  25.618  27.181  1.00  0.00    -0.200 F 
ENDBRANCH  53  77
BRANCH  65  88
ATOM     88  C   UNL A   1      45.979  32.477  29.603  1.00  0.00     0.064 A 
ATOM     89  C   UNL A   1      46.363  32.819  30.907  1.00  0.00     0.173 A 
ATOM     90  C   UNL A   1      46.108  33.450  28.600  1.00  0.00     0.173 A 
ATOM     91  F   UNL A   1      46.245  31.926  31.902  1.00  0.00    -0.203 F 
ATOM     92  C   UNL A   1      46.843  34.093  31.199  1.00  0.00     0.198 A 
ATOM     93  C   UNL A   1      46.611  34.714  28.892  1.00  0.00     0.198 A 
ATOM     94  F   UNL A   1      45.760  33.168  27.336  1.00  0.00    -0.203 F 
ATOM     95  F   UNL A   1      47.170  34.410  32.459  1.00  0.00    -0.200 F 
ATOM     96  C   UNL A   1      46.974  35.036  30.191  1.00  0.00     0.200 A 
ATOM     97  F   UNL A   1      46.747  35.621  27.914  1.00  0.00    -0.200 F 
ATOM     98  F   UNL A   1      47.443  36.259  30.472  1.00  0.00    -0.200 F 
ENDBRANCH  65  88
ENDBRANCH  39  40
ENDBRANCH  32  34
ENDBRANCH  31  32
ENDBRANCH  30  31
ENDBRANCH  29  30
ENDBRANCH  28  29
ENDBRANCH  27  28
ENDBRANCH  26  27
ENDBRANCH  25  26
ENDBRANCH   1  25
TORSDOF 23
ENDMDL
MODEL 3
REMARK VINA RESULT:      -9.5      7.485     11.775
REMARK SMILES CC(C)N1C(=O)C[C@@H](Sc2csc(C(=O)OCCOCCOCCOCCOC(=O)c3ccc(-c4c5nc(c(-c6c(F)c(F)c(F)c(F)c6F)c6ccc([nH]6)c(-c6c(F)c(F)c(F)c(F)c6F)c6nc(c(-c7c(F)c(F)c(F)c(F)c7F)c7ccc4[nH]7)C=C6)C=C5)cc3)c2)C1=O
REMARK SMILES IDX 21 1 20 2 19 3 18 4 17 5 16 6 14 7 15 8 13 9 10 10 11 11
REMARK SMILES IDX 94 12 12 13 9 14 8 15 4 16 5 17 95 18 6 19 7 20 96 21 2 22
REMARK SMILES IDX 1 23 3 24 22 25 23 26 24 27 25 28 26 29 27 30 28 31 29 32
REMARK SMILES IDX 30 33 31 34 32 35 93 36 33 37 92 38 34 39 35 40 36 41 86 42
REMARK SMILES IDX 37 43 91 44 85 45 87 46 38 47 90 48 84 49 83 50 39 52 71 53
REMARK SMILES IDX 51 54 70 55 52 56 55 57 69 58 88 59 53 60 54 61 68 63 89 64
REMARK SMILES IDX 56 65 40 66 41 67 49 68 42 69 43 70 47 71 50 72 44 73 45 74
REMARK SMILES IDX 48 75 46 76 72 77 73 78 81 79 74 80 75 81 79 82 82 83 76 84
REMARK SMILES IDX 77 85 80 86 78 87 57 88 58 89 66 90 59 91 60 92 64 93 67 94
REMARK SMILES IDX 61 95 62 96 65 97 63 98
REMARK H PARENT 87 51 55 62
REMARK Flexibility Score: inf
ROOT
ATOM      1  C   UNL A   1      41.312  20.966  27.592  1.00  0.00     0.188 C 
ENDROOT
BRANCH   1   2
ATOM      2  C   UNL A   1      40.465  21.786  26.607  1.00  0.00     0.188 C 
BRANCH   2   3
ATOM      3  O   UNL A   1      39.159  21.246  26.394  1.00  0.00    -0.376 OA
BRANCH   3   4
ATOM      4  C   UNL A   1      38.360  21.926  25.430  1.00  0.00     0.202 C 
BRANCH   4   5
ATOM      5  C   UNL A   1      36.976  21.297  25.218  1.00  0.00     0.261 C 
BRANCH   5   6
ATOM      6  O   UNL A   1      35.890  22.235  25.246  1.00  0.00    -0.459 OA
BRANCH   6   7
ATOM      7  C   UNL A   1      34.644  21.742  25.006  1.00  0.00     0.348 C 
ATOM      8  O   UNL A   1      34.274  20.615  25.302  1.00  0.00    -0.245 OA
BRANCH   7   9
ATOM      9  C   UNL A   1      33.824  22.823  24.514  1.00  0.00     0.113 A 
ATOM     10  C   UNL A   1      32.036  24.058  23.665  1.00  0.00     0.020 A 
ATOM     11  C   UNL A   1      33.112  24.807  23.250  1.00  0.00     0.080 A 
ATOM     12  C   UNL A   1      32.452  22.884  24.357  1.00  0.00     0.042 A 
ATOM     13  S   UNL A   1      34.588  24.219  23.887  1.00  0.00    -0.136 S 
BRANCH  10  14
ATOM     14  S   UNL A   1      30.339  24.364  23.341  1.00  0.00    -0.111 SA
BRANCH  14  15
ATOM     15  C   UNL A   1      29.967  25.955  24.131  1.00  0.00     0.150 C 
ATOM     16  N   UNL A   1      31.340  27.444  25.305  1.00  0.00    -0.279 N 
ATOM     17  C   UNL A   1      31.118  28.030  24.087  1.00  0.00     0.231 C 
ATOM     18  C   UNL A   1      30.729  26.221  25.407  1.00  0.00     0.243 C 
ATOM     19  O   UNL A   1      31.566  29.100  23.701  1.00  0.00    -0.274 OA
ATOM     20  C   UNL A   1      30.269  27.140  23.233  1.00  0.00     0.125 C 
ATOM     21  O   UNL A   1      30.759  25.459  26.363  1.00  0.00    -0.273 OA
BRANCH  16  22
ATOM     22  C   UNL A   1      32.241  28.063  26.286  1.00  0.00     0.087 C 
ATOM     23  C   UNL A   1      31.658  28.213  27.690  1.00  0.00     0.031 C 
ATOM     24  C   UNL A   1      33.574  27.314  26.355  1.00  0.00     0.031 C 
ENDBRANCH  16  22
ENDBRANCH  14  15
ENDBRANCH  10  14
ENDBRANCH   7   9
ENDBRANCH   6   7
ENDBRANCH   5   6
ENDBRANCH   4   5
ENDBRANCH   3   4
ENDBRANCH   2   3
ENDBRANCH   1   2
BRANCH   1  25
ATOM     25  O   UNL A   1      41.438  19.596  27.260  1.00  0.00    -0.377 OA
BRANCH  25  26
ATOM     26  C   UNL A   1      41.921  19.248  25.965  1.00  0.00     0.188 C 
BRANCH  26  27
ATOM     27  C   UNL A   1      43.398  18.887  25.706  1.00  0.00     0.188 C 
BRANCH  27  28
ATOM     28  O   UNL A   1      44.030  19.686  24.709  1.00  0.00    -0.376 OA
BRANCH  28  29
ATOM     29  C   UNL A   1      45.435  19.865  24.848  1.00  0.00     0.202 C 
BRANCH  29  30
ATOM     30  C   UNL A   1      45.868  21.312  24.591  1.00  0.00     0.261 C 
BRANCH  30  31
ATOM     31  O   UNL A   1      46.188  22.046  25.782  1.00  0.00    -0.460 OA
BRANCH  31  32
ATOM     32  C   UNL A   1      45.186  22.760  26.339  1.00  0.00     0.338 C 
ATOM     33  O   UNL A   1      44.167  22.333  26.850  1.00  0.00    -0.246 OA
BRANCH  32  34
ATOM     34  C   UNL A   1      45.601  24.173  26.378  1.00  0.00     0.060 A 
ATOM     35  C   UNL A   1      45.526  24.927  25.200  1.00  0.00     0.016 A 
ATOM     36  C   UNL A   1      46.074  24.742  27.563  1.00  0.00     0.016 A 
ATOM     37  C   UNL A   1      45.971  26.248  25.197  1.00  0.00     0.010 A 
ATOM     38  C   UNL A   1      46.532  26.059  27.555  1.00  0.00     0.010 A 
ATOM     39  C   UNL A   1      46.514  26.804  26.363  1.00  0.00    -0.014 A 
BRANCH  39  40
ATOM     40  C   UNL A   1      47.245  28.090  26.299  1.00  0.00     0.031 A 
ATOM     41  C   UNL A   1      48.724  28.054  26.040  1.00  0.00     0.074 A 
ATOM     42  C   UNL A   1      46.612  29.260  26.484  1.00  0.00     0.049 A 
ATOM     43  N   UNL A   1      49.584  29.038  25.987  1.00  0.00    -0.248 NA
ATOM     44  C   UNL A   1      49.314  26.723  25.815  1.00  0.00     0.031 C 
ATOM     45  C   UNL A   1      45.181  29.421  26.723  1.00  0.00     0.029 A 
ATOM     46  N   UNL A   1      47.108  30.539  26.510  1.00  0.00    -0.354 N 
ATOM     47  C   UNL A   1      50.811  28.448  25.718  1.00  0.00     0.074 A 
ATOM     48  C   UNL A   1      50.594  27.020  25.647  1.00  0.00     0.031 C 
ATOM     49  C   UNL A   1      44.914  30.728  26.890  1.00  0.00     0.029 A 
ATOM     50  C   UNL A   1      46.159  31.489  26.791  1.00  0.00     0.049 A 
ATOM     51  H   UNL A   1      48.054  30.755  26.345  1.00  0.00     0.167 HD
ATOM     52  C   UNL A   1      52.012  29.046  25.537  1.00  0.00     0.037 A 
ATOM     53  C   UNL A   1      46.291  32.818  26.965  1.00  0.00     0.037 A 
ATOM     54  C   UNL A   1      52.232  30.463  25.623  1.00  0.00     0.049 A 
ATOM     55  C   UNL A   1      47.651  33.452  26.826  1.00  0.00     0.074 A 
ATOM     56  C   UNL A   1      53.408  31.167  25.441  1.00  0.00     0.029 A 
ATOM     57  N   UNL A   1      51.249  31.393  25.927  1.00  0.00    -0.354 N 
ATOM     58  N   UNL A   1      48.800  32.894  26.531  1.00  0.00    -0.248 NA
ATOM     59  C   UNL A   1      47.731  34.904  27.044  1.00  0.00     0.031 C 
ATOM     60  C   UNL A   1      53.145  32.522  25.675  1.00  0.00     0.029 A 
ATOM     61  C   UNL A   1      51.797  32.664  25.961  1.00  0.00     0.049 A 
ATOM     62  H   UNL A   1      50.301  31.181  26.093  1.00  0.00     0.167 HD
ATOM     63  C   UNL A   1      49.731  33.925  26.504  1.00  0.00     0.074 A 
ATOM     64  C   UNL A   1      49.012  35.146  26.803  1.00  0.00     0.031 C 
ATOM     65  C   UNL A   1      51.061  33.868  26.251  1.00  0.00     0.037 A 
BRANCH  52  66
ATOM     66  C   UNL A   1      53.182  28.157  25.249  1.00  0.00     0.064 A 
ATOM     67  C   UNL A   1      53.607  27.910  23.935  1.00  0.00     0.173 A 
ATOM     68  C   UNL A   1      53.896  27.559  26.297  1.00  0.00     0.173 A 
ATOM     69  F   UNL A   1      52.943  28.445  22.900  1.00  0.00    -0.203 F 
ATOM     70  C   UNL A   1      54.693  27.078  23.680  1.00  0.00     0.198 A 
ATOM     71  C   UNL A   1      54.995  26.745  26.039  1.00  0.00     0.198 A 
ATOM     72  F   UNL A   1      53.525  27.763  27.571  1.00  0.00    -0.203 F 
ATOM     73  F   UNL A   1      55.056  26.822  22.417  1.00  0.00    -0.200 F 
ATOM     74  C   UNL A   1      55.389  26.501  24.732  1.00  0.00     0.200 A 
ATOM     75  F   UNL A   1      55.671  26.192  27.057  1.00  0.00    -0.200 F 
ATOM     76  F   UNL A   1      56.436  25.702  24.485  1.00  0.00    -0.200 F 
ENDBRANCH  52  66
BRANCH  53  77
ATOM     77  C   UNL A   1      45.103  33.645  27.296  1.00  0.00     0.064 A 
ATOM     78  C   UNL A   1      44.670  33.788  28.621  1.00  0.00     0.173 A 
ATOM     79  C   UNL A   1      44.362  34.286  26.292  1.00  0.00     0.173 A 
ATOM     80  F   UNL A   1      45.331  33.169  29.611  1.00  0.00    -0.203 F 
ATOM     81  C   UNL A   1      43.531  34.528  28.929  1.00  0.00     0.198 A 
ATOM     82  C   UNL A   1      43.237  35.046  26.604  1.00  0.00     0.198 A 
ATOM     83  F   UNL A   1      44.732  34.174  25.008  1.00  0.00    -0.203 F 
ATOM     84  F   UNL A   1      43.113  34.613  30.199  1.00  0.00    -0.200 F 
ATOM     85  C   UNL A   1      42.818  35.161  27.922  1.00  0.00     0.200 A 
ATOM     86  F   UNL A   1      42.554  35.660  25.629  1.00  0.00    -0.200 F 
ATOM     87  F   UNL A   1      41.722  35.871  28.218  1.00  0.00    -0.200 F 
ENDBRANCH  53  77
BRANCH  65  88
ATOM     88  C   UNL A   1      51.822  35.160  26.255  1.00  0.00     0.064 A 
ATOM     89  C   UNL A   1      52.414  35.659  27.424  1.00  0.00     0.173 A 
ATOM     90  C   UNL A   1      52.004  35.879  25.064  1.00  0.00     0.173 A 
ATOM     91  F   UNL A   1      52.256  35.014  28.590  1.00  0.00    -0.203 F 
ATOM     92  C   UNL A   1      53.147  36.842  27.404  1.00  0.00     0.198 A 
ATOM     93  C   UNL A   1      52.757  37.049  25.043  1.00  0.00     0.198 A 
ATOM     94  F   UNL A   1      51.462  35.439  23.919  1.00  0.00    -0.203 F 
ATOM     95  F   UNL A   1      53.674  37.321  28.539  1.00  0.00    -0.200 F 
ATOM     96  C   UNL A   1      53.325  37.532  26.213  1.00  0.00     0.200 A 
ATOM     97  F   UNL A   1      52.938  37.708  23.890  1.00  0.00    -0.200 F 
ATOM     98  F   UNL A   1      54.038  38.667  26.194  1.00  0.00    -0.200 F 
ENDBRANCH  65  88
ENDBRANCH  39  40
ENDBRANCH  32  34
ENDBRANCH  31  32
ENDBRANCH  30  31
ENDBRANCH  29  30
ENDBRANCH  28  29
ENDBRANCH  27  28
ENDBRANCH  26  27
ENDBRANCH  25  26
ENDBRANCH   1  25
TORSDOF 23
ENDMDL
