MODEL 1
REMARK VINA RESULT:      -8.7      0.000      0.000
REMARK SMILES CC(C)N(CCC#N)C(=O)c1ccncc1/C=C/C(=O)OCCOCCOCCOCCOC(=O)c1ccc(-c2c3nc(c(-c4c(F)c(F)c(F)c(F)c4F)c4ccc([nH]4)c(-c4c(F)c(F)c(F)c(F)c4F)c4nc(c(-c5c(F)c(F)c(F)c(F)c5F)c5ccc2[nH]5)C=C4)C=C3)cc1
REMARK SMILES IDX 25 1 24 2 23 3 22 4 21 5 19 6 20 7 18 8 17 9 16 10 11 11
REMARK SMILES IDX 12 12 13 13 15 14 14 15 9 16 10 17 4 18 2 19 1 20 3 21 5 22
REMARK SMILES IDX 6 23 7 24 8 25 26 26 27 27 28 28 29 29 30 30 31 31 32 32
REMARK SMILES IDX 33 33 34 34 35 35 36 36 37 37 98 38 38 39 97 40 39 41 40 42
REMARK SMILES IDX 41 43 91 44 42 45 96 46 90 47 92 48 43 49 95 50 89 51 88 52
REMARK SMILES IDX 44 54 76 55 56 56 75 57 57 58 60 59 74 60 93 61 58 62 59 63
REMARK SMILES IDX 73 65 94 66 61 67 45 68 46 69 54 70 47 71 48 72 52 73 55 74
REMARK SMILES IDX 49 75 50 76 53 77 51 78 77 79 78 80 86 81 79 82 80 83 84 84
REMARK SMILES IDX 87 85 81 86 82 87 85 88 83 89 62 90 63 91 71 92 64 93 65 94
REMARK SMILES IDX 69 95 72 96 66 97 67 98 70 99 68 100
REMARK H PARENT 92 53 60 64
REMARK Flexibility Score: inf
ROOT
ATOM      1  C   UNL A   1      35.569  22.464  25.181  1.00  0.00     0.188 C 
ENDROOT
BRANCH   1   2
ATOM      2  O   UNL A   1      34.818  22.398  23.980  1.00  0.00    -0.376 OA
BRANCH   2   3
ATOM      3  C   UNL A   1      33.590  21.695  23.988  1.00  0.00     0.202 C 
BRANCH   3   4
ATOM      4  C   UNL A   1      32.640  21.998  22.822  1.00  0.00     0.261 C 
BRANCH   4   5
ATOM      5  O   UNL A   1      31.999  23.275  22.905  1.00  0.00    -0.460 OA
BRANCH   5   6
ATOM      6  C   UNL A   1      32.526  24.302  22.195  1.00  0.00     0.330 C 
ATOM      7  O   UNL A   1      33.450  24.227  21.401  1.00  0.00    -0.247 OA
BRANCH   6   8
ATOM      8  C   UNL A   1      31.632  25.489  22.304  1.00  0.00     0.094 C 
ATOM      9  C   UNL A   1      32.114  26.738  22.146  1.00  0.00     0.018 C 
BRANCH   9  10
ATOM     10  C   UNL A   1      31.555  28.011  22.681  1.00  0.00     0.006 A 
ATOM     11  C   UNL A   1      31.907  28.569  23.948  1.00  0.00     0.050 A 
ATOM     12  C   UNL A   1      30.971  29.411  24.562  1.00  0.00     0.034 A 
ATOM     13  C   UNL A   1      29.881  29.871  23.841  1.00  0.00     0.112 A 
ATOM     14  C   UNL A   1      30.435  28.569  22.049  1.00  0.00     0.119 A 
ATOM     15  N   UNL A   1      29.608  29.496  22.585  1.00  0.00    -0.264 NA
BRANCH  11  16
ATOM     16  C   UNL A   1      33.260  28.314  24.594  1.00  0.00     0.254 C 
ATOM     17  O   UNL A   1      34.249  28.746  24.000  1.00  0.00    -0.269 OA
BRANCH  16  18
ATOM     18  N   UNL A   1      33.470  27.665  25.853  1.00  0.00    -0.335 N 
BRANCH  18  19
ATOM     19  C   UNL A   1      33.172  28.479  27.072  1.00  0.00     0.079 C 
ATOM     20  C   UNL A   1      33.471  29.981  26.917  1.00  0.00     0.031 C 
ATOM     21  C   UNL A   1      31.758  28.246  27.610  1.00  0.00     0.031 C 
ENDBRANCH  18  19
BRANCH  18  22
ATOM     22  C   UNL A   1      33.845  26.245  26.115  1.00  0.00     0.135 C 
BRANCH  22  23
ATOM     23  C   UNL A   1      33.014  25.132  25.454  1.00  0.00     0.141 C 
BRANCH  23  24
ATOM     24  C   UNL A   1      32.074  24.494  26.463  1.00  0.00     0.064 C 
ATOM     25  N   UNL A   1      31.294  23.964  27.301  1.00  0.00    -0.198 NA
ENDBRANCH  23  24
ENDBRANCH  22  23
ENDBRANCH  18  22
ENDBRANCH  16  18
ENDBRANCH  11  16
ENDBRANCH   9  10
ENDBRANCH   6   8
ENDBRANCH   5   6
ENDBRANCH   4   5
ENDBRANCH   3   4
ENDBRANCH   2   3
ENDBRANCH   1   2
BRANCH   1  26
ATOM     26  C   UNL A   1      36.569  21.303  25.371  1.00  0.00     0.188 C 
BRANCH  26  27
ATOM     27  O   UNL A   1      37.945  21.459  25.044  1.00  0.00    -0.377 OA
BRANCH  27  28
ATOM     28  C   UNL A   1      38.847  21.952  26.028  1.00  0.00     0.188 C 
BRANCH  28  29
ATOM     29  C   UNL A   1      40.083  21.118  26.438  1.00  0.00     0.188 C 
BRANCH  29  30
ATOM     30  O   UNL A   1      40.842  21.680  27.494  1.00  0.00    -0.376 OA
BRANCH  30  31
ATOM     31  C   UNL A   1      42.250  21.543  27.432  1.00  0.00     0.202 C 
BRANCH  31  32
ATOM     32  C   UNL A   1      43.062  22.774  27.001  1.00  0.00     0.261 C 
BRANCH  32  33
ATOM     33  O   UNL A   1      43.891  22.619  25.839  1.00  0.00    -0.460 OA
BRANCH  33  34
ATOM     34  C   UNL A   1      45.230  22.617  26.026  1.00  0.00     0.338 C 
ATOM     35  O   UNL A   1      45.982  21.665  25.979  1.00  0.00    -0.246 OA
BRANCH  34  36
ATOM     36  C   UNL A   1      45.661  24.030  26.123  1.00  0.00     0.060 A 
ATOM     37  C   UNL A   1      45.445  24.889  25.037  1.00  0.00     0.016 A 
ATOM     38  C   UNL A   1      46.263  24.500  27.290  1.00  0.00     0.016 A 
ATOM     39  C   UNL A   1      45.859  26.221  25.108  1.00  0.00     0.010 A 
ATOM     40  C   UNL A   1      46.698  25.826  27.352  1.00  0.00     0.010 A 
ATOM     41  C   UNL A   1      46.526  26.683  26.250  1.00  0.00    -0.014 A 
BRANCH  41  42
ATOM     42  C   UNL A   1      47.222  27.993  26.221  1.00  0.00     0.031 A 
ATOM     43  C   UNL A   1      48.701  28.004  25.951  1.00  0.00     0.074 A 
ATOM     44  C   UNL A   1      46.560  29.146  26.422  1.00  0.00     0.049 A 
ATOM     45  N   UNL A   1      49.541  29.008  25.942  1.00  0.00    -0.248 NA
ATOM     46  C   UNL A   1      49.318  26.700  25.656  1.00  0.00     0.031 C 
ATOM     47  C   UNL A   1      45.122  29.267  26.649  1.00  0.00     0.029 A 
ATOM     48  N   UNL A   1      47.022  30.437  26.477  1.00  0.00    -0.354 N 
ATOM     49  C   UNL A   1      50.782  28.455  25.654  1.00  0.00     0.074 A 
ATOM     50  C   UNL A   1      50.594  27.028  25.524  1.00  0.00     0.031 C 
ATOM     51  C   UNL A   1      44.820  30.566  26.829  1.00  0.00     0.029 A 
ATOM     52  C   UNL A   1      46.047  31.359  26.769  1.00  0.00     0.049 A 
ATOM     53  H   UNL A   1      47.964  30.680  26.321  1.00  0.00     0.167 HD
ATOM     54  C   UNL A   1      51.971  29.085  25.506  1.00  0.00     0.037 A 
ATOM     55  C   UNL A   1      46.145  32.685  26.987  1.00  0.00     0.037 A 
ATOM     56  C   UNL A   1      52.152  30.507  25.634  1.00  0.00     0.049 A 
ATOM     57  C   UNL A   1      47.497  33.351  26.894  1.00  0.00     0.074 A 
ATOM     58  C   UNL A   1      53.312  31.246  25.476  1.00  0.00     0.029 A 
ATOM     59  N   UNL A   1      51.147  31.404  25.962  1.00  0.00    -0.354 N 
ATOM     60  N   UNL A   1      48.661  32.831  26.592  1.00  0.00    -0.248 NA
ATOM     61  C   UNL A   1      47.545  34.794  27.175  1.00  0.00     0.031 C 
ATOM     62  C   UNL A   1      53.022  32.581  25.775  1.00  0.00     0.029 A 
ATOM     63  C   UNL A   1      51.668  32.686  26.047  1.00  0.00     0.049 A 
ATOM     64  H   UNL A   1      50.204  31.166  26.114  1.00  0.00     0.167 HD
ATOM     65  C   UNL A   1      49.569  33.883  26.606  1.00  0.00     0.074 A 
ATOM     66  C   UNL A   1      48.818  35.075  26.937  1.00  0.00     0.031 C 
ATOM     67  C   UNL A   1      50.904  33.866  26.365  1.00  0.00     0.037 A 
BRANCH  54  68
ATOM     68  C   UNL A   1      53.178  28.236  25.227  1.00  0.00     0.064 A 
ATOM     69  C   UNL A   1      53.928  27.649  26.257  1.00  0.00     0.173 A 
ATOM     70  C   UNL A   1      53.568  27.980  23.903  1.00  0.00     0.173 A 
ATOM     71  F   UNL A   1      53.606  27.875  27.540  1.00  0.00    -0.203 F 
ATOM     72  C   UNL A   1      55.038  26.858  25.973  1.00  0.00     0.198 A 
ATOM     73  C   UNL A   1      54.659  27.161  23.623  1.00  0.00     0.198 A 
ATOM     74  F   UNL A   1      52.886  28.515  22.880  1.00  0.00    -0.203 F 
ATOM     75  F   UNL A   1      55.769  26.348  26.974  1.00  0.00    -0.200 F 
ATOM     76  C   UNL A   1      55.398  26.607  24.657  1.00  0.00     0.200 A 
ATOM     77  F   UNL A   1      54.994  26.909  22.350  1.00  0.00    -0.200 F 
ATOM     78  F   UNL A   1      56.460  25.838  24.386  1.00  0.00    -0.200 F 
ENDBRANCH  54  68
BRANCH  55  79
ATOM     79  C   UNL A   1      44.935  33.480  27.331  1.00  0.00     0.064 A 
ATOM     80  C   UNL A   1      44.242  34.204  26.350  1.00  0.00     0.173 A 
ATOM     81  C   UNL A   1      44.472  33.570  28.652  1.00  0.00     0.173 A 
ATOM     82  F   UNL A   1      44.661  34.177  25.076  1.00  0.00    -0.203 F 
ATOM     83  C   UNL A   1      43.150  35.005  26.681  1.00  0.00     0.198 A 
ATOM     84  C   UNL A   1      43.361  34.344  28.977  1.00  0.00     0.198 A 
ATOM     85  F   UNL A   1      45.103  32.905  29.632  1.00  0.00    -0.203 F 
ATOM     86  F   UNL A   1      42.546  35.734  25.732  1.00  0.00    -0.200 F 
ATOM     87  C   UNL A   1      42.707  35.070  27.993  1.00  0.00     0.200 A 
ATOM     88  F   UNL A   1      42.931  34.397  30.245  1.00  0.00    -0.200 F 
ATOM     89  F   UNL A   1      41.660  35.844  28.311  1.00  0.00    -0.200 F 
ENDBRANCH  55  79
BRANCH  67  90
ATOM     90  C   UNL A   1      51.634  35.180  26.398  1.00  0.00     0.064 A 
ATOM     91  C   UNL A   1      52.170  35.702  27.585  1.00  0.00     0.173 A 
ATOM     92  C   UNL A   1      51.841  35.903  25.212  1.00  0.00     0.173 A 
ATOM     93  F   UNL A   1      51.992  35.058  28.747  1.00  0.00    -0.203 F 
ATOM     94  C   UNL A   1      52.858  36.914  27.587  1.00  0.00     0.198 A 
ATOM     95  C   UNL A   1      52.560  37.095  25.213  1.00  0.00     0.198 A 
ATOM     96  F   UNL A   1      51.360  35.445  24.047  1.00  0.00    -0.203 F 
ATOM     97  F   UNL A   1      53.313  37.420  28.741  1.00  0.00    -0.200 F 
ATOM     98  C   UNL A   1      53.060  37.605  26.402  1.00  0.00     0.200 A 
ATOM     99  F   UNL A   1      52.771  37.750  24.063  1.00  0.00    -0.200 F 
ATOM    100  F   UNL A   1      53.730  38.765  26.405  1.00  0.00    -0.200 F 
ENDBRANCH  67  90
ENDBRANCH  41  42
ENDBRANCH  34  36
ENDBRANCH  33  34
ENDBRANCH  32  33
ENDBRANCH  31  32
ENDBRANCH  30  31
ENDBRANCH  29  30
ENDBRANCH  28  29
ENDBRANCH  27  28
ENDBRANCH  26  27
ENDBRANCH   1  26
TORSDOF 27
ENDMDL
MODEL 2
REMARK VINA RESULT:      -8.6      5.861     10.798
REMARK SMILES CC(C)N(CCC#N)C(=O)c1ccncc1/C=C/C(=O)OCCOCCOCCOCCOC(=O)c1ccc(-c2c3nc(c(-c4c(F)c(F)c(F)c(F)c4F)c4ccc([nH]4)c(-c4c(F)c(F)c(F)c(F)c4F)c4nc(c(-c5c(F)c(F)c(F)c(F)c5F)c5ccc2[nH]5)C=C4)C=C3)cc1
REMARK SMILES IDX 25 1 24 2 23 3 22 4 21 5 19 6 20 7 18 8 17 9 16 10 11 11
REMARK SMILES IDX 12 12 13 13 15 14 14 15 9 16 10 17 4 18 2 19 1 20 3 21 5 22
REMARK SMILES IDX 6 23 7 24 8 25 26 26 27 27 28 28 29 29 30 30 31 31 32 32
REMARK SMILES IDX 33 33 34 34 35 35 36 36 37 37 98 38 38 39 97 40 39 41 40 42
REMARK SMILES IDX 41 43 91 44 42 45 96 46 90 47 92 48 43 49 95 50 89 51 88 52
REMARK SMILES IDX 44 54 76 55 56 56 75 57 57 58 60 59 74 60 93 61 58 62 59 63
REMARK SMILES IDX 73 65 94 66 61 67 45 68 46 69 54 70 47 71 48 72 52 73 55 74
REMARK SMILES IDX 49 75 50 76 53 77 51 78 77 79 78 80 86 81 79 82 80 83 84 84
REMARK SMILES IDX 87 85 81 86 82 87 85 88 83 89 62 90 63 91 71 92 64 93 65 94
REMARK SMILES IDX 69 95 72 96 66 97 67 98 70 99 68 100
REMARK H PARENT 92 53 60 64
REMARK Flexibility Score: inf
ROOT
ATOM      1  C   UNL A   1      36.732  31.069  30.791  1.00  0.00     0.188 C 
ENDROOT
BRANCH   1   2
ATOM      2  O   UNL A   1      36.283  30.024  29.945  1.00  0.00    -0.376 OA
BRANCH   2   3
ATOM      3  C   UNL A   1      37.127  29.594  28.893  1.00  0.00     0.202 C 
BRANCH   3   4
ATOM      4  C   UNL A   1      38.268  28.651  29.296  1.00  0.00     0.261 C 
BRANCH   4   5
ATOM      5  O   UNL A   1      38.895  27.984  28.195  1.00  0.00    -0.460 OA
BRANCH   5   6
ATOM      6  C   UNL A   1      40.170  27.554  28.351  1.00  0.00     0.330 C 
ATOM      7  O   UNL A   1      41.072  28.162  28.904  1.00  0.00    -0.247 OA
BRANCH   6   8
ATOM      8  C   UNL A   1      40.249  26.106  28.003  1.00  0.00     0.094 C 
ATOM      9  C   UNL A   1      41.312  25.362  28.368  1.00  0.00     0.018 C 
BRANCH   9  10
ATOM     10  C   UNL A   1      41.815  24.111  27.734  1.00  0.00     0.006 A 
ATOM     11  C   UNL A   1      42.313  24.037  26.398  1.00  0.00     0.050 A 
ATOM     12  C   UNL A   1      42.239  22.795  25.752  1.00  0.00     0.034 A 
ATOM     13  C   UNL A   1      41.938  21.657  26.482  1.00  0.00     0.112 A 
ATOM     14  C   UNL A   1      41.556  22.887  28.367  1.00  0.00     0.119 A 
ATOM     15  N   UNL A   1      41.626  21.669  27.784  1.00  0.00    -0.264 NA
BRANCH  11  16
ATOM     16  C   UNL A   1      42.950  25.232  25.706  1.00  0.00     0.254 C 
ATOM     17  O   UNL A   1      42.214  25.924  25.002  1.00  0.00    -0.269 OA
BRANCH  16  18
ATOM     18  N   UNL A   1      44.313  25.645  25.850  1.00  0.00    -0.335 N 
BRANCH  18  19
ATOM     19  C   UNL A   1      44.534  26.976  26.499  1.00  0.00     0.079 C 
ATOM     20  C   UNL A   1      44.746  26.907  28.022  1.00  0.00     0.031 C 
ATOM     21  C   UNL A   1      45.637  27.791  25.820  1.00  0.00     0.031 C 
ENDBRANCH  18  19
BRANCH  18  22
ATOM     22  C   UNL A   1      45.554  24.880  25.538  1.00  0.00     0.135 C 
BRANCH  22  23
ATOM     23  C   UNL A   1      45.985  23.756  26.497  1.00  0.00     0.141 C 
BRANCH  23  24
ATOM     24  C   UNL A   1      45.982  22.413  25.786  1.00  0.00     0.064 C 
ATOM     25  N   UNL A   1      45.978  21.298  25.195  1.00  0.00    -0.198 NA
ENDBRANCH  23  24
ENDBRANCH  22  23
ENDBRANCH  18  22
ENDBRANCH  16  18
ENDBRANCH  11  16
ENDBRANCH   9  10
ENDBRANCH   6   8
ENDBRANCH   5   6
ENDBRANCH   4   5
ENDBRANCH   3   4
ENDBRANCH   2   3
ENDBRANCH   1   2
BRANCH   1  26
ATOM     26  C   UNL A   1      37.480  32.204  30.058  1.00  0.00     0.188 C 
BRANCH  26  27
ATOM     27  O   UNL A   1      38.790  32.593  30.454  1.00  0.00    -0.377 OA
BRANCH  27  28
ATOM     28  C   UNL A   1      38.992  33.874  31.040  1.00  0.00     0.188 C 
BRANCH  28  29
ATOM     29  C   UNL A   1      38.915  34.049  32.574  1.00  0.00     0.188 C 
BRANCH  29  30
ATOM     30  O   UNL A   1      37.622  33.850  33.120  1.00  0.00    -0.376 OA
BRANCH  30  31
ATOM     31  C   UNL A   1      37.342  34.451  34.371  1.00  0.00     0.202 C 
BRANCH  31  32
ATOM     32  C   UNL A   1      37.031  33.517  35.551  1.00  0.00     0.261 C 
BRANCH  32  33
ATOM     33  O   UNL A   1      37.034  32.109  35.270  1.00  0.00    -0.460 OA
BRANCH  33  34
ATOM     34  C   UNL A   1      37.945  31.347  35.916  1.00  0.00     0.338 C 
ATOM     35  O   UNL A   1      37.821  30.796  36.990  1.00  0.00    -0.246 OA
BRANCH  34  36
ATOM     36  C   UNL A   1      39.083  31.148  34.991  1.00  0.00     0.060 A 
ATOM     37  C   UNL A   1      38.888  30.417  33.811  1.00  0.00     0.016 A 
ATOM     38  C   UNL A   1      40.333  31.694  35.288  1.00  0.00     0.016 A 
ATOM     39  C   UNL A   1      39.956  30.208  32.936  1.00  0.00     0.010 A 
ATOM     40  C   UNL A   1      41.405  31.464  34.423  1.00  0.00     0.010 A 
ATOM     41  C   UNL A   1      41.229  30.694  33.260  1.00  0.00    -0.014 A 
BRANCH  41  42
ATOM     42  C   UNL A   1      42.414  30.234  32.497  1.00  0.00     0.031 A 
ATOM     43  C   UNL A   1      43.080  28.954  32.924  1.00  0.00     0.074 A 
ATOM     44  C   UNL A   1      42.888  30.926  31.446  1.00  0.00     0.049 A 
ATOM     45  N   UNL A   1      44.163  28.382  32.464  1.00  0.00    -0.248 NA
ATOM     46  C   UNL A   1      42.435  28.224  34.029  1.00  0.00     0.031 C 
ATOM     47  C   UNL A   1      42.304  32.153  30.910  1.00  0.00     0.029 A 
ATOM     48  N   UNL A   1      43.980  30.693  30.648  1.00  0.00    -0.354 N 
ATOM     49  C   UNL A   1      44.334  27.235  33.229  1.00  0.00     0.074 A 
ATOM     50  C   UNL A   1      43.264  27.206  34.200  1.00  0.00     0.031 C 
ATOM     51  C   UNL A   1      43.054  32.572  29.874  1.00  0.00     0.029 A 
ATOM     52  C   UNL A   1      44.188  31.666  29.701  1.00  0.00     0.049 A 
ATOM     53  H   UNL A   1      44.561  29.903  30.746  1.00  0.00     0.167 HD
ATOM     54  C   UNL A   1      45.296  26.289  33.125  1.00  0.00     0.037 A 
ATOM     55  C   UNL A   1      45.194  31.814  28.818  1.00  0.00     0.037 A 
ATOM     56  C   UNL A   1      46.358  26.321  32.154  1.00  0.00     0.049 A 
ATOM     57  C   UNL A   1      46.299  30.786  28.775  1.00  0.00     0.074 A 
ATOM     58  C   UNL A   1      47.367  25.397  31.948  1.00  0.00     0.029 A 
ATOM     59  N   UNL A   1      46.554  27.339  31.232  1.00  0.00    -0.354 N 
ATOM     60  N   UNL A   1      46.440  29.689  29.478  1.00  0.00    -0.248 NA
ATOM     61  C   UNL A   1      47.385  31.020  27.813  1.00  0.00     0.031 C 
ATOM     62  C   UNL A   1      48.212  25.888  30.948  1.00  0.00     0.029 A 
ATOM     63  C   UNL A   1      47.689  27.083  30.480  1.00  0.00     0.049 A 
ATOM     64  H   UNL A   1      45.974  28.127  31.129  1.00  0.00     0.167 HD
ATOM     65  C   UNL A   1      47.604  29.084  29.018  1.00  0.00     0.074 A 
ATOM     66  C   UNL A   1      48.125  29.932  27.967  1.00  0.00     0.031 C 
ATOM     67  C   UNL A   1      48.188  27.930  29.427  1.00  0.00     0.037 A 
BRANCH  54  68
ATOM     68  C   UNL A   1      45.268  25.157  34.110  1.00  0.00     0.064 A 
ATOM     69  C   UNL A   1      44.666  23.925  33.811  1.00  0.00     0.173 A 
ATOM     70  C   UNL A   1      45.886  25.297  35.363  1.00  0.00     0.173 A 
ATOM     71  F   UNL A   1      44.048  23.744  32.634  1.00  0.00    -0.203 F 
ATOM     72  C   UNL A   1      44.661  22.886  34.738  1.00  0.00     0.198 A 
ATOM     73  C   UNL A   1      45.908  24.244  36.274  1.00  0.00     0.198 A 
ATOM     74  F   UNL A   1      46.478  26.452  35.700  1.00  0.00    -0.203 F 
ATOM     75  F   UNL A   1      44.036  21.736  34.450  1.00  0.00    -0.200 F 
ATOM     76  C   UNL A   1      45.289  23.043  35.965  1.00  0.00     0.200 A 
ATOM     77  F   UNL A   1      46.528  24.394  37.452  1.00  0.00    -0.200 F 
ATOM     78  F   UNL A   1      45.291  22.039  36.851  1.00  0.00    -0.200 F 
ENDBRANCH  54  68
BRANCH  55  79
ATOM     79  C   UNL A   1      45.222  32.989  27.904  1.00  0.00     0.064 A 
ATOM     80  C   UNL A   1      44.634  32.932  26.633  1.00  0.00     0.173 A 
ATOM     81  C   UNL A   1      45.876  34.177  28.264  1.00  0.00     0.173 A 
ATOM     82  F   UNL A   1      44.023  31.809  26.228  1.00  0.00    -0.203 F 
ATOM     83  C   UNL A   1      44.720  34.006  25.748  1.00  0.00     0.198 A 
ATOM     84  C   UNL A   1      45.933  35.263  27.392  1.00  0.00     0.198 A 
ATOM     85  F   UNL A   1      46.464  34.284  29.465  1.00  0.00    -0.203 F 
ATOM     86  F   UNL A   1      44.202  33.900  24.517  1.00  0.00    -0.200 F 
ATOM     87  C   UNL A   1      45.364  35.172  26.131  1.00  0.00     0.200 A 
ATOM     88  F   UNL A   1      46.549  36.391  27.770  1.00  0.00    -0.200 F 
ATOM     89  F   UNL A   1      45.450  36.203  25.279  1.00  0.00    -0.200 F 
ENDBRANCH  55  79
BRANCH  67  90
ATOM     90  C   UNL A   1      49.430  27.485  28.704  1.00  0.00     0.064 A 
ATOM     91  C   UNL A   1      50.710  27.893  29.106  1.00  0.00     0.173 A 
ATOM     92  C   UNL A   1      49.336  26.596  27.619  1.00  0.00     0.173 A 
ATOM     93  F   UNL A   1      50.857  28.748  30.128  1.00  0.00    -0.203 F 
ATOM     94  C   UNL A   1      51.847  27.453  28.431  1.00  0.00     0.198 A 
ATOM     95  C   UNL A   1      50.476  26.131  26.971  1.00  0.00     0.198 A 
ATOM     96  F   UNL A   1      48.138  26.166  27.200  1.00  0.00    -0.203 F 
ATOM     97  F   UNL A   1      53.056  27.899  28.799  1.00  0.00    -0.200 F 
ATOM     98  C   UNL A   1      51.730  26.567  27.371  1.00  0.00     0.200 A 
ATOM     99  F   UNL A   1      50.361  25.260  25.959  1.00  0.00    -0.200 F 
ATOM    100  F   UNL A   1      52.825  26.138  26.729  1.00  0.00    -0.200 F 
ENDBRANCH  67  90
ENDBRANCH  41  42
ENDBRANCH  34  36
ENDBRANCH  33  34
ENDBRANCH  32  33
ENDBRANCH  31  32
ENDBRANCH  30  31
ENDBRANCH  29  30
ENDBRANCH  28  29
ENDBRANCH  27  28
ENDBRANCH  26  27
ENDBRANCH   1  26
TORSDOF 27
ENDMDL
MODEL 3
REMARK VINA RESULT:      -8.5      6.283     11.035
REMARK SMILES CC(C)N(CCC#N)C(=O)c1ccncc1/C=C/C(=O)OCCOCCOCCOCCOC(=O)c1ccc(-c2c3nc(c(-c4c(F)c(F)c(F)c(F)c4F)c4ccc([nH]4)c(-c4c(F)c(F)c(F)c(F)c4F)c4nc(c(-c5c(F)c(F)c(F)c(F)c5F)c5ccc2[nH]5)C=C4)C=C3)cc1
REMARK SMILES IDX 25 1 24 2 23 3 22 4 21 5 19 6 20 7 18 8 17 9 16 10 11 11
REMARK SMILES IDX 12 12 13 13 15 14 14 15 9 16 10 17 4 18 2 19 1 20 3 21 5 22
REMARK SMILES IDX 6 23 7 24 8 25 26 26 27 27 28 28 29 29 30 30 31 31 32 32
REMARK SMILES IDX 33 33 34 34 35 35 36 36 37 37 98 38 38 39 97 40 39 41 40 42
REMARK SMILES IDX 41 43 91 44 42 45 96 46 90 47 92 48 43 49 95 50 89 51 88 52
REMARK SMILES IDX 44 54 76 55 56 56 75 57 57 58 60 59 74 60 93 61 58 62 59 63
REMARK SMILES IDX 73 65 94 66 61 67 45 68 46 69 54 70 47 71 48 72 52 73 55 74
REMARK SMILES IDX 49 75 50 76 53 77 51 78 77 79 78 80 86 81 79 82 80 83 84 84
REMARK SMILES IDX 87 85 81 86 82 87 85 88 83 89 62 90 63 91 71 92 64 93 65 94
REMARK SMILES IDX 69 95 72 96 66 97 67 98 70 99 68 100
REMARK H PARENT 92 53 60 64
REMARK Flexibility Score: inf
ROOT
ATOM      1  C   UNL A   1      33.786  33.796  27.828  1.00  0.00     0.188 C 
ENDROOT
BRANCH   1   2
ATOM      2  O   UNL A   1      33.822  32.504  28.412  1.00  0.00    -0.376 OA
BRANCH   2   3
ATOM      3  C   UNL A   1      34.874  31.628  28.054  1.00  0.00     0.202 C 
BRANCH   3   4
ATOM      4  C   UNL A   1      34.504  30.504  27.078  1.00  0.00     0.261 C 
BRANCH   4   5
ATOM      5  O   UNL A   1      33.872  29.376  27.695  1.00  0.00    -0.460 OA
BRANCH   5   6
ATOM      6  C   UNL A   1      32.577  29.123  27.390  1.00  0.00     0.330 C 
ATOM      7  O   UNL A   1      31.743  29.948  27.054  1.00  0.00    -0.247 OA
BRANCH   6   8
ATOM      8  C   UNL A   1      32.382  27.652  27.244  1.00  0.00     0.094 C 
ATOM      9  C   UNL A   1      33.013  26.962  26.273  1.00  0.00     0.018 C 
BRANCH   9  10
ATOM     10  C   UNL A   1      32.604  25.670  25.655  1.00  0.00     0.006 A 
ATOM     11  C   UNL A   1      31.395  25.483  24.917  1.00  0.00     0.050 A 
ATOM     12  C   UNL A   1      30.867  24.187  24.863  1.00  0.00     0.034 A 
ATOM     13  C   UNL A   1      31.633  23.114  25.290  1.00  0.00     0.112 A 
ATOM     14  C   UNL A   1      33.290  24.504  26.022  1.00  0.00     0.119 A 
ATOM     15  N   UNL A   1      32.848  23.238  25.838  1.00  0.00    -0.264 NA
BRANCH  11  16
ATOM     16  C   UNL A   1      30.723  26.624  24.168  1.00  0.00     0.254 C 
ATOM     17  O   UNL A   1      29.493  26.657  24.195  1.00  0.00    -0.269 OA
BRANCH  16  18
ATOM     18  N   UNL A   1      31.403  27.684  23.486  1.00  0.00    -0.335 N 
BRANCH  18  19
ATOM     19  C   UNL A   1      32.142  27.300  22.242  1.00  0.00     0.079 C 
ATOM     20  C   UNL A   1      33.674  27.350  22.378  1.00  0.00     0.031 C 
ATOM     21  C   UNL A   1      31.678  25.960  21.666  1.00  0.00     0.031 C 
ENDBRANCH  18  19
BRANCH  18  22
ATOM     22  C   UNL A   1      31.387  29.144  23.787  1.00  0.00     0.135 C 
BRANCH  22  23
ATOM     23  C   UNL A   1      30.033  29.875  23.805  1.00  0.00     0.141 C 
BRANCH  23  24
ATOM     24  C   UNL A   1      29.418  29.902  22.416  1.00  0.00     0.064 C 
ATOM     25  N   UNL A   1      28.908  29.923  21.262  1.00  0.00    -0.198 NA
ENDBRANCH  23  24
ENDBRANCH  22  23
ENDBRANCH  18  22
ENDBRANCH  16  18
ENDBRANCH  11  16
ENDBRANCH   9  10
ENDBRANCH   6   8
ENDBRANCH   5   6
ENDBRANCH   4   5
ENDBRANCH   3   4
ENDBRANCH   2   3
ENDBRANCH   1   2
BRANCH   1  26
ATOM     26  C   UNL A   1      33.436  34.931  28.815  1.00  0.00     0.188 C 
BRANCH  26  27
ATOM     27  O   UNL A   1      33.085  34.648  30.163  1.00  0.00    -0.377 OA
BRANCH  27  28
ATOM     28  C   UNL A   1      33.421  35.579  31.185  1.00  0.00     0.188 C 
BRANCH  28  29
ATOM     29  C   UNL A   1      33.461  35.130  32.665  1.00  0.00     0.188 C 
BRANCH  29  30
ATOM     30  O   UNL A   1      34.637  35.510  33.358  1.00  0.00    -0.376 OA
BRANCH  30  31
ATOM     31  C   UNL A   1      35.240  34.544  34.200  1.00  0.00     0.202 C 
BRANCH  31  32
ATOM     32  C   UNL A   1      36.407  33.731  33.620  1.00  0.00     0.261 C 
BRANCH  32  33
ATOM     33  O   UNL A   1      36.080  32.794  32.582  1.00  0.00    -0.460 OA
BRANCH  33  34
ATOM     34  C   UNL A   1      36.618  33.006  31.360  1.00  0.00     0.338 C 
ATOM     35  O   UNL A   1      36.309  33.859  30.554  1.00  0.00    -0.246 OA
BRANCH  34  36
ATOM     36  C   UNL A   1      37.794  32.115  31.239  1.00  0.00     0.060 A 
ATOM     37  C   UNL A   1      37.943  31.050  32.138  1.00  0.00     0.016 A 
ATOM     38  C   UNL A   1      38.735  32.329  30.230  1.00  0.00     0.016 A 
ATOM     39  C   UNL A   1      39.055  30.211  32.045  1.00  0.00     0.010 A 
ATOM     40  C   UNL A   1      39.858  31.502  30.153  1.00  0.00     0.010 A 
ATOM     41  C   UNL A   1      40.039  30.460  31.079  1.00  0.00    -0.014 A 
BRANCH  41  42
ATOM     42  C   UNL A   1      41.347  29.766  31.159  1.00  0.00     0.031 A 
ATOM     43  C   UNL A   1      42.411  30.357  32.044  1.00  0.00     0.074 A 
ATOM     44  C   UNL A   1      41.588  28.636  30.471  1.00  0.00     0.049 A 
ATOM     45  N   UNL A   1      43.649  29.978  32.228  1.00  0.00    -0.248 NA
ATOM     46  C   UNL A   1      42.022  31.544  32.823  1.00  0.00     0.031 C 
ATOM     47  C   UNL A   1      40.626  27.944  29.618  1.00  0.00     0.029 A 
ATOM     48  N   UNL A   1      42.729  27.879  30.378  1.00  0.00    -0.354 N 
ATOM     49  C   UNL A   1      44.188  30.884  33.131  1.00  0.00     0.074 A 
ATOM     50  C   UNL A   1      43.155  31.847  33.437  1.00  0.00     0.031 C 
ATOM     51  C   UNL A   1      41.222  26.866  29.078  1.00  0.00     0.029 A 
ATOM     52  C   UNL A   1      42.615  26.815  29.517  1.00  0.00     0.049 A 
ATOM     53  H   UNL A   1      43.552  28.079  30.882  1.00  0.00     0.167 HD
ATOM     54  C   UNL A   1      45.433  30.906  33.663  1.00  0.00     0.037 A 
ATOM     55  C   UNL A   1      43.541  25.922  29.115  1.00  0.00     0.037 A 
ATOM     56  C   UNL A   1      46.457  29.942  33.358  1.00  0.00     0.049 A 
ATOM     57  C   UNL A   1      44.945  26.016  29.663  1.00  0.00     0.074 A 
ATOM     58  C   UNL A   1      47.743  29.860  33.864  1.00  0.00     0.029 A 
ATOM     59  N   UNL A   1      46.315  28.897  32.456  1.00  0.00    -0.354 N 
ATOM     60  N   UNL A   1      45.441  26.855  30.539  1.00  0.00    -0.248 NA
ATOM     61  C   UNL A   1      45.919  25.035  29.161  1.00  0.00     0.031 C 
ATOM     62  C   UNL A   1      48.400  28.808  33.219  1.00  0.00     0.029 A 
ATOM     63  C   UNL A   1      47.502  28.188  32.365  1.00  0.00     0.049 A 
ATOM     64  H   UNL A   1      45.493  28.692  31.955  1.00  0.00     0.167 HD
ATOM     65  C   UNL A   1      46.767  26.480  30.724  1.00  0.00     0.074 A 
ATOM     66  C   UNL A   1      46.995  25.331  29.875  1.00  0.00     0.031 C 
ATOM     67  C   UNL A   1      47.710  27.036  31.525  1.00  0.00     0.037 A 
BRANCH  54  68
ATOM     68  C   UNL A   1      45.770  32.029  34.601  1.00  0.00     0.064 A 
ATOM     69  C   UNL A   1      45.584  31.920  35.987  1.00  0.00     0.173 A 
ATOM     70  C   UNL A   1      46.320  33.220  34.104  1.00  0.00     0.173 A 
ATOM     71  F   UNL A   1      45.047  30.809  36.512  1.00  0.00    -0.203 F 
ATOM     72  C   UNL A   1      45.913  32.973  36.838  1.00  0.00     0.198 A 
ATOM     73  C   UNL A   1      46.679  34.257  34.961  1.00  0.00     0.198 A 
ATOM     74  F   UNL A   1      46.521  33.376  32.787  1.00  0.00    -0.203 F 
ATOM     75  F   UNL A   1      45.680  32.866  38.154  1.00  0.00    -0.200 F 
ATOM     76  C   UNL A   1      46.468  34.136  36.326  1.00  0.00     0.200 A 
ATOM     77  F   UNL A   1      47.229  35.374  34.465  1.00  0.00    -0.200 F 
ATOM     78  F   UNL A   1      46.793  35.143  37.148  1.00  0.00    -0.200 F 
ENDBRANCH  54  68
BRANCH  55  79
ATOM     79  C   UNL A   1      43.185  24.865  28.130  1.00  0.00     0.064 A 
ATOM     80  C   UNL A   1      42.772  23.593  28.550  1.00  0.00     0.173 A 
ATOM     81  C   UNL A   1      43.294  25.089  26.749  1.00  0.00     0.173 A 
ATOM     82  F   UNL A   1      42.681  23.318  29.860  1.00  0.00    -0.203 F 
ATOM     83  C   UNL A   1      42.505  22.580  27.631  1.00  0.00     0.198 A 
ATOM     84  C   UNL A   1      42.996  24.086  25.829  1.00  0.00     0.198 A 
ATOM     85  F   UNL A   1      43.694  26.285  26.291  1.00  0.00    -0.203 F 
ATOM     86  F   UNL A   1      42.172  21.356  28.064  1.00  0.00    -0.200 F 
ATOM     87  C   UNL A   1      42.612  22.829  26.271  1.00  0.00     0.200 A 
ATOM     88  F   UNL A   1      43.092  24.334  24.516  1.00  0.00    -0.200 F 
ATOM     89  F   UNL A   1      42.361  21.853  25.387  1.00  0.00    -0.200 F 
ENDBRANCH  55  79
BRANCH  67  90
ATOM     90  C   UNL A   1      49.063  26.381  31.565  1.00  0.00     0.064 A 
ATOM     91  C   UNL A   1      50.108  26.781  30.718  1.00  0.00     0.173 A 
ATOM     92  C   UNL A   1      49.330  25.366  32.499  1.00  0.00     0.173 A 
ATOM     93  F   UNL A   1      49.905  27.737  29.800  1.00  0.00    -0.203 F 
ATOM     94  C   UNL A   1      51.358  26.170  30.786  1.00  0.00     0.198 A 
ATOM     95  C   UNL A   1      50.591  24.784  32.588  1.00  0.00     0.198 A 
ATOM     96  F   UNL A   1      48.371  24.952  33.339  1.00  0.00    -0.203 F 
ATOM     97  F   UNL A   1      52.325  26.532  29.931  1.00  0.00    -0.200 F 
ATOM     98  C   UNL A   1      51.601  25.179  31.725  1.00  0.00     0.200 A 
ATOM     99  F   UNL A   1      50.828  23.840  33.510  1.00  0.00    -0.200 F 
ATOM    100  F   UNL A   1      52.807  24.600  31.794  1.00  0.00    -0.200 F 
ENDBRANCH  67  90
ENDBRANCH  41  42
ENDBRANCH  34  36
ENDBRANCH  33  34
ENDBRANCH  32  33
ENDBRANCH  31  32
ENDBRANCH  30  31
ENDBRANCH  29  30
ENDBRANCH  28  29
ENDBRANCH  27  28
ENDBRANCH  26  27
ENDBRANCH   1  26
TORSDOF 27
ENDMDL
