MODEL 1
REMARK VINA RESULT:      -6.8      0.000      0.000
REMARK SMILES CC(C)Oc1ccc(-c2ccc(/C(=C\c3ccc(S(C)(=O)=O)cc3)C(=O)OCCOCCOCCOCCOC(=O)c3ccc(-c4c5nc(c(-c6c(F)c(F)c(F)c(F)c6F)c6ccc([nH]6)c(-c6c(F)c(F)c(F)c(F)c6F)c6nc(c(-c7c(F)c(F)c(F)c(F)c7F)c7ccc4[nH]7)C=C6)C=C5)cc3)cc2)cc1
REMARK SMILES IDX 32 1 31 2 30 3 29 4 28 5 27 6 25 7 26 8 13 9 14 10 12 11
REMARK SMILES IDX 9 12 10 13 106 14 11 15 105 16 8 17 5 18 6 19 108 20 7 21
REMARK SMILES IDX 107 22 4 23 2 24 1 25 3 26 15 27 16 28 24 29 17 30 23 31
REMARK SMILES IDX 18 32 19 33 20 34 21 35 22 36 33 37 34 38 35 39 36 40 37 41
REMARK SMILES IDX 38 42 39 43 40 44 41 45 42 46 43 47 104 48 44 49 103 50
REMARK SMILES IDX 45 51 46 52 47 53 97 54 48 55 102 56 96 57 98 58 49 59
REMARK SMILES IDX 101 60 95 61 94 62 50 64 82 65 62 66 81 67 63 68 66 69 80 70
REMARK SMILES IDX 99 71 64 72 65 73 79 75 100 76 67 77 51 78 52 79 60 80 53 81
REMARK SMILES IDX 54 82 58 83 61 84 55 85 56 86 59 87 57 88 83 89 84 90 92 91
REMARK SMILES IDX 85 92 86 93 90 94 93 95 87 96 88 97 91 98 89 99 68 100
REMARK SMILES IDX 69 101 77 102 70 103 71 104 75 105 78 106 72 107 73 108
REMARK SMILES IDX 76 109 74 110
REMARK H PARENT 98 63 66 74
REMARK Flexibility Score: inf
ROOT
ATOM      1  C   UNL A   1      39.171  33.177  36.399  1.00  0.00     0.188 C 
ENDROOT
BRANCH   1   2
ATOM      2  C   UNL A   1      38.032  32.191  36.065  1.00  0.00     0.188 C 
BRANCH   2   3
ATOM      3  O   UNL A   1      36.742  32.773  35.959  1.00  0.00    -0.376 OA
BRANCH   3   4
ATOM      4  C   UNL A   1      36.515  33.636  34.857  1.00  0.00     0.202 C 
BRANCH   4   5
ATOM      5  C   UNL A   1      35.642  33.064  33.734  1.00  0.00     0.261 C 
BRANCH   5   6
ATOM      6  O   UNL A   1      36.222  31.957  33.026  1.00  0.00    -0.460 OA
BRANCH   6   7
ATOM      7  C   UNL A   1      36.121  31.949  31.671  1.00  0.00     0.338 C 
ATOM      8  O   UNL A   1      35.081  31.808  31.048  1.00  0.00    -0.246 OA
BRANCH   7   9
ATOM      9  C   UNL A   1      37.455  32.293  31.052  1.00  0.00     0.067 C 
ATOM     10  C   UNL A   1      37.764  33.618  31.068  1.00  0.00     0.024 C 
BRANCH   9  11
ATOM     11  C   UNL A   1      38.279  31.209  30.418  1.00  0.00    -0.011 A 
ATOM     12  C   UNL A   1      39.546  28.859  29.348  1.00  0.00    -0.018 A 
ATOM     13  C   UNL A   1      38.719  29.674  28.566  1.00  0.00     0.009 A 
ATOM     14  C   UNL A   1      39.790  29.281  30.657  1.00  0.00     0.009 A 
ATOM     15  C   UNL A   1      38.144  30.845  29.076  1.00  0.00     0.009 A 
ATOM     16  C   UNL A   1      39.181  30.439  31.171  1.00  0.00     0.009 A 
BRANCH  12  17
ATOM     17  C   UNL A   1      40.178  27.654  28.779  1.00  0.00    -0.018 A 
ATOM     18  C   UNL A   1      41.450  25.368  27.709  1.00  0.00     0.119 A 
ATOM     19  C   UNL A   1      42.196  26.495  28.035  1.00  0.00     0.047 A 
ATOM     20  C   UNL A   1      40.079  25.358  27.944  1.00  0.00     0.047 A 
ATOM     21  C   UNL A   1      41.566  27.624  28.559  1.00  0.00     0.012 A 
ATOM     22  C   UNL A   1      39.444  26.498  28.460  1.00  0.00     0.012 A 
BRANCH  18  23
ATOM     23  O   UNL A   1      42.145  24.269  27.300  1.00  0.00    -0.491 OA
BRANCH  23  24
ATOM     24  C   UNL A   1      43.286  23.867  28.074  1.00  0.00     0.167 C 
ATOM     25  C   UNL A   1      42.891  23.152  29.362  1.00  0.00     0.052 C 
ATOM     26  C   UNL A   1      44.362  23.119  27.289  1.00  0.00     0.052 C 
ENDBRANCH  23  24
ENDBRANCH  18  23
ENDBRANCH  12  17
ENDBRANCH   9  11
BRANCH  10  27
ATOM     27  C   UNL A   1      39.023  34.253  30.648  1.00  0.00    -0.025 A 
ATOM     28  C   UNL A   1      40.161  33.924  31.395  1.00  0.00     0.009 A 
ATOM     29  C   UNL A   1      39.160  34.988  29.461  1.00  0.00     0.009 A 
ATOM     30  C   UNL A   1      41.433  34.173  30.887  1.00  0.00     0.021 A 
ATOM     31  C   UNL A   1      40.436  35.235  28.940  1.00  0.00     0.021 A 
ATOM     32  C   UNL A   1      41.561  34.782  29.637  1.00  0.00     0.067 A 
BRANCH  32  33
ATOM     33  S   UNL A   1      43.158  34.757  28.851  1.00  0.00     0.175 S 
ATOM     34  C   UNL A   1      42.857  35.384  27.225  1.00  0.00     0.163 C 
ATOM     35  O   UNL A   1      43.983  35.718  29.560  1.00  0.00    -0.224 OA
ATOM     36  O   UNL A   1      43.572  33.372  28.730  1.00  0.00    -0.224 OA
ENDBRANCH  32  33
ENDBRANCH  10  27
ENDBRANCH   7   9
ENDBRANCH   6   7
ENDBRANCH   5   6
ENDBRANCH   4   5
ENDBRANCH   3   4
ENDBRANCH   2   3
ENDBRANCH   1   2
BRANCH   1  37
ATOM     37  O   UNL A   1      39.620  34.090  35.409  1.00  0.00    -0.377 OA
BRANCH  37  38
ATOM     38  C   UNL A   1      40.302  35.272  35.816  1.00  0.00     0.188 C 
BRANCH  38  39
ATOM     39  C   UNL A   1      39.841  36.048  37.074  1.00  0.00     0.188 C 
BRANCH  39  40
ATOM     40  O   UNL A   1      40.605  35.790  38.240  1.00  0.00    -0.376 OA
BRANCH  40  41
ATOM     41  C   UNL A   1      41.688  36.660  38.521  1.00  0.00     0.202 C 
BRANCH  41  42
ATOM     42  C   UNL A   1      43.081  36.027  38.639  1.00  0.00     0.261 C 
BRANCH  42  43
ATOM     43  O   UNL A   1      44.199  36.922  38.522  1.00  0.00    -0.460 OA
BRANCH  43  44
ATOM     44  C   UNL A   1      44.373  37.577  37.354  1.00  0.00     0.338 C 
ATOM     45  O   UNL A   1      44.418  38.782  37.179  1.00  0.00    -0.246 OA
BRANCH  44  46
ATOM     46  C   UNL A   1      44.699  36.555  36.337  1.00  0.00     0.060 A 
ATOM     47  C   UNL A   1      43.785  36.284  35.307  1.00  0.00     0.016 A 
ATOM     48  C   UNL A   1      45.940  35.918  36.367  1.00  0.00     0.016 A 
ATOM     49  C   UNL A   1      44.118  35.375  34.299  1.00  0.00     0.010 A 
ATOM     50  C   UNL A   1      46.258  34.987  35.377  1.00  0.00     0.010 A 
ATOM     51  C   UNL A   1      45.345  34.702  34.345  1.00  0.00    -0.014 A 
BRANCH  51  52
ATOM     52  C   UNL A   1      45.631  33.582  33.417  1.00  0.00     0.031 A 
ATOM     53  C   UNL A   1      46.248  33.902  32.086  1.00  0.00     0.074 A 
ATOM     54  C   UNL A   1      45.317  32.313  33.732  1.00  0.00     0.049 A 
ATOM     55  N   UNL A   1      46.461  33.123  31.057  1.00  0.00    -0.248 NA
ATOM     56  C   UNL A   1      46.677  35.296  31.888  1.00  0.00     0.031 C 
ATOM     57  C   UNL A   1      44.760  31.870  35.007  1.00  0.00     0.029 A 
ATOM     58  N   UNL A   1      45.404  31.164  32.984  1.00  0.00    -0.354 N 
ATOM     59  C   UNL A   1      47.040  33.932  30.089  1.00  0.00     0.074 A 
ATOM     60  C   UNL A   1      47.122  35.267  30.641  1.00  0.00     0.031 C 
ATOM     61  C   UNL A   1      44.532  30.547  34.947  1.00  0.00     0.029 A 
ATOM     62  C   UNL A   1      44.883  30.058  33.613  1.00  0.00     0.049 A 
ATOM     63  H   UNL A   1      45.801  31.134  32.084  1.00  0.00     0.167 HD
ATOM     64  C   UNL A   1      47.468  33.589  28.852  1.00  0.00     0.037 A 
ATOM     65  C   UNL A   1      44.677  28.810  33.147  1.00  0.00     0.037 A 
ATOM     66  C   UNL A   1      47.376  32.261  28.306  1.00  0.00     0.049 A 
ATOM     67  C   UNL A   1      45.063  28.480  31.726  1.00  0.00     0.074 A 
ATOM     68  C   UNL A   1      47.801  31.807  27.070  1.00  0.00     0.029 A 
ATOM     69  N   UNL A   1      46.809  31.178  28.958  1.00  0.00    -0.354 N 
ATOM     70  N   UNL A   1      45.638  29.239  30.823  1.00  0.00    -0.248 NA
ATOM     71  C   UNL A   1      44.763  27.118  31.254  1.00  0.00     0.031 C 
ATOM     72  C   UNL A   1      47.434  30.464  26.950  1.00  0.00     0.029 A 
ATOM     73  C   UNL A   1      46.835  30.065  28.134  1.00  0.00     0.049 A 
ATOM     74  H   UNL A   1      46.441  31.196  29.871  1.00  0.00     0.167 HD
ATOM     75  C   UNL A   1      45.790  28.444  29.693  1.00  0.00     0.074 A 
ATOM     76  C   UNL A   1      45.265  27.138  30.026  1.00  0.00     0.031 C 
ATOM     77  C   UNL A   1      46.314  28.768  28.484  1.00  0.00     0.037 A 
BRANCH  64  78
ATOM     78  C   UNL A   1      48.048  34.671  27.991  1.00  0.00     0.064 A 
ATOM     79  C   UNL A   1      49.425  34.943  27.973  1.00  0.00     0.173 A 
ATOM     80  C   UNL A   1      47.220  35.419  27.139  1.00  0.00     0.173 A 
ATOM     81  F   UNL A   1      50.256  34.267  28.780  1.00  0.00    -0.203 F 
ATOM     82  C   UNL A   1      49.947  35.936  27.148  1.00  0.00     0.198 A 
ATOM     83  C   UNL A   1      47.751  36.389  26.294  1.00  0.00     0.198 A 
ATOM     84  F   UNL A   1      45.897  35.198  27.116  1.00  0.00    -0.203 F 
ATOM     85  F   UNL A   1      51.260  36.208  27.179  1.00  0.00    -0.200 F 
ATOM     86  C   UNL A   1      49.112  36.651  26.304  1.00  0.00     0.200 A 
ATOM     87  F   UNL A   1      46.944  37.071  25.468  1.00  0.00    -0.200 F 
ATOM     88  F   UNL A   1      49.619  37.599  25.503  1.00  0.00    -0.200 F 
ENDBRANCH  64  78
BRANCH  65  89
ATOM     89  C   UNL A   1      44.038  27.781  34.012  1.00  0.00     0.064 A 
ATOM     90  C   UNL A   1      42.654  27.559  33.967  1.00  0.00     0.173 A 
ATOM     91  C   UNL A   1      44.786  27.030  34.930  1.00  0.00     0.173 A 
ATOM     92  F   UNL A   1      41.888  28.272  33.128  1.00  0.00    -0.203 F 
ATOM     93  C   UNL A   1      42.043  26.641  34.821  1.00  0.00     0.198 A 
ATOM     94  C   UNL A   1      44.180  26.090  35.760  1.00  0.00     0.198 A 
ATOM     95  F   UNL A   1      46.113  27.208  35.021  1.00  0.00    -0.203 F 
ATOM     96  F   UNL A   1      40.711  26.491  34.796  1.00  0.00    -0.200 F 
ATOM     97  C   UNL A   1      42.807  25.904  35.712  1.00  0.00     0.200 A 
ATOM     98  F   UNL A   1      44.923  25.371  36.611  1.00  0.00    -0.200 F 
ATOM     99  F   UNL A   1      42.218  25.023  36.534  1.00  0.00    -0.200 F 
ENDBRANCH  65  89
BRANCH  77 100
ATOM    100  C   UNL A   1      46.370  27.692  27.438  1.00  0.00     0.064 A 
ATOM    101  C   UNL A   1      47.444  26.793  27.364  1.00  0.00     0.173 A 
ATOM    102  C   UNL A   1      45.304  27.514  26.541  1.00  0.00     0.173 A 
ATOM    103  F   UNL A   1      48.494  26.927  28.189  1.00  0.00    -0.203 F 
ATOM    104  C   UNL A   1      47.457  25.768  26.422  1.00  0.00     0.198 A 
ATOM    105  C   UNL A   1      45.306  26.469  25.623  1.00  0.00     0.198 A 
ATOM    106  F   UNL A   1      44.249  28.341  26.574  1.00  0.00    -0.203 F 
ATOM    107  F   UNL A   1      48.513  24.946  26.344  1.00  0.00    -0.200 F 
ATOM    108  C   UNL A   1      46.384  25.600  25.559  1.00  0.00     0.200 A 
ATOM    109  F   UNL A   1      44.260  26.298  24.802  1.00  0.00    -0.200 F 
ATOM    110  F   UNL A   1      46.391  24.603  24.665  1.00  0.00    -0.200 F 
ENDBRANCH  77 100
ENDBRANCH  51  52
ENDBRANCH  44  46
ENDBRANCH  43  44
ENDBRANCH  42  43
ENDBRANCH  41  42
ENDBRANCH  40  41
ENDBRANCH  39  40
ENDBRANCH  38  39
ENDBRANCH  37  38
ENDBRANCH   1  37
TORSDOF 26
ENDMDL
MODEL 2
REMARK VINA RESULT:      -6.6      4.367      9.618
REMARK SMILES CC(C)Oc1ccc(-c2ccc(/C(=C\c3ccc(S(C)(=O)=O)cc3)C(=O)OCCOCCOCCOCCOC(=O)c3ccc(-c4c5nc(c(-c6c(F)c(F)c(F)c(F)c6F)c6ccc([nH]6)c(-c6c(F)c(F)c(F)c(F)c6F)c6nc(c(-c7c(F)c(F)c(F)c(F)c7F)c7ccc4[nH]7)C=C6)C=C5)cc3)cc2)cc1
REMARK SMILES IDX 32 1 31 2 30 3 29 4 28 5 27 6 25 7 26 8 13 9 14 10 12 11
REMARK SMILES IDX 9 12 10 13 106 14 11 15 105 16 8 17 5 18 6 19 108 20 7 21
REMARK SMILES IDX 107 22 4 23 2 24 1 25 3 26 15 27 16 28 24 29 17 30 23 31
REMARK SMILES IDX 18 32 19 33 20 34 21 35 22 36 33 37 34 38 35 39 36 40 37 41
REMARK SMILES IDX 38 42 39 43 40 44 41 45 42 46 43 47 104 48 44 49 103 50
REMARK SMILES IDX 45 51 46 52 47 53 97 54 48 55 102 56 96 57 98 58 49 59
REMARK SMILES IDX 101 60 95 61 94 62 50 64 82 65 62 66 81 67 63 68 66 69 80 70
REMARK SMILES IDX 99 71 64 72 65 73 79 75 100 76 67 77 51 78 52 79 60 80 53 81
REMARK SMILES IDX 54 82 58 83 61 84 55 85 56 86 59 87 57 88 83 89 84 90 92 91
REMARK SMILES IDX 85 92 86 93 90 94 93 95 87 96 88 97 91 98 89 99 68 100
REMARK SMILES IDX 69 101 77 102 70 103 71 104 75 105 78 106 72 107 73 108
REMARK SMILES IDX 76 109 74 110
REMARK H PARENT 98 63 66 74
REMARK Flexibility Score: inf
ROOT
ATOM      1  C   UNL A   1      45.239  32.201  32.727  1.00  0.00     0.188 C 
ENDROOT
BRANCH   1   2
ATOM      2  C   UNL A   1      44.143  33.032  32.029  1.00  0.00     0.188 C 
BRANCH   2   3
ATOM      3  O   UNL A   1      43.253  32.291  31.209  1.00  0.00    -0.376 OA
BRANCH   3   4
ATOM      4  C   UNL A   1      42.480  33.023  30.273  1.00  0.00     0.202 C 
BRANCH   4   5
ATOM      5  C   UNL A   1      41.094  33.464  30.757  1.00  0.00     0.261 C 
BRANCH   5   6
ATOM      6  O   UNL A   1      40.005  33.055  29.915  1.00  0.00    -0.460 OA
BRANCH   6   7
ATOM      7  C   UNL A   1      39.362  31.899  30.227  1.00  0.00     0.338 C 
ATOM      8  O   UNL A   1      39.896  30.807  30.327  1.00  0.00    -0.246 OA
BRANCH   7   9
ATOM      9  C   UNL A   1      37.923  32.189  30.583  1.00  0.00     0.067 C 
ATOM     10  C   UNL A   1      37.756  32.974  31.681  1.00  0.00     0.024 C 
BRANCH   9  11
ATOM     11  C   UNL A   1      36.821  31.555  29.784  1.00  0.00    -0.011 A 
ATOM     12  C   UNL A   1      35.021  30.249  27.959  1.00  0.00    -0.018 A 
ATOM     13  C   UNL A   1      35.593  29.574  29.044  1.00  0.00     0.009 A 
ATOM     14  C   UNL A   1      35.306  31.612  27.845  1.00  0.00     0.009 A 
ATOM     15  C   UNL A   1      36.429  30.226  29.959  1.00  0.00     0.009 A 
ATOM     16  C   UNL A   1      36.174  32.250  28.748  1.00  0.00     0.009 A 
BRANCH  12  17
ATOM     17  C   UNL A   1      34.108  29.556  27.031  1.00  0.00    -0.018 A 
ATOM     18  C   UNL A   1      32.336  28.288  25.232  1.00  0.00     0.119 A 
ATOM     19  C   UNL A   1      32.179  29.636  25.534  1.00  0.00     0.047 A 
ATOM     20  C   UNL A   1      33.390  27.574  25.792  1.00  0.00     0.047 A 
ATOM     21  C   UNL A   1      33.052  30.259  26.426  1.00  0.00     0.012 A 
ATOM     22  C   UNL A   1      34.260  28.199  26.698  1.00  0.00     0.012 A 
BRANCH  18  23
ATOM     23  O   UNL A   1      31.511  27.775  24.275  1.00  0.00    -0.491 OA
BRANCH  23  24
ATOM     24  C   UNL A   1      31.778  28.109  22.904  1.00  0.00     0.167 C 
ATOM     25  C   UNL A   1      31.100  29.407  22.480  1.00  0.00     0.052 C 
ATOM     26  C   UNL A   1      33.252  28.054  22.506  1.00  0.00     0.052 C 
ENDBRANCH  23  24
ENDBRANCH  18  23
ENDBRANCH  12  17
ENDBRANCH   9  11
BRANCH  10  27
ATOM     27  C   UNL A   1      36.498  33.520  32.214  1.00  0.00    -0.025 A 
ATOM     28  C   UNL A   1      36.514  34.876  32.570  1.00  0.00     0.009 A 
ATOM     29  C   UNL A   1      35.283  32.820  32.197  1.00  0.00     0.009 A 
ATOM     30  C   UNL A   1      35.320  35.571  32.741  1.00  0.00     0.021 A 
ATOM     31  C   UNL A   1      34.078  33.516  32.362  1.00  0.00     0.021 A 
ATOM     32  C   UNL A   1      34.108  34.897  32.585  1.00  0.00     0.067 A 
BRANCH  32  33
ATOM     33  S   UNL A   1      32.621  35.864  32.445  1.00  0.00     0.175 S 
ATOM     34  C   UNL A   1      32.608  36.409  30.763  1.00  0.00     0.163 C 
ATOM     35  O   UNL A   1      31.511  34.947  32.630  1.00  0.00    -0.224 OA
ATOM     36  O   UNL A   1      32.768  37.030  33.295  1.00  0.00    -0.224 OA
ENDBRANCH  32  33
ENDBRANCH  10  27
ENDBRANCH   7   9
ENDBRANCH   6   7
ENDBRANCH   5   6
ENDBRANCH   4   5
ENDBRANCH   3   4
ENDBRANCH   2   3
ENDBRANCH   1   2
BRANCH   1  37
ATOM     37  O   UNL A   1      46.555  32.724  32.832  1.00  0.00    -0.377 OA
BRANCH  37  38
ATOM     38  C   UNL A   1      47.106  32.954  34.125  1.00  0.00     0.188 C 
BRANCH  38  39
ATOM     39  C   UNL A   1      48.526  33.554  34.274  1.00  0.00     0.188 C 
BRANCH  39  40
ATOM     40  O   UNL A   1      49.410  32.787  35.075  1.00  0.00    -0.376 OA
BRANCH  40  41
ATOM     41  C   UNL A   1      50.523  33.453  35.645  1.00  0.00     0.202 C 
BRANCH  41  42
ATOM     42  C   UNL A   1      51.904  32.821  35.425  1.00  0.00     0.261 C 
BRANCH  42  43
ATOM     43  O   UNL A   1      51.955  31.693  34.537  1.00  0.00    -0.460 OA
BRANCH  43  44
ATOM     44  C   UNL A   1      52.233  31.918  33.235  1.00  0.00     0.338 C 
ATOM     45  O   UNL A   1      53.155  32.568  32.775  1.00  0.00    -0.246 OA
BRANCH  44  46
ATOM     46  C   UNL A   1      51.319  31.061  32.449  1.00  0.00     0.060 A 
ATOM     47  C   UNL A   1      50.178  31.623  31.857  1.00  0.00     0.016 A 
ATOM     48  C   UNL A   1      51.634  29.718  32.244  1.00  0.00     0.016 A 
ATOM     49  C   UNL A   1      49.351  30.837  31.050  1.00  0.00     0.010 A 
ATOM     50  C   UNL A   1      50.790  28.927  31.463  1.00  0.00     0.010 A 
ATOM     51  C   UNL A   1      49.638  29.478  30.873  1.00  0.00    -0.014 A 
BRANCH  51  52
ATOM     52  C   UNL A   1      48.667  28.579  30.205  1.00  0.00     0.031 A 
ATOM     53  C   UNL A   1      47.735  27.775  31.066  1.00  0.00     0.074 A 
ATOM     54  C   UNL A   1      48.635  28.449  28.867  1.00  0.00     0.049 A 
ATOM     55  N   UNL A   1      46.901  26.826  30.730  1.00  0.00    -0.248 NA
ATOM     56  C   UNL A   1      47.752  28.083  32.505  1.00  0.00     0.031 C 
ATOM     57  C   UNL A   1      49.455  29.208  27.925  1.00  0.00     0.029 A 
ATOM     58  N   UNL A   1      47.895  27.609  28.072  1.00  0.00    -0.354 N 
ATOM     59  C   UNL A   1      46.302  26.417  31.914  1.00  0.00     0.074 A 
ATOM     60  C   UNL A   1      46.885  27.204  32.981  1.00  0.00     0.031 C 
ATOM     61  C   UNL A   1      49.189  28.782  26.678  1.00  0.00     0.029 A 
ATOM     62  C   UNL A   1      48.217  27.690  26.738  1.00  0.00     0.049 A 
ATOM     63  H   UNL A   1      47.201  27.008  28.423  1.00  0.00     0.167 HD
ATOM     64  C   UNL A   1      45.348  25.475  32.094  1.00  0.00     0.037 A 
ATOM     65  C   UNL A   1      47.803  26.940  25.698  1.00  0.00     0.037 A 
ATOM     66  C   UNL A   1      44.778  24.691  31.030  1.00  0.00     0.049 A 
ATOM     67  C   UNL A   1      46.819  25.820  25.940  1.00  0.00     0.074 A 
ATOM     68  C   UNL A   1      43.791  23.725  31.106  1.00  0.00     0.029 A 
ATOM     69  N   UNL A   1      45.157  24.775  29.699  1.00  0.00    -0.354 N 
ATOM     70  N   UNL A   1      46.232  25.458  27.056  1.00  0.00    -0.248 NA
ATOM     71  C   UNL A   1      46.446  24.999  24.778  1.00  0.00     0.031 C 
ATOM     72  C   UNL A   1      43.617  23.180  29.830  1.00  0.00     0.029 A 
ATOM     73  C   UNL A   1      44.451  23.849  28.949  1.00  0.00     0.049 A 
ATOM     74  H   UNL A   1      45.828  25.399  29.340  1.00  0.00     0.167 HD
ATOM     75  C   UNL A   1      45.407  24.389  26.726  1.00  0.00     0.074 A 
ATOM     76  C   UNL A   1      45.553  24.171  25.303  1.00  0.00     0.031 C 
ATOM     77  C   UNL A   1      44.603  23.649  27.530  1.00  0.00     0.037 A 
BRANCH  64  78
ATOM     78  C   UNL A   1      44.880  25.215  33.495  1.00  0.00     0.064 A 
ATOM     79  C   UNL A   1      43.881  25.997  34.096  1.00  0.00     0.173 A 
ATOM     80  C   UNL A   1      45.407  24.142  34.231  1.00  0.00     0.173 A 
ATOM     81  F   UNL A   1      43.357  27.043  33.441  1.00  0.00    -0.203 F 
ATOM     82  C   UNL A   1      43.443  25.725  35.390  1.00  0.00     0.198 A 
ATOM     83  C   UNL A   1      44.943  23.856  35.512  1.00  0.00     0.198 A 
ATOM     84  F   UNL A   1      46.362  23.363  33.701  1.00  0.00    -0.203 F 
ATOM     85  F   UNL A   1      42.519  26.511  35.960  1.00  0.00    -0.200 F 
ATOM     86  C   UNL A   1      43.967  24.651  36.092  1.00  0.00     0.200 A 
ATOM     87  F   UNL A   1      45.442  22.809  36.184  1.00  0.00    -0.200 F 
ATOM     88  F   UNL A   1      43.535  24.384  37.332  1.00  0.00    -0.200 F 
ENDBRANCH  64  78
BRANCH  65  89
ATOM     89  C   UNL A   1      48.341  27.186  24.333  1.00  0.00     0.064 A 
ATOM     90  C   UNL A   1      49.648  26.807  23.992  1.00  0.00     0.173 A 
ATOM     91  C   UNL A   1      47.580  27.841  23.354  1.00  0.00     0.173 A 
ATOM     92  F   UNL A   1      50.428  26.204  24.902  1.00  0.00    -0.203 F 
ATOM     93  C   UNL A   1      50.178  27.093  22.735  1.00  0.00     0.198 A 
ATOM     94  C   UNL A   1      48.099  28.097  22.086  1.00  0.00     0.198 A 
ATOM     95  F   UNL A   1      46.327  28.233  23.627  1.00  0.00    -0.203 F 
ATOM     96  F   UNL A   1      51.449  26.771  22.457  1.00  0.00    -0.200 F 
ATOM     97  C   UNL A   1      49.401  27.733  21.781  1.00  0.00     0.200 A 
ATOM     98  F   UNL A   1      47.341  28.705  21.164  1.00  0.00    -0.200 F 
ATOM     99  F   UNL A   1      49.912  28.009  20.573  1.00  0.00    -0.200 F 
ENDBRANCH  65  89
BRANCH  77 100
ATOM    100  C   UNL A   1      43.799  22.551  26.893  1.00  0.00     0.064 A 
ATOM    101  C   UNL A   1      44.410  21.404  26.367  1.00  0.00     0.173 A 
ATOM    102  C   UNL A   1      42.397  22.616  26.872  1.00  0.00     0.173 A 
ATOM    103  F   UNL A   1      45.748  21.299  26.350  1.00  0.00    -0.203 F 
ATOM    104  C   UNL A   1      43.649  20.371  25.827  1.00  0.00     0.198 A 
ATOM    105  C   UNL A   1      41.638  21.568  26.362  1.00  0.00     0.198 A 
ATOM    106  F   UNL A   1      41.762  23.688  27.370  1.00  0.00    -0.203 F 
ATOM    107  F   UNL A   1      44.255  19.302  25.293  1.00  0.00    -0.200 F 
ATOM    108  C   UNL A   1      42.263  20.448  25.834  1.00  0.00     0.200 A 
ATOM    109  F   UNL A   1      40.300  21.637  26.385  1.00  0.00    -0.200 F 
ATOM    110  F   UNL A   1      41.532  19.445  25.330  1.00  0.00    -0.200 F 
ENDBRANCH  77 100
ENDBRANCH  51  52
ENDBRANCH  44  46
ENDBRANCH  43  44
ENDBRANCH  42  43
ENDBRANCH  41  42
ENDBRANCH  40  41
ENDBRANCH  39  40
ENDBRANCH  38  39
ENDBRANCH  37  38
ENDBRANCH   1  37
TORSDOF 26
ENDMDL
MODEL 3
REMARK VINA RESULT:      -6.5      5.161      9.045
REMARK SMILES CC(C)Oc1ccc(-c2ccc(/C(=C\c3ccc(S(C)(=O)=O)cc3)C(=O)OCCOCCOCCOCCOC(=O)c3ccc(-c4c5nc(c(-c6c(F)c(F)c(F)c(F)c6F)c6ccc([nH]6)c(-c6c(F)c(F)c(F)c(F)c6F)c6nc(c(-c7c(F)c(F)c(F)c(F)c7F)c7ccc4[nH]7)C=C6)C=C5)cc3)cc2)cc1
REMARK SMILES IDX 32 1 31 2 30 3 29 4 28 5 27 6 25 7 26 8 13 9 14 10 12 11
REMARK SMILES IDX 9 12 10 13 106 14 11 15 105 16 8 17 5 18 6 19 108 20 7 21
REMARK SMILES IDX 107 22 4 23 2 24 1 25 3 26 15 27 16 28 24 29 17 30 23 31
REMARK SMILES IDX 18 32 19 33 20 34 21 35 22 36 33 37 34 38 35 39 36 40 37 41
REMARK SMILES IDX 38 42 39 43 40 44 41 45 42 46 43 47 104 48 44 49 103 50
REMARK SMILES IDX 45 51 46 52 47 53 97 54 48 55 102 56 96 57 98 58 49 59
REMARK SMILES IDX 101 60 95 61 94 62 50 64 82 65 62 66 81 67 63 68 66 69 80 70
REMARK SMILES IDX 99 71 64 72 65 73 79 75 100 76 67 77 51 78 52 79 60 80 53 81
REMARK SMILES IDX 54 82 58 83 61 84 55 85 56 86 59 87 57 88 83 89 84 90 92 91
REMARK SMILES IDX 85 92 86 93 90 94 93 95 87 96 88 97 91 98 89 99 68 100
REMARK SMILES IDX 69 101 77 102 70 103 71 104 75 105 78 106 72 107 73 108
REMARK SMILES IDX 76 109 74 110
REMARK H PARENT 98 63 66 74
REMARK Flexibility Score: inf
ROOT
ATOM      1  C   UNL A   1      51.118  41.328  32.247  1.00  0.00     0.188 C 
ENDROOT
BRANCH   1   2
ATOM      2  C   UNL A   1      50.494  42.664  31.791  1.00  0.00     0.188 C 
BRANCH   2   3
ATOM      3  O   UNL A   1      49.613  42.571  30.683  1.00  0.00    -0.376 OA
BRANCH   3   4
ATOM      4  C   UNL A   1      48.379  43.261  30.783  1.00  0.00     0.202 C 
BRANCH   4   5
ATOM      5  C   UNL A   1      47.284  42.808  29.809  1.00  0.00     0.261 C 
BRANCH   5   6
ATOM      6  O   UNL A   1      46.811  43.831  28.919  1.00  0.00    -0.460 OA
BRANCH   6   7
ATOM      7  C   UNL A   1      45.482  43.862  28.638  1.00  0.00     0.338 C 
ATOM      8  O   UNL A   1      44.629  44.372  29.347  1.00  0.00    -0.246 OA
BRANCH   7   9
ATOM      9  C   UNL A   1      45.233  43.313  27.253  1.00  0.00     0.067 C 
ATOM     10  C   UNL A   1      45.256  44.244  26.261  1.00  0.00     0.024 C 
BRANCH   9  11
ATOM     11  C   UNL A   1      44.915  41.855  27.081  1.00  0.00    -0.011 A 
ATOM     12  C   UNL A   1      44.542  39.004  27.114  1.00  0.00    -0.018 A 
ATOM     13  C   UNL A   1      43.595  39.880  27.657  1.00  0.00     0.009 A 
ATOM     14  C   UNL A   1      45.648  39.583  26.486  1.00  0.00     0.009 A 
ATOM     15  C   UNL A   1      43.756  41.270  27.594  1.00  0.00     0.009 A 
ATOM     16  C   UNL A   1      45.818  40.977  26.458  1.00  0.00     0.009 A 
BRANCH  12  17
ATOM     17  C   UNL A   1      44.333  37.544  27.151  1.00  0.00    -0.018 A 
ATOM     18  C   UNL A   1      43.991  34.741  27.259  1.00  0.00     0.119 A 
ATOM     19  C   UNL A   1      45.219  35.308  27.579  1.00  0.00     0.047 A 
ATOM     20  C   UNL A   1      42.921  35.562  26.918  1.00  0.00     0.047 A 
ATOM     21  C   UNL A   1      45.387  36.691  27.521  1.00  0.00     0.012 A 
ATOM     22  C   UNL A   1      43.095  36.952  26.849  1.00  0.00     0.012 A 
BRANCH  18  23
ATOM     23  O   UNL A   1      43.872  33.395  27.438  1.00  0.00    -0.491 OA
BRANCH  23  24
ATOM     24  C   UNL A   1      44.291  32.532  26.370  1.00  0.00     0.167 C 
ATOM     25  C   UNL A   1      44.008  33.129  24.995  1.00  0.00     0.052 C 
ATOM     26  C   UNL A   1      45.716  31.997  26.500  1.00  0.00     0.052 C 
ENDBRANCH  23  24
ENDBRANCH  18  23
ENDBRANCH  12  17
ENDBRANCH   9  11
BRANCH  10  27
ATOM     27  C   UNL A   1      45.161  44.014  24.811  1.00  0.00    -0.025 A 
ATOM     28  C   UNL A   1      43.900  44.220  24.234  1.00  0.00     0.009 A 
ATOM     29  C   UNL A   1      46.275  43.798  23.987  1.00  0.00     0.009 A 
ATOM     30  C   UNL A   1      43.775  44.378  22.857  1.00  0.00     0.021 A 
ATOM     31  C   UNL A   1      46.156  43.964  22.601  1.00  0.00     0.021 A 
ATOM     32  C   UNL A   1      44.914  44.300  22.053  1.00  0.00     0.067 A 
BRANCH  32  33
ATOM     33  S   UNL A   1      44.794  44.863  20.369  1.00  0.00     0.175 S 
ATOM     34  C   UNL A   1      46.068  43.978  19.519  1.00  0.00     0.163 C 
ATOM     35  O   UNL A   1      43.513  44.401  19.869  1.00  0.00    -0.224 OA
ATOM     36  O   UNL A   1      45.134  46.273  20.347  1.00  0.00    -0.224 OA
ENDBRANCH  32  33
ENDBRANCH  10  27
ENDBRANCH   7   9
ENDBRANCH   6   7
ENDBRANCH   5   6
ENDBRANCH   4   5
ENDBRANCH   3   4
ENDBRANCH   2   3
ENDBRANCH   1   2
BRANCH   1  37
ATOM     37  O   UNL A   1      50.482  40.571  33.267  1.00  0.00    -0.377 OA
BRANCH  37  38
ATOM     38  C   UNL A   1      49.076  40.362  33.199  1.00  0.00     0.188 C 
BRANCH  38  39
ATOM     39  C   UNL A   1      48.146  40.933  34.298  1.00  0.00     0.188 C 
BRANCH  39  40
ATOM     40  O   UNL A   1      46.880  40.301  34.388  1.00  0.00    -0.376 OA
BRANCH  40  41
ATOM     41  C   UNL A   1      46.017  40.708  35.435  1.00  0.00     0.202 C 
BRANCH  41  42
ATOM     42  C   UNL A   1      44.694  41.373  35.033  1.00  0.00     0.261 C 
BRANCH  42  43
ATOM     43  O   UNL A   1      43.754  40.547  34.327  1.00  0.00    -0.460 OA
BRANCH  43  44
ATOM     44  C   UNL A   1      43.816  40.520  32.978  1.00  0.00     0.338 C 
ATOM     45  O   UNL A   1      44.012  41.458  32.225  1.00  0.00    -0.246 OA
BRANCH  44  46
ATOM     46  C   UNL A   1      43.797  39.096  32.579  1.00  0.00     0.060 A 
ATOM     47  C   UNL A   1      43.963  38.751  31.229  1.00  0.00     0.016 A 
ATOM     48  C   UNL A   1      43.684  38.105  33.553  1.00  0.00     0.016 A 
ATOM     49  C   UNL A   1      44.022  37.406  30.854  1.00  0.00     0.010 A 
ATOM     50  C   UNL A   1      43.712  36.762  33.173  1.00  0.00     0.010 A 
ATOM     51  C   UNL A   1      43.869  36.406  31.821  1.00  0.00    -0.014 A 
BRANCH  51  52
ATOM     52  C   UNL A   1      43.711  34.986  31.425  1.00  0.00     0.031 A 
ATOM     53  C   UNL A   1      44.947  34.199  31.096  1.00  0.00     0.074 A 
ATOM     54  C   UNL A   1      42.497  34.417  31.324  1.00  0.00     0.049 A 
ATOM     55  N   UNL A   1      45.060  32.996  30.595  1.00  0.00    -0.248 NA
ATOM     56  C   UNL A   1      46.231  34.865  31.365  1.00  0.00     0.031 C 
ATOM     57  C   UNL A   1      41.230  35.061  31.660  1.00  0.00     0.029 A 
ATOM     58  N   UNL A   1      42.135  33.167  30.882  1.00  0.00    -0.354 N 
ATOM     59  C   UNL A   1      46.424  32.765  30.481  1.00  0.00     0.074 A 
ATOM     60  C   UNL A   1      47.100  33.960  30.940  1.00  0.00     0.031 C 
ATOM     61  C   UNL A   1      40.225  34.210  31.391  1.00  0.00     0.029 A 
ATOM     62  C   UNL A   1      40.775  32.980  30.820  1.00  0.00     0.049 A 
ATOM     63  H   UNL A   1      42.786  32.473  30.635  1.00  0.00     0.167 HD
ATOM     64  C   UNL A   1      47.055  31.654  30.036  1.00  0.00     0.037 A 
ATOM     65  C   UNL A   1      40.062  31.951  30.320  1.00  0.00     0.037 A 
ATOM     66  C   UNL A   1      46.378  30.472  29.572  1.00  0.00     0.049 A 
ATOM     67  C   UNL A   1      40.789  30.767  29.729  1.00  0.00     0.074 A 
ATOM     68  C   UNL A   1      46.927  29.286  29.121  1.00  0.00     0.029 A 
ATOM     69  N   UNL A   1      45.001  30.335  29.489  1.00  0.00    -0.354 N 
ATOM     70  N   UNL A   1      42.078  30.539  29.650  1.00  0.00    -0.248 NA
ATOM     71  C   UNL A   1      39.959  29.700  29.147  1.00  0.00     0.031 C 
ATOM     72  C   UNL A   1      45.884  28.453  28.706  1.00  0.00     0.029 A 
ATOM     73  C   UNL A   1      44.682  29.097  28.955  1.00  0.00     0.049 A 
ATOM     74  H   UNL A   1      44.346  31.015  29.767  1.00  0.00     0.167 HD
ATOM     75  C   UNL A   1      42.213  29.299  29.037  1.00  0.00     0.074 A 
ATOM     76  C   UNL A   1      40.874  28.812  28.780  1.00  0.00     0.031 C 
ATOM     77  C   UNL A   1      43.343  28.624  28.711  1.00  0.00     0.037 A 
BRANCH  64  78
ATOM     78  C   UNL A   1      48.554  31.672  30.000  1.00  0.00     0.064 A 
ATOM     79  C   UNL A   1      49.325  31.135  31.043  1.00  0.00     0.173 A 
ATOM     80  C   UNL A   1      49.231  32.194  28.886  1.00  0.00     0.173 A 
ATOM     81  F   UNL A   1      48.727  30.638  32.136  1.00  0.00    -0.203 F 
ATOM     82  C   UNL A   1      50.716  31.139  30.980  1.00  0.00     0.198 A 
ATOM     83  C   UNL A   1      50.620  32.168  28.814  1.00  0.00     0.198 A 
ATOM     84  F   UNL A   1      48.541  32.717  27.861  1.00  0.00    -0.203 F 
ATOM     85  F   UNL A   1      51.432  30.660  32.007  1.00  0.00    -0.200 F 
ATOM     86  C   UNL A   1      51.361  31.647  29.863  1.00  0.00     0.200 A 
ATOM     87  F   UNL A   1      51.242  32.647  27.727  1.00  0.00    -0.200 F 
ATOM     88  F   UNL A   1      52.700  31.639  29.799  1.00  0.00    -0.200 F 
ENDBRANCH  64  78
BRANCH  65  89
ATOM     89  C   UNL A   1      38.574  32.000  30.314  1.00  0.00     0.064 A 
ATOM     90  C   UNL A   1      37.822  31.227  31.210  1.00  0.00     0.173 A 
ATOM     91  C   UNL A   1      37.873  32.785  29.387  1.00  0.00     0.173 A 
ATOM     92  F   UNL A   1      38.444  30.436  32.096  1.00  0.00    -0.203 F 
ATOM     93  C   UNL A   1      36.428  31.221  31.164  1.00  0.00     0.198 A 
ATOM     94  C   UNL A   1      36.480  32.805  29.363  1.00  0.00     0.198 A 
ATOM     95  F   UNL A   1      38.542  33.539  28.501  1.00  0.00    -0.203 F 
ATOM     96  F   UNL A   1      35.737  30.429  31.994  1.00  0.00    -0.200 F 
ATOM     97  C   UNL A   1      35.759  32.014  30.245  1.00  0.00     0.200 A 
ATOM     98  F   UNL A   1      35.837  33.581  28.481  1.00  0.00    -0.200 F 
ATOM     99  F   UNL A   1      34.419  32.007  30.200  1.00  0.00    -0.200 F 
ENDBRANCH  65  89
BRANCH  77 100
ATOM    100  C   UNL A   1      43.189  27.278  28.064  1.00  0.00     0.064 A 
ATOM    101  C   UNL A   1      43.036  26.109  28.824  1.00  0.00     0.173 A 
ATOM    102  C   UNL A   1      43.126  27.163  26.665  1.00  0.00     0.173 A 
ATOM    103  F   UNL A   1      43.103  26.162  30.163  1.00  0.00    -0.203 F 
ATOM    104  C   UNL A   1      42.842  24.875  28.210  1.00  0.00     0.198 A 
ATOM    105  C   UNL A   1      42.899  25.933  26.056  1.00  0.00     0.198 A 
ATOM    106  F   UNL A   1      43.259  28.250  25.892  1.00  0.00    -0.203 F 
ATOM    107  F   UNL A   1      42.738  23.766  28.956  1.00  0.00    -0.200 F 
ATOM    108  C   UNL A   1      42.763  24.789  26.827  1.00  0.00     0.200 A 
ATOM    109  F   UNL A   1      42.807  25.854  24.721  1.00  0.00    -0.200 F 
ATOM    110  F   UNL A   1      42.559  23.603  26.239  1.00  0.00    -0.200 F 
ENDBRANCH  77 100
ENDBRANCH  51  52
ENDBRANCH  44  46
ENDBRANCH  43  44
ENDBRANCH  42  43
ENDBRANCH  41  42
ENDBRANCH  40  41
ENDBRANCH  39  40
ENDBRANCH  38  39
ENDBRANCH  37  38
ENDBRANCH   1  37
TORSDOF 26
ENDMDL
