MODEL 1
REMARK VINA RESULT:     -10.9      0.000      0.000
REMARK SMILES O=C(OCCOCCOCCOCCOC(=O)[C@H]1CC[C@H]2CCCC[C@@H]2[N@H+]1[C@@H]1CCCSC1)c1ccc(-c2c3nc(c(-c4c(F)c(F)c(F)c(F)c4F)c4ccc([nH]4)c(-c4c(F)c(F)c(F)c(F)c4F)c4nc(c(-c5c(F)c(F)c(F)c(F)c5F)c5ccc2[nH]5)C=C4)C=C3)cc1
REMARK SMILES IDX 8 1 7 2 6 3 5 4 4 5 3 6 2 7 1 8 34 9 35 10 96 11 36 12 95 13
REMARK SMILES IDX 37 14 38 15 39 16 89 17 40 18 94 19 88 20 90 21 41 22 93 23
REMARK SMILES IDX 87 24 86 25 42 27 74 28 54 29 73 30 55 31 58 32 72 33 91 34
REMARK SMILES IDX 56 35 57 36 71 38 92 39 59 40 43 41 44 42 52 43 45 44 46 45
REMARK SMILES IDX 50 46 53 47 47 48 48 49 51 50 49 51 75 52 76 53 84 54 77 55
REMARK SMILES IDX 78 56 82 57 85 58 79 59 80 60 83 61 81 62 60 63 61 64 69 65
REMARK SMILES IDX 62 66 63 67 67 68 70 69 64 70 65 71 68 72 66 73 9 74 10 75
REMARK SMILES IDX 11 76 12 77 13 78 14 79 15 80 16 81 17 82 18 83 19 84 27 85
REMARK SMILES IDX 20 86 26 87 21 89 25 90 22 91 24 92 23 93 28 94 29 95 33 96
REMARK SMILES IDX 30 97 32 98 31 99
REMARK H PARENT 90 26 58 37 27 88
REMARK Flexibility Score: inf
ROOT
ATOM      1  C   UNL A   1      37.554  21.858  25.115  1.00  0.00     0.188 C 
ENDROOT
BRANCH   1   2
ATOM      2  C   UNL A   1      38.705  22.093  26.073  1.00  0.00     0.188 C 
BRANCH   2   3
ATOM      3  O   UNL A   1      39.657  21.087  25.781  1.00  0.00    -0.376 OA
BRANCH   3   4
ATOM      4  C   UNL A   1      40.698  20.854  26.706  1.00  0.00     0.202 C 
BRANCH   4   5
ATOM      5  C   UNL A   1      42.092  20.844  26.102  1.00  0.00     0.261 C 
BRANCH   5   6
ATOM      6  O   UNL A   1      42.872  22.041  26.285  1.00  0.00    -0.460 OA
BRANCH   6   7
ATOM      7  C   UNL A   1      42.739  23.322  25.882  1.00  0.00     0.338 C 
ATOM      8  O   UNL A   1      43.031  23.579  24.712  1.00  0.00    -0.246 OA
BRANCH   7   9
ATOM      9  C   UNL A   1      42.307  24.478  26.723  1.00  0.00     0.060 A 
ATOM     10  C   UNL A   1      42.819  25.771  26.664  1.00  0.00     0.016 A 
ATOM     11  C   UNL A   1      41.196  24.266  27.561  1.00  0.00     0.016 A 
ATOM     12  C   UNL A   1      42.270  26.826  27.372  1.00  0.00     0.010 A 
ATOM     13  C   UNL A   1      40.654  25.306  28.319  1.00  0.00     0.010 A 
ATOM     14  C   UNL A   1      41.214  26.584  28.232  1.00  0.00    -0.014 A 
BRANCH  14  15
ATOM     15  C   UNL A   1      40.935  27.617  29.233  1.00  0.00     0.031 A 
ATOM     16  C   UNL A   1      41.863  27.670  30.401  1.00  0.00     0.074 A 
ATOM     17  C   UNL A   1      40.003  28.553  29.008  1.00  0.00     0.049 A 
ATOM     18  N   UNL A   1      41.755  28.322  31.522  1.00  0.00    -0.248 NA
ATOM     19  C   UNL A   1      43.097  26.871  30.282  1.00  0.00     0.031 C 
ATOM     20  C   UNL A   1      39.223  28.689  27.778  1.00  0.00     0.029 A 
ATOM     21  N   UNL A   1      39.564  29.572  29.805  1.00  0.00    -0.354 N 
ATOM     22  C   UNL A   1      42.864  27.952  32.269  1.00  0.00     0.074 A 
ATOM     23  C   UNL A   1      43.653  27.049  31.467  1.00  0.00     0.031 C 
ATOM     24  C   UNL A   1      38.376  29.723  27.914  1.00  0.00     0.029 A 
ATOM     25  C   UNL A   1      38.494  30.245  29.270  1.00  0.00     0.049 A 
ATOM     26  H   UNL A   1      39.971  29.799  30.672  1.00  0.00     0.167 HD
ATOM     27  C   UNL A   1      43.155  28.321  33.536  1.00  0.00     0.037 A 
ATOM     28  C   UNL A   1      37.664  31.120  29.864  1.00  0.00     0.037 A 
ATOM     29  C   UNL A   1      42.319  29.227  34.271  1.00  0.00     0.049 A 
ATOM     30  C   UNL A   1      37.932  31.445  31.310  1.00  0.00     0.074 A 
ATOM     31  C   UNL A   1      42.417  29.639  35.583  1.00  0.00     0.029 A 
ATOM     32  N   UNL A   1      41.206  29.862  33.724  1.00  0.00    -0.354 N 
ATOM     33  N   UNL A   1      38.899  31.008  32.085  1.00  0.00    -0.248 NA
ATOM     34  C   UNL A   1      36.995  32.356  31.973  1.00  0.00     0.031 C 
ATOM     35  C   UNL A   1      41.332  30.484  35.843  1.00  0.00     0.029 A 
ATOM     36  C   UNL A   1      40.593  30.651  34.676  1.00  0.00     0.049 A 
ATOM     37  H   UNL A   1      40.901  29.763  32.794  1.00  0.00     0.167 HD
ATOM     38  C   UNL A   1      38.704  31.600  33.322  1.00  0.00     0.074 A 
ATOM     39  C   UNL A   1      37.521  32.434  33.189  1.00  0.00     0.031 C 
ATOM     40  C   UNL A   1      39.425  31.474  34.465  1.00  0.00     0.037 A 
BRANCH  27  41
ATOM     41  C   UNL A   1      44.316  27.630  34.190  1.00  0.00     0.064 A 
ATOM     42  C   UNL A   1      45.611  28.173  34.202  1.00  0.00     0.173 A 
ATOM     43  C   UNL A   1      44.149  26.337  34.710  1.00  0.00     0.173 A 
ATOM     44  F   UNL A   1      45.837  29.389  33.679  1.00  0.00    -0.203 F 
ATOM     45  C   UNL A   1      46.698  27.429  34.658  1.00  0.00     0.198 A 
ATOM     46  C   UNL A   1      45.231  25.609  35.197  1.00  0.00     0.198 A 
ATOM     47  F   UNL A   1      42.937  25.761  34.712  1.00  0.00    -0.203 F 
ATOM     48  F   UNL A   1      47.937  27.933  34.569  1.00  0.00    -0.200 F 
ATOM     49  C   UNL A   1      46.507  26.149  35.154  1.00  0.00     0.200 A 
ATOM     50  F   UNL A   1      45.044  24.371  35.674  1.00  0.00    -0.200 F 
ATOM     51  F   UNL A   1      47.557  25.424  35.567  1.00  0.00    -0.200 F 
ENDBRANCH  27  41
BRANCH  28  52
ATOM     52  C   UNL A   1      36.489  31.643  29.119  1.00  0.00     0.064 A 
ATOM     53  C   UNL A   1      35.415  30.815  28.770  1.00  0.00     0.173 A 
ATOM     54  C   UNL A   1      36.389  33.007  28.793  1.00  0.00     0.173 A 
ATOM     55  F   UNL A   1      35.466  29.503  29.041  1.00  0.00    -0.203 F 
ATOM     56  C   UNL A   1      34.288  31.329  28.127  1.00  0.00     0.198 A 
ATOM     57  C   UNL A   1      35.251  33.525  28.178  1.00  0.00     0.198 A 
ATOM     58  F   UNL A   1      37.387  33.848  29.103  1.00  0.00    -0.203 F 
ATOM     59  F   UNL A   1      33.284  30.511  27.784  1.00  0.00    -0.200 F 
ATOM     60  C   UNL A   1      34.202  32.685  27.842  1.00  0.00     0.200 A 
ATOM     61  F   UNL A   1      35.167  34.837  27.922  1.00  0.00    -0.200 F 
ATOM     62  F   UNL A   1      33.110  33.180  27.243  1.00  0.00    -0.200 F 
ENDBRANCH  28  52
BRANCH  40  63
ATOM     63  C   UNL A   1      38.990  32.298  35.634  1.00  0.00     0.064 A 
ATOM     64  C   UNL A   1      38.234  31.749  36.678  1.00  0.00     0.173 A 
ATOM     65  C   UNL A   1      39.443  33.620  35.760  1.00  0.00     0.173 A 
ATOM     66  F   UNL A   1      37.772  30.492  36.589  1.00  0.00    -0.203 F 
ATOM     67  C   UNL A   1      37.945  32.500  37.812  1.00  0.00     0.198 A 
ATOM     68  C   UNL A   1      39.177  34.356  36.906  1.00  0.00     0.198 A 
ATOM     69  F   UNL A   1      40.178  34.178  34.786  1.00  0.00    -0.203 F 
ATOM     70  F   UNL A   1      37.204  31.967  38.794  1.00  0.00    -0.200 F 
ATOM     71  C   UNL A   1      38.428  33.795  37.932  1.00  0.00     0.200 A 
ATOM     72  F   UNL A   1      39.661  35.599  37.029  1.00  0.00    -0.200 F 
ATOM     73  F   UNL A   1      38.175  34.505  39.039  1.00  0.00    -0.200 F 
ENDBRANCH  40  63
ENDBRANCH  14  15
ENDBRANCH   7   9
ENDBRANCH   6   7
ENDBRANCH   5   6
ENDBRANCH   4   5
ENDBRANCH   3   4
ENDBRANCH   2   3
ENDBRANCH   1   2
BRANCH   1  74
ATOM     74  O   UNL A   1      36.382  22.573  25.502  1.00  0.00    -0.377 OA
BRANCH  74  75
ATOM     75  C   UNL A   1      35.993  23.673  24.687  1.00  0.00     0.188 C 
BRANCH  75  76
ATOM     76  C   UNL A   1      34.630  23.663  24.008  1.00  0.00     0.188 C 
BRANCH  76  77
ATOM     77  O   UNL A   1      34.590  23.676  22.602  1.00  0.00    -0.376 OA
BRANCH  77  78
ATOM     78  C   UNL A   1      33.331  23.734  21.930  1.00  0.00     0.202 C 
BRANCH  78  79
ATOM     79  C   UNL A   1      32.675  25.058  21.489  1.00  0.00     0.261 C 
BRANCH  79  80
ATOM     80  O   UNL A   1      33.589  26.109  21.085  1.00  0.00    -0.459 OA
BRANCH  80  81
ATOM     81  C   UNL A   1      33.763  27.146  21.944  1.00  0.00     0.365 C 
ATOM     82  O   UNL A   1      34.296  28.207  21.598  1.00  0.00    -0.245 OA
BRANCH  81  83
ATOM     83  C   UNL A   1      33.179  27.002  23.375  1.00  0.00     0.295 C 
ATOM     84  C   UNL A   1      34.030  27.543  24.547  1.00  0.00     0.078 C 
ATOM     85  N   UNL A   1      31.727  27.227  23.573  1.00  0.00    -0.317 N 
ATOM     86  C   UNL A   1      33.447  27.235  25.934  1.00  0.00     0.016 C 
ATOM     87  C   UNL A   1      31.278  26.530  24.806  1.00  0.00     0.188 C 
ATOM     88  H   UNL A   1      31.264  26.802  22.769  1.00  0.00     0.349 HD
ATOM     89  C   UNL A   1      32.409  26.141  25.803  1.00  0.00     0.048 C 
ATOM     90  C   UNL A   1      30.568  25.212  24.449  1.00  0.00     0.065 C 
ATOM     91  C   UNL A   1      31.782  25.708  27.124  1.00  0.00     0.010 C 
ATOM     92  C   UNL A   1      29.985  24.553  25.709  1.00  0.00     0.006 C 
ATOM     93  C   UNL A   1      30.970  24.434  26.880  1.00  0.00     0.001 C 
BRANCH  85  94
ATOM     94  C   UNL A   1      31.228  28.632  23.426  1.00  0.00     0.195 C 
ATOM     95  C   UNL A   1      30.807  29.387  24.715  1.00  0.00     0.067 C 
ATOM     96  C   UNL A   1      30.074  28.612  22.393  1.00  0.00     0.134 C 
ATOM     97  C   UNL A   1      30.287  30.809  24.489  1.00  0.00     0.017 C 
ATOM     98  S   UNL A   1      29.468  30.267  21.928  1.00  0.00    -0.156 SA
ATOM     99  C   UNL A   1      29.073  30.883  23.583  1.00  0.00     0.070 C 
ENDBRANCH  85  94
ENDBRANCH  81  83
ENDBRANCH  80  81
ENDBRANCH  79  80
ENDBRANCH  78  79
ENDBRANCH  77  78
ENDBRANCH  76  77
ENDBRANCH  75  76
ENDBRANCH  74  75
ENDBRANCH   1  74
TORSDOF 21
ENDMDL
MODEL 2
REMARK VINA RESULT:      -9.8      5.512     11.922
REMARK SMILES O=C(OCCOCCOCCOCCOC(=O)[C@H]1CC[C@H]2CCCC[C@@H]2[N@H+]1[C@@H]1CCCSC1)c1ccc(-c2c3nc(c(-c4c(F)c(F)c(F)c(F)c4F)c4ccc([nH]4)c(-c4c(F)c(F)c(F)c(F)c4F)c4nc(c(-c5c(F)c(F)c(F)c(F)c5F)c5ccc2[nH]5)C=C4)C=C3)cc1
REMARK SMILES IDX 8 1 7 2 6 3 5 4 4 5 3 6 2 7 1 8 34 9 35 10 96 11 36 12 95 13
REMARK SMILES IDX 37 14 38 15 39 16 89 17 40 18 94 19 88 20 90 21 41 22 93 23
REMARK SMILES IDX 87 24 86 25 42 27 74 28 54 29 73 30 55 31 58 32 72 33 91 34
REMARK SMILES IDX 56 35 57 36 71 38 92 39 59 40 43 41 44 42 52 43 45 44 46 45
REMARK SMILES IDX 50 46 53 47 47 48 48 49 51 50 49 51 75 52 76 53 84 54 77 55
REMARK SMILES IDX 78 56 82 57 85 58 79 59 80 60 83 61 81 62 60 63 61 64 69 65
REMARK SMILES IDX 62 66 63 67 67 68 70 69 64 70 65 71 68 72 66 73 9 74 10 75
REMARK SMILES IDX 11 76 12 77 13 78 14 79 15 80 16 81 17 82 18 83 19 84 27 85
REMARK SMILES IDX 20 86 26 87 21 89 25 90 22 91 24 92 23 93 28 94 29 95 33 96
REMARK SMILES IDX 30 97 32 98 31 99
REMARK H PARENT 90 26 58 37 27 88
REMARK Flexibility Score: inf
ROOT
ATOM      1  C   UNL A   1      33.523  36.069  30.235  1.00  0.00     0.188 C 
ENDROOT
BRANCH   1   2
ATOM      2  C   UNL A   1      32.906  35.922  28.857  1.00  0.00     0.188 C 
BRANCH   2   3
ATOM      3  O   UNL A   1      32.865  34.530  28.604  1.00  0.00    -0.376 OA
BRANCH   3   4
ATOM      4  C   UNL A   1      34.000  33.914  28.032  1.00  0.00     0.202 C 
BRANCH   4   5
ATOM      5  C   UNL A   1      34.483  32.673  28.762  1.00  0.00     0.261 C 
BRANCH   5   6
ATOM      6  O   UNL A   1      33.957  31.416  28.295  1.00  0.00    -0.460 OA
BRANCH   6   7
ATOM      7  C   UNL A   1      34.483  30.187  28.108  1.00  0.00     0.338 C 
ATOM      8  O   UNL A   1      33.701  29.271  27.849  1.00  0.00    -0.246 OA
BRANCH   7   9
ATOM      9  C   UNL A   1      35.925  29.812  28.221  1.00  0.00     0.060 A 
ATOM     10  C   UNL A   1      36.902  30.014  27.250  1.00  0.00     0.016 A 
ATOM     11  C   UNL A   1      36.353  29.326  29.470  1.00  0.00     0.016 A 
ATOM     12  C   UNL A   1      38.245  29.774  27.479  1.00  0.00     0.010 A 
ATOM     13  C   UNL A   1      37.698  29.035  29.709  1.00  0.00     0.010 A 
ATOM     14  C   UNL A   1      38.638  29.244  28.695  1.00  0.00    -0.014 A 
BRANCH  14  15
ATOM     15  C   UNL A   1      39.974  28.646  28.748  1.00  0.00     0.031 A 
ATOM     16  C   UNL A   1      41.081  29.543  29.194  1.00  0.00     0.074 A 
ATOM     17  C   UNL A   1      40.141  27.329  28.566  1.00  0.00     0.049 A 
ATOM     18  N   UNL A   1      42.369  29.364  29.147  1.00  0.00    -0.248 NA
ATOM     19  C   UNL A   1      40.670  30.830  29.786  1.00  0.00     0.031 C 
ATOM     20  C   UNL A   1      39.062  26.362  28.356  1.00  0.00     0.029 A 
ATOM     21  N   UNL A   1      41.282  26.579  28.540  1.00  0.00    -0.354 N 
ATOM     22  C   UNL A   1      42.920  30.543  29.629  1.00  0.00     0.074 A 
ATOM     23  C   UNL A   1      41.834  31.417  29.998  1.00  0.00     0.031 C 
ATOM     24  C   UNL A   1      39.600  25.142  28.194  1.00  0.00     0.029 A 
ATOM     25  C   UNL A   1      41.052  25.271  28.193  1.00  0.00     0.049 A 
ATOM     26  H   UNL A   1      42.175  26.937  28.747  1.00  0.00     0.167 HD
ATOM     27  C   UNL A   1      44.231  30.858  29.709  1.00  0.00     0.037 A 
ATOM     28  C   UNL A   1      41.937  24.324  27.833  1.00  0.00     0.037 A 
ATOM     29  C   UNL A   1      45.257  29.931  29.322  1.00  0.00     0.049 A 
ATOM     30  C   UNL A   1      43.391  24.715  27.822  1.00  0.00     0.074 A 
ATOM     31  C   UNL A   1      46.622  30.112  29.258  1.00  0.00     0.029 A 
ATOM     32  N   UNL A   1      44.999  28.621  28.924  1.00  0.00    -0.354 N 
ATOM     33  N   UNL A   1      43.936  25.867  28.146  1.00  0.00    -0.248 NA
ATOM     34  C   UNL A   1      44.351  23.701  27.377  1.00  0.00     0.031 C 
ATOM     35  C   UNL A   1      47.184  28.927  28.771  1.00  0.00     0.029 A 
ATOM     36  C   UNL A   1      46.178  27.984  28.593  1.00  0.00     0.049 A 
ATOM     37  H   UNL A   1      44.106  28.209  28.884  1.00  0.00     0.167 HD
ATOM     38  C   UNL A   1      45.301  25.716  27.965  1.00  0.00     0.074 A 
ATOM     39  C   UNL A   1      45.500  24.353  27.503  1.00  0.00     0.031 C 
ATOM     40  C   UNL A   1      46.302  26.612  28.158  1.00  0.00     0.037 A 
BRANCH  27  41
ATOM     41  C   UNL A   1      44.563  32.272  30.086  1.00  0.00     0.064 A 
ATOM     42  C   UNL A   1      44.741  32.677  31.418  1.00  0.00     0.173 A 
ATOM     43  C   UNL A   1      44.585  33.266  29.096  1.00  0.00     0.173 A 
ATOM     44  F   UNL A   1      44.688  31.775  32.411  1.00  0.00    -0.203 F 
ATOM     45  C   UNL A   1      44.871  34.026  31.747  1.00  0.00     0.198 A 
ATOM     46  C   UNL A   1      44.750  34.609  29.424  1.00  0.00     0.198 A 
ATOM     47  F   UNL A   1      44.407  32.940  27.806  1.00  0.00    -0.203 F 
ATOM     48  F   UNL A   1      44.942  34.397  33.034  1.00  0.00    -0.200 F 
ATOM     49  C   UNL A   1      44.875  34.990  30.750  1.00  0.00     0.200 A 
ATOM     50  F   UNL A   1      44.751  35.538  28.458  1.00  0.00    -0.200 F 
ATOM     51  F   UNL A   1      44.973  36.288  31.071  1.00  0.00    -0.200 F 
ENDBRANCH  27  41
BRANCH  28  52
ATOM     52  C   UNL A   1      41.450  22.995  27.380  1.00  0.00     0.064 A 
ATOM     53  C   UNL A   1      41.936  21.807  27.939  1.00  0.00     0.173 A 
ATOM     54  C   UNL A   1      40.437  22.888  26.411  1.00  0.00     0.173 A 
ATOM     55  F   UNL A   1      42.915  21.850  28.853  1.00  0.00    -0.203 F 
ATOM     56  C   UNL A   1      41.427  20.566  27.551  1.00  0.00     0.198 A 
ATOM     57  C   UNL A   1      39.908  21.652  26.045  1.00  0.00     0.198 A 
ATOM     58  F   UNL A   1      39.933  23.993  25.841  1.00  0.00    -0.203 F 
ATOM     59  F   UNL A   1      41.925  19.443  28.086  1.00  0.00    -0.200 F 
ATOM     60  C   UNL A   1      40.406  20.490  26.614  1.00  0.00     0.200 A 
ATOM     61  F   UNL A   1      38.911  21.587  25.154  1.00  0.00    -0.200 F 
ATOM     62  F   UNL A   1      39.905  19.300  26.258  1.00  0.00    -0.200 F 
ENDBRANCH  28  52
BRANCH  40  63
ATOM     63  C   UNL A   1      47.698  26.126  27.928  1.00  0.00     0.064 A 
ATOM     64  C   UNL A   1      48.312  26.230  26.674  1.00  0.00     0.173 A 
ATOM     65  C   UNL A   1      48.460  25.665  29.011  1.00  0.00     0.173 A 
ATOM     66  F   UNL A   1      47.613  26.655  25.610  1.00  0.00    -0.203 F 
ATOM     67  C   UNL A   1      49.650  25.885  26.512  1.00  0.00     0.198 A 
ATOM     68  C   UNL A   1      49.803  25.351  28.851  1.00  0.00     0.198 A 
ATOM     69  F   UNL A   1      47.909  25.562  30.230  1.00  0.00    -0.203 F 
ATOM     70  F   UNL A   1      50.219  25.971  25.302  1.00  0.00    -0.200 F 
ATOM     71  C   UNL A   1      50.397  25.461  27.602  1.00  0.00     0.200 A 
ATOM     72  F   UNL A   1      50.528  24.959  29.908  1.00  0.00    -0.200 F 
ATOM     73  F   UNL A   1      51.693  25.160  27.450  1.00  0.00    -0.200 F 
ENDBRANCH  40  63
ENDBRANCH  14  15
ENDBRANCH   7   9
ENDBRANCH   6   7
ENDBRANCH   5   6
ENDBRANCH   4   5
ENDBRANCH   3   4
ENDBRANCH   2   3
ENDBRANCH   1   2
BRANCH   1  74
ATOM     74  O   UNL A   1      32.644  35.617  31.264  1.00  0.00    -0.377 OA
BRANCH  74  75
ATOM     75  C   UNL A   1      32.486  36.460  32.399  1.00  0.00     0.188 C 
BRANCH  75  76
ATOM     76  C   UNL A   1      33.584  36.520  33.452  1.00  0.00     0.188 C 
BRANCH  76  77
ATOM     77  O   UNL A   1      34.901  36.224  33.055  1.00  0.00    -0.376 OA
BRANCH  77  78
ATOM     78  C   UNL A   1      35.353  34.869  33.053  1.00  0.00     0.202 C 
BRANCH  78  79
ATOM     79  C   UNL A   1      36.005  34.204  31.823  1.00  0.00     0.261 C 
BRANCH  79  80
ATOM     80  O   UNL A   1      36.996  33.185  32.112  1.00  0.00    -0.459 OA
BRANCH  80  81
ATOM     81  C   UNL A   1      38.302  33.536  31.990  1.00  0.00     0.365 C 
ATOM     82  O   UNL A   1      38.658  34.564  31.402  1.00  0.00    -0.245 OA
BRANCH  81  83
ATOM     83  C   UNL A   1      39.355  32.647  32.704  1.00  0.00     0.295 C 
ATOM     84  C   UNL A   1      40.597  33.354  33.295  1.00  0.00     0.078 C 
ATOM     85  N   UNL A   1      38.880  31.528  33.552  1.00  0.00    -0.317 N 
ATOM     86  C   UNL A   1      41.653  32.392  33.857  1.00  0.00     0.016 C 
ATOM     87  C   UNL A   1      39.953  30.507  33.679  1.00  0.00     0.188 C 
ATOM     88  H   UNL A   1      38.091  31.114  33.054  1.00  0.00     0.349 HD
ATOM     89  C   UNL A   1      41.388  30.999  33.325  1.00  0.00     0.048 C 
ATOM     90  C   UNL A   1      39.678  29.320  32.739  1.00  0.00     0.065 C 
ATOM     91  C   UNL A   1      42.399  29.951  33.776  1.00  0.00     0.010 C 
ATOM     92  C   UNL A   1      40.710  28.204  32.961  1.00  0.00     0.006 C 
ATOM     93  C   UNL A   1      42.170  28.677  32.959  1.00  0.00     0.001 C 
BRANCH  85  94
ATOM     94  C   UNL A   1      38.197  31.886  34.836  1.00  0.00     0.195 C 
ATOM     95  C   UNL A   1      38.360  33.337  35.361  1.00  0.00     0.067 C 
ATOM     96  C   UNL A   1      38.640  30.856  35.904  1.00  0.00     0.134 C 
ATOM     97  C   UNL A   1      37.653  33.627  36.688  1.00  0.00     0.017 C 
ATOM     98  S   UNL A   1      37.754  31.005  37.490  1.00  0.00    -0.156 SA
ATOM     99  C   UNL A   1      38.112  32.745  37.834  1.00  0.00     0.070 C 
ENDBRANCH  85  94
ENDBRANCH  81  83
ENDBRANCH  80  81
ENDBRANCH  79  80
ENDBRANCH  78  79
ENDBRANCH  77  78
ENDBRANCH  76  77
ENDBRANCH  75  76
ENDBRANCH  74  75
ENDBRANCH   1  74
TORSDOF 21
ENDMDL
MODEL 3
REMARK VINA RESULT:      -9.7      4.170      9.680
REMARK SMILES O=C(OCCOCCOCCOCCOC(=O)[C@H]1CC[C@H]2CCCC[C@@H]2[N@H+]1[C@@H]1CCCSC1)c1ccc(-c2c3nc(c(-c4c(F)c(F)c(F)c(F)c4F)c4ccc([nH]4)c(-c4c(F)c(F)c(F)c(F)c4F)c4nc(c(-c5c(F)c(F)c(F)c(F)c5F)c5ccc2[nH]5)C=C4)C=C3)cc1
REMARK SMILES IDX 8 1 7 2 6 3 5 4 4 5 3 6 2 7 1 8 34 9 35 10 96 11 36 12 95 13
REMARK SMILES IDX 37 14 38 15 39 16 89 17 40 18 94 19 88 20 90 21 41 22 93 23
REMARK SMILES IDX 87 24 86 25 42 27 74 28 54 29 73 30 55 31 58 32 72 33 91 34
REMARK SMILES IDX 56 35 57 36 71 38 92 39 59 40 43 41 44 42 52 43 45 44 46 45
REMARK SMILES IDX 50 46 53 47 47 48 48 49 51 50 49 51 75 52 76 53 84 54 77 55
REMARK SMILES IDX 78 56 82 57 85 58 79 59 80 60 83 61 81 62 60 63 61 64 69 65
REMARK SMILES IDX 62 66 63 67 67 68 70 69 64 70 65 71 68 72 66 73 9 74 10 75
REMARK SMILES IDX 11 76 12 77 13 78 14 79 15 80 16 81 17 82 18 83 19 84 27 85
REMARK SMILES IDX 20 86 26 87 21 89 25 90 22 91 24 92 23 93 28 94 29 95 33 96
REMARK SMILES IDX 30 97 32 98 31 99
REMARK H PARENT 90 26 58 37 27 88
REMARK Flexibility Score: inf
ROOT
ATOM      1  C   UNL A   1      33.519  35.152  28.596  1.00  0.00     0.188 C 
ENDROOT
BRANCH   1   2
ATOM      2  C   UNL A   1      33.413  36.646  28.832  1.00  0.00     0.188 C 
BRANCH   2   3
ATOM      3  O   UNL A   1      32.574  36.794  29.964  1.00  0.00    -0.376 OA
BRANCH   3   4
ATOM      4  C   UNL A   1      33.174  36.972  31.230  1.00  0.00     0.202 C 
BRANCH   4   5
ATOM      5  C   UNL A   1      32.772  35.941  32.271  1.00  0.00     0.261 C 
BRANCH   5   6
ATOM      6  O   UNL A   1      33.153  34.580  31.999  1.00  0.00    -0.460 OA
BRANCH   6   7
ATOM      7  C   UNL A   1      33.837  33.639  32.684  1.00  0.00     0.338 C 
ATOM      8  O   UNL A   1      33.210  32.979  33.516  1.00  0.00    -0.246 OA
BRANCH   7   9
ATOM      9  C   UNL A   1      35.294  33.336  32.564  1.00  0.00     0.060 A 
ATOM     10  C   UNL A   1      35.934  32.191  33.031  1.00  0.00     0.016 A 
ATOM     11  C   UNL A   1      36.063  34.233  31.799  1.00  0.00     0.016 A 
ATOM     12  C   UNL A   1      37.261  31.911  32.757  1.00  0.00     0.010 A 
ATOM     13  C   UNL A   1      37.415  33.993  31.547  1.00  0.00     0.010 A 
ATOM     14  C   UNL A   1      38.012  32.833  32.050  1.00  0.00    -0.014 A 
BRANCH  14  15
ATOM     15  C   UNL A   1      39.468  32.689  32.129  1.00  0.00     0.031 A 
ATOM     16  C   UNL A   1      40.094  31.764  31.138  1.00  0.00     0.074 A 
ATOM     17  C   UNL A   1      40.191  33.477  32.936  1.00  0.00     0.049 A 
ATOM     18  N   UNL A   1      41.303  31.285  31.092  1.00  0.00    -0.248 NA
ATOM     19  C   UNL A   1      39.225  31.320  30.032  1.00  0.00     0.031 C 
ATOM     20  C   UNL A   1      39.654  34.561  33.760  1.00  0.00     0.029 A 
ATOM     21  N   UNL A   1      41.533  33.491  33.187  1.00  0.00    -0.354 N 
ATOM     22  C   UNL A   1      41.315  30.426  30.002  1.00  0.00     0.074 A 
ATOM     23  C   UNL A   1      40.010  30.473  29.391  1.00  0.00     0.031 C 
ATOM     24  C   UNL A   1      40.661  35.121  34.450  1.00  0.00     0.029 A 
ATOM     25  C   UNL A   1      41.881  34.368  34.184  1.00  0.00     0.049 A 
ATOM     26  H   UNL A   1      42.184  32.931  32.704  1.00  0.00     0.167 HD
ATOM     27  C   UNL A   1      42.337  29.642  29.592  1.00  0.00     0.037 A 
ATOM     28  C   UNL A   1      43.042  34.469  34.853  1.00  0.00     0.037 A 
ATOM     29  C   UNL A   1      43.611  29.652  30.255  1.00  0.00     0.049 A 
ATOM     30  C   UNL A   1      44.143  33.518  34.461  1.00  0.00     0.074 A 
ATOM     31  C   UNL A   1      44.721  28.867  30.027  1.00  0.00     0.029 A 
ATOM     32  N   UNL A   1      43.927  30.516  31.300  1.00  0.00    -0.354 N 
ATOM     33  N   UNL A   1      44.141  32.601  33.520  1.00  0.00    -0.248 NA
ATOM     34  C   UNL A   1      45.391  33.591  35.226  1.00  0.00     0.031 C 
ATOM     35  C   UNL A   1      45.691  29.223  30.971  1.00  0.00     0.029 A 
ATOM     36  C   UNL A   1      45.211  30.274  31.745  1.00  0.00     0.049 A 
ATOM     37  H   UNL A   1      43.323  31.201  31.669  1.00  0.00     0.167 HD
ATOM     38  C   UNL A   1      45.387  31.998  33.563  1.00  0.00     0.074 A 
ATOM     39  C   UNL A   1      46.122  32.660  34.627  1.00  0.00     0.031 C 
ATOM     40  C   UNL A   1      45.887  30.991  32.801  1.00  0.00     0.037 A 
BRANCH  27  41
ATOM     41  C   UNL A   1      42.035  28.657  28.501  1.00  0.00     0.064 A 
ATOM     42  C   UNL A   1      42.267  28.937  27.145  1.00  0.00     0.173 A 
ATOM     43  C   UNL A   1      41.388  27.453  28.814  1.00  0.00     0.173 A 
ATOM     44  F   UNL A   1      42.846  30.094  26.784  1.00  0.00    -0.203 F 
ATOM     45  C   UNL A   1      41.814  28.077  26.146  1.00  0.00     0.198 A 
ATOM     46  C   UNL A   1      40.966  26.578  27.816  1.00  0.00     0.198 A 
ATOM     47  F   UNL A   1      41.126  27.139  30.092  1.00  0.00    -0.203 F 
ATOM     48  F   UNL A   1      41.961  28.413  24.856  1.00  0.00    -0.200 F 
ATOM     49  C   UNL A   1      41.163  26.899  26.483  1.00  0.00     0.200 A 
ATOM     50  F   UNL A   1      40.335  25.443  28.145  1.00  0.00    -0.200 F 
ATOM     51  F   UNL A   1      40.703  26.087  25.521  1.00  0.00    -0.200 F 
ENDBRANCH  27  41
BRANCH  28  52
ATOM     52  C   UNL A   1      43.160  35.423  35.987  1.00  0.00     0.064 A 
ATOM     53  C   UNL A   1      43.591  36.741  35.794  1.00  0.00     0.173 A 
ATOM     54  C   UNL A   1      42.781  35.049  37.288  1.00  0.00     0.173 A 
ATOM     55  F   UNL A   1      43.981  37.146  34.578  1.00  0.00    -0.203 F 
ATOM     56  C   UNL A   1      43.637  37.647  36.855  1.00  0.00     0.198 A 
ATOM     57  C   UNL A   1      42.798  35.961  38.341  1.00  0.00     0.198 A 
ATOM     58  F   UNL A   1      42.359  33.799  37.532  1.00  0.00    -0.203 F 
ATOM     59  F   UNL A   1      44.074  38.896  36.648  1.00  0.00    -0.200 F 
ATOM     60  C   UNL A   1      43.229  37.260  38.125  1.00  0.00     0.200 A 
ATOM     61  F   UNL A   1      42.387  35.586  39.559  1.00  0.00    -0.200 F 
ATOM     62  F   UNL A   1      43.254  38.137  39.137  1.00  0.00    -0.200 F 
ENDBRANCH  28  52
BRANCH  40  63
ATOM     63  C   UNL A   1      47.306  30.592  33.053  1.00  0.00     0.064 A 
ATOM     64  C   UNL A   1      47.630  29.559  33.941  1.00  0.00     0.173 A 
ATOM     65  C   UNL A   1      48.336  31.177  32.302  1.00  0.00     0.173 A 
ATOM     66  F   UNL A   1      46.675  28.982  34.686  1.00  0.00    -0.203 F 
ATOM     67  C   UNL A   1      48.945  29.123  34.068  1.00  0.00     0.198 A 
ATOM     68  C   UNL A   1      49.642  30.719  32.410  1.00  0.00     0.198 A 
ATOM     69  F   UNL A   1      48.063  32.164  31.434  1.00  0.00    -0.203 F 
ATOM     70  F   UNL A   1      49.243  28.145  34.934  1.00  0.00    -0.200 F 
ATOM     71  C   UNL A   1      49.946  29.692  33.293  1.00  0.00     0.200 A 
ATOM     72  F   UNL A   1      50.604  31.257  31.648  1.00  0.00    -0.200 F 
ATOM     73  F   UNL A   1      51.206  29.249  33.394  1.00  0.00    -0.200 F 
ENDBRANCH  40  63
ENDBRANCH  14  15
ENDBRANCH   7   9
ENDBRANCH   6   7
ENDBRANCH   5   6
ENDBRANCH   4   5
ENDBRANCH   3   4
ENDBRANCH   2   3
ENDBRANCH   1   2
BRANCH   1  74
ATOM     74  O   UNL A   1      34.739  34.801  27.946  1.00  0.00    -0.377 OA
BRANCH  74  75
ATOM     75  C   UNL A   1      35.372  33.595  28.359  1.00  0.00     0.188 C 
BRANCH  75  76
ATOM     76  C   UNL A   1      34.792  32.254  27.929  1.00  0.00     0.188 C 
BRANCH  76  77
ATOM     77  O   UNL A   1      35.687  31.221  27.593  1.00  0.00    -0.376 OA
BRANCH  77  78
ATOM     78  C   UNL A   1      35.240  29.865  27.606  1.00  0.00     0.202 C 
BRANCH  78  79
ATOM     79  C   UNL A   1      33.778  29.461  27.329  1.00  0.00     0.261 C 
BRANCH  79  80
ATOM     80  O   UNL A   1      33.579  28.102  26.863  1.00  0.00    -0.459 OA
BRANCH  80  81
ATOM     81  C   UNL A   1      32.331  27.581  26.980  1.00  0.00     0.365 C 
ATOM     82  O   UNL A   1      31.518  27.995  27.815  1.00  0.00    -0.245 OA
BRANCH  81  83
ATOM     83  C   UNL A   1      31.905  26.494  25.956  1.00  0.00     0.295 C 
ATOM     84  C   UNL A   1      30.926  25.402  26.446  1.00  0.00     0.078 C 
ATOM     85  N   UNL A   1      31.648  26.904  24.555  1.00  0.00    -0.317 N 
ATOM     86  C   UNL A   1      30.668  24.291  25.418  1.00  0.00     0.016 C 
ATOM     87  C   UNL A   1      31.806  25.731  23.655  1.00  0.00     0.188 C 
ATOM     88  H   UNL A   1      32.366  27.591  24.327  1.00  0.00     0.349 HD
ATOM     89  C   UNL A   1      31.744  24.340  24.354  1.00  0.00     0.048 C 
ATOM     90  C   UNL A   1      33.170  25.779  22.946  1.00  0.00     0.065 C 
ATOM     91  C   UNL A   1      31.628  23.254  23.290  1.00  0.00     0.010 C 
ATOM     92  C   UNL A   1      33.285  24.644  21.917  1.00  0.00     0.006 C 
ATOM     93  C   UNL A   1      32.909  23.256  22.454  1.00  0.00     0.001 C 
BRANCH  85  94
ATOM     94  C   UNL A   1      30.427  27.734  24.299  1.00  0.00     0.195 C 
ATOM     95  C   UNL A   1      29.263  27.081  23.508  1.00  0.00     0.067 C 
ATOM     96  C   UNL A   1      30.889  29.049  23.623  1.00  0.00     0.134 C 
ATOM     97  C   UNL A   1      28.057  27.992  23.265  1.00  0.00     0.017 C 
ATOM     98  S   UNL A   1      29.562  30.281  23.416  1.00  0.00    -0.156 SA
ATOM     99  C   UNL A   1      28.388  29.258  22.496  1.00  0.00     0.070 C 
ENDBRANCH  85  94
ENDBRANCH  81  83
ENDBRANCH  80  81
ENDBRANCH  79  80
ENDBRANCH  78  79
ENDBRANCH  77  78
ENDBRANCH  76  77
ENDBRANCH  75  76
ENDBRANCH  74  75
ENDBRANCH   1  74
TORSDOF 21
ENDMDL
