MODEL 1
REMARK VINA RESULT:      -9.5      0.000      0.000
REMARK SMILES NS(=O)(=O)c1ccc(-n2nc(C(=O)OCCOCCOCCOCCOC(=O)c3ccc(-c4c5nc(c(-c6c(F)c(F)c(F)c(F)c6F)c6ccc([nH]6)c(-c6c(F)c(F)c(F)c(F)c6F)c6nc(c(-c7c(F)c(F)c(F)c(F)c7F)c7ccc4[nH]7)C=C6)C=C5)cc3)cc2-c2ccc(Cl)s2)cc1
REMARK SMILES IDX 19 1 18 2 17 3 16 4 15 5 14 6 12 7 13 8 11 9 9 10 10 11
REMARK SMILES IDX 93 12 92 13 8 14 5 15 6 16 101 17 7 18 100 19 2 20 3 21 4 22
REMARK SMILES IDX 1 23 94 26 95 27 99 28 96 29 97 30 98 31 20 32 21 33 22 34
REMARK SMILES IDX 23 35 24 36 25 37 26 38 27 39 28 40 29 41 30 42 91 43 31 44
REMARK SMILES IDX 90 45 32 46 33 47 34 48 84 49 35 50 89 51 83 52 85 53 36 54
REMARK SMILES IDX 88 55 82 56 81 57 37 59 69 60 49 61 68 62 50 63 53 64 67 65
REMARK SMILES IDX 86 66 51 67 52 68 66 70 87 71 54 72 38 73 39 74 47 75 40 76
REMARK SMILES IDX 41 77 45 78 48 79 42 80 43 81 46 82 44 83 70 84 71 85 79 86
REMARK SMILES IDX 72 87 73 88 77 89 80 90 74 91 75 92 78 93 76 94 55 95 56 96
REMARK SMILES IDX 64 97 57 98 58 99 62 100 65 101 59 102 60 103 63 104 61 105
REMARK H PARENT 1 24 1 25 85 58 53 69
REMARK Flexibility Score: inf
ROOT
ATOM      1  C   UNL A   1      33.880  35.917  28.611  1.00  0.00     0.188 C 
ENDROOT
BRANCH   1   2
ATOM      2  C   UNL A   1      33.447  37.210  29.330  1.00  0.00     0.188 C 
BRANCH   2   3
ATOM      3  O   UNL A   1      32.685  36.976  30.508  1.00  0.00    -0.376 OA
BRANCH   3   4
ATOM      4  C   UNL A   1      33.351  37.184  31.739  1.00  0.00     0.202 C 
BRANCH   4   5
ATOM      5  C   UNL A   1      33.182  36.012  32.713  1.00  0.00     0.261 C 
BRANCH   5   6
ATOM      6  O   UNL A   1      34.397  35.333  33.071  1.00  0.00    -0.458 OA
BRANCH   6   7
ATOM      7  C   UNL A   1      34.303  34.003  33.356  1.00  0.00     0.358 C 
ATOM      8  O   UNL A   1      33.349  33.296  33.054  1.00  0.00    -0.244 OA
BRANCH   7   9
ATOM      9  C   UNL A   1      35.532  33.515  33.989  1.00  0.00     0.171 A 
ATOM     10  N   UNL A   1      37.061  33.211  35.457  1.00  0.00    -0.231 N 
ATOM     11  N   UNL A   1      35.806  33.701  35.295  1.00  0.00    -0.160 NA
ATOM     12  C   UNL A   1      37.522  32.573  34.316  1.00  0.00     0.085 A 
ATOM     13  C   UNL A   1      36.535  32.733  33.369  1.00  0.00     0.068 A 
BRANCH  10  14
ATOM     14  C   UNL A   1      37.785  33.499  36.639  1.00  0.00     0.065 A 
ATOM     15  C   UNL A   1      39.308  34.026  38.902  1.00  0.00     0.082 A 
ATOM     16  C   UNL A   1      39.434  34.851  37.781  1.00  0.00     0.024 A 
ATOM     17  C   UNL A   1      38.404  32.954  38.908  1.00  0.00     0.024 A 
ATOM     18  C   UNL A   1      38.683  34.576  36.641  1.00  0.00     0.030 A 
ATOM     19  C   UNL A   1      37.619  32.702  37.777  1.00  0.00     0.030 A 
BRANCH  15  20
ATOM     20  S   UNL A   1      40.267  34.372  40.347  1.00  0.00     0.238 S 
ATOM     21  O   UNL A   1      39.484  35.180  41.248  1.00  0.00    -0.207 OA
ATOM     22  O   UNL A   1      41.614  34.727  39.953  1.00  0.00    -0.207 OA
BRANCH  20  23
ATOM     23  N   UNL A   1      40.402  32.860  41.065  1.00  0.00    -0.225 NA
ATOM     24  H   UNL A   1      40.040  32.902  42.018  1.00  0.00     0.137 HD
ATOM     25  H   UNL A   1      41.383  32.580  41.086  1.00  0.00     0.137 HD
ENDBRANCH  20  23
ENDBRANCH  15  20
ENDBRANCH  10  14
BRANCH  12  26
ATOM     26  C   UNL A   1      38.776  31.894  34.179  1.00  0.00     0.054 A 
ATOM     27  C   UNL A   1      39.040  30.589  34.550  1.00  0.00     0.024 A 
ATOM     28  S   UNL A   1      40.169  32.654  33.526  1.00  0.00    -0.122 S 
ATOM     29  C   UNL A   1      40.367  30.189  34.213  1.00  0.00     0.033 A 
ATOM     30  C   UNL A   1      41.061  31.222  33.640  1.00  0.00     0.094 A 
ATOM     31  Cl  UNL A   1      42.677  31.173  33.062  1.00  0.00    -0.072 Cl
ENDBRANCH  12  26
ENDBRANCH   7   9
ENDBRANCH   6   7
ENDBRANCH   5   6
ENDBRANCH   4   5
ENDBRANCH   3   4
ENDBRANCH   2   3
ENDBRANCH   1   2
BRANCH   1  32
ATOM     32  O   UNL A   1      33.532  34.651  29.154  1.00  0.00    -0.377 OA
BRANCH  32  33
ATOM     33  C   UNL A   1      33.267  33.550  28.292  1.00  0.00     0.188 C 
BRANCH  33  34
ATOM     34  C   UNL A   1      34.388  32.606  27.787  1.00  0.00     0.188 C 
BRANCH  34  35
ATOM     35  O   UNL A   1      35.689  33.176  27.715  1.00  0.00    -0.376 OA
BRANCH  35  36
ATOM     36  C   UNL A   1      36.744  32.540  28.413  1.00  0.00     0.202 C 
BRANCH  36  37
ATOM     37  C   UNL A   1      36.309  31.990  29.766  1.00  0.00     0.261 C 
BRANCH  37  38
ATOM     38  O   UNL A   1      35.929  30.622  29.712  1.00  0.00    -0.460 OA
BRANCH  38  39
ATOM     39  C   UNL A   1      36.455  29.845  30.677  1.00  0.00     0.338 C 
ATOM     40  O   UNL A   1      36.297  29.947  31.881  1.00  0.00    -0.246 OA
BRANCH  39  41
ATOM     41  C   UNL A   1      37.378  28.892  30.060  1.00  0.00     0.060 A 
ATOM     42  C   UNL A   1      38.129  28.118  30.945  1.00  0.00     0.016 A 
ATOM     43  C   UNL A   1      37.728  29.050  28.710  1.00  0.00     0.016 A 
ATOM     44  C   UNL A   1      39.391  27.748  30.554  1.00  0.00     0.010 A 
ATOM     45  C   UNL A   1      38.996  28.695  28.326  1.00  0.00     0.010 A 
ATOM     46  C   UNL A   1      39.839  28.155  29.292  1.00  0.00    -0.014 A 
BRANCH  46  47
ATOM     47  C   UNL A   1      41.262  28.104  29.069  1.00  0.00     0.031 A 
ATOM     48  C   UNL A   1      41.764  26.859  28.467  1.00  0.00     0.074 A 
ATOM     49  C   UNL A   1      42.052  29.155  29.351  1.00  0.00     0.049 A 
ATOM     50  N   UNL A   1      42.613  26.025  28.963  1.00  0.00    -0.248 NA
ATOM     51  C   UNL A   1      41.183  26.457  27.179  1.00  0.00     0.031 C 
ATOM     52  C   UNL A   1      41.663  30.534  29.652  1.00  0.00     0.029 A 
ATOM     53  N   UNL A   1      43.408  29.213  29.307  1.00  0.00    -0.354 N 
ATOM     54  C   UNL A   1      42.798  25.059  27.983  1.00  0.00     0.074 A 
ATOM     55  C   UNL A   1      41.813  25.305  26.960  1.00  0.00     0.031 C 
ATOM     56  C   UNL A   1      42.750  31.329  29.534  1.00  0.00     0.029 A 
ATOM     57  C   UNL A   1      43.913  30.499  29.265  1.00  0.00     0.049 A 
ATOM     58  H   UNL A   1      43.980  28.412  29.304  1.00  0.00     0.167 HD
ATOM     59  C   UNL A   1      43.887  24.248  27.981  1.00  0.00     0.037 A 
ATOM     60  C   UNL A   1      45.176  30.838  28.913  1.00  0.00     0.037 A 
ATOM     61  C   UNL A   1      44.506  24.162  29.276  1.00  0.00     0.049 A 
ATOM     62  C   UNL A   1      46.028  29.625  29.052  1.00  0.00     0.074 A 
ATOM     63  C   UNL A   1      44.059  23.786  30.529  1.00  0.00     0.029 A 
ATOM     64  N   UNL A   1      45.691  24.820  29.496  1.00  0.00    -0.354 N 
ATOM     65  N   UNL A   1      46.357  29.079  30.190  1.00  0.00    -0.248 NA
ATOM     66  C   UNL A   1      46.172  28.762  27.886  1.00  0.00     0.031 C 
ATOM     67  C   UNL A   1      44.723  24.658  31.440  1.00  0.00     0.029 A 
ATOM     68  C   UNL A   1      45.548  25.491  30.686  1.00  0.00     0.049 A 
ATOM     69  H   UNL A   1      46.487  24.812  28.916  1.00  0.00     0.167 HD
ATOM     70  C   UNL A   1      46.351  27.712  29.945  1.00  0.00     0.074 A 
ATOM     71  C   UNL A   1      46.328  27.584  28.492  1.00  0.00     0.031 C 
ATOM     72  C   UNL A   1      46.080  26.809  30.933  1.00  0.00     0.037 A 
BRANCH  59  73
ATOM     73  C   UNL A   1      44.548  23.784  26.717  1.00  0.00     0.064 A 
ATOM     74  C   UNL A   1      44.414  22.447  26.308  1.00  0.00     0.173 A 
ATOM     75  C   UNL A   1      45.526  24.544  26.038  1.00  0.00     0.173 A 
ATOM     76  F   UNL A   1      43.545  21.631  26.923  1.00  0.00    -0.203 F 
ATOM     77  C   UNL A   1      45.230  21.900  25.316  1.00  0.00     0.198 A 
ATOM     78  C   UNL A   1      46.296  24.013  25.009  1.00  0.00     0.198 A 
ATOM     79  F   UNL A   1      45.847  25.788  26.418  1.00  0.00    -0.203 F 
ATOM     80  F   UNL A   1      45.146  20.594  25.034  1.00  0.00    -0.200 F 
ATOM     81  C   UNL A   1      46.167  22.683  24.665  1.00  0.00     0.200 A 
ATOM     82  F   UNL A   1      47.214  24.782  24.407  1.00  0.00    -0.200 F 
ATOM     83  F   UNL A   1      46.981  22.148  23.747  1.00  0.00    -0.200 F 
ENDBRANCH  59  73
BRANCH  60  84
ATOM     84  C   UNL A   1      45.601  32.041  28.160  1.00  0.00     0.064 A 
ATOM     85  C   UNL A   1      46.784  32.718  28.489  1.00  0.00     0.173 A 
ATOM     86  C   UNL A   1      44.985  32.414  26.947  1.00  0.00     0.173 A 
ATOM     87  F   UNL A   1      47.466  32.385  29.595  1.00  0.00    -0.203 F 
ATOM     88  C   UNL A   1      47.321  33.703  27.654  1.00  0.00     0.198 A 
ATOM     89  C   UNL A   1      45.509  33.410  26.125  1.00  0.00     0.198 A 
ATOM     90  F   UNL A   1      43.910  31.759  26.484  1.00  0.00    -0.203 F 
ATOM     91  F   UNL A   1      48.485  34.286  27.972  1.00  0.00    -0.200 F 
ATOM     92  C   UNL A   1      46.684  34.046  26.473  1.00  0.00     0.200 A 
ATOM     93  F   UNL A   1      44.900  33.705  24.968  1.00  0.00    -0.200 F 
ATOM     94  F   UNL A   1      47.222  34.959  25.651  1.00  0.00    -0.200 F 
ENDBRANCH  60  84
BRANCH  72  95
ATOM     95  C   UNL A   1      46.046  27.296  32.353  1.00  0.00     0.064 A 
ATOM     96  C   UNL A   1      44.914  27.879  32.946  1.00  0.00     0.173 A 
ATOM     97  C   UNL A   1      47.140  27.019  33.185  1.00  0.00     0.173 A 
ATOM     98  F   UNL A   1      43.789  28.068  32.245  1.00  0.00    -0.203 F 
ATOM     99  C   UNL A   1      44.900  28.216  34.299  1.00  0.00     0.198 A 
ATOM    100  C   UNL A   1      47.109  27.321  34.544  1.00  0.00     0.198 A 
ATOM    101  F   UNL A   1      48.225  26.402  32.689  1.00  0.00    -0.203 F 
ATOM    102  F   UNL A   1      43.810  28.783  34.838  1.00  0.00    -0.200 F 
ATOM    103  C   UNL A   1      45.994  27.930  35.098  1.00  0.00     0.200 A 
ATOM    104  F   UNL A   1      48.149  26.995  35.324  1.00  0.00    -0.200 F 
ATOM    105  F   UNL A   1      45.963  28.215  36.407  1.00  0.00    -0.200 F 
ENDBRANCH  72  95
ENDBRANCH  46  47
ENDBRANCH  39  41
ENDBRANCH  38  39
ENDBRANCH  37  38
ENDBRANCH  36  37
ENDBRANCH  35  36
ENDBRANCH  34  35
ENDBRANCH  33  34
ENDBRANCH  32  33
ENDBRANCH   1  32
TORSDOF 24
ENDMDL
MODEL 2
REMARK VINA RESULT:      -9.3      4.119      8.408
REMARK SMILES NS(=O)(=O)c1ccc(-n2nc(C(=O)OCCOCCOCCOCCOC(=O)c3ccc(-c4c5nc(c(-c6c(F)c(F)c(F)c(F)c6F)c6ccc([nH]6)c(-c6c(F)c(F)c(F)c(F)c6F)c6nc(c(-c7c(F)c(F)c(F)c(F)c7F)c7ccc4[nH]7)C=C6)C=C5)cc3)cc2-c2ccc(Cl)s2)cc1
REMARK SMILES IDX 19 1 18 2 17 3 16 4 15 5 14 6 12 7 13 8 11 9 9 10 10 11
REMARK SMILES IDX 93 12 92 13 8 14 5 15 6 16 101 17 7 18 100 19 2 20 3 21 4 22
REMARK SMILES IDX 1 23 94 26 95 27 99 28 96 29 97 30 98 31 20 32 21 33 22 34
REMARK SMILES IDX 23 35 24 36 25 37 26 38 27 39 28 40 29 41 30 42 91 43 31 44
REMARK SMILES IDX 90 45 32 46 33 47 34 48 84 49 35 50 89 51 83 52 85 53 36 54
REMARK SMILES IDX 88 55 82 56 81 57 37 59 69 60 49 61 68 62 50 63 53 64 67 65
REMARK SMILES IDX 86 66 51 67 52 68 66 70 87 71 54 72 38 73 39 74 47 75 40 76
REMARK SMILES IDX 41 77 45 78 48 79 42 80 43 81 46 82 44 83 70 84 71 85 79 86
REMARK SMILES IDX 72 87 73 88 77 89 80 90 74 91 75 92 78 93 76 94 55 95 56 96
REMARK SMILES IDX 64 97 57 98 58 99 62 100 65 101 59 102 60 103 63 104 61 105
REMARK H PARENT 1 24 1 25 85 58 53 69
REMARK Flexibility Score: inf
ROOT
ATOM      1  C   UNL A   1      32.864  25.661  22.388  1.00  0.00     0.188 C 
ENDROOT
BRANCH   1   2
ATOM      2  C   UNL A   1      32.486  26.458  23.652  1.00  0.00     0.188 C 
BRANCH   2   3
ATOM      3  O   UNL A   1      31.445  27.403  23.436  1.00  0.00    -0.376 OA
BRANCH   3   4
ATOM      4  C   UNL A   1      31.535  28.614  24.164  1.00  0.00     0.202 C 
BRANCH   4   5
ATOM      5  C   UNL A   1      32.977  29.112  24.317  1.00  0.00     0.261 C 
BRANCH   5   6
ATOM      6  O   UNL A   1      33.253  29.827  25.532  1.00  0.00    -0.458 OA
BRANCH   6   7
ATOM      7  C   UNL A   1      33.934  29.158  26.505  1.00  0.00     0.358 C 
ATOM      8  O   UNL A   1      34.035  27.939  26.565  1.00  0.00    -0.244 OA
BRANCH   7   9
ATOM      9  C   UNL A   1      34.604  30.094  27.413  1.00  0.00     0.171 A 
ATOM     10  N   UNL A   1      34.891  31.686  28.816  1.00  0.00    -0.231 N 
ATOM     11  N   UNL A   1      33.932  30.920  28.239  1.00  0.00    -0.160 NA
ATOM     12  C   UNL A   1      36.167  31.252  28.495  1.00  0.00     0.085 A 
ATOM     13  C   UNL A   1      36.000  30.206  27.614  1.00  0.00     0.068 A 
BRANCH  10  14
ATOM     14  C   UNL A   1      34.529  32.857  29.525  1.00  0.00     0.065 A 
ATOM     15  C   UNL A   1      33.723  35.095  30.960  1.00  0.00     0.082 A 
ATOM     16  C   UNL A   1      34.280  34.008  31.637  1.00  0.00     0.024 A 
ATOM     17  C   UNL A   1      33.591  35.082  29.564  1.00  0.00     0.024 A 
ATOM     18  C   UNL A   1      34.668  32.879  30.920  1.00  0.00     0.030 A 
ATOM     19  C   UNL A   1      34.019  33.965  28.838  1.00  0.00     0.030 A 
BRANCH  15  20
ATOM     20  S   UNL A   1      33.224  36.525  31.874  1.00  0.00     0.238 S 
ATOM     21  O   UNL A   1      32.890  37.579  30.950  1.00  0.00    -0.207 OA
ATOM     22  O   UNL A   1      34.130  36.722  32.986  1.00  0.00    -0.207 OA
BRANCH  20  23
ATOM     23  N   UNL A   1      31.778  36.027  32.567  1.00  0.00    -0.225 NA
ATOM     24  H   UNL A   1      31.146  35.700  31.836  1.00  0.00     0.137 HD
ATOM     25  H   UNL A   1      31.350  36.811  33.060  1.00  0.00     0.137 HD
ENDBRANCH  20  23
ENDBRANCH  15  20
ENDBRANCH  10  14
BRANCH  12  26
ATOM     26  C   UNL A   1      37.394  31.800  28.991  1.00  0.00     0.054 A 
ATOM     27  C   UNL A   1      38.427  31.089  29.572  1.00  0.00     0.024 A 
ATOM     28  S   UNL A   1      37.740  33.481  28.941  1.00  0.00    -0.122 S 
ATOM     29  C   UNL A   1      39.541  31.920  29.893  1.00  0.00     0.033 A 
ATOM     30  C   UNL A   1      39.285  33.229  29.580  1.00  0.00     0.094 A 
ATOM     31  Cl  UNL A   1      40.354  34.558  29.777  1.00  0.00    -0.072 Cl
ENDBRANCH  12  26
ENDBRANCH   7   9
ENDBRANCH   6   7
ENDBRANCH   5   6
ENDBRANCH   4   5
ENDBRANCH   3   4
ENDBRANCH   2   3
ENDBRANCH   1   2
BRANCH   1  32
ATOM     32  O   UNL A   1      33.987  24.790  22.404  1.00  0.00    -0.377 OA
BRANCH  32  33
ATOM     33  C   UNL A   1      34.385  24.160  23.617  1.00  0.00     0.188 C 
BRANCH  33  34
ATOM     34  C   UNL A   1      35.420  23.007  23.649  1.00  0.00     0.188 C 
BRANCH  34  35
ATOM     35  O   UNL A   1      36.013  22.746  24.916  1.00  0.00    -0.376 OA
BRANCH  35  36
ATOM     36  C   UNL A   1      36.677  23.805  25.581  1.00  0.00     0.202 C 
BRANCH  36  37
ATOM     37  C   UNL A   1      38.193  23.733  25.439  1.00  0.00     0.261 C 
BRANCH  37  38
ATOM     38  O   UNL A   1      38.876  23.974  26.661  1.00  0.00    -0.460 OA
BRANCH  38  39
ATOM     39  C   UNL A   1      39.789  24.961  26.619  1.00  0.00     0.338 C 
ATOM     40  O   UNL A   1      40.349  25.414  25.635  1.00  0.00    -0.246 OA
BRANCH  39  41
ATOM     41  C   UNL A   1      40.119  25.353  27.990  1.00  0.00     0.060 A 
ATOM     42  C   UNL A   1      39.123  26.048  28.676  1.00  0.00     0.016 A 
ATOM     43  C   UNL A   1      41.461  25.355  28.399  1.00  0.00     0.016 A 
ATOM     44  C   UNL A   1      39.520  26.986  29.595  1.00  0.00     0.010 A 
ATOM     45  C   UNL A   1      41.858  26.306  29.306  1.00  0.00     0.010 A 
ATOM     46  C   UNL A   1      40.891  27.177  29.797  1.00  0.00    -0.014 A 
BRANCH  46  47
ATOM     47  C   UNL A   1      41.280  28.403  30.447  1.00  0.00     0.031 A 
ATOM     48  C   UNL A   1      42.263  29.221  29.720  1.00  0.00     0.074 A 
ATOM     49  C   UNL A   1      40.729  28.780  31.615  1.00  0.00     0.049 A 
ATOM     50  N   UNL A   1      43.442  29.572  30.106  1.00  0.00    -0.248 NA
ATOM     51  C   UNL A   1      41.911  29.634  28.355  1.00  0.00     0.031 C 
ATOM     52  C   UNL A   1      39.543  28.239  32.281  1.00  0.00     0.029 A 
ATOM     53  N   UNL A   1      41.076  29.835  32.396  1.00  0.00    -0.354 N 
ATOM     54  C   UNL A   1      43.935  30.386  29.095  1.00  0.00     0.074 A 
ATOM     55  C   UNL A   1      43.008  30.296  27.995  1.00  0.00     0.031 C 
ATOM     56  C   UNL A   1      39.142  29.111  33.234  1.00  0.00     0.029 A 
ATOM     57  C   UNL A   1      40.105  30.198  33.311  1.00  0.00     0.049 A 
ATOM     58  H   UNL A   1      41.940  30.300  32.319  1.00  0.00     0.167 HD
ATOM     59  C   UNL A   1      44.966  31.242  29.310  1.00  0.00     0.037 A 
ATOM     60  C   UNL A   1      40.056  31.373  33.983  1.00  0.00     0.037 A 
ATOM     61  C   UNL A   1      45.753  30.872  30.456  1.00  0.00     0.049 A 
ATOM     62  C   UNL A   1      41.419  31.973  33.950  1.00  0.00     0.074 A 
ATOM     63  C   UNL A   1      46.447  29.731  30.814  1.00  0.00     0.029 A 
ATOM     64  N   UNL A   1      45.637  31.603  31.613  1.00  0.00    -0.354 N 
ATOM     65  N   UNL A   1      42.450  31.501  34.595  1.00  0.00    -0.248 NA
ATOM     66  C   UNL A   1      41.735  32.872  32.847  1.00  0.00     0.031 C 
ATOM     67  C   UNL A   1      46.267  29.609  32.222  1.00  0.00     0.029 A 
ATOM     68  C   UNL A   1      45.496  30.695  32.633  1.00  0.00     0.049 A 
ATOM     69  H   UNL A   1      45.653  32.584  31.694  1.00  0.00     0.167 HD
ATOM     70  C   UNL A   1      43.528  31.706  33.743  1.00  0.00     0.074 A 
ATOM     71  C   UNL A   1      43.044  32.639  32.731  1.00  0.00     0.031 C 
ATOM     72  C   UNL A   1      44.623  30.890  33.765  1.00  0.00     0.037 A 
BRANCH  59  73
ATOM     73  C   UNL A   1      45.058  32.582  28.645  1.00  0.00     0.064 A 
ATOM     74  C   UNL A   1      44.018  33.513  28.802  1.00  0.00     0.173 A 
ATOM     75  C   UNL A   1      46.008  32.880  27.642  1.00  0.00     0.173 A 
ATOM     76  F   UNL A   1      43.040  33.298  29.695  1.00  0.00    -0.203 F 
ATOM     77  C   UNL A   1      43.916  34.642  27.987  1.00  0.00     0.198 A 
ATOM     78  C   UNL A   1      45.938  34.036  26.873  1.00  0.00     0.198 A 
ATOM     79  F   UNL A   1      46.972  32.014  27.300  1.00  0.00    -0.203 F 
ATOM     80  F   UNL A   1      42.850  35.445  28.095  1.00  0.00    -0.200 F 
ATOM     81  C   UNL A   1      44.877  34.905  27.026  1.00  0.00     0.200 A 
ATOM     82  F   UNL A   1      46.865  34.259  25.931  1.00  0.00    -0.200 F 
ATOM     83  F   UNL A   1      44.756  35.960  26.213  1.00  0.00    -0.200 F 
ENDBRANCH  59  73
BRANCH  60  84
ATOM     84  C   UNL A   1      38.845  32.141  34.352  1.00  0.00     0.064 A 
ATOM     85  C   UNL A   1      38.324  32.086  35.653  1.00  0.00     0.173 A 
ATOM     86  C   UNL A   1      38.310  33.135  33.507  1.00  0.00     0.173 A 
ATOM     87  F   UNL A   1      38.817  31.210  36.540  1.00  0.00    -0.203 F 
ATOM     88  C   UNL A   1      37.333  32.975  36.083  1.00  0.00     0.198 A 
ATOM     89  C   UNL A   1      37.308  34.007  33.930  1.00  0.00     0.198 A 
ATOM     90  F   UNL A   1      38.808  33.346  32.280  1.00  0.00    -0.203 F 
ATOM     91  F   UNL A   1      36.902  32.931  37.352  1.00  0.00    -0.200 F 
ATOM     92  C   UNL A   1      36.828  33.935  35.222  1.00  0.00     0.200 A 
ATOM     93  F   UNL A   1      36.856  34.954  33.095  1.00  0.00    -0.200 F 
ATOM     94  F   UNL A   1      35.910  34.815  35.648  1.00  0.00    -0.200 F 
ENDBRANCH  60  84
BRANCH  72  95
ATOM     95  C   UNL A   1      44.766  29.923  34.904  1.00  0.00     0.064 A 
ATOM     96  C   UNL A   1      44.166  28.652  34.923  1.00  0.00     0.173 A 
ATOM     97  C   UNL A   1      45.668  30.225  35.934  1.00  0.00     0.173 A 
ATOM     98  F   UNL A   1      43.384  28.244  33.916  1.00  0.00    -0.203 F 
ATOM     99  C   UNL A   1      44.417  27.749  35.955  1.00  0.00     0.198 A 
ATOM    100  C   UNL A   1      45.948  29.307  36.943  1.00  0.00     0.198 A 
ATOM    101  F   UNL A   1      46.323  31.397  35.934  1.00  0.00    -0.203 F 
ATOM    102  F   UNL A   1      43.823  26.548  35.956  1.00  0.00    -0.200 F 
ATOM    103  C   UNL A   1      45.314  28.075  36.960  1.00  0.00     0.200 A 
ATOM    104  F   UNL A   1      46.855  29.605  37.883  1.00  0.00    -0.200 F 
ATOM    105  F   UNL A   1      45.589  27.189  37.928  1.00  0.00    -0.200 F 
ENDBRANCH  72  95
ENDBRANCH  46  47
ENDBRANCH  39  41
ENDBRANCH  38  39
ENDBRANCH  37  38
ENDBRANCH  36  37
ENDBRANCH  35  36
ENDBRANCH  34  35
ENDBRANCH  33  34
ENDBRANCH  32  33
ENDBRANCH   1  32
TORSDOF 24
ENDMDL
MODEL 3
REMARK VINA RESULT:      -8.9      5.676     11.422
REMARK SMILES NS(=O)(=O)c1ccc(-n2nc(C(=O)OCCOCCOCCOCCOC(=O)c3ccc(-c4c5nc(c(-c6c(F)c(F)c(F)c(F)c6F)c6ccc([nH]6)c(-c6c(F)c(F)c(F)c(F)c6F)c6nc(c(-c7c(F)c(F)c(F)c(F)c7F)c7ccc4[nH]7)C=C6)C=C5)cc3)cc2-c2ccc(Cl)s2)cc1
REMARK SMILES IDX 19 1 18 2 17 3 16 4 15 5 14 6 12 7 13 8 11 9 9 10 10 11
REMARK SMILES IDX 93 12 92 13 8 14 5 15 6 16 101 17 7 18 100 19 2 20 3 21 4 22
REMARK SMILES IDX 1 23 94 26 95 27 99 28 96 29 97 30 98 31 20 32 21 33 22 34
REMARK SMILES IDX 23 35 24 36 25 37 26 38 27 39 28 40 29 41 30 42 91 43 31 44
REMARK SMILES IDX 90 45 32 46 33 47 34 48 84 49 35 50 89 51 83 52 85 53 36 54
REMARK SMILES IDX 88 55 82 56 81 57 37 59 69 60 49 61 68 62 50 63 53 64 67 65
REMARK SMILES IDX 86 66 51 67 52 68 66 70 87 71 54 72 38 73 39 74 47 75 40 76
REMARK SMILES IDX 41 77 45 78 48 79 42 80 43 81 46 82 44 83 70 84 71 85 79 86
REMARK SMILES IDX 72 87 73 88 77 89 80 90 74 91 75 92 78 93 76 94 55 95 56 96
REMARK SMILES IDX 64 97 57 98 58 99 62 100 65 101 59 102 60 103 63 104 61 105
REMARK H PARENT 1 24 1 25 85 58 53 69
REMARK Flexibility Score: inf
ROOT
ATOM      1  C   UNL A   1      45.384  24.758  28.520  1.00  0.00     0.188 C 
ENDROOT
BRANCH   1   2
ATOM      2  C   UNL A   1      45.039  26.109  27.861  1.00  0.00     0.188 C 
BRANCH   2   3
ATOM      3  O   UNL A   1      43.983  26.023  26.912  1.00  0.00    -0.376 OA
BRANCH   3   4
ATOM      4  C   UNL A   1      42.937  26.966  27.049  1.00  0.00     0.202 C 
BRANCH   4   5
ATOM      5  C   UNL A   1      42.641  27.320  28.510  1.00  0.00     0.261 C 
BRANCH   5   6
ATOM      6  O   UNL A   1      41.502  26.657  29.083  1.00  0.00    -0.458 OA
BRANCH   6   7
ATOM      7  C   UNL A   1      40.365  26.616  28.331  1.00  0.00     0.358 C 
ATOM      8  O   UNL A   1      39.681  27.594  28.058  1.00  0.00    -0.244 OA
BRANCH   7   9
ATOM      9  C   UNL A   1      40.125  25.263  27.819  1.00  0.00     0.171 A 
ATOM     10  N   UNL A   1      40.476  23.225  27.267  1.00  0.00    -0.231 N 
ATOM     11  N   UNL A   1      41.014  24.259  27.959  1.00  0.00    -0.160 NA
ATOM     12  C   UNL A   1      39.191  23.503  26.828  1.00  0.00     0.085 A 
ATOM     13  C   UNL A   1      38.938  24.803  27.203  1.00  0.00     0.068 A 
BRANCH  10  14
ATOM     14  C   UNL A   1      41.270  22.095  26.954  1.00  0.00     0.065 A 
ATOM     15  C   UNL A   1      42.772  19.871  26.234  1.00  0.00     0.082 A 
ATOM     16  C   UNL A   1      43.033  21.102  25.629  1.00  0.00     0.024 A 
ATOM     17  C   UNL A   1      41.780  19.749  27.219  1.00  0.00     0.024 A 
ATOM     18  C   UNL A   1      42.269  22.213  25.978  1.00  0.00     0.030 A 
ATOM     19  C   UNL A   1      41.040  20.874  27.599  1.00  0.00     0.030 A 
BRANCH  15  20
ATOM     20  S   UNL A   1      43.739  18.459  25.785  1.00  0.00     0.238 S 
ATOM     21  O   UNL A   1      43.421  18.087  24.430  1.00  0.00    -0.207 OA
ATOM     22  O   UNL A   1      43.733  17.509  26.876  1.00  0.00    -0.207 OA
BRANCH  20  23
ATOM     23  N   UNL A   1      45.298  19.082  25.751  1.00  0.00    -0.225 NA
ATOM     24  H   UNL A   1      45.261  20.080  25.539  1.00  0.00     0.137 HD
ATOM     25  H   UNL A   1      45.840  18.602  25.033  1.00  0.00     0.137 HD
ENDBRANCH  20  23
ENDBRANCH  15  20
ENDBRANCH  10  14
BRANCH  12  26
ATOM     26  C   UNL A   1      38.325  22.601  26.127  1.00  0.00     0.054 A 
ATOM     27  C   UNL A   1      38.705  21.424  25.511  1.00  0.00     0.024 A 
ATOM     28  S   UNL A   1      36.644  22.892  25.944  1.00  0.00    -0.122 S 
ATOM     29  C   UNL A   1      37.592  20.718  24.965  1.00  0.00     0.033 A 
ATOM     30  C   UNL A   1      36.427  21.412  25.155  1.00  0.00     0.094 A 
ATOM     31  Cl  UNL A   1      34.852  20.921  24.680  1.00  0.00    -0.072 Cl
ENDBRANCH  12  26
ENDBRANCH   7   9
ENDBRANCH   6   7
ENDBRANCH   5   6
ENDBRANCH   4   5
ENDBRANCH   3   4
ENDBRANCH   2   3
ENDBRANCH   1   2
BRANCH   1  32
ATOM     32  O   UNL A   1      44.345  23.917  29.005  1.00  0.00    -0.377 OA
BRANCH  32  33
ATOM     33  C   UNL A   1      44.130  23.782  30.405  1.00  0.00     0.188 C 
BRANCH  33  34
ATOM     34  C   UNL A   1      44.546  24.880  31.417  1.00  0.00     0.188 C 
BRANCH  34  35
ATOM     35  O   UNL A   1      44.154  24.657  32.766  1.00  0.00    -0.376 OA
BRANCH  35  36
ATOM     36  C   UNL A   1      44.017  23.321  33.216  1.00  0.00     0.202 C 
BRANCH  36  37
ATOM     37  C   UNL A   1      44.009  23.209  34.736  1.00  0.00     0.261 C 
BRANCH  37  38
ATOM     38  O   UNL A   1      42.952  23.941  35.341  1.00  0.00    -0.460 OA
BRANCH  38  39
ATOM     39  C   UNL A   1      43.338  24.859  36.246  1.00  0.00     0.338 C 
ATOM     40  O   UNL A   1      44.171  24.728  37.127  1.00  0.00    -0.246 OA
BRANCH  39  41
ATOM     41  C   UNL A   1      42.500  26.049  36.095  1.00  0.00     0.060 A 
ATOM     42  C   UNL A   1      41.505  25.967  35.120  1.00  0.00     0.016 A 
ATOM     43  C   UNL A   1      42.941  27.271  36.625  1.00  0.00     0.016 A 
ATOM     44  C   UNL A   1      41.164  27.121  34.462  1.00  0.00     0.010 A 
ATOM     45  C   UNL A   1      42.612  28.421  35.954  1.00  0.00     0.010 A 
ATOM     46  C   UNL A   1      41.820  28.304  34.816  1.00  0.00    -0.014 A 
BRANCH  46  47
ATOM     47  C   UNL A   1      41.742  29.390  33.870  1.00  0.00     0.031 A 
ATOM     48  C   UNL A   1      42.854  29.476  32.911  1.00  0.00     0.074 A 
ATOM     49  C   UNL A   1      40.687  30.224  33.851  1.00  0.00     0.049 A 
ATOM     50  N   UNL A   1      43.688  30.447  32.750  1.00  0.00    -0.248 NA
ATOM     51  C   UNL A   1      43.113  28.294  32.080  1.00  0.00     0.031 C 
ATOM     52  C   UNL A   1      39.393  30.075  34.520  1.00  0.00     0.029 A 
ATOM     53  N   UNL A   1      40.530  31.350  33.107  1.00  0.00    -0.354 N 
ATOM     54  C   UNL A   1      44.494  30.068  31.685  1.00  0.00     0.074 A 
ATOM     55  C   UNL A   1      44.178  28.694  31.388  1.00  0.00     0.031 C 
ATOM     56  C   UNL A   1      38.516  30.945  33.970  1.00  0.00     0.029 A 
ATOM     57  C   UNL A   1      39.219  31.775  33.004  1.00  0.00     0.049 A 
ATOM     58  H   UNL A   1      41.281  31.821  32.680  1.00  0.00     0.167 HD
ATOM     59  C   UNL A   1      45.220  30.977  30.984  1.00  0.00     0.037 A 
ATOM     60  C   UNL A   1      38.747  32.661  32.095  1.00  0.00     0.037 A 
ATOM     61  C   UNL A   1      45.439  32.189  31.726  1.00  0.00     0.049 A 
ATOM     62  C   UNL A   1      39.906  33.439  31.575  1.00  0.00     0.074 A 
ATOM     63  C   UNL A   1      46.015  32.471  32.951  1.00  0.00     0.029 A 
ATOM     64  N   UNL A   1      44.738  33.319  31.387  1.00  0.00    -0.354 N 
ATOM     65  N   UNL A   1      40.580  34.315  32.269  1.00  0.00    -0.248 NA
ATOM     66  C   UNL A   1      40.588  32.928  30.393  1.00  0.00     0.031 C 
ATOM     67  C   UNL A   1      45.233  33.531  33.497  1.00  0.00     0.029 A 
ATOM     68  C   UNL A   1      44.249  33.840  32.559  1.00  0.00     0.049 A 
ATOM     69  H   UNL A   1      44.611  33.684  30.481  1.00  0.00     0.167 HD
ATOM     70  C   UNL A   1      41.897  34.160  31.858  1.00  0.00     0.074 A 
ATOM     71  C   UNL A   1      41.825  33.365  30.636  1.00  0.00     0.031 C 
ATOM     72  C   UNL A   1      42.944  34.442  32.687  1.00  0.00     0.037 A 
BRANCH  59  73
ATOM     73  C   UNL A   1      45.458  30.858  29.509  1.00  0.00     0.064 A 
ATOM     74  C   UNL A   1      44.367  30.758  28.630  1.00  0.00     0.173 A 
ATOM     75  C   UNL A   1      46.726  30.571  28.955  1.00  0.00     0.173 A 
ATOM     76  F   UNL A   1      43.117  30.966  29.070  1.00  0.00    -0.203 F 
ATOM     77  C   UNL A   1      44.531  30.361  27.302  1.00  0.00     0.198 A 
ATOM     78  C   UNL A   1      46.893  30.234  27.617  1.00  0.00     0.198 A 
ATOM     79  F   UNL A   1      47.830  30.499  29.713  1.00  0.00    -0.203 F 
ATOM     80  F   UNL A   1      43.454  30.171  26.529  1.00  0.00    -0.200 F 
ATOM     81  C   UNL A   1      45.793  30.103  26.795  1.00  0.00     0.200 A 
ATOM     82  F   UNL A   1      48.121  29.965  27.152  1.00  0.00    -0.200 F 
ATOM     83  F   UNL A   1      45.946  29.677  25.536  1.00  0.00    -0.200 F 
ENDBRANCH  59  73
BRANCH  60  84
ATOM     84  C   UNL A   1      37.426  32.639  31.427  1.00  0.00     0.064 A 
ATOM     85  C   UNL A   1      36.498  33.672  31.626  1.00  0.00     0.173 A 
ATOM     86  C   UNL A   1      37.134  31.729  30.389  1.00  0.00     0.173 A 
ATOM     87  F   UNL A   1      36.727  34.614  32.553  1.00  0.00    -0.203 F 
ATOM     88  C   UNL A   1      35.352  33.790  30.832  1.00  0.00     0.198 A 
ATOM     89  C   UNL A   1      35.982  31.836  29.612  1.00  0.00     0.198 A 
ATOM     90  F   UNL A   1      38.003  30.768  30.043  1.00  0.00    -0.203 F 
ATOM     91  F   UNL A   1      34.519  34.825  31.013  1.00  0.00    -0.200 F 
ATOM     92  C   UNL A   1      35.097  32.874  29.826  1.00  0.00     0.200 A 
ATOM     93  F   UNL A   1      35.768  30.962  28.618  1.00  0.00    -0.200 F 
ATOM     94  F   UNL A   1      34.022  33.014  29.036  1.00  0.00    -0.200 F 
ENDBRANCH  60  84
BRANCH  72  95
ATOM     95  C   UNL A   1      42.660  35.176  33.966  1.00  0.00     0.064 A 
ATOM     96  C   UNL A   1      42.153  34.555  35.120  1.00  0.00     0.173 A 
ATOM     97  C   UNL A   1      43.066  36.513  34.079  1.00  0.00     0.173 A 
ATOM     98  F   UNL A   1      41.852  33.250  35.126  1.00  0.00    -0.203 F 
ATOM     99  C   UNL A   1      42.008  35.259  36.315  1.00  0.00     0.198 A 
ATOM    100  C   UNL A   1      42.957  37.203  35.283  1.00  0.00     0.198 A 
ATOM    101  F   UNL A   1      43.620  37.139  33.028  1.00  0.00    -0.203 F 
ATOM    102  F   UNL A   1      41.509  34.647  37.399  1.00  0.00    -0.200 F 
ATOM    103  C   UNL A   1      42.418  36.580  36.397  1.00  0.00     0.200 A 
ATOM    104  F   UNL A   1      43.404  38.463  35.373  1.00  0.00    -0.200 F 
ATOM    105  F   UNL A   1      42.319  37.242  37.559  1.00  0.00    -0.200 F 
ENDBRANCH  72  95
ENDBRANCH  46  47
ENDBRANCH  39  41
ENDBRANCH  38  39
ENDBRANCH  37  38
ENDBRANCH  36  37
ENDBRANCH  35  36
ENDBRANCH  34  35
ENDBRANCH  33  34
ENDBRANCH  32  33
ENDBRANCH   1  32
TORSDOF 24
ENDMDL
