MODEL 1
REMARK VINA RESULT:     -10.6      0.000      0.000
REMARK SMILES C[C@@H](C(=O)OCCOCCOCCOCCOC(=O)c1ccc(-c2c3nc(c(-c4c(F)c(F)c(F)c(F)c4F)c4ccc([nH]4)c(-c4c(F)c(F)c(F)c(F)c4F)c4nc(c(-c5c(F)c(F)c(F)c(F)c5F)c5ccc2[nH]5)C=C4)C=C3)cc1)c1ccc(-c2ccccc2)cc1
REMARK SMILES IDX 11 1 10 2 9 3 8 4 7 5 6 6 5 7 3 8 4 9 2 10 1 11 83 12 84 13
REMARK SMILES IDX 94 14 85 15 93 16 86 17 87 18 88 19 92 20 89 21 91 22 90 23
REMARK SMILES IDX 12 24 13 25 14 26 15 27 16 28 17 29 18 30 19 31 20 32 21 33
REMARK SMILES IDX 82 34 22 35 81 36 23 37 24 38 25 39 75 40 26 41 80 42 74 43
REMARK SMILES IDX 76 44 27 45 79 46 73 47 72 48 28 50 60 51 40 52 59 53 41 54
REMARK SMILES IDX 44 55 58 56 77 57 42 58 43 59 57 61 78 62 45 63 29 64 30 65
REMARK SMILES IDX 38 66 31 67 32 68 36 69 39 70 33 71 34 72 37 73 35 74 61 75
REMARK SMILES IDX 62 76 70 77 63 78 64 79 68 80 71 81 65 82 66 83 69 84 67 85
REMARK SMILES IDX 46 86 47 87 55 88 48 89 49 90 53 91 56 92 50 93 51 94 54 95
REMARK SMILES IDX 52 96
REMARK H PARENT 76 49 44 60
REMARK Flexibility Score: inf
ROOT
ATOM      1  O   UNL A   1      37.329  21.945  25.661  1.00  0.00    -0.377 OA
ENDROOT
BRANCH   1   2
ATOM      2  C   UNL A   1      36.808  22.621  24.534  1.00  0.00     0.188 C 
BRANCH   2   3
ATOM      3  C   UNL A   1      35.347  23.083  24.672  1.00  0.00     0.188 C 
BRANCH   3   4
ATOM      4  O   UNL A   1      35.000  23.989  25.706  1.00  0.00    -0.376 OA
BRANCH   4   5
ATOM      5  C   UNL A   1      34.612  25.321  25.407  1.00  0.00     0.202 C 
BRANCH   5   6
ATOM      6  C   UNL A   1      33.191  25.883  25.626  1.00  0.00     0.261 C 
BRANCH   6   7
ATOM      7  O   UNL A   1      32.317  25.135  26.485  1.00  0.00    -0.463 OA
BRANCH   7   8
ATOM      8  C   UNL A   1      31.189  24.636  25.927  1.00  0.00     0.313 C 
ATOM      9  O   UNL A   1      30.107  24.597  26.505  1.00  0.00    -0.252 OA
BRANCH   8  10
ATOM     10  C   UNL A   1      31.369  24.178  24.465  1.00  0.00     0.126 C 
ATOM     11  C   UNL A   1      30.281  24.632  23.477  1.00  0.00     0.025 C 
BRANCH  10  12
ATOM     12  C   UNL A   1      31.807  22.711  24.399  1.00  0.00    -0.034 A 
ATOM     13  C   UNL A   1      32.027  21.981  23.222  1.00  0.00     0.005 A 
ATOM     14  C   UNL A   1      31.953  22.026  25.616  1.00  0.00     0.005 A 
ATOM     15  C   UNL A   1      32.370  20.617  23.268  1.00  0.00     0.009 A 
ATOM     16  C   UNL A   1      32.297  20.672  25.661  1.00  0.00     0.009 A 
ATOM     17  C   UNL A   1      32.519  19.943  24.488  1.00  0.00    -0.018 A 
BRANCH  17  18
ATOM     18  C   UNL A   1      32.933  18.532  24.557  1.00  0.00    -0.018 A 
ATOM     19  C   UNL A   1      32.549  17.724  25.640  1.00  0.00     0.009 A 
ATOM     20  C   UNL A   1      33.670  17.935  23.520  1.00  0.00     0.009 A 
ATOM     21  C   UNL A   1      32.872  16.364  25.676  1.00  0.00     0.001 A 
ATOM     22  C   UNL A   1      33.995  16.576  23.555  1.00  0.00     0.001 A 
ATOM     23  C   UNL A   1      33.591  15.790  24.631  1.00  0.00     0.000 A 
ENDBRANCH  17  18
ENDBRANCH  10  12
ENDBRANCH   8  10
ENDBRANCH   7   8
ENDBRANCH   6   7
ENDBRANCH   5   6
ENDBRANCH   4   5
ENDBRANCH   3   4
ENDBRANCH   2   3
ENDBRANCH   1   2
BRANCH   1  24
ATOM     24  C   UNL A   1      38.691  21.551  25.614  1.00  0.00     0.188 C 
BRANCH  24  25
ATOM     25  C   UNL A   1      39.708  22.241  26.545  1.00  0.00     0.188 C 
BRANCH  25  26
ATOM     26  O   UNL A   1      40.746  21.392  27.014  1.00  0.00    -0.376 OA
BRANCH  26  27
ATOM     27  C   UNL A   1      41.576  20.737  26.066  1.00  0.00     0.202 C 
BRANCH  27  28
ATOM     28  C   UNL A   1      42.899  21.425  25.689  1.00  0.00     0.261 C 
BRANCH  28  29
ATOM     29  O   UNL A   1      42.814  22.806  25.301  1.00  0.00    -0.460 OA
BRANCH  29  30
ATOM     30  C   UNL A   1      43.750  23.653  25.771  1.00  0.00     0.338 C 
ATOM     31  O   UNL A   1      44.920  23.723  25.431  1.00  0.00    -0.246 OA
BRANCH  30  32
ATOM     32  C   UNL A   1      43.075  24.636  26.643  1.00  0.00     0.060 A 
ATOM     33  C   UNL A   1      43.361  25.997  26.477  1.00  0.00     0.016 A 
ATOM     34  C   UNL A   1      42.159  24.220  27.613  1.00  0.00     0.016 A 
ATOM     35  C   UNL A   1      42.763  26.945  27.308  1.00  0.00     0.010 A 
ATOM     36  C   UNL A   1      41.578  25.168  28.461  1.00  0.00     0.010 A 
ATOM     37  C   UNL A   1      41.907  26.530  28.336  1.00  0.00    -0.014 A 
BRANCH  37  38
ATOM     38  C   UNL A   1      41.528  27.487  29.405  1.00  0.00     0.031 A 
ATOM     39  C   UNL A   1      42.319  27.472  30.684  1.00  0.00     0.074 A 
ATOM     40  C   UNL A   1      40.524  28.366  29.241  1.00  0.00     0.049 A 
ATOM     41  N   UNL A   1      42.147  28.164  31.781  1.00  0.00    -0.248 NA
ATOM     42  C   UNL A   1      43.460  26.544  30.730  1.00  0.00     0.031 C 
ATOM     43  C   UNL A   1      39.716  28.512  28.033  1.00  0.00     0.029 A 
ATOM     44  N   UNL A   1      40.010  29.299  30.108  1.00  0.00    -0.354 N 
ATOM     45  C   UNL A   1      43.152  27.751  32.646  1.00  0.00     0.074 A 
ATOM     46  C   UNL A   1      43.906  26.723  31.964  1.00  0.00     0.031 C 
ATOM     47  C   UNL A   1      38.794  29.468  28.241  1.00  0.00     0.029 A 
ATOM     48  C   UNL A   1      38.924  29.974  29.608  1.00  0.00     0.049 A 
ATOM     49  H   UNL A   1      40.384  29.467  31.003  1.00  0.00     0.167 HD
ATOM     50  C   UNL A   1      43.428  28.197  33.895  1.00  0.00     0.037 A 
ATOM     51  C   UNL A   1      38.114  30.875  30.198  1.00  0.00     0.037 A 
ATOM     52  C   UNL A   1      42.671  29.215  34.574  1.00  0.00     0.049 A 
ATOM     53  C   UNL A   1      38.386  31.293  31.623  1.00  0.00     0.074 A 
ATOM     54  C   UNL A   1      42.872  29.743  35.836  1.00  0.00     0.029 A 
ATOM     55  N   UNL A   1      41.556  29.851  34.047  1.00  0.00    -0.354 N 
ATOM     56  N   UNL A   1      39.349  30.914  32.430  1.00  0.00    -0.248 NA
ATOM     57  C   UNL A   1      37.460  32.267  32.218  1.00  0.00     0.031 C 
ATOM     58  C   UNL A   1      41.842  30.652  36.099  1.00  0.00     0.029 A 
ATOM     59  C   UNL A   1      41.042  30.746  34.973  1.00  0.00     0.049 A 
ATOM     60  H   UNL A   1      41.186  29.693  33.149  1.00  0.00     0.167 HD
ATOM     61  C   UNL A   1      39.166  31.627  33.610  1.00  0.00     0.074 A 
ATOM     62  C   UNL A   1      38.007  32.470  33.409  1.00  0.00     0.031 C 
ATOM     63  C   UNL A   1      39.892  31.588  34.755  1.00  0.00     0.037 A 
BRANCH  50  64
ATOM     64  C   UNL A   1      44.577  27.558  34.620  1.00  0.00     0.064 A 
ATOM     65  C   UNL A   1      44.479  26.273  35.178  1.00  0.00     0.173 A 
ATOM     66  C   UNL A   1      45.802  28.231  34.740  1.00  0.00     0.173 A 
ATOM     67  F   UNL A   1      43.327  25.592  35.107  1.00  0.00    -0.203 F 
ATOM     68  C   UNL A   1      45.555  25.701  35.853  1.00  0.00     0.198 A 
ATOM     69  C   UNL A   1      46.886  27.642  35.386  1.00  0.00     0.198 A 
ATOM     70  F   UNL A   1      45.952  29.461  34.224  1.00  0.00    -0.203 F 
ATOM     71  F   UNL A   1      45.420  24.497  36.427  1.00  0.00    -0.200 F 
ATOM     72  C   UNL A   1      46.760  26.382  35.950  1.00  0.00     0.200 A 
ATOM     73  F   UNL A   1      48.054  28.296  35.464  1.00  0.00    -0.200 F 
ATOM     74  F   UNL A   1      47.795  25.828  36.594  1.00  0.00    -0.200 F 
ENDBRANCH  50  64
BRANCH  51  75
ATOM     75  C   UNL A   1      36.951  31.431  29.456  1.00  0.00     0.064 A 
ATOM     76  C   UNL A   1      35.855  30.626  29.112  1.00  0.00     0.173 A 
ATOM     77  C   UNL A   1      36.921  32.774  29.052  1.00  0.00     0.173 A 
ATOM     78  F   UNL A   1      35.846  29.328  29.450  1.00  0.00    -0.203 F 
ATOM     79  C   UNL A   1      34.789  31.137  28.373  1.00  0.00     0.198 A 
ATOM     80  C   UNL A   1      35.840  33.292  28.343  1.00  0.00     0.198 A 
ATOM     81  F   UNL A   1      37.945  33.588  29.350  1.00  0.00    -0.203 F 
ATOM     82  F   UNL A   1      33.782  30.330  28.010  1.00  0.00    -0.200 F 
ATOM     83  C   UNL A   1      34.778  32.471  27.995  1.00  0.00     0.200 A 
ATOM     84  F   UNL A   1      35.829  34.586  27.991  1.00  0.00    -0.200 F 
ATOM     85  F   UNL A   1      33.752  32.961  27.287  1.00  0.00    -0.200 F 
ENDBRANCH  51  75
BRANCH  63  86
ATOM     86  C   UNL A   1      39.488  32.516  35.867  1.00  0.00     0.064 A 
ATOM     87  C   UNL A   1      40.071  33.782  36.025  1.00  0.00     0.173 A 
ATOM     88  C   UNL A   1      38.467  32.150  36.760  1.00  0.00     0.173 A 
ATOM     89  F   UNL A   1      41.058  34.179  35.208  1.00  0.00    -0.203 F 
ATOM     90  C   UNL A   1      39.669  34.633  37.054  1.00  0.00     0.198 A 
ATOM     91  C   UNL A   1      38.043  33.017  37.763  1.00  0.00     0.198 A 
ATOM     92  F   UNL A   1      37.867  30.955  36.647  1.00  0.00    -0.203 F 
ATOM     93  F   UNL A   1      40.279  35.814  37.219  1.00  0.00    -0.200 F 
ATOM     94  C   UNL A   1      38.651  34.253  37.915  1.00  0.00     0.200 A 
ATOM     95  F   UNL A   1      37.045  32.655  38.581  1.00  0.00    -0.200 F 
ATOM     96  F   UNL A   1      38.259  35.076  38.897  1.00  0.00    -0.200 F 
ENDBRANCH  63  86
ENDBRANCH  37  38
ENDBRANCH  30  32
ENDBRANCH  29  30
ENDBRANCH  28  29
ENDBRANCH  27  28
ENDBRANCH  26  27
ENDBRANCH  25  26
ENDBRANCH  24  25
ENDBRANCH   1  24
TORSDOF 22
ENDMDL
MODEL 2
REMARK VINA RESULT:      -9.6      7.250      9.325
REMARK SMILES C[C@@H](C(=O)OCCOCCOCCOCCOC(=O)c1ccc(-c2c3nc(c(-c4c(F)c(F)c(F)c(F)c4F)c4ccc([nH]4)c(-c4c(F)c(F)c(F)c(F)c4F)c4nc(c(-c5c(F)c(F)c(F)c(F)c5F)c5ccc2[nH]5)C=C4)C=C3)cc1)c1ccc(-c2ccccc2)cc1
REMARK SMILES IDX 11 1 10 2 9 3 8 4 7 5 6 6 5 7 3 8 4 9 2 10 1 11 83 12 84 13
REMARK SMILES IDX 94 14 85 15 93 16 86 17 87 18 88 19 92 20 89 21 91 22 90 23
REMARK SMILES IDX 12 24 13 25 14 26 15 27 16 28 17 29 18 30 19 31 20 32 21 33
REMARK SMILES IDX 82 34 22 35 81 36 23 37 24 38 25 39 75 40 26 41 80 42 74 43
REMARK SMILES IDX 76 44 27 45 79 46 73 47 72 48 28 50 60 51 40 52 59 53 41 54
REMARK SMILES IDX 44 55 58 56 77 57 42 58 43 59 57 61 78 62 45 63 29 64 30 65
REMARK SMILES IDX 38 66 31 67 32 68 36 69 39 70 33 71 34 72 37 73 35 74 61 75
REMARK SMILES IDX 62 76 70 77 63 78 64 79 68 80 71 81 65 82 66 83 69 84 67 85
REMARK SMILES IDX 46 86 47 87 55 88 48 89 49 90 53 91 56 92 50 93 51 94 54 95
REMARK SMILES IDX 52 96
REMARK H PARENT 76 49 44 60
REMARK Flexibility Score: inf
ROOT
ATOM      1  O   UNL A   1      37.683  22.955  26.155  1.00  0.00    -0.377 OA
ENDROOT
BRANCH   1   2
ATOM      2  C   UNL A   1      36.604  22.208  25.629  1.00  0.00     0.188 C 
BRANCH   2   3
ATOM      3  C   UNL A   1      35.346  23.031  25.299  1.00  0.00     0.188 C 
BRANCH   3   4
ATOM      4  O   UNL A   1      35.443  24.443  25.208  1.00  0.00    -0.376 OA
BRANCH   4   5
ATOM      5  C   UNL A   1      34.416  25.204  24.591  1.00  0.00     0.202 C 
BRANCH   5   6
ATOM      6  C   UNL A   1      33.831  26.508  25.173  1.00  0.00     0.261 C 
BRANCH   6   7
ATOM      7  O   UNL A   1      32.445  26.493  25.547  1.00  0.00    -0.463 OA
BRANCH   7   8
ATOM      8  C   UNL A   1      31.545  26.287  24.556  1.00  0.00     0.313 C 
ATOM      9  O   UNL A   1      31.537  26.922  23.506  1.00  0.00    -0.252 OA
BRANCH   8  10
ATOM     10  C   UNL A   1      30.564  25.130  24.838  1.00  0.00     0.126 C 
ATOM     11  C   UNL A   1      29.776  25.220  26.156  1.00  0.00     0.025 C 
BRANCH  10  12
ATOM     12  C   UNL A   1      31.195  23.777  24.490  1.00  0.00    -0.034 A 
ATOM     13  C   UNL A   1      31.555  23.356  23.201  1.00  0.00     0.005 A 
ATOM     14  C   UNL A   1      31.385  22.864  25.540  1.00  0.00     0.005 A 
ATOM     15  C   UNL A   1      32.073  22.068  22.978  1.00  0.00     0.009 A 
ATOM     16  C   UNL A   1      31.904  21.586  25.318  1.00  0.00     0.009 A 
ATOM     17  C   UNL A   1      32.264  21.165  24.033  1.00  0.00    -0.018 A 
BRANCH  17  18
ATOM     18  C   UNL A   1      32.860  19.834  23.827  1.00  0.00    -0.018 A 
ATOM     19  C   UNL A   1      33.970  19.422  24.581  1.00  0.00     0.009 A 
ATOM     20  C   UNL A   1      32.303  18.917  22.920  1.00  0.00     0.009 A 
ATOM     21  C   UNL A   1      34.494  18.132  24.447  1.00  0.00     0.001 A 
ATOM     22  C   UNL A   1      32.826  17.628  22.784  1.00  0.00     0.001 A 
ATOM     23  C   UNL A   1      33.919  17.235  23.552  1.00  0.00     0.000 A 
ENDBRANCH  17  18
ENDBRANCH  10  12
ENDBRANCH   8  10
ENDBRANCH   7   8
ENDBRANCH   6   7
ENDBRANCH   5   6
ENDBRANCH   4   5
ENDBRANCH   3   4
ENDBRANCH   2   3
ENDBRANCH   1   2
BRANCH   1  24
ATOM     24  C   UNL A   1      38.983  22.399  26.030  1.00  0.00     0.188 C 
BRANCH  24  25
ATOM     25  C   UNL A   1      40.003  22.607  27.167  1.00  0.00     0.188 C 
BRANCH  25  26
ATOM     26  O   UNL A   1      40.452  21.407  27.781  1.00  0.00    -0.376 OA
BRANCH  26  27
ATOM     27  C   UNL A   1      41.847  21.170  27.886  1.00  0.00     0.202 C 
BRANCH  27  28
ATOM     28  C   UNL A   1      42.685  21.291  26.601  1.00  0.00     0.261 C 
BRANCH  28  29
ATOM     29  O   UNL A   1      43.640  22.363  26.560  1.00  0.00    -0.460 OA
BRANCH  29  30
ATOM     30  C   UNL A   1      43.751  23.066  25.416  1.00  0.00     0.338 C 
ATOM     31  O   UNL A   1      43.327  22.757  24.314  1.00  0.00    -0.246 OA
BRANCH  30  32
ATOM     32  C   UNL A   1      44.309  24.393  25.752  1.00  0.00     0.060 A 
ATOM     33  C   UNL A   1      43.995  25.486  24.935  1.00  0.00     0.016 A 
ATOM     34  C   UNL A   1      45.130  24.559  26.870  1.00  0.00     0.016 A 
ATOM     35  C   UNL A   1      44.534  26.743  25.209  1.00  0.00     0.010 A 
ATOM     36  C   UNL A   1      45.690  25.814  27.131  1.00  0.00     0.010 A 
ATOM     37  C   UNL A   1      45.424  26.902  26.280  1.00  0.00    -0.014 A 
BRANCH  37  38
ATOM     38  C   UNL A   1      46.235  28.140  26.381  1.00  0.00     0.031 A 
ATOM     39  C   UNL A   1      47.725  28.029  26.206  1.00  0.00     0.074 A 
ATOM     40  C   UNL A   1      45.668  29.339  26.598  1.00  0.00     0.049 A 
ATOM     41  N   UNL A   1      48.649  28.948  26.307  1.00  0.00    -0.248 NA
ATOM     42  C   UNL A   1      48.240  26.690  25.874  1.00  0.00     0.031 C 
ATOM     43  C   UNL A   1      44.235  29.585  26.736  1.00  0.00     0.029 A 
ATOM     44  N   UNL A   1      46.240  30.578  26.749  1.00  0.00    -0.354 N 
ATOM     45  C   UNL A   1      49.852  28.301  26.058  1.00  0.00     0.074 A 
ATOM     46  C   UNL A   1      49.546  26.905  25.837  1.00  0.00     0.031 C 
ATOM     47  C   UNL A   1      44.039  30.895  26.968  1.00  0.00     0.029 A 
ATOM     48  C   UNL A   1      45.335  31.571  27.032  1.00  0.00     0.049 A 
ATOM     49  H   UNL A   1      47.208  30.739  26.663  1.00  0.00     0.167 HD
ATOM     50  C   UNL A   1      51.100  28.825  26.006  1.00  0.00     0.037 A 
ATOM     51  C   UNL A   1      45.536  32.869  27.336  1.00  0.00     0.037 A 
ATOM     52  C   UNL A   1      51.401  30.214  26.233  1.00  0.00     0.049 A 
ATOM     53  C   UNL A   1      46.943  33.414  27.360  1.00  0.00     0.074 A 
ATOM     54  C   UNL A   1      52.630  30.848  26.196  1.00  0.00     0.029 A 
ATOM     55  N   UNL A   1      50.460  31.183  26.551  1.00  0.00    -0.354 N 
ATOM     56  N   UNL A   1      48.075  32.802  27.104  1.00  0.00    -0.248 NA
ATOM     57  C   UNL A   1      47.101  34.832  27.713  1.00  0.00     0.031 C 
ATOM     58  C   UNL A   1      52.442  32.186  26.555  1.00  0.00     0.029 A 
ATOM     59  C   UNL A   1      51.087  32.404  26.743  1.00  0.00     0.049 A 
ATOM     60  H   UNL A   1      49.491  31.027  26.628  1.00  0.00     0.167 HD
ATOM     61  C   UNL A   1      49.071  33.765  27.230  1.00  0.00     0.074 A 
ATOM     62  C   UNL A   1      48.407  35.005  27.572  1.00  0.00     0.031 C 
ATOM     63  C   UNL A   1      50.412  33.634  27.074  1.00  0.00     0.037 A 
BRANCH  50  64
ATOM     64  C   UNL A   1      52.236  27.883  25.728  1.00  0.00     0.064 A 
ATOM     65  C   UNL A   1      52.882  27.178  26.755  1.00  0.00     0.173 A 
ATOM     66  C   UNL A   1      52.670  27.666  24.411  1.00  0.00     0.173 A 
ATOM     67  F   UNL A   1      52.519  27.361  28.033  1.00  0.00    -0.203 F 
ATOM     68  C   UNL A   1      53.939  26.315  26.476  1.00  0.00     0.198 A 
ATOM     69  C   UNL A   1      53.704  26.776  24.134  1.00  0.00     0.198 A 
ATOM     70  F   UNL A   1      52.086  28.313  23.390  1.00  0.00    -0.203 F 
ATOM     71  F   UNL A   1      54.578  25.695  27.479  1.00  0.00    -0.200 F 
ATOM     72  C   UNL A   1      54.344  26.108  25.166  1.00  0.00     0.200 A 
ATOM     73  F   UNL A   1      54.084  26.567  22.865  1.00  0.00    -0.200 F 
ATOM     74  F   UNL A   1      55.357  25.272  24.899  1.00  0.00    -0.200 F 
ENDBRANCH  50  64
BRANCH  51  75
ATOM     75  C   UNL A   1      44.380  33.745  27.666  1.00  0.00     0.064 A 
ATOM     76  C   UNL A   1      43.835  34.619  26.714  1.00  0.00     0.173 A 
ATOM     77  C   UNL A   1      43.812  33.748  28.949  1.00  0.00     0.173 A 
ATOM     78  F   UNL A   1      44.359  34.677  25.480  1.00  0.00    -0.203 F 
ATOM     79  C   UNL A   1      42.785  35.477  27.040  1.00  0.00     0.198 A 
ATOM     80  C   UNL A   1      42.740  34.580  29.264  1.00  0.00     0.198 A 
ATOM     81  F   UNL A   1      44.297  32.935  29.900  1.00  0.00    -0.203 F 
ATOM     82  F   UNL A   1      42.321  36.341  26.126  1.00  0.00    -0.200 F 
ATOM     83  C   UNL A   1      42.233  35.451  28.312  1.00  0.00     0.200 A 
ATOM     84  F   UNL A   1      42.203  34.542  30.491  1.00  0.00    -0.200 F 
ATOM     85  F   UNL A   1      41.222  36.273  28.623  1.00  0.00    -0.200 F 
ENDBRANCH  51  75
BRANCH  63  86
ATOM     86  C   UNL A   1      51.253  34.872  27.224  1.00  0.00     0.064 A 
ATOM     87  C   UNL A   1      51.476  35.752  26.154  1.00  0.00     0.173 A 
ATOM     88  C   UNL A   1      51.806  35.205  28.471  1.00  0.00     0.173 A 
ATOM     89  F   UNL A   1      50.981  35.477  24.939  1.00  0.00    -0.203 F 
ATOM     90  C   UNL A   1      52.246  36.902  26.321  1.00  0.00     0.198 A 
ATOM     91  C   UNL A   1      52.544  36.373  28.642  1.00  0.00     0.198 A 
ATOM     92  F   UNL A   1      51.615  34.405  29.531  1.00  0.00    -0.203 F 
ATOM     93  F   UNL A   1      52.491  37.698  25.272  1.00  0.00    -0.200 F 
ATOM     94  C   UNL A   1      52.771  37.215  27.565  1.00  0.00     0.200 A 
ATOM     95  F   UNL A   1      53.033  36.683  29.851  1.00  0.00    -0.200 F 
ATOM     96  F   UNL A   1      53.503  38.326  27.725  1.00  0.00    -0.200 F 
ENDBRANCH  63  86
ENDBRANCH  37  38
ENDBRANCH  30  32
ENDBRANCH  29  30
ENDBRANCH  28  29
ENDBRANCH  27  28
ENDBRANCH  26  27
ENDBRANCH  25  26
ENDBRANCH  24  25
ENDBRANCH   1  24
TORSDOF 22
ENDMDL
MODEL 3
REMARK VINA RESULT:      -9.4      6.423     12.924
REMARK SMILES C[C@@H](C(=O)OCCOCCOCCOCCOC(=O)c1ccc(-c2c3nc(c(-c4c(F)c(F)c(F)c(F)c4F)c4ccc([nH]4)c(-c4c(F)c(F)c(F)c(F)c4F)c4nc(c(-c5c(F)c(F)c(F)c(F)c5F)c5ccc2[nH]5)C=C4)C=C3)cc1)c1ccc(-c2ccccc2)cc1
REMARK SMILES IDX 11 1 10 2 9 3 8 4 7 5 6 6 5 7 3 8 4 9 2 10 1 11 83 12 84 13
REMARK SMILES IDX 94 14 85 15 93 16 86 17 87 18 88 19 92 20 89 21 91 22 90 23
REMARK SMILES IDX 12 24 13 25 14 26 15 27 16 28 17 29 18 30 19 31 20 32 21 33
REMARK SMILES IDX 82 34 22 35 81 36 23 37 24 38 25 39 75 40 26 41 80 42 74 43
REMARK SMILES IDX 76 44 27 45 79 46 73 47 72 48 28 50 60 51 40 52 59 53 41 54
REMARK SMILES IDX 44 55 58 56 77 57 42 58 43 59 57 61 78 62 45 63 29 64 30 65
REMARK SMILES IDX 38 66 31 67 32 68 36 69 39 70 33 71 34 72 37 73 35 74 61 75
REMARK SMILES IDX 62 76 70 77 63 78 64 79 68 80 71 81 65 82 66 83 69 84 67 85
REMARK SMILES IDX 46 86 47 87 55 88 48 89 49 90 53 91 56 92 50 93 51 94 54 95
REMARK SMILES IDX 52 96
REMARK H PARENT 76 49 44 60
REMARK Flexibility Score: inf
ROOT
ATOM      1  O   UNL A   1      50.105  20.549  34.955  1.00  0.00    -0.377 OA
ENDROOT
BRANCH   1   2
ATOM      2  C   UNL A   1      51.468  20.848  35.178  1.00  0.00     0.188 C 
BRANCH   2   3
ATOM      3  C   UNL A   1      51.839  22.334  35.031  1.00  0.00     0.188 C 
BRANCH   3   4
ATOM      4  O   UNL A   1      52.128  23.097  36.192  1.00  0.00    -0.376 OA
BRANCH   4   5
ATOM      5  C   UNL A   1      51.146  23.290  37.198  1.00  0.00     0.202 C 
BRANCH   5   6
ATOM      6  C   UNL A   1      50.989  22.392  38.444  1.00  0.00     0.261 C 
BRANCH   6   7
ATOM      7  O   UNL A   1      49.832  21.544  38.497  1.00  0.00    -0.463 OA
BRANCH   7   8
ATOM      8  C   UNL A   1      49.583  20.921  39.673  1.00  0.00     0.313 C 
ATOM      9  O   UNL A   1      49.197  21.505  40.682  1.00  0.00    -0.252 OA
BRANCH   8  10
ATOM     10  C   UNL A   1      49.764  19.389  39.616  1.00  0.00     0.126 C 
ATOM     11  C   UNL A   1      50.723  18.864  38.535  1.00  0.00     0.025 C 
BRANCH  10  12
ATOM     12  C   UNL A   1      48.419  18.671  39.770  1.00  0.00    -0.034 A 
ATOM     13  C   UNL A   1      47.357  18.730  38.855  1.00  0.00     0.005 A 
ATOM     14  C   UNL A   1      48.213  17.931  40.945  1.00  0.00     0.005 A 
ATOM     15  C   UNL A   1      46.137  18.082  39.118  1.00  0.00     0.009 A 
ATOM     16  C   UNL A   1      47.003  17.283  41.204  1.00  0.00     0.009 A 
ATOM     17  C   UNL A   1      45.942  17.340  40.292  1.00  0.00    -0.018 A 
BRANCH  17  18
ATOM     18  C   UNL A   1      44.694  16.607  40.557  1.00  0.00    -0.018 A 
ATOM     19  C   UNL A   1      43.869  16.191  39.499  1.00  0.00     0.009 A 
ATOM     20  C   UNL A   1      44.321  16.247  41.863  1.00  0.00     0.009 A 
ATOM     21  C   UNL A   1      42.723  15.427  39.736  1.00  0.00     0.001 A 
ATOM     22  C   UNL A   1      43.174  15.484  42.102  1.00  0.00     0.001 A 
ATOM     23  C   UNL A   1      42.378  15.070  41.036  1.00  0.00     0.000 A 
ENDBRANCH  17  18
ENDBRANCH  10  12
ENDBRANCH   8  10
ENDBRANCH   7   8
ENDBRANCH   6   7
ENDBRANCH   5   6
ENDBRANCH   4   5
ENDBRANCH   3   4
ENDBRANCH   2   3
ENDBRANCH   1   2
BRANCH   1  24
ATOM     24  C   UNL A   1      49.173  21.610  35.090  1.00  0.00     0.188 C 
BRANCH  24  25
ATOM     25  C   UNL A   1      47.746  21.301  35.584  1.00  0.00     0.188 C 
BRANCH  25  26
ATOM     26  O   UNL A   1      46.855  22.407  35.536  1.00  0.00    -0.376 OA
BRANCH  26  27
ATOM     27  C   UNL A   1      47.301  23.667  36.014  1.00  0.00     0.202 C 
BRANCH  27  28
ATOM     28  C   UNL A   1      47.148  23.949  37.519  1.00  0.00     0.261 C 
BRANCH  28  29
ATOM     29  O   UNL A   1      46.071  24.818  37.900  1.00  0.00    -0.460 OA
BRANCH  29  30
ATOM     30  C   UNL A   1      46.248  26.146  37.752  1.00  0.00     0.338 C 
ATOM     31  O   UNL A   1      47.092  26.843  38.292  1.00  0.00    -0.246 OA
BRANCH  30  32
ATOM     32  C   UNL A   1      45.362  26.602  36.661  1.00  0.00     0.060 A 
ATOM     33  C   UNL A   1      45.684  27.782  35.977  1.00  0.00     0.016 A 
ATOM     34  C   UNL A   1      44.227  25.869  36.308  1.00  0.00     0.016 A 
ATOM     35  C   UNL A   1      44.848  28.254  34.965  1.00  0.00     0.010 A 
ATOM     36  C   UNL A   1      43.377  26.355  35.310  1.00  0.00     0.010 A 
ATOM     37  C   UNL A   1      43.665  27.569  34.660  1.00  0.00    -0.014 A 
BRANCH  37  38
ATOM     38  C   UNL A   1      42.633  28.226  33.823  1.00  0.00     0.031 A 
ATOM     39  C   UNL A   1      41.691  29.194  34.486  1.00  0.00     0.074 A 
ATOM     40  C   UNL A   1      42.542  27.994  32.502  1.00  0.00     0.049 A 
ATOM     41  N   UNL A   1      40.674  29.847  33.987  1.00  0.00    -0.248 NA
ATOM     42  C   UNL A   1      41.933  29.458  35.915  1.00  0.00     0.031 C 
ATOM     43  C   UNL A   1      43.423  27.118  31.735  1.00  0.00     0.029 A 
ATOM     44  N   UNL A   1      41.651  28.476  31.574  1.00  0.00    -0.354 N 
ATOM     45  C   UNL A   1      40.153  30.591  35.037  1.00  0.00     0.074 A 
ATOM     46  C   UNL A   1      40.940  30.282  36.209  1.00  0.00     0.031 C 
ATOM     47  C   UNL A   1      43.018  27.110  30.452  1.00  0.00     0.029 A 
ATOM     48  C   UNL A   1      41.829  27.951  30.317  1.00  0.00     0.049 A 
ATOM     49  H   UNL A   1      40.951  29.134  31.790  1.00  0.00     0.167 HD
ATOM     50  C   UNL A   1      39.116  31.463  35.023  1.00  0.00     0.037 A 
ATOM     51  C   UNL A   1      41.097  28.112  29.197  1.00  0.00     0.037 A 
ATOM     52  C   UNL A   1      38.330  31.762  33.855  1.00  0.00     0.049 A 
ATOM     53  C   UNL A   1      39.891  29.020  29.226  1.00  0.00     0.074 A 
ATOM     54  C   UNL A   1      37.264  32.635  33.733  1.00  0.00     0.029 A 
ATOM     55  N   UNL A   1      38.520  31.185  32.608  1.00  0.00    -0.354 N 
ATOM     56  N   UNL A   1      39.414  29.737  30.216  1.00  0.00    -0.248 NA
ATOM     57  C   UNL A   1      39.123  29.144  27.979  1.00  0.00     0.031 C 
ATOM     58  C   UNL A   1      36.768  32.538  32.429  1.00  0.00     0.029 A 
ATOM     59  C   UNL A   1      37.570  31.661  31.718  1.00  0.00     0.049 A 
ATOM     60  H   UNL A   1      39.225  30.534  32.387  1.00  0.00     0.167 HD
ATOM     61  C   UNL A   1      38.317  30.420  29.704  1.00  0.00     0.074 A 
ATOM     62  C   UNL A   1      38.207  30.043  28.311  1.00  0.00     0.031 C 
ATOM     63  C   UNL A   1      37.478  31.283  30.329  1.00  0.00     0.037 A 
BRANCH  50  64
ATOM     64  C   UNL A   1      38.751  32.127  36.319  1.00  0.00     0.064 A 
ATOM     65  C   UNL A   1      37.987  31.472  37.298  1.00  0.00     0.173 A 
ATOM     66  C   UNL A   1      39.192  33.430  36.597  1.00  0.00     0.173 A 
ATOM     67  F   UNL A   1      37.527  30.231  37.078  1.00  0.00    -0.203 F 
ATOM     68  C   UNL A   1      37.654  32.108  38.491  1.00  0.00     0.198 A 
ATOM     69  C   UNL A   1      38.885  34.050  37.805  1.00  0.00     0.198 A 
ATOM     70  F   UNL A   1      39.927  34.102  35.697  1.00  0.00    -0.203 F 
ATOM     71  F   UNL A   1      36.876  31.484  39.387  1.00  0.00    -0.200 F 
ATOM     72  C   UNL A   1      38.109  33.393  38.748  1.00  0.00     0.200 A 
ATOM     73  F   UNL A   1      39.339  35.286  38.056  1.00  0.00    -0.200 F 
ATOM     74  F   UNL A   1      37.793  34.001  39.899  1.00  0.00    -0.200 F 
ENDBRANCH  50  64
BRANCH  51  75
ATOM     75  C   UNL A   1      41.464  27.382  27.955  1.00  0.00     0.064 A 
ATOM     76  C   UNL A   1      42.205  28.003  26.939  1.00  0.00     0.173 A 
ATOM     77  C   UNL A   1      41.059  26.056  27.744  1.00  0.00     0.173 A 
ATOM     78  F   UNL A   1      42.594  29.279  27.078  1.00  0.00    -0.203 F 
ATOM     79  C   UNL A   1      42.505  27.333  25.753  1.00  0.00     0.198 A 
ATOM     80  C   UNL A   1      41.388  25.376  26.573  1.00  0.00     0.198 A 
ATOM     81  F   UNL A   1      40.343  25.415  28.681  1.00  0.00    -0.203 F 
ATOM     82  F   UNL A   1      43.167  27.970  24.776  1.00  0.00    -0.200 F 
ATOM     83  C   UNL A   1      42.103  26.019  25.574  1.00  0.00     0.200 A 
ATOM     84  F   UNL A   1      41.007  24.102  26.411  1.00  0.00    -0.200 F 
ATOM     85  F   UNL A   1      42.394  25.375  24.435  1.00  0.00    -0.200 F 
ENDBRANCH  51  75
BRANCH  63  86
ATOM     86  C   UNL A   1      36.393  31.920  29.505  1.00  0.00     0.064 A 
ATOM     87  C   UNL A   1      35.314  31.180  28.999  1.00  0.00     0.173 A 
ATOM     88  C   UNL A   1      36.412  33.302  29.257  1.00  0.00     0.173 A 
ATOM     89  F   UNL A   1      35.252  29.855  29.195  1.00  0.00    -0.203 F 
ATOM     90  C   UNL A   1      34.312  31.794  28.251  1.00  0.00     0.198 A 
ATOM     91  C   UNL A   1      35.389  33.919  28.541  1.00  0.00     0.198 A 
ATOM     92  F   UNL A   1      37.414  34.060  29.727  1.00  0.00    -0.203 F 
ATOM     93  F   UNL A   1      33.320  31.058  27.731  1.00  0.00    -0.200 F 
ATOM     94  C   UNL A   1      34.345  33.163  28.030  1.00  0.00     0.200 A 
ATOM     95  F   UNL A   1      35.415  35.244  28.347  1.00  0.00    -0.200 F 
ATOM     96  F   UNL A   1      33.375  33.753  27.319  1.00  0.00    -0.200 F 
ENDBRANCH  63  86
ENDBRANCH  37  38
ENDBRANCH  30  32
ENDBRANCH  29  30
ENDBRANCH  28  29
ENDBRANCH  27  28
ENDBRANCH  26  27
ENDBRANCH  25  26
ENDBRANCH  24  25
ENDBRANCH   1  24
TORSDOF 22
ENDMDL
