MODEL 1
REMARK VINA RESULT:     -11.4      0.000      0.000
REMARK SMILES COc1ccc(-c2cnc(N)c(C(=O)OCCOCCOCCOCCOC(=O)c3ccc(-c4c5nc(c(-c6c(F)c(F)c(F)c(F)c6F)c6ccc([nH]6)c(-c6c(F)c(F)c(F)c(F)c6F)c6nc(c(-c7c(F)c(F)c(F)c(F)c7F)c7ccc4[nH]7)C=C6)C=C5)cc3)c2)c(C)c1
REMARK SMILES IDX 21 1 20 2 19 3 18 4 17 5 16 6 15 7 13 8 14 9 12 10 7 11 8 12
REMARK SMILES IDX 93 13 9 14 10 15 6 16 3 17 4 18 96 19 5 20 94 21 95 22 2 23
REMARK SMILES IDX 1 24 11 25 22 28 23 29 24 30 25 31 26 32 27 33 28 34 29 35
REMARK SMILES IDX 30 36 31 37 92 38 32 39 91 40 33 41 34 42 35 43 85 44 36 45
REMARK SMILES IDX 90 46 84 47 86 48 37 49 89 50 83 51 82 52 38 54 70 55 50 56
REMARK SMILES IDX 69 57 51 58 54 59 68 60 87 61 52 62 53 63 67 65 88 66 55 67
REMARK SMILES IDX 39 68 40 69 48 70 41 71 42 72 46 73 49 74 43 75 44 76 47 77
REMARK SMILES IDX 45 78 71 79 72 80 80 81 73 82 74 83 78 84 81 85 75 86 76 87
REMARK SMILES IDX 79 88 77 89 56 90 57 91 65 92 58 93 59 94 63 95 66 96 60 97
REMARK SMILES IDX 61 98 64 99 62 100
REMARK H PARENT 11 26 11 27 86 53 54 64
REMARK Flexibility Score: inf
ROOT
ATOM      1  O   UNL A   1      35.140  33.316  27.595  1.00  0.00    -0.377 OA
ENDROOT
BRANCH   1   2
ATOM      2  C   UNL A   1      34.458  32.243  28.242  1.00  0.00     0.188 C 
BRANCH   2   3
ATOM      3  C   UNL A   1      34.509  30.884  27.540  1.00  0.00     0.188 C 
BRANCH   3   4
ATOM      4  O   UNL A   1      33.293  30.181  27.327  1.00  0.00    -0.376 OA
BRANCH   4   5
ATOM      5  C   UNL A   1      32.991  29.872  25.964  1.00  0.00     0.202 C 
BRANCH   5   6
ATOM      6  C   UNL A   1      33.694  28.623  25.431  1.00  0.00     0.261 C 
BRANCH   6   7
ATOM      7  O   UNL A   1      32.892  27.478  25.771  1.00  0.00    -0.460 OA
BRANCH   7   8
ATOM      8  C   UNL A   1      32.031  27.074  24.816  1.00  0.00     0.342 C 
ATOM      9  O   UNL A   1      31.009  27.634  24.457  1.00  0.00    -0.246 OA
BRANCH   8  10
ATOM     10  C   UNL A   1      32.783  26.199  23.916  1.00  0.00     0.102 A 
ATOM     11  C   UNL A   1      33.435  23.887  23.698  1.00  0.00     0.001 A 
ATOM     12  C   UNL A   1      33.818  24.177  22.403  1.00  0.00     0.122 A 
ATOM     13  C   UNL A   1      32.985  24.947  24.473  1.00  0.00     0.030 A 
ATOM     14  N   UNL A   1      33.671  25.406  21.838  1.00  0.00    -0.238 NA
ATOM     15  C   UNL A   1      33.093  26.384  22.578  1.00  0.00     0.138 A 
BRANCH  11  16
ATOM     16  C   UNL A   1      33.401  22.589  24.357  1.00  0.00    -0.014 A 
ATOM     17  C   UNL A   1      33.607  19.814  24.619  1.00  0.00     0.119 A 
ATOM     18  C   UNL A   1      32.402  20.385  24.219  1.00  0.00     0.047 A 
ATOM     19  C   UNL A   1      34.671  20.622  25.010  1.00  0.00     0.050 A 
ATOM     20  C   UNL A   1      32.295  21.768  24.096  1.00  0.00     0.013 A 
ATOM     21  C   UNL A   1      34.587  22.016  24.881  1.00  0.00    -0.040 A 
ATOM     22  C   UNL A   1      35.845  22.807  25.122  1.00  0.00     0.045 C 
BRANCH  17  23
ATOM     23  O   UNL A   1      33.817  18.463  24.658  1.00  0.00    -0.497 OA
ATOM     24  C   UNL A   1      32.600  17.721  24.765  1.00  0.00     0.278 C 
ENDBRANCH  17  23
ENDBRANCH  11  16
BRANCH  15  25
ATOM     25  N   UNL A   1      32.775  27.524  21.867  1.00  0.00    -0.383 N 
ATOM     26  H   UNL A   1      32.134  27.476  21.122  1.00  0.00     0.158 HD
ATOM     27  H   UNL A   1      33.191  28.384  22.104  1.00  0.00     0.158 HD
ENDBRANCH  15  25
ENDBRANCH   8  10
ENDBRANCH   7   8
ENDBRANCH   6   7
ENDBRANCH   5   6
ENDBRANCH   4   5
ENDBRANCH   3   4
ENDBRANCH   2   3
ENDBRANCH   1   2
BRANCH   1  28
ATOM     28  C   UNL A   1      34.486  34.561  27.862  1.00  0.00     0.188 C 
BRANCH  28  29
ATOM     29  C   UNL A   1      33.124  34.350  28.519  1.00  0.00     0.188 C 
BRANCH  29  30
ATOM     30  O   UNL A   1      32.504  35.514  29.049  1.00  0.00    -0.376 OA
BRANCH  30  31
ATOM     31  C   UNL A   1      33.260  36.713  29.164  1.00  0.00     0.202 C 
BRANCH  31  32
ATOM     32  C   UNL A   1      33.221  37.395  30.540  1.00  0.00     0.261 C 
BRANCH  32  33
ATOM     33  O   UNL A   1      32.845  36.440  31.547  1.00  0.00    -0.460 OA
BRANCH  33  34
ATOM     34  C   UNL A   1      33.797  36.178  32.484  1.00  0.00     0.338 C 
ATOM     35  O   UNL A   1      34.336  37.005  33.197  1.00  0.00    -0.246 OA
BRANCH  34  36
ATOM     36  C   UNL A   1      34.328  34.798  32.265  1.00  0.00     0.060 A 
ATOM     37  C   UNL A   1      34.249  33.863  33.312  1.00  0.00     0.016 A 
ATOM     38  C   UNL A   1      35.209  34.581  31.208  1.00  0.00     0.016 A 
ATOM     39  C   UNL A   1      35.183  32.817  33.395  1.00  0.00     0.010 A 
ATOM     40  C   UNL A   1      36.179  33.605  31.346  1.00  0.00     0.010 A 
ATOM     41  C   UNL A   1      36.220  32.749  32.463  1.00  0.00    -0.014 A 
BRANCH  41  42
ATOM     42  C   UNL A   1      37.514  32.058  32.667  1.00  0.00     0.031 A 
ATOM     43  C   UNL A   1      37.782  30.758  31.956  1.00  0.00     0.074 A 
ATOM     44  C   UNL A   1      38.566  32.783  33.129  1.00  0.00     0.049 A 
ATOM     45  N   UNL A   1      38.948  30.232  31.778  1.00  0.00    -0.248 NA
ATOM     46  C   UNL A   1      36.729  29.927  31.376  1.00  0.00     0.031 C 
ATOM     47  C   UNL A   1      39.952  32.610  32.718  1.00  0.00     0.029 A 
ATOM     48  N   UNL A   1      38.638  33.878  34.009  1.00  0.00    -0.354 N 
ATOM     49  C   UNL A   1      38.857  29.197  30.875  1.00  0.00     0.074 A 
ATOM     50  C   UNL A   1      37.437  29.001  30.716  1.00  0.00     0.031 C 
ATOM     51  C   UNL A   1      40.754  33.461  33.358  1.00  0.00     0.029 A 
ATOM     52  C   UNL A   1      39.987  33.968  34.449  1.00  0.00     0.049 A 
ATOM     53  H   UNL A   1      37.897  34.470  34.270  1.00  0.00     0.167 HD
ATOM     54  C   UNL A   1      40.003  28.697  30.316  1.00  0.00     0.037 A 
ATOM     55  C   UNL A   1      40.338  33.674  35.737  1.00  0.00     0.037 A 
ATOM     56  C   UNL A   1      41.218  29.133  31.048  1.00  0.00     0.049 A 
ATOM     57  C   UNL A   1      41.145  32.383  35.891  1.00  0.00     0.074 A 
ATOM     58  C   UNL A   1      42.478  29.592  30.708  1.00  0.00     0.029 A 
ATOM     59  N   UNL A   1      41.180  29.223  32.444  1.00  0.00    -0.354 N 
ATOM     60  N   UNL A   1      41.407  31.579  34.885  1.00  0.00    -0.248 NA
ATOM     61  C   UNL A   1      41.704  31.860  37.132  1.00  0.00     0.031 C 
ATOM     62  C   UNL A   1      43.174  29.965  31.901  1.00  0.00     0.029 A 
ATOM     63  C   UNL A   1      42.363  29.678  32.982  1.00  0.00     0.049 A 
ATOM     64  H   UNL A   1      40.392  28.986  32.984  1.00  0.00     0.167 HD
ATOM     65  C   UNL A   1      42.148  30.508  35.282  1.00  0.00     0.074 A 
ATOM     66  C   UNL A   1      42.271  30.708  36.717  1.00  0.00     0.031 C 
ATOM     67  C   UNL A   1      42.597  29.547  34.414  1.00  0.00     0.037 A 
BRANCH  54  68
ATOM     68  C   UNL A   1      40.065  27.878  29.013  1.00  0.00     0.064 A 
ATOM     69  C   UNL A   1      39.552  26.559  28.946  1.00  0.00     0.173 A 
ATOM     70  C   UNL A   1      40.719  28.283  27.824  1.00  0.00     0.173 A 
ATOM     71  F   UNL A   1      38.869  26.021  29.966  1.00  0.00    -0.203 F 
ATOM     72  C   UNL A   1      39.714  25.723  27.828  1.00  0.00     0.198 A 
ATOM     73  C   UNL A   1      40.810  27.476  26.679  1.00  0.00     0.198 A 
ATOM     74  F   UNL A   1      41.354  29.454  27.724  1.00  0.00    -0.203 F 
ATOM     75  F   UNL A   1      39.271  24.458  27.871  1.00  0.00    -0.200 F 
ATOM     76  C   UNL A   1      40.329  26.187  26.687  1.00  0.00     0.200 A 
ATOM     77  F   UNL A   1      41.399  27.957  25.574  1.00  0.00    -0.200 F 
ATOM     78  F   UNL A   1      40.467  25.400  25.611  1.00  0.00    -0.200 F 
ENDBRANCH  54  68
BRANCH  55  79
ATOM     79  C   UNL A   1      39.523  34.502  36.678  1.00  0.00     0.064 A 
ATOM     80  C   UNL A   1      38.673  33.708  37.488  1.00  0.00     0.173 A 
ATOM     81  C   UNL A   1      40.129  35.611  37.290  1.00  0.00     0.173 A 
ATOM     82  F   UNL A   1      38.033  32.658  36.946  1.00  0.00    -0.203 F 
ATOM     83  C   UNL A   1      38.726  33.797  38.879  1.00  0.00     0.198 A 
ATOM     84  C   UNL A   1      40.140  35.724  38.686  1.00  0.00     0.198 A 
ATOM     85  F   UNL A   1      40.894  36.442  36.567  1.00  0.00    -0.203 F 
ATOM     86  F   UNL A   1      38.160  32.841  39.630  1.00  0.00    -0.200 F 
ATOM     87  C   UNL A   1      39.506  34.772  39.475  1.00  0.00     0.200 A 
ATOM     88  F   UNL A   1      40.893  36.665  39.274  1.00  0.00    -0.200 F 
ATOM     89  F   UNL A   1      39.715  34.744  40.800  1.00  0.00    -0.200 F 
ENDBRANCH  55  79
BRANCH  67  90
ATOM     90  C   UNL A   1      43.288  28.288  34.847  1.00  0.00     0.064 A 
ATOM     91  C   UNL A   1      44.652  28.218  35.143  1.00  0.00     0.173 A 
ATOM     92  C   UNL A   1      42.567  27.070  34.933  1.00  0.00     0.173 A 
ATOM     93  F   UNL A   1      45.454  29.272  34.937  1.00  0.00    -0.203 F 
ATOM     94  C   UNL A   1      45.222  27.049  35.648  1.00  0.00     0.198 A 
ATOM     95  C   UNL A   1      43.152  25.892  35.378  1.00  0.00     0.198 A 
ATOM     96  F   UNL A   1      41.266  26.992  34.619  1.00  0.00    -0.203 F 
ATOM     97  F   UNL A   1      46.506  27.051  36.027  1.00  0.00    -0.200 F 
ATOM     98  C   UNL A   1      44.468  25.893  35.779  1.00  0.00     0.200 A 
ATOM     99  F   UNL A   1      42.421  24.770  35.443  1.00  0.00    -0.200 F 
ATOM    100  F   UNL A   1      45.011  24.784  36.298  1.00  0.00    -0.200 F 
ENDBRANCH  67  90
ENDBRANCH  41  42
ENDBRANCH  34  36
ENDBRANCH  33  34
ENDBRANCH  32  33
ENDBRANCH  31  32
ENDBRANCH  30  31
ENDBRANCH  29  30
ENDBRANCH  28  29
ENDBRANCH   1  28
TORSDOF 23
ENDMDL
MODEL 2
REMARK VINA RESULT:     -10.7      6.061     11.719
REMARK SMILES COc1ccc(-c2cnc(N)c(C(=O)OCCOCCOCCOCCOC(=O)c3ccc(-c4c5nc(c(-c6c(F)c(F)c(F)c(F)c6F)c6ccc([nH]6)c(-c6c(F)c(F)c(F)c(F)c6F)c6nc(c(-c7c(F)c(F)c(F)c(F)c7F)c7ccc4[nH]7)C=C6)C=C5)cc3)c2)c(C)c1
REMARK SMILES IDX 21 1 20 2 19 3 18 4 17 5 16 6 15 7 13 8 14 9 12 10 7 11 8 12
REMARK SMILES IDX 93 13 9 14 10 15 6 16 3 17 4 18 96 19 5 20 94 21 95 22 2 23
REMARK SMILES IDX 1 24 11 25 22 28 23 29 24 30 25 31 26 32 27 33 28 34 29 35
REMARK SMILES IDX 30 36 31 37 92 38 32 39 91 40 33 41 34 42 35 43 85 44 36 45
REMARK SMILES IDX 90 46 84 47 86 48 37 49 89 50 83 51 82 52 38 54 70 55 50 56
REMARK SMILES IDX 69 57 51 58 54 59 68 60 87 61 52 62 53 63 67 65 88 66 55 67
REMARK SMILES IDX 39 68 40 69 48 70 41 71 42 72 46 73 49 74 43 75 44 76 47 77
REMARK SMILES IDX 45 78 71 79 72 80 80 81 73 82 74 83 78 84 81 85 75 86 76 87
REMARK SMILES IDX 79 88 77 89 56 90 57 91 65 92 58 93 59 94 63 95 66 96 60 97
REMARK SMILES IDX 61 98 64 99 62 100
REMARK H PARENT 11 26 11 27 86 53 54 64
REMARK Flexibility Score: inf
ROOT
ATOM      1  O   UNL A   1      40.341  22.290  26.291  1.00  0.00    -0.377 OA
ENDROOT
BRANCH   1   2
ATOM      2  C   UNL A   1      39.188  23.083  26.568  1.00  0.00     0.188 C 
BRANCH   2   3
ATOM      3  C   UNL A   1      37.930  22.758  25.758  1.00  0.00     0.188 C 
BRANCH   3   4
ATOM      4  O   UNL A   1      36.712  23.405  26.101  1.00  0.00    -0.376 OA
BRANCH   4   5
ATOM      5  C   UNL A   1      35.954  23.914  25.001  1.00  0.00     0.202 C 
BRANCH   5   6
ATOM      6  C   UNL A   1      34.723  24.725  25.407  1.00  0.00     0.261 C 
BRANCH   6   7
ATOM      7  O   UNL A   1      33.800  23.838  26.067  1.00  0.00    -0.460 OA
BRANCH   7   8
ATOM      8  C   UNL A   1      32.529  23.897  25.625  1.00  0.00     0.342 C 
ATOM      9  O   UNL A   1      31.709  24.771  25.846  1.00  0.00    -0.246 OA
BRANCH   8  10
ATOM     10  C   UNL A   1      32.468  23.075  24.416  1.00  0.00     0.102 A 
ATOM     11  C   UNL A   1      32.648  20.769  23.732  1.00  0.00     0.001 A 
ATOM     12  C   UNL A   1      32.145  21.154  22.505  1.00  0.00     0.122 A 
ATOM     13  C   UNL A   1      32.877  21.775  24.660  1.00  0.00     0.030 A 
ATOM     14  N   UNL A   1      31.771  22.429  22.217  1.00  0.00    -0.238 NA
ATOM     15  C   UNL A   1      31.872  23.361  23.196  1.00  0.00     0.138 A 
BRANCH  11  16
ATOM     16  C   UNL A   1      32.937  19.422  24.205  1.00  0.00    -0.014 A 
ATOM     17  C   UNL A   1      32.456  16.939  25.394  1.00  0.00     0.119 A 
ATOM     18  C   UNL A   1      32.862  18.017  26.177  1.00  0.00     0.047 A 
ATOM     19  C   UNL A   1      32.410  17.058  24.008  1.00  0.00     0.050 A 
ATOM     20  C   UNL A   1      33.110  19.252  25.585  1.00  0.00     0.013 A 
ATOM     21  C   UNL A   1      32.643  18.296  23.395  1.00  0.00    -0.040 A 
ATOM     22  C   UNL A   1      32.369  18.396  21.918  1.00  0.00     0.045 C 
BRANCH  17  23
ATOM     23  O   UNL A   1      32.093  15.729  25.919  1.00  0.00    -0.497 OA
ATOM     24  C   UNL A   1      32.902  14.655  25.435  1.00  0.00     0.278 C 
ENDBRANCH  17  23
ENDBRANCH  11  16
BRANCH  15  25
ATOM     25  N   UNL A   1      31.267  24.567  22.902  1.00  0.00    -0.383 N 
ATOM     26  H   UNL A   1      31.802  25.393  22.882  1.00  0.00     0.158 HD
ATOM     27  H   UNL A   1      30.302  24.599  22.713  1.00  0.00     0.158 HD
ENDBRANCH  15  25
ENDBRANCH   8  10
ENDBRANCH   7   8
ENDBRANCH   6   7
ENDBRANCH   5   6
ENDBRANCH   4   5
ENDBRANCH   3   4
ENDBRANCH   2   3
ENDBRANCH   1   2
BRANCH   1  28
ATOM     28  C   UNL A   1      39.978  20.914  26.132  1.00  0.00     0.188 C 
BRANCH  28  29
ATOM     29  C   UNL A   1      41.057  19.982  26.680  1.00  0.00     0.188 C 
BRANCH  29  30
ATOM     30  O   UNL A   1      41.505  18.965  25.795  1.00  0.00    -0.376 OA
BRANCH  30  31
ATOM     31  C   UNL A   1      42.740  18.309  26.058  1.00  0.00     0.202 C 
BRANCH  31  32
ATOM     32  C   UNL A   1      43.838  18.508  25.002  1.00  0.00     0.261 C 
BRANCH  32  33
ATOM     33  O   UNL A   1      45.045  18.965  25.635  1.00  0.00    -0.460 OA
BRANCH  33  34
ATOM     34  C   UNL A   1      45.680  19.990  25.004  1.00  0.00     0.338 C 
ATOM     35  O   UNL A   1      46.855  20.005  24.682  1.00  0.00    -0.246 OA
BRANCH  34  36
ATOM     36  C   UNL A   1      44.825  21.212  25.082  1.00  0.00     0.060 A 
ATOM     37  C   UNL A   1      44.957  22.201  24.091  1.00  0.00     0.016 A 
ATOM     38  C   UNL A   1      44.215  21.526  26.294  1.00  0.00     0.016 A 
ATOM     39  C   UNL A   1      44.653  23.540  24.385  1.00  0.00     0.010 A 
ATOM     40  C   UNL A   1      44.006  22.857  26.605  1.00  0.00     0.010 A 
ATOM     41  C   UNL A   1      44.275  23.887  25.684  1.00  0.00    -0.014 A 
BRANCH  41  42
ATOM     42  C   UNL A   1      44.393  25.237  26.281  1.00  0.00     0.031 A 
ATOM     43  C   UNL A   1      43.174  26.114  26.383  1.00  0.00     0.074 A 
ATOM     44  C   UNL A   1      45.456  25.494  27.089  1.00  0.00     0.049 A 
ATOM     45  N   UNL A   1      43.058  27.143  27.155  1.00  0.00    -0.248 NA
ATOM     46  C   UNL A   1      41.960  25.896  25.600  1.00  0.00     0.031 C 
ATOM     47  C   UNL A   1      45.422  26.322  28.285  1.00  0.00     0.029 A 
ATOM     48  N   UNL A   1      46.782  25.025  27.072  1.00  0.00    -0.354 N 
ATOM     49  C   UNL A   1      41.743  27.548  27.192  1.00  0.00     0.074 A 
ATOM     50  C   UNL A   1      41.116  26.783  26.143  1.00  0.00     0.031 C 
ATOM     51  C   UNL A   1      46.625  26.393  28.856  1.00  0.00     0.029 A 
ATOM     52  C   UNL A   1      47.546  25.916  27.876  1.00  0.00     0.049 A 
ATOM     53  H   UNL A   1      47.118  24.232  26.597  1.00  0.00     0.167 HD
ATOM     54  C   UNL A   1      41.342  28.422  28.167  1.00  0.00     0.037 A 
ATOM     55  C   UNL A   1      48.469  26.761  27.324  1.00  0.00     0.037 A 
ATOM     56  C   UNL A   1      42.492  29.075  28.841  1.00  0.00     0.049 A 
ATOM     57  C   UNL A   1      48.070  28.238  27.359  1.00  0.00     0.074 A 
ATOM     58  C   UNL A   1      42.841  29.390  30.142  1.00  0.00     0.029 A 
ATOM     59  N   UNL A   1      43.609  29.440  28.083  1.00  0.00    -0.354 N 
ATOM     60  N   UNL A   1      46.906  28.654  27.803  1.00  0.00    -0.248 NA
ATOM     61  C   UNL A   1      48.884  29.360  26.903  1.00  0.00     0.031 C 
ATOM     62  C   UNL A   1      44.167  29.925  30.151  1.00  0.00     0.029 A 
ATOM     63  C   UNL A   1      44.612  29.997  28.846  1.00  0.00     0.049 A 
ATOM     64  H   UNL A   1      43.673  29.314  27.109  1.00  0.00     0.167 HD
ATOM     65  C   UNL A   1      46.803  30.010  27.739  1.00  0.00     0.074 A 
ATOM     66  C   UNL A   1      48.059  30.406  27.121  1.00  0.00     0.031 C 
ATOM     67  C   UNL A   1      45.707  30.699  28.188  1.00  0.00     0.037 A 
BRANCH  54  68
ATOM     68  C   UNL A   1      39.884  28.632  28.620  1.00  0.00     0.064 A 
ATOM     69  C   UNL A   1      38.942  29.289  27.788  1.00  0.00     0.173 A 
ATOM     70  C   UNL A   1      39.373  28.319  29.902  1.00  0.00     0.173 A 
ATOM     71  F   UNL A   1      39.239  29.628  26.526  1.00  0.00    -0.203 F 
ATOM     72  C   UNL A   1      37.646  29.631  28.211  1.00  0.00     0.198 A 
ATOM     73  C   UNL A   1      38.052  28.590  30.295  1.00  0.00     0.198 A 
ATOM     74  F   UNL A   1      40.135  27.788  30.862  1.00  0.00    -0.203 F 
ATOM     75  F   UNL A   1      36.839  30.325  27.394  1.00  0.00    -0.200 F 
ATOM     76  C   UNL A   1      37.195  29.267  29.459  1.00  0.00     0.200 A 
ATOM     77  F   UNL A   1      37.631  28.210  31.511  1.00  0.00    -0.200 F 
ATOM     78  F   UNL A   1      35.953  29.574  29.858  1.00  0.00    -0.200 F 
ENDBRANCH  54  68
BRANCH  55  79
ATOM     79  C   UNL A   1      49.444  25.972  26.511  1.00  0.00     0.064 A 
ATOM     80  C   UNL A   1      49.402  26.325  25.138  1.00  0.00     0.173 A 
ATOM     81  C   UNL A   1      50.708  25.702  27.058  1.00  0.00     0.173 A 
ATOM     82  F   UNL A   1      48.217  26.554  24.549  1.00  0.00    -0.203 F 
ATOM     83  C   UNL A   1      50.556  26.740  24.473  1.00  0.00     0.198 A 
ATOM     84  C   UNL A   1      51.868  26.076  26.368  1.00  0.00     0.198 A 
ATOM     85  F   UNL A   1      50.815  25.300  28.333  1.00  0.00    -0.203 F 
ATOM     86  F   UNL A   1      50.456  27.360  23.288  1.00  0.00    -0.200 F 
ATOM     87  C   UNL A   1      51.781  26.666  25.112  1.00  0.00     0.200 A 
ATOM     88  F   UNL A   1      53.060  26.010  26.978  1.00  0.00    -0.200 F 
ATOM     89  F   UNL A   1      52.860  27.238  24.558  1.00  0.00    -0.200 F 
ENDBRANCH  55  79
BRANCH  67  90
ATOM     90  C   UNL A   1      45.511  32.174  27.996  1.00  0.00     0.064 A 
ATOM     91  C   UNL A   1      46.108  33.145  28.804  1.00  0.00     0.173 A 
ATOM     92  C   UNL A   1      44.647  32.654  26.980  1.00  0.00     0.173 A 
ATOM     93  F   UNL A   1      46.811  32.796  29.891  1.00  0.00    -0.203 F 
ATOM     94  C   UNL A   1      45.982  34.504  28.514  1.00  0.00     0.198 A 
ATOM     95  C   UNL A   1      44.474  34.009  26.731  1.00  0.00     0.198 A 
ATOM     96  F   UNL A   1      43.968  31.823  26.174  1.00  0.00    -0.203 F 
ATOM     97  F   UNL A   1      46.659  35.400  29.242  1.00  0.00    -0.200 F 
ATOM     98  C   UNL A   1      45.178  34.933  27.470  1.00  0.00     0.200 A 
ATOM     99  F   UNL A   1      43.648  34.406  25.753  1.00  0.00    -0.200 F 
ATOM    100  F   UNL A   1      45.089  36.235  27.173  1.00  0.00    -0.200 F 
ENDBRANCH  67  90
ENDBRANCH  41  42
ENDBRANCH  34  36
ENDBRANCH  33  34
ENDBRANCH  32  33
ENDBRANCH  31  32
ENDBRANCH  30  31
ENDBRANCH  29  30
ENDBRANCH  28  29
ENDBRANCH   1  28
TORSDOF 23
ENDMDL
MODEL 3
REMARK VINA RESULT:     -10.7      5.937     11.835
REMARK SMILES COc1ccc(-c2cnc(N)c(C(=O)OCCOCCOCCOCCOC(=O)c3ccc(-c4c5nc(c(-c6c(F)c(F)c(F)c(F)c6F)c6ccc([nH]6)c(-c6c(F)c(F)c(F)c(F)c6F)c6nc(c(-c7c(F)c(F)c(F)c(F)c7F)c7ccc4[nH]7)C=C6)C=C5)cc3)c2)c(C)c1
REMARK SMILES IDX 21 1 20 2 19 3 18 4 17 5 16 6 15 7 13 8 14 9 12 10 7 11 8 12
REMARK SMILES IDX 93 13 9 14 10 15 6 16 3 17 4 18 96 19 5 20 94 21 95 22 2 23
REMARK SMILES IDX 1 24 11 25 22 28 23 29 24 30 25 31 26 32 27 33 28 34 29 35
REMARK SMILES IDX 30 36 31 37 92 38 32 39 91 40 33 41 34 42 35 43 85 44 36 45
REMARK SMILES IDX 90 46 84 47 86 48 37 49 89 50 83 51 82 52 38 54 70 55 50 56
REMARK SMILES IDX 69 57 51 58 54 59 68 60 87 61 52 62 53 63 67 65 88 66 55 67
REMARK SMILES IDX 39 68 40 69 48 70 41 71 42 72 46 73 49 74 43 75 44 76 47 77
REMARK SMILES IDX 45 78 71 79 72 80 80 81 73 82 74 83 78 84 81 85 75 86 76 87
REMARK SMILES IDX 79 88 77 89 56 90 57 91 65 92 58 93 59 94 63 95 66 96 60 97
REMARK SMILES IDX 61 98 64 99 62 100
REMARK H PARENT 11 26 11 27 86 53 54 64
REMARK Flexibility Score: inf
ROOT
ATOM      1  O   UNL A   1      40.528  22.366  26.040  1.00  0.00    -0.377 OA
ENDROOT
BRANCH   1   2
ATOM      2  C   UNL A   1      40.088  23.378  26.944  1.00  0.00     0.188 C 
BRANCH   2   3
ATOM      3  C   UNL A   1      38.721  24.003  26.651  1.00  0.00     0.188 C 
BRANCH   3   4
ATOM      4  O   UNL A   1      37.722  23.200  26.038  1.00  0.00    -0.376 OA
BRANCH   4   5
ATOM      5  C   UNL A   1      36.481  23.858  25.772  1.00  0.00     0.202 C 
BRANCH   5   6
ATOM      6  C   UNL A   1      35.884  23.543  24.399  1.00  0.00     0.261 C 
BRANCH   6   7
ATOM      7  O   UNL A   1      34.580  24.148  24.329  1.00  0.00    -0.460 OA
BRANCH   7   8
ATOM      8  C   UNL A   1      33.547  23.317  24.571  1.00  0.00     0.342 C 
ATOM      9  O   UNL A   1      33.566  22.099  24.590  1.00  0.00    -0.246 OA
BRANCH   8  10
ATOM     10  C   UNL A   1      32.568  24.081  25.347  1.00  0.00     0.102 A 
ATOM     11  C   UNL A   1      31.285  26.118  25.217  1.00  0.00     0.001 A 
ATOM     12  C   UNL A   1      30.549  25.656  26.291  1.00  0.00     0.122 A 
ATOM     13  C   UNL A   1      32.354  25.337  24.805  1.00  0.00     0.030 A 
ATOM     14  N   UNL A   1      30.758  24.445  26.873  1.00  0.00    -0.238 NA
ATOM     15  C   UNL A   1      31.719  23.643  26.352  1.00  0.00     0.138 A 
BRANCH  11  16
ATOM     16  C   UNL A   1      31.058  27.316  24.420  1.00  0.00    -0.014 A 
ATOM     17  C   UNL A   1      29.732  29.597  23.496  1.00  0.00     0.119 A 
ATOM     18  C   UNL A   1      29.464  28.357  22.920  1.00  0.00     0.047 A 
ATOM     19  C   UNL A   1      30.746  29.726  24.441  1.00  0.00     0.050 A 
ATOM     20  C   UNL A   1      30.130  27.221  23.373  1.00  0.00     0.013 A 
ATOM     21  C   UNL A   1      31.417  28.592  24.919  1.00  0.00    -0.040 A 
ATOM     22  C   UNL A   1      32.348  28.786  26.087  1.00  0.00     0.045 C 
BRANCH  17  23
ATOM     23  O   UNL A   1      29.042  30.733  23.177  1.00  0.00    -0.497 OA
ATOM     24  C   UNL A   1      27.678  30.471  22.838  1.00  0.00     0.278 C 
ENDBRANCH  17  23
ENDBRANCH  11  16
BRANCH  15  25
ATOM     25  N   UNL A   1      31.717  22.354  26.848  1.00  0.00    -0.383 N 
ATOM     26  H   UNL A   1      31.990  21.605  26.271  1.00  0.00     0.158 HD
ATOM     27  H   UNL A   1      31.442  22.185  27.777  1.00  0.00     0.158 HD
ENDBRANCH  15  25
ENDBRANCH   8  10
ENDBRANCH   7   8
ENDBRANCH   6   7
ENDBRANCH   5   6
ENDBRANCH   4   5
ENDBRANCH   3   4
ENDBRANCH   2   3
ENDBRANCH   1   2
BRANCH   1  28
ATOM     28  C   UNL A   1      41.864  21.959  26.352  1.00  0.00     0.188 C 
BRANCH  28  29
ATOM     29  C   UNL A   1      41.880  20.733  27.263  1.00  0.00     0.188 C 
BRANCH  29  30
ATOM     30  O   UNL A   1      42.694  19.651  26.832  1.00  0.00    -0.376 OA
BRANCH  30  31
ATOM     31  C   UNL A   1      42.780  19.355  25.444  1.00  0.00     0.202 C 
BRANCH  31  32
ATOM     32  C   UNL A   1      44.202  19.266  24.869  1.00  0.00     0.261 C 
BRANCH  32  33
ATOM     33  O   UNL A   1      44.997  20.357  25.364  1.00  0.00    -0.460 OA
BRANCH  33  34
ATOM     34  C   UNL A   1      44.900  21.515  24.654  1.00  0.00     0.338 C 
ATOM     35  O   UNL A   1      44.537  21.606  23.494  1.00  0.00    -0.246 OA
BRANCH  34  36
ATOM     36  C   UNL A   1      45.628  22.595  25.385  1.00  0.00     0.060 A 
ATOM     37  C   UNL A   1      45.432  22.733  26.770  1.00  0.00     0.016 A 
ATOM     38  C   UNL A   1      46.163  23.653  24.654  1.00  0.00     0.016 A 
ATOM     39  C   UNL A   1      45.593  23.985  27.385  1.00  0.00     0.010 A 
ATOM     40  C   UNL A   1      46.230  24.900  25.248  1.00  0.00     0.010 A 
ATOM     41  C   UNL A   1      45.892  25.100  26.600  1.00  0.00    -0.014 A 
BRANCH  41  42
ATOM     42  C   UNL A   1      45.622  26.509  26.970  1.00  0.00     0.031 A 
ATOM     43  C   UNL A   1      44.209  27.029  26.930  1.00  0.00     0.074 A 
ATOM     44  C   UNL A   1      46.544  27.166  27.722  1.00  0.00     0.049 A 
ATOM     45  N   UNL A   1      43.792  28.096  27.525  1.00  0.00    -0.248 NA
ATOM     46  C   UNL A   1      43.131  26.371  26.196  1.00  0.00     0.031 C 
ATOM     47  C   UNL A   1      46.241  28.132  28.768  1.00  0.00     0.029 A 
ATOM     48  N   UNL A   1      47.946  27.076  27.778  1.00  0.00    -0.354 N 
ATOM     49  C   UNL A   1      42.416  28.133  27.499  1.00  0.00     0.074 A 
ATOM     50  C   UNL A   1      42.059  27.072  26.590  1.00  0.00     0.031 C 
ATOM     51  C   UNL A   1      47.356  28.614  29.315  1.00  0.00     0.029 A 
ATOM     52  C   UNL A   1      48.411  28.254  28.424  1.00  0.00     0.049 A 
ATOM     53  H   UNL A   1      48.500  26.338  27.438  1.00  0.00     0.167 HD
ATOM     54  C   UNL A   1      41.757  29.009  28.320  1.00  0.00     0.037 A 
ATOM     55  C   UNL A   1      49.098  29.219  27.739  1.00  0.00     0.037 A 
ATOM     56  C   UNL A   1      42.662  30.045  28.875  1.00  0.00     0.049 A 
ATOM     57  C   UNL A   1      48.319  30.519  27.534  1.00  0.00     0.074 A 
ATOM     58  C   UNL A   1      42.861  30.643  30.106  1.00  0.00     0.029 A 
ATOM     59  N   UNL A   1      43.673  30.574  28.065  1.00  0.00    -0.354 N 
ATOM     60  N   UNL A   1      47.068  30.672  27.907  1.00  0.00    -0.248 NA
ATOM     61  C   UNL A   1      48.822  31.733  26.899  1.00  0.00     0.031 C 
ATOM     62  C   UNL A   1      43.995  31.511  30.025  1.00  0.00     0.029 A 
ATOM     63  C   UNL A   1      44.459  31.493  28.724  1.00  0.00     0.049 A 
ATOM     64  H   UNL A   1      43.808  30.317  27.124  1.00  0.00     0.167 HD
ATOM     65  C   UNL A   1      46.611  31.922  27.624  1.00  0.00     0.074 A 
ATOM     66  C   UNL A   1      47.741  32.539  26.947  1.00  0.00     0.031 C 
ATOM     67  C   UNL A   1      45.353  32.352  27.958  1.00  0.00     0.037 A 
BRANCH  54  68
ATOM     68  C   UNL A   1      40.278  28.887  28.736  1.00  0.00     0.064 A 
ATOM     69  C   UNL A   1      39.232  29.255  27.852  1.00  0.00     0.173 A 
ATOM     70  C   UNL A   1      39.819  28.528  30.025  1.00  0.00     0.173 A 
ATOM     71  F   UNL A   1      39.476  29.588  26.578  1.00  0.00    -0.203 F 
ATOM     72  C   UNL A   1      37.880  29.298  28.233  1.00  0.00     0.198 A 
ATOM     73  C   UNL A   1      38.461  28.495  30.381  1.00  0.00     0.198 A 
ATOM     74  F   UNL A   1      40.657  28.245  31.026  1.00  0.00    -0.203 F 
ATOM     75  F   UNL A   1      36.955  29.735  27.365  1.00  0.00    -0.200 F 
ATOM     76  C   UNL A   1      37.492  28.902  29.494  1.00  0.00     0.200 A 
ATOM     77  F   UNL A   1      38.107  28.088  31.609  1.00  0.00    -0.200 F 
ATOM     78  F   UNL A   1      36.201  28.923  29.854  1.00  0.00    -0.200 F 
ENDBRANCH  54  68
BRANCH  55  79
ATOM     79  C   UNL A   1      50.280  28.604  27.063  1.00  0.00     0.064 A 
ATOM     80  C   UNL A   1      51.234  28.120  27.994  1.00  0.00     0.173 A 
ATOM     81  C   UNL A   1      50.065  27.828  25.914  1.00  0.00     0.173 A 
ATOM     82  F   UNL A   1      51.513  28.841  29.093  1.00  0.00    -0.203 F 
ATOM     83  C   UNL A   1      51.654  26.791  27.959  1.00  0.00     0.198 A 
ATOM     84  C   UNL A   1      50.529  26.507  25.860  1.00  0.00     0.198 A 
ATOM     85  F   UNL A   1      49.224  28.257  24.962  1.00  0.00    -0.203 F 
ATOM     86  F   UNL A   1      52.302  26.267  29.011  1.00  0.00    -0.200 F 
ATOM     87  C   UNL A   1      51.253  25.971  26.918  1.00  0.00     0.200 A 
ATOM     88  F   UNL A   1      50.146  25.704  24.857  1.00  0.00    -0.200 F 
ATOM     89  F   UNL A   1      51.490  24.652  26.977  1.00  0.00    -0.200 F 
ENDBRANCH  55  79
BRANCH  67  90
ATOM     90  C   UNL A   1      44.779  33.670  27.529  1.00  0.00     0.064 A 
ATOM     91  C   UNL A   1      44.010  33.838  26.375  1.00  0.00     0.173 A 
ATOM     92  C   UNL A   1      45.042  34.843  28.281  1.00  0.00     0.173 A 
ATOM     93  F   UNL A   1      43.840  32.829  25.509  1.00  0.00    -0.203 F 
ATOM     94  C   UNL A   1      43.408  35.062  26.081  1.00  0.00     0.198 A 
ATOM     95  C   UNL A   1      44.491  36.074  27.951  1.00  0.00     0.198 A 
ATOM     96  F   UNL A   1      45.815  34.826  29.377  1.00  0.00    -0.203 F 
ATOM     97  F   UNL A   1      42.586  35.157  25.028  1.00  0.00    -0.200 F 
ATOM     98  C   UNL A   1      43.636  36.173  26.877  1.00  0.00     0.200 A 
ATOM     99  F   UNL A   1      44.770  37.150  28.701  1.00  0.00    -0.200 F 
ATOM    100  F   UNL A   1      43.027  37.336  26.611  1.00  0.00    -0.200 F 
ENDBRANCH  67  90
ENDBRANCH  41  42
ENDBRANCH  34  36
ENDBRANCH  33  34
ENDBRANCH  32  33
ENDBRANCH  31  32
ENDBRANCH  30  31
ENDBRANCH  29  30
ENDBRANCH  28  29
ENDBRANCH   1  28
TORSDOF 23
ENDMDL
