MODEL 1
REMARK VINA RESULT:     -11.5      0.000      0.000
REMARK SMILES CCc1n[nH]c(C(=O)N[C@@]2(C(=O)OCCOCCOCCOCCOC(=O)c3ccc(-c4c5nc(c(-c6c(F)c(F)c(F)c(F)c6F)c6ccc([nH]6)c(-c6c(F)c(F)c(F)c(F)c6F)c6nc(c(-c7c(F)c(F)c(F)c(F)c7F)c7ccc4[nH]7)C=C6)C=C5)cc3)CCCC[C@H]2C)n1
REMARK SMILES IDX 18 1 17 2 16 3 15 4 14 5 13 6 11 7 12 8 10 9 91 10 95 11
REMARK SMILES IDX 92 12 94 13 96 14 93 15 9 16 7 17 8 18 6 20 3 21 4 22 97 23
REMARK SMILES IDX 5 24 2 26 1 27 19 28 20 29 21 30 22 31 23 32 24 33 25 34
REMARK SMILES IDX 26 35 27 36 28 37 29 38 90 39 30 40 89 41 31 42 32 43 33 44
REMARK SMILES IDX 83 45 34 46 88 47 82 48 84 49 35 50 87 51 81 52 80 53 36 55
REMARK SMILES IDX 68 56 48 57 67 58 49 59 52 60 66 61 85 62 50 63 51 64 65 66
REMARK SMILES IDX 86 67 53 68 37 69 38 70 46 71 39 72 40 73 44 74 47 75 41 76
REMARK SMILES IDX 42 77 45 78 43 79 69 80 70 81 78 82 71 83 72 84 76 85 79 86
REMARK SMILES IDX 73 87 74 88 77 89 75 90 54 91 55 92 63 93 56 94 57 95 61 96
REMARK SMILES IDX 64 97 58 98 59 99 62 100 60 101
REMARK H PARENT 9 19 5 25 84 54 52 65
REMARK Flexibility Score: inf
ROOT
ATOM      1  C   UNL A   1      33.545  33.837  28.033  1.00  0.00     0.188 C 
ENDROOT
BRANCH   1   2
ATOM      2  C   UNL A   1      33.990  32.408  28.203  1.00  0.00     0.188 C 
BRANCH   2   3
ATOM      3  O   UNL A   1      33.631  31.422  27.254  1.00  0.00    -0.376 OA
BRANCH   3   4
ATOM      4  C   UNL A   1      32.266  31.197  26.951  1.00  0.00     0.202 C 
BRANCH   4   5
ATOM      5  C   UNL A   1      31.777  29.971  26.148  1.00  0.00     0.261 C 
BRANCH   5   6
ATOM      6  O   UNL A   1      32.558  28.763  26.190  1.00  0.00    -0.461 OA
BRANCH   6   7
ATOM      7  C   UNL A   1      31.865  27.629  26.487  1.00  0.00     0.332 C 
ATOM      8  O   UNL A   1      31.205  27.494  27.514  1.00  0.00    -0.249 OA
BRANCH   7   9
ATOM      9  C   UNL A   1      31.934  26.529  25.369  1.00  0.00     0.141 C 
ATOM     10  C   UNL A   1      30.498  25.908  25.446  1.00  0.00     0.041 C 
ATOM     11  C   UNL A   1      32.978  25.341  25.654  1.00  0.00     0.023 C 
ATOM     12  C   UNL A   1      30.277  24.637  24.640  1.00  0.00     0.003 C 
ATOM     13  C   UNL A   1      32.678  24.069  24.826  1.00  0.00     0.006 C 
ATOM     14  C   UNL A   1      34.478  25.595  25.429  1.00  0.00     0.011 C 
ATOM     15  C   UNL A   1      31.269  23.564  25.033  1.00  0.00     0.000 C 
BRANCH   9  16
ATOM     16  N   UNL A   1      32.180  27.146  24.017  1.00  0.00    -0.333 N 
ATOM     17  C   UNL A   1      31.388  27.014  22.877  1.00  0.00     0.289 C 
ATOM     18  O   UNL A   1      31.749  26.156  22.065  1.00  0.00    -0.266 OA
ATOM     19  H   UNL A   1      32.987  27.703  23.928  1.00  0.00     0.165 HD
BRANCH  17  20
ATOM     20  C   UNL A   1      30.447  28.053  22.486  1.00  0.00     0.214 A 
ATOM     21  C   UNL A   1      28.875  29.498  22.366  1.00  0.00     0.151 A 
ATOM     22  N   UNL A   1      29.878  30.091  21.707  1.00  0.00    -0.158 NA
ATOM     23  N   UNL A   1      29.179  28.224  22.801  1.00  0.00    -0.207 NA
ATOM     24  N   UNL A   1      30.825  29.136  21.737  1.00  0.00    -0.255 N 
ATOM     25  H   UNL A   1      31.691  29.207  21.274  1.00  0.00     0.192 HD
BRANCH  21  26
ATOM     26  C   UNL A   1      27.658  30.251  22.806  1.00  0.00     0.076 C 
ATOM     27  C   UNL A   1      27.916  31.406  23.758  1.00  0.00     0.012 C 
ENDBRANCH  21  26
ENDBRANCH  17  20
ENDBRANCH   9  16
ENDBRANCH   7   9
ENDBRANCH   6   7
ENDBRANCH   5   6
ENDBRANCH   4   5
ENDBRANCH   3   4
ENDBRANCH   2   3
ENDBRANCH   1   2
BRANCH   1  28
ATOM     28  O   UNL A   1      32.942  34.364  29.179  1.00  0.00    -0.377 OA
BRANCH  28  29
ATOM     29  C   UNL A   1      33.199  35.741  29.336  1.00  0.00     0.188 C 
BRANCH  29  30
ATOM     30  C   UNL A   1      33.258  36.339  30.757  1.00  0.00     0.188 C 
BRANCH  30  31
ATOM     31  O   UNL A   1      33.514  35.536  31.896  1.00  0.00    -0.376 OA
BRANCH  31  32
ATOM     32  C   UNL A   1      34.736  35.401  32.598  1.00  0.00     0.202 C 
BRANCH  32  33
ATOM     33  C   UNL A   1      35.995  34.676  32.109  1.00  0.00     0.261 C 
BRANCH  33  34
ATOM     34  O   UNL A   1      36.210  33.361  32.607  1.00  0.00    -0.460 OA
BRANCH  34  35
ATOM     35  C   UNL A   1      35.559  32.380  31.931  1.00  0.00     0.338 C 
ATOM     36  O   UNL A   1      34.379  32.319  31.673  1.00  0.00    -0.246 OA
BRANCH  35  37
ATOM     37  C   UNL A   1      36.577  31.476  31.351  1.00  0.00     0.060 A 
ATOM     38  C   UNL A   1      37.432  30.795  32.231  1.00  0.00     0.016 A 
ATOM     39  C   UNL A   1      36.650  31.260  29.973  1.00  0.00     0.016 A 
ATOM     40  C   UNL A   1      38.387  29.913  31.733  1.00  0.00     0.010 A 
ATOM     41  C   UNL A   1      37.637  30.416  29.471  1.00  0.00     0.010 A 
ATOM     42  C   UNL A   1      38.533  29.779  30.348  1.00  0.00    -0.014 A 
BRANCH  42  43
ATOM     43  C   UNL A   1      39.805  29.261  29.801  1.00  0.00     0.031 A 
ATOM     44  C   UNL A   1      40.938  30.242  29.697  1.00  0.00     0.074 A 
ATOM     45  C   UNL A   1      39.942  27.993  29.386  1.00  0.00     0.049 A 
ATOM     46  N   UNL A   1      42.102  30.115  29.117  1.00  0.00    -0.248 NA
ATOM     47  C   UNL A   1      40.717  31.560  30.322  1.00  0.00     0.031 C 
ATOM     48  C   UNL A   1      38.928  26.948  29.496  1.00  0.00     0.029 A 
ATOM     49  N   UNL A   1      40.998  27.380  28.761  1.00  0.00    -0.354 N 
ATOM     50  C   UNL A   1      42.738  31.337  29.295  1.00  0.00     0.074 A 
ATOM     51  C   UNL A   1      41.832  32.200  30.013  1.00  0.00     0.031 C 
ATOM     52  C   UNL A   1      39.402  25.824  28.928  1.00  0.00     0.029 A 
ATOM     53  C   UNL A   1      40.732  26.088  28.379  1.00  0.00     0.049 A 
ATOM     54  H   UNL A   1      41.863  27.822  28.601  1.00  0.00     0.167 HD
ATOM     55  C   UNL A   1      43.974  31.706  28.889  1.00  0.00     0.037 A 
ATOM     56  C   UNL A   1      41.473  25.240  27.639  1.00  0.00     0.037 A 
ATOM     57  C   UNL A   1      44.861  30.841  28.163  1.00  0.00     0.049 A 
ATOM     58  C   UNL A   1      42.818  25.698  27.128  1.00  0.00     0.074 A 
ATOM     59  C   UNL A   1      46.134  31.106  27.697  1.00  0.00     0.029 A 
ATOM     60  N   UNL A   1      44.555  29.540  27.793  1.00  0.00    -0.354 N 
ATOM     61  N   UNL A   1      43.422  26.850  27.301  1.00  0.00    -0.248 NA
ATOM     62  C   UNL A   1      43.583  24.741  26.316  1.00  0.00     0.031 C 
ATOM     63  C   UNL A   1      46.581  29.981  26.999  1.00  0.00     0.029 A 
ATOM     64  C   UNL A   1      45.611  28.993  27.087  1.00  0.00     0.049 A 
ATOM     65  H   UNL A   1      43.714  29.075  28.002  1.00  0.00     0.167 HD
ATOM     66  C   UNL A   1      44.652  26.741  26.662  1.00  0.00     0.074 A 
ATOM     67  C   UNL A   1      44.704  25.411  26.090  1.00  0.00     0.031 C 
ATOM     68  C   UNL A   1      45.649  27.652  26.561  1.00  0.00     0.037 A 
BRANCH  55  69
ATOM     69  C   UNL A   1      44.409  33.109  29.186  1.00  0.00     0.064 A 
ATOM     70  C   UNL A   1      45.074  33.440  30.376  1.00  0.00     0.173 A 
ATOM     71  C   UNL A   1      44.160  34.137  28.264  1.00  0.00     0.173 A 
ATOM     72  F   UNL A   1      45.312  32.499  31.301  1.00  0.00    -0.203 F 
ATOM     73  C   UNL A   1      45.452  34.754  30.642  1.00  0.00     0.198 A 
ATOM     74  C   UNL A   1      44.567  35.442  28.520  1.00  0.00     0.198 A 
ATOM     75  F   UNL A   1      43.520  33.874  27.115  1.00  0.00    -0.203 F 
ATOM     76  F   UNL A   1      46.038  35.057  31.808  1.00  0.00    -0.200 F 
ATOM     77  C   UNL A   1      45.205  35.752  29.711  1.00  0.00     0.200 A 
ATOM     78  F   UNL A   1      44.335  36.403  27.615  1.00  0.00    -0.200 F 
ATOM     79  F   UNL A   1      45.575  37.014  29.966  1.00  0.00    -0.200 F 
ENDBRANCH  55  69
BRANCH  56  80
ATOM     80  C   UNL A   1      40.958  23.882  27.318  1.00  0.00     0.064 A 
ATOM     81  C   UNL A   1      41.548  22.737  27.869  1.00  0.00     0.173 A 
ATOM     82  C   UNL A   1      39.882  23.700  26.436  1.00  0.00     0.173 A 
ATOM     83  F   UNL A   1      42.596  22.857  28.696  1.00  0.00    -0.203 F 
ATOM     84  C   UNL A   1      41.094  21.461  27.537  1.00  0.00     0.198 A 
ATOM     85  C   UNL A   1      39.410  22.425  26.128  1.00  0.00     0.198 A 
ATOM     86  F   UNL A   1      39.282  24.761  25.877  1.00  0.00    -0.203 F 
ATOM     87  F   UNL A   1      41.709  20.382  28.041  1.00  0.00    -0.200 F 
ATOM     88  C   UNL A   1      40.023  21.306  26.672  1.00  0.00     0.200 A 
ATOM     89  F   UNL A   1      38.367  22.281  25.299  1.00  0.00    -0.200 F 
ATOM     90  F   UNL A   1      39.587  20.079  26.354  1.00  0.00    -0.200 F 
ENDBRANCH  56  80
BRANCH  68  91
ATOM     91  C   UNL A   1      46.916  27.233  25.877  1.00  0.00     0.064 A 
ATOM     92  C   UNL A   1      47.164  27.528  24.530  1.00  0.00     0.173 A 
ATOM     93  C   UNL A   1      47.936  26.611  26.616  1.00  0.00     0.173 A 
ATOM     94  F   UNL A   1      46.216  28.111  23.781  1.00  0.00    -0.203 F 
ATOM     95  C   UNL A   1      48.386  27.207  23.943  1.00  0.00     0.198 A 
ATOM     96  C   UNL A   1      49.165  26.320  26.035  1.00  0.00     0.198 A 
ATOM     97  F   UNL A   1      47.749  26.319  27.911  1.00  0.00    -0.203 F 
ATOM     98  F   UNL A   1      48.594  27.472  22.646  1.00  0.00    -0.200 F 
ATOM     99  C   UNL A   1      49.388  26.615  24.698  1.00  0.00     0.200 A 
ATOM    100  F   UNL A   1      50.139  25.766  26.771  1.00  0.00    -0.200 F 
ATOM    101  F   UNL A   1      50.571  26.329  24.138  1.00  0.00    -0.200 F 
ENDBRANCH  68  91
ENDBRANCH  42  43
ENDBRANCH  35  37
ENDBRANCH  34  35
ENDBRANCH  33  34
ENDBRANCH  32  33
ENDBRANCH  31  32
ENDBRANCH  30  31
ENDBRANCH  29  30
ENDBRANCH  28  29
ENDBRANCH   1  28
TORSDOF 23
ENDMDL
MODEL 2
REMARK VINA RESULT:     -10.8      4.586      6.672
REMARK SMILES CCc1n[nH]c(C(=O)N[C@@]2(C(=O)OCCOCCOCCOCCOC(=O)c3ccc(-c4c5nc(c(-c6c(F)c(F)c(F)c(F)c6F)c6ccc([nH]6)c(-c6c(F)c(F)c(F)c(F)c6F)c6nc(c(-c7c(F)c(F)c(F)c(F)c7F)c7ccc4[nH]7)C=C6)C=C5)cc3)CCCC[C@H]2C)n1
REMARK SMILES IDX 18 1 17 2 16 3 15 4 14 5 13 6 11 7 12 8 10 9 91 10 95 11
REMARK SMILES IDX 92 12 94 13 96 14 93 15 9 16 7 17 8 18 6 20 3 21 4 22 97 23
REMARK SMILES IDX 5 24 2 26 1 27 19 28 20 29 21 30 22 31 23 32 24 33 25 34
REMARK SMILES IDX 26 35 27 36 28 37 29 38 90 39 30 40 89 41 31 42 32 43 33 44
REMARK SMILES IDX 83 45 34 46 88 47 82 48 84 49 35 50 87 51 81 52 80 53 36 55
REMARK SMILES IDX 68 56 48 57 67 58 49 59 52 60 66 61 85 62 50 63 51 64 65 66
REMARK SMILES IDX 86 67 53 68 37 69 38 70 46 71 39 72 40 73 44 74 47 75 41 76
REMARK SMILES IDX 42 77 45 78 43 79 69 80 70 81 78 82 71 83 72 84 76 85 79 86
REMARK SMILES IDX 73 87 74 88 77 89 75 90 54 91 55 92 63 93 56 94 57 95 61 96
REMARK SMILES IDX 64 97 58 98 59 99 62 100 60 101
REMARK H PARENT 9 19 5 25 84 54 52 65
REMARK Flexibility Score: inf
ROOT
ATOM      1  C   UNL A   1      34.591  32.610  28.817  1.00  0.00     0.188 C 
ENDROOT
BRANCH   1   2
ATOM      2  C   UNL A   1      34.153  31.683  27.713  1.00  0.00     0.188 C 
BRANCH   2   3
ATOM      3  O   UNL A   1      34.434  30.298  27.779  1.00  0.00    -0.376 OA
BRANCH   3   4
ATOM      4  C   UNL A   1      33.770  29.402  26.906  1.00  0.00     0.202 C 
BRANCH   4   5
ATOM      5  C   UNL A   1      32.309  29.606  26.447  1.00  0.00     0.261 C 
BRANCH   5   6
ATOM      6  O   UNL A   1      31.707  28.612  25.599  1.00  0.00    -0.461 OA
BRANCH   6   7
ATOM      7  C   UNL A   1      31.541  27.385  26.163  1.00  0.00     0.332 C 
ATOM      8  O   UNL A   1      31.072  27.220  27.286  1.00  0.00    -0.249 OA
BRANCH   7   9
ATOM      9  C   UNL A   1      31.943  26.192  25.226  1.00  0.00     0.141 C 
ATOM     10  C   UNL A   1      31.945  24.987  26.226  1.00  0.00     0.041 C 
ATOM     11  C   UNL A   1      33.422  26.291  24.604  1.00  0.00     0.023 C 
ATOM     12  C   UNL A   1      32.520  23.681  25.697  1.00  0.00     0.003 C 
ATOM     13  C   UNL A   1      33.958  24.925  24.114  1.00  0.00     0.006 C 
ATOM     14  C   UNL A   1      33.673  27.242  23.422  1.00  0.00     0.011 C 
ATOM     15  C   UNL A   1      33.936  23.873  25.199  1.00  0.00     0.000 C 
BRANCH   9  16
ATOM     16  N   UNL A   1      30.918  25.988  24.140  1.00  0.00    -0.333 N 
ATOM     17  C   UNL A   1      29.663  26.589  24.048  1.00  0.00     0.289 C 
ATOM     18  O   UNL A   1      28.712  25.922  24.466  1.00  0.00    -0.266 OA
ATOM     19  H   UNL A   1      31.159  25.362  23.419  1.00  0.00     0.165 HD
BRANCH  17  20
ATOM     20  C   UNL A   1      29.437  27.735  23.180  1.00  0.00     0.214 A 
ATOM     21  C   UNL A   1      28.756  29.534  22.244  1.00  0.00     0.151 A 
ATOM     22  N   UNL A   1      30.073  29.551  22.003  1.00  0.00    -0.158 NA
ATOM     23  N   UNL A   1      28.332  28.402  22.912  1.00  0.00    -0.207 NA
ATOM     24  N   UNL A   1      30.462  28.379  22.539  1.00  0.00    -0.255 N 
ATOM     25  H   UNL A   1      31.379  28.025  22.477  1.00  0.00     0.192 HD
BRANCH  21  26
ATOM     26  C   UNL A   1      27.896  30.743  22.042  1.00  0.00     0.076 C 
ATOM     27  C   UNL A   1      27.899  31.742  23.185  1.00  0.00     0.012 C 
ENDBRANCH  21  26
ENDBRANCH  17  20
ENDBRANCH   9  16
ENDBRANCH   7   9
ENDBRANCH   6   7
ENDBRANCH   5   6
ENDBRANCH   4   5
ENDBRANCH   3   4
ENDBRANCH   2   3
ENDBRANCH   1   2
BRANCH   1  28
ATOM     28  O   UNL A   1      35.379  33.671  28.361  1.00  0.00    -0.377 OA
BRANCH  28  29
ATOM     29  C   UNL A   1      34.692  34.902  28.391  1.00  0.00     0.188 C 
BRANCH  29  30
ATOM     30  C   UNL A   1      33.241  34.942  28.916  1.00  0.00     0.188 C 
BRANCH  30  31
ATOM     31  O   UNL A   1      32.648  36.143  29.381  1.00  0.00    -0.376 OA
BRANCH  31  32
ATOM     32  C   UNL A   1      33.284  37.217  30.046  1.00  0.00     0.202 C 
BRANCH  32  33
ATOM     33  C   UNL A   1      32.980  37.723  31.462  1.00  0.00     0.261 C 
BRANCH  33  34
ATOM     34  O   UNL A   1      33.468  36.935  32.541  1.00  0.00    -0.460 OA
BRANCH  34  35
ATOM     35  C   UNL A   1      32.958  35.679  32.609  1.00  0.00     0.338 C 
ATOM     36  O   UNL A   1      31.794  35.353  32.573  1.00  0.00    -0.246 OA
BRANCH  35  37
ATOM     37  C   UNL A   1      34.085  34.725  32.511  1.00  0.00     0.060 A 
ATOM     38  C   UNL A   1      33.853  33.391  32.874  1.00  0.00     0.016 A 
ATOM     39  C   UNL A   1      35.328  35.126  32.016  1.00  0.00     0.016 A 
ATOM     40  C   UNL A   1      34.875  32.452  32.772  1.00  0.00     0.010 A 
ATOM     41  C   UNL A   1      36.366  34.199  31.960  1.00  0.00     0.010 A 
ATOM     42  C   UNL A   1      36.151  32.874  32.380  1.00  0.00    -0.014 A 
BRANCH  42  43
ATOM     43  C   UNL A   1      37.325  32.046  32.726  1.00  0.00     0.031 A 
ATOM     44  C   UNL A   1      38.021  32.374  34.017  1.00  0.00     0.074 A 
ATOM     45  C   UNL A   1      37.775  31.070  31.922  1.00  0.00     0.049 A 
ATOM     46  N   UNL A   1      39.153  31.929  34.492  1.00  0.00    -0.248 NA
ATOM     47  C   UNL A   1      37.349  33.359  34.885  1.00  0.00     0.031 C 
ATOM     48  C   UNL A   1      37.143  30.632  30.681  1.00  0.00     0.029 A 
ATOM     49  N   UNL A   1      38.896  30.288  32.029  1.00  0.00    -0.354 N 
ATOM     50  C   UNL A   1      39.332  32.591  35.700  1.00  0.00     0.074 A 
ATOM     51  C   UNL A   1      38.211  33.481  35.879  1.00  0.00     0.031 C 
ATOM     52  C   UNL A   1      37.904  29.674  30.122  1.00  0.00     0.029 A 
ATOM     53  C   UNL A   1      39.094  29.466  30.946  1.00  0.00     0.049 A 
ATOM     54  H   UNL A   1      39.500  30.312  32.806  1.00  0.00     0.167 HD
ATOM     55  C   UNL A   1      40.349  32.466  36.582  1.00  0.00     0.037 A 
ATOM     56  C   UNL A   1      40.141  28.671  30.651  1.00  0.00     0.037 A 
ATOM     57  C   UNL A   1      41.466  31.585  36.385  1.00  0.00     0.049 A 
ATOM     58  C   UNL A   1      41.304  28.604  31.612  1.00  0.00     0.074 A 
ATOM     59  C   UNL A   1      42.556  31.377  37.208  1.00  0.00     0.029 A 
ATOM     60  N   UNL A   1      41.632  30.770  35.275  1.00  0.00    -0.354 N 
ATOM     61  N   UNL A   1      41.471  29.224  32.756  1.00  0.00    -0.248 NA
ATOM     62  C   UNL A   1      42.427  27.731  31.239  1.00  0.00     0.031 C 
ATOM     63  C   UNL A   1      43.410  30.472  36.571  1.00  0.00     0.029 A 
ATOM     64  C   UNL A   1      42.820  30.069  35.383  1.00  0.00     0.049 A 
ATOM     65  H   UNL A   1      41.000  30.700  34.524  1.00  0.00     0.167 HD
ATOM     66  C   UNL A   1      42.689  28.784  33.260  1.00  0.00     0.074 A 
ATOM     67  C   UNL A   1      43.224  27.848  32.292  1.00  0.00     0.031 C 
ATOM     68  C   UNL A   1      43.308  29.115  34.419  1.00  0.00     0.037 A 
BRANCH  55  69
ATOM     69  C   UNL A   1      40.312  33.330  37.806  1.00  0.00     0.064 A 
ATOM     70  C   UNL A   1      41.139  34.454  37.942  1.00  0.00     0.173 A 
ATOM     71  C   UNL A   1      39.431  33.030  38.857  1.00  0.00     0.173 A 
ATOM     72  F   UNL A   1      42.017  34.768  36.977  1.00  0.00    -0.203 F 
ATOM     73  C   UNL A   1      41.103  35.233  39.096  1.00  0.00     0.198 A 
ATOM     74  C   UNL A   1      39.376  33.829  39.994  1.00  0.00     0.198 A 
ATOM     75  F   UNL A   1      38.624  31.962  38.779  1.00  0.00    -0.203 F 
ATOM     76  F   UNL A   1      41.940  36.271  39.228  1.00  0.00    -0.200 F 
ATOM     77  C   UNL A   1      40.217  34.925  40.117  1.00  0.00     0.200 A 
ATOM     78  F   UNL A   1      38.513  33.534  40.976  1.00  0.00    -0.200 F 
ATOM     79  F   UNL A   1      40.180  35.679  41.224  1.00  0.00    -0.200 F 
ENDBRANCH  55  69
BRANCH  56  80
ATOM     80  C   UNL A   1      40.152  27.889  29.386  1.00  0.00     0.064 A 
ATOM     81  C   UNL A   1      39.484  26.661  29.290  1.00  0.00     0.173 A 
ATOM     82  C   UNL A   1      40.850  28.340  28.255  1.00  0.00     0.173 A 
ATOM     83  F   UNL A   1      38.824  26.174  30.351  1.00  0.00    -0.203 F 
ATOM     84  C   UNL A   1      39.526  25.905  28.119  1.00  0.00     0.198 A 
ATOM     85  C   UNL A   1      40.868  27.598  27.076  1.00  0.00     0.198 A 
ATOM     86  F   UNL A   1      41.510  29.506  28.292  1.00  0.00    -0.203 F 
ATOM     87  F   UNL A   1      38.918  24.713  28.072  1.00  0.00    -0.200 F 
ATOM     88  C   UNL A   1      40.213  26.377  27.011  1.00  0.00     0.200 A 
ATOM     89  F   UNL A   1      41.525  28.063  26.004  1.00  0.00    -0.200 F 
ATOM     90  F   UNL A   1      40.254  25.650  25.886  1.00  0.00    -0.200 F 
ENDBRANCH  56  80
BRANCH  68  91
ATOM     91  C   UNL A   1      44.591  28.416  34.754  1.00  0.00     0.064 A 
ATOM     92  C   UNL A   1      44.615  27.216  35.476  1.00  0.00     0.173 A 
ATOM     93  C   UNL A   1      45.807  28.911  34.255  1.00  0.00     0.173 A 
ATOM     94  F   UNL A   1      43.480  26.710  35.982  1.00  0.00    -0.203 F 
ATOM     95  C   UNL A   1      45.813  26.540  35.695  1.00  0.00     0.198 A 
ATOM     96  C   UNL A   1      46.996  28.219  34.450  1.00  0.00     0.198 A 
ATOM     97  F   UNL A   1      45.833  30.051  33.548  1.00  0.00    -0.203 F 
ATOM     98  F   UNL A   1      45.819  25.408  36.412  1.00  0.00    -0.200 F 
ATOM     99  C   UNL A   1      46.999  27.035  35.173  1.00  0.00     0.200 A 
ATOM    100  F   UNL A   1      48.138  28.688  33.928  1.00  0.00    -0.200 F 
ATOM    101  F   UNL A   1      48.146  26.370  35.365  1.00  0.00    -0.200 F 
ENDBRANCH  68  91
ENDBRANCH  42  43
ENDBRANCH  35  37
ENDBRANCH  34  35
ENDBRANCH  33  34
ENDBRANCH  32  33
ENDBRANCH  31  32
ENDBRANCH  30  31
ENDBRANCH  29  30
ENDBRANCH  28  29
ENDBRANCH   1  28
TORSDOF 23
ENDMDL
MODEL 3
REMARK VINA RESULT:     -10.7      1.568      3.468
REMARK SMILES CCc1n[nH]c(C(=O)N[C@@]2(C(=O)OCCOCCOCCOCCOC(=O)c3ccc(-c4c5nc(c(-c6c(F)c(F)c(F)c(F)c6F)c6ccc([nH]6)c(-c6c(F)c(F)c(F)c(F)c6F)c6nc(c(-c7c(F)c(F)c(F)c(F)c7F)c7ccc4[nH]7)C=C6)C=C5)cc3)CCCC[C@H]2C)n1
REMARK SMILES IDX 18 1 17 2 16 3 15 4 14 5 13 6 11 7 12 8 10 9 91 10 95 11
REMARK SMILES IDX 92 12 94 13 96 14 93 15 9 16 7 17 8 18 6 20 3 21 4 22 97 23
REMARK SMILES IDX 5 24 2 26 1 27 19 28 20 29 21 30 22 31 23 32 24 33 25 34
REMARK SMILES IDX 26 35 27 36 28 37 29 38 90 39 30 40 89 41 31 42 32 43 33 44
REMARK SMILES IDX 83 45 34 46 88 47 82 48 84 49 35 50 87 51 81 52 80 53 36 55
REMARK SMILES IDX 68 56 48 57 67 58 49 59 52 60 66 61 85 62 50 63 51 64 65 66
REMARK SMILES IDX 86 67 53 68 37 69 38 70 46 71 39 72 40 73 44 74 47 75 41 76
REMARK SMILES IDX 42 77 45 78 43 79 69 80 70 81 78 82 71 83 72 84 76 85 79 86
REMARK SMILES IDX 73 87 74 88 77 89 75 90 54 91 55 92 63 93 56 94 57 95 61 96
REMARK SMILES IDX 64 97 58 98 59 99 62 100 60 101
REMARK H PARENT 9 19 5 25 84 54 52 65
REMARK Flexibility Score: inf
ROOT
ATOM      1  C   UNL A   1      34.022  31.847  28.257  1.00  0.00     0.188 C 
ENDROOT
BRANCH   1   2
ATOM      2  C   UNL A   1      34.715  30.722  27.535  1.00  0.00     0.188 C 
BRANCH   2   3
ATOM      3  O   UNL A   1      34.178  29.413  27.552  1.00  0.00    -0.376 OA
BRANCH   3   4
ATOM      4  C   UNL A   1      32.801  29.212  27.291  1.00  0.00     0.202 C 
BRANCH   4   5
ATOM      5  C   UNL A   1      32.049  27.925  27.699  1.00  0.00     0.261 C 
BRANCH   5   6
ATOM      6  O   UNL A   1      31.415  27.141  26.673  1.00  0.00    -0.461 OA
BRANCH   6   7
ATOM      7  C   UNL A   1      32.249  26.358  25.935  1.00  0.00     0.332 C 
ATOM      8  O   UNL A   1      32.962  25.488  26.426  1.00  0.00    -0.249 OA
BRANCH   7   9
ATOM      9  C   UNL A   1      32.171  26.624  24.390  1.00  0.00     0.141 C 
ATOM     10  C   UNL A   1      33.450  27.496  24.152  1.00  0.00     0.041 C 
ATOM     11  C   UNL A   1      30.908  27.498  23.918  1.00  0.00     0.023 C 
ATOM     12  C   UNL A   1      33.575  28.135  22.777  1.00  0.00     0.003 C 
ATOM     13  C   UNL A   1      31.113  28.144  22.527  1.00  0.00     0.006 C 
ATOM     14  C   UNL A   1      29.527  26.826  23.824  1.00  0.00     0.011 C 
ATOM     15  C   UNL A   1      32.365  28.988  22.461  1.00  0.00     0.000 C 
BRANCH   9  16
ATOM     16  N   UNL A   1      32.249  25.334  23.615  1.00  0.00    -0.333 N 
ATOM     17  C   UNL A   1      33.399  24.603  23.315  1.00  0.00     0.289 C 
ATOM     18  O   UNL A   1      33.884  24.795  22.196  1.00  0.00    -0.266 OA
ATOM     19  H   UNL A   1      31.398  24.966  23.285  1.00  0.00     0.165 HD
BRANCH  17  20
ATOM     20  C   UNL A   1      33.773  23.431  24.093  1.00  0.00     0.214 A 
ATOM     21  C   UNL A   1      34.221  21.467  24.809  1.00  0.00     0.151 A 
ATOM     22  N   UNL A   1      35.135  22.226  25.427  1.00  0.00    -0.158 NA
ATOM     23  N   UNL A   1      33.337  22.188  24.033  1.00  0.00    -0.207 NA
ATOM     24  N   UNL A   1      34.786  23.459  25.014  1.00  0.00    -0.255 N 
ATOM     25  H   UNL A   1      35.210  24.286  25.339  1.00  0.00     0.192 HD
BRANCH  21  26
ATOM     26  C   UNL A   1      34.329  19.973  24.765  1.00  0.00     0.076 C 
ATOM     27  C   UNL A   1      33.018  19.222  24.919  1.00  0.00     0.012 C 
ENDBRANCH  21  26
ENDBRANCH  17  20
ENDBRANCH   9  16
ENDBRANCH   7   9
ENDBRANCH   6   7
ENDBRANCH   5   6
ENDBRANCH   4   5
ENDBRANCH   3   4
ENDBRANCH   2   3
ENDBRANCH   1   2
BRANCH   1  28
ATOM     28  O   UNL A   1      34.394  33.110  27.787  1.00  0.00    -0.377 OA
BRANCH  28  29
ATOM     29  C   UNL A   1      33.369  34.065  27.946  1.00  0.00     0.188 C 
BRANCH  29  30
ATOM     30  C   UNL A   1      33.489  35.120  29.067  1.00  0.00     0.188 C 
BRANCH  30  31
ATOM     31  O   UNL A   1      33.193  34.812  30.418  1.00  0.00    -0.376 OA
BRANCH  31  32
ATOM     32  C   UNL A   1      33.990  34.080  31.330  1.00  0.00     0.202 C 
BRANCH  32  33
ATOM     33  C   UNL A   1      35.274  34.564  32.014  1.00  0.00     0.261 C 
BRANCH  33  34
ATOM     34  O   UNL A   1      36.453  33.806  31.772  1.00  0.00    -0.460 OA
BRANCH  34  35
ATOM     35  C   UNL A   1      36.537  32.643  32.468  1.00  0.00     0.338 C 
ATOM     36  O   UNL A   1      35.857  32.293  33.406  1.00  0.00    -0.246 OA
BRANCH  35  37
ATOM     37  C   UNL A   1      37.470  31.749  31.746  1.00  0.00     0.060 A 
ATOM     38  C   UNL A   1      38.275  30.886  32.504  1.00  0.00     0.016 A 
ATOM     39  C   UNL A   1      37.508  31.721  30.351  1.00  0.00     0.016 A 
ATOM     40  C   UNL A   1      39.147  30.007  31.869  1.00  0.00     0.010 A 
ATOM     41  C   UNL A   1      38.416  30.878  29.715  1.00  0.00     0.010 A 
ATOM     42  C   UNL A   1      39.266  30.054  30.475  1.00  0.00    -0.014 A 
BRANCH  42  43
ATOM     43  C   UNL A   1      40.484  29.517  29.833  1.00  0.00     0.031 A 
ATOM     44  C   UNL A   1      41.615  30.484  29.626  1.00  0.00     0.074 A 
ATOM     45  C   UNL A   1      40.575  28.242  29.424  1.00  0.00     0.049 A 
ATOM     46  N   UNL A   1      42.726  30.338  28.956  1.00  0.00    -0.248 NA
ATOM     47  C   UNL A   1      41.459  31.811  30.251  1.00  0.00     0.031 C 
ATOM     48  C   UNL A   1      39.562  27.210  29.629  1.00  0.00     0.029 A 
ATOM     49  N   UNL A   1      41.570  27.611  28.723  1.00  0.00    -0.354 N 
ATOM     50  C   UNL A   1      43.387  31.555  29.066  1.00  0.00     0.074 A 
ATOM     51  C   UNL A   1      42.551  32.435  29.845  1.00  0.00     0.031 C 
ATOM     52  C   UNL A   1      39.977  26.075  29.038  1.00  0.00     0.029 A 
ATOM     53  C   UNL A   1      41.260  26.317  28.380  1.00  0.00     0.049 A 
ATOM     54  H   UNL A   1      42.423  28.042  28.489  1.00  0.00     0.167 HD
ATOM     55  C   UNL A   1      44.590  31.905  28.557  1.00  0.00     0.037 A 
ATOM     56  C   UNL A   1      41.930  25.454  27.592  1.00  0.00     0.037 A 
ATOM     57  C   UNL A   1      45.407  31.023  27.772  1.00  0.00     0.049 A 
ATOM     58  C   UNL A   1      43.234  25.891  26.969  1.00  0.00     0.074 A 
ATOM     59  C   UNL A   1      46.640  31.269  27.201  1.00  0.00     0.029 A 
ATOM     60  N   UNL A   1      45.058  29.721  27.444  1.00  0.00    -0.354 N 
ATOM     61  N   UNL A   1      43.862  27.038  27.079  1.00  0.00    -0.248 NA
ATOM     62  C   UNL A   1      43.921  24.917  26.109  1.00  0.00     0.031 C 
ATOM     63  C   UNL A   1      47.017  30.130  26.483  1.00  0.00     0.029 A 
ATOM     64  C   UNL A   1      46.048  29.154  26.661  1.00  0.00     0.049 A 
ATOM     65  H   UNL A   1      44.232  29.267  27.726  1.00  0.00     0.167 HD
ATOM     66  C   UNL A   1      45.034  26.908  26.343  1.00  0.00     0.074 A 
ATOM     67  C   UNL A   1      45.027  25.572  25.785  1.00  0.00     0.031 C 
ATOM     68  C   UNL A   1      46.030  27.807  26.151  1.00  0.00     0.037 A 
BRANCH  55  69
ATOM     69  C   UNL A   1      45.061  33.307  28.801  1.00  0.00     0.064 A 
ATOM     70  C   UNL A   1      44.687  34.369  27.965  1.00  0.00     0.173 A 
ATOM     71  C   UNL A   1      45.896  33.592  29.893  1.00  0.00     0.173 A 
ATOM     72  F   UNL A   1      43.911  34.144  26.894  1.00  0.00    -0.203 F 
ATOM     73  C   UNL A   1      45.151  35.661  28.198  1.00  0.00     0.198 A 
ATOM     74  C   UNL A   1      46.332  34.890  30.140  1.00  0.00     0.198 A 
ATOM     75  F   UNL A   1      46.288  32.610  30.718  1.00  0.00    -0.203 F 
ATOM     76  F   UNL A   1      44.825  36.650  27.355  1.00  0.00    -0.200 F 
ATOM     77  C   UNL A   1      45.967  35.922  29.289  1.00  0.00     0.200 A 
ATOM     78  F   UNL A   1      47.114  35.140  31.200  1.00  0.00    -0.200 F 
ATOM     79  F   UNL A   1      46.408  37.166  29.515  1.00  0.00    -0.200 F 
ENDBRANCH  55  69
BRANCH  56  80
ATOM     80  C   UNL A   1      41.378  24.098  27.330  1.00  0.00     0.064 A 
ATOM     81  C   UNL A   1      40.219  23.926  26.562  1.00  0.00     0.173 A 
ATOM     82  C   UNL A   1      41.983  22.949  27.862  1.00  0.00     0.173 A 
ATOM     83  F   UNL A   1      39.589  24.995  26.054  1.00  0.00    -0.203 F 
ATOM     84  C   UNL A   1      39.675  22.660  26.349  1.00  0.00     0.198 A 
ATOM     85  C   UNL A   1      41.455  21.681  27.625  1.00  0.00     0.198 A 
ATOM     86  F   UNL A   1      43.093  23.055  28.607  1.00  0.00    -0.203 F 
ATOM     87  F   UNL A   1      38.539  22.530  25.651  1.00  0.00    -0.200 F 
ATOM     88  C   UNL A   1      40.297  21.538  26.875  1.00  0.00     0.200 A 
ATOM     89  F   UNL A   1      42.066  20.598  28.126  1.00  0.00    -0.200 F 
ATOM     90  F   UNL A   1      39.774  20.321  26.670  1.00  0.00    -0.200 F 
ENDBRANCH  56  80
BRANCH  68  91
ATOM     91  C   UNL A   1      47.232  27.366  25.371  1.00  0.00     0.064 A 
ATOM     92  C   UNL A   1      47.396  27.685  24.017  1.00  0.00     0.173 A 
ATOM     93  C   UNL A   1      48.281  26.698  26.024  1.00  0.00     0.173 A 
ATOM     94  F   UNL A   1      46.417  28.313  23.348  1.00  0.00    -0.203 F 
ATOM     95  C   UNL A   1      48.564  27.342  23.340  1.00  0.00     0.198 A 
ATOM     96  C   UNL A   1      49.457  26.384  25.353  1.00  0.00     0.198 A 
ATOM     97  F   UNL A   1      48.175  26.382  27.323  1.00  0.00    -0.203 F 
ATOM     98  F   UNL A   1      48.690  27.630  22.038  1.00  0.00    -0.200 F 
ATOM     99  C   UNL A   1      49.597  26.703  24.011  1.00  0.00     0.200 A 
ATOM    100  F   UNL A   1      50.462  25.784  26.007  1.00  0.00    -0.200 F 
ATOM    101  F   UNL A   1      50.729  26.395  23.363  1.00  0.00    -0.200 F 
ENDBRANCH  68  91
ENDBRANCH  42  43
ENDBRANCH  35  37
ENDBRANCH  34  35
ENDBRANCH  33  34
ENDBRANCH  32  33
ENDBRANCH  31  32
ENDBRANCH  30  31
ENDBRANCH  29  30
ENDBRANCH  28  29
ENDBRANCH   1  28
TORSDOF 23
ENDMDL
