MODEL 1
REMARK VINA RESULT:     -10.0      0.000      0.000
REMARK SMILES O=C(OCCOCCOCCOCCOC(=O)[C@@H](CO)NC(=O)[C@H]1CCCc2ccccc21)c1ccc(-c2c3nc(c(-c4c(F)c(F)c(F)c(F)c4F)c4ccc([nH]4)c(-c4c(F)c(F)c(F)c(F)c4F)c4nc(c(-c5c(F)c(F)c(F)c(F)c5F)c5ccc2[nH]5)C=C4)C=C3)cc1
REMARK SMILES IDX 9 1 8 2 7 3 6 4 5 5 4 6 3 7 2 8 1 9 34 10 35 11 96 12 36 13
REMARK SMILES IDX 95 14 37 15 38 16 39 17 89 18 40 19 94 20 88 21 90 22 41 23
REMARK SMILES IDX 93 24 87 25 86 26 42 28 74 29 54 30 73 31 55 32 58 33 72 34
REMARK SMILES IDX 91 35 56 36 57 37 71 39 92 40 59 41 43 42 44 43 52 44 45 45
REMARK SMILES IDX 46 46 50 47 53 48 47 49 48 50 51 51 49 52 75 53 76 54 84 55
REMARK SMILES IDX 77 56 78 57 82 58 85 59 79 60 80 61 83 62 81 63 60 64 61 65
REMARK SMILES IDX 69 66 62 67 63 68 67 69 70 70 64 71 65 72 68 73 66 74 10 75
REMARK SMILES IDX 11 76 12 77 13 78 14 79 15 80 16 81 17 82 18 83 19 84 20 85
REMARK SMILES IDX 21 87 22 88 23 90 24 91 25 92 33 93 26 94 28 95 32 96 27 97
REMARK SMILES IDX 29 98 31 99 30 100
REMARK H PARENT 90 27 58 38 20 86 21 89
REMARK Flexibility Score: inf
ROOT
ATOM      1  O   UNL A   1      36.064  31.303  27.700  1.00  0.00    -0.377 OA
ENDROOT
BRANCH   1   2
ATOM      2  C   UNL A   1      36.205  32.603  28.256  1.00  0.00     0.188 C 
BRANCH   2   3
ATOM      3  C   UNL A   1      35.264  33.647  27.686  1.00  0.00     0.188 C 
BRANCH   3   4
ATOM      4  O   UNL A   1      34.612  34.319  28.745  1.00  0.00    -0.376 OA
BRANCH   4   5
ATOM      5  C   UNL A   1      34.235  35.675  28.622  1.00  0.00     0.202 C 
BRANCH   5   6
ATOM      6  C   UNL A   1      32.878  36.086  29.160  1.00  0.00     0.261 C 
BRANCH   6   7
ATOM      7  O   UNL A   1      32.732  36.330  30.583  1.00  0.00    -0.460 OA
BRANCH   7   8
ATOM      8  C   UNL A   1      32.627  35.598  31.709  1.00  0.00     0.338 C 
ATOM      9  O   UNL A   1      31.506  35.341  32.153  1.00  0.00    -0.246 OA
BRANCH   8  10
ATOM     10  C   UNL A   1      33.785  35.013  32.412  1.00  0.00     0.060 A 
ATOM     11  C   UNL A   1      34.975  35.684  32.634  1.00  0.00     0.016 A 
ATOM     12  C   UNL A   1      33.631  33.755  33.002  1.00  0.00     0.016 A 
ATOM     13  C   UNL A   1      36.093  35.040  33.106  1.00  0.00     0.010 A 
ATOM     14  C   UNL A   1      34.711  33.146  33.649  1.00  0.00     0.010 A 
ATOM     15  C   UNL A   1      35.972  33.757  33.610  1.00  0.00    -0.014 A 
BRANCH  15  16
ATOM     16  C   UNL A   1      37.220  33.028  33.889  1.00  0.00     0.031 A 
ATOM     17  C   UNL A   1      37.807  33.184  35.259  1.00  0.00     0.074 A 
ATOM     18  C   UNL A   1      37.678  32.111  33.017  1.00  0.00     0.049 A 
ATOM     19  N   UNL A   1      38.937  32.743  35.735  1.00  0.00    -0.248 NA
ATOM     20  C   UNL A   1      37.003  33.944  36.235  1.00  0.00     0.031 C 
ATOM     21  C   UNL A   1      37.046  31.762  31.739  1.00  0.00     0.029 A 
ATOM     22  N   UNL A   1      38.746  31.262  33.096  1.00  0.00    -0.354 N 
ATOM     23  C   UNL A   1      39.014  33.241  37.028  1.00  0.00     0.074 A 
ATOM     24  C   UNL A   1      37.816  34.007  37.274  1.00  0.00     0.031 C 
ATOM     25  C   UNL A   1      37.704  30.733  31.187  1.00  0.00     0.029 A 
ATOM     26  C   UNL A   1      38.871  30.438  32.005  1.00  0.00     0.049 A 
ATOM     27  H   UNL A   1      39.366  31.245  33.861  1.00  0.00     0.167 HD
ATOM     28  C   UNL A   1      40.017  33.075  37.917  1.00  0.00     0.037 A 
ATOM     29  C   UNL A   1      39.858  29.582  31.689  1.00  0.00     0.037 A 
ATOM     30  C   UNL A   1      41.167  32.263  37.635  1.00  0.00     0.049 A 
ATOM     31  C   UNL A   1      41.011  29.488  32.652  1.00  0.00     0.074 A 
ATOM     32  C   UNL A   1      42.293  32.049  38.404  1.00  0.00     0.029 A 
ATOM     33  N   UNL A   1      41.320  31.514  36.472  1.00  0.00    -0.354 N 
ATOM     34  N   UNL A   1      41.156  30.058  33.826  1.00  0.00    -0.248 NA
ATOM     35  C   UNL A   1      42.147  28.660  32.238  1.00  0.00     0.031 C 
ATOM     36  C   UNL A   1      43.152  31.213  37.681  1.00  0.00     0.029 A 
ATOM     37  C   UNL A   1      42.532  30.850  36.492  1.00  0.00     0.049 A 
ATOM     38  H   UNL A   1      40.661  31.464  35.742  1.00  0.00     0.167 HD
ATOM     39  C   UNL A   1      42.388  29.642  34.305  1.00  0.00     0.074 A 
ATOM     40  C   UNL A   1      42.938  28.753  33.296  1.00  0.00     0.031 C 
ATOM     41  C   UNL A   1      43.018  29.962  35.464  1.00  0.00     0.037 A 
BRANCH  28  42
ATOM     42  C   UNL A   1      39.943  33.868  39.189  1.00  0.00     0.064 A 
ATOM     43  C   UNL A   1      39.183  33.460  40.296  1.00  0.00     0.173 A 
ATOM     44  C   UNL A   1      40.592  35.111  39.268  1.00  0.00     0.173 A 
ATOM     45  F   UNL A   1      38.508  32.301  40.261  1.00  0.00    -0.203 F 
ATOM     46  C   UNL A   1      39.044  34.281  41.413  1.00  0.00     0.198 A 
ATOM     47  C   UNL A   1      40.478  35.914  40.398  1.00  0.00     0.198 A 
ATOM     48  F   UNL A   1      41.318  35.559  38.232  1.00  0.00    -0.203 F 
ATOM     49  F   UNL A   1      38.247  33.906  42.424  1.00  0.00    -0.200 F 
ATOM     50  C   UNL A   1      39.694  35.505  41.465  1.00  0.00     0.200 A 
ATOM     51  F   UNL A   1      41.108  37.096  40.444  1.00  0.00    -0.200 F 
ATOM     52  F   UNL A   1      39.547  36.300  42.534  1.00  0.00    -0.200 F 
ENDBRANCH  28  42
BRANCH  29  53
ATOM     53  C   UNL A   1      39.834  28.825  30.407  1.00  0.00     0.064 A 
ATOM     54  C   UNL A   1      40.333  29.384  29.223  1.00  0.00     0.173 A 
ATOM     55  C   UNL A   1      39.298  27.529  30.332  1.00  0.00     0.173 A 
ATOM     56  F   UNL A   1      40.842  30.625  29.230  1.00  0.00    -0.203 F 
ATOM     57  C   UNL A   1      40.279  28.687  28.015  1.00  0.00     0.198 A 
ATOM     58  C   UNL A   1      39.276  26.820  29.133  1.00  0.00     0.198 A 
ATOM     59  F   UNL A   1      38.803  26.940  31.432  1.00  0.00    -0.203 F 
ATOM     60  F   UNL A   1      40.717  29.267  26.890  1.00  0.00    -0.200 F 
ATOM     61  C   UNL A   1      39.755  27.404  27.972  1.00  0.00     0.200 A 
ATOM     62  F   UNL A   1      38.788  25.572  29.104  1.00  0.00    -0.200 F 
ATOM     63  F   UNL A   1      39.705  26.734  26.813  1.00  0.00    -0.200 F 
ENDBRANCH  29  53
BRANCH  41  64
ATOM     64  C   UNL A   1      44.334  29.295  35.715  1.00  0.00     0.064 A 
ATOM     65  C   UNL A   1      45.545  29.874  35.312  1.00  0.00     0.173 A 
ATOM     66  C   UNL A   1      44.378  28.076  36.406  1.00  0.00     0.173 A 
ATOM     67  F   UNL A   1      45.548  31.031  34.633  1.00  0.00    -0.203 F 
ATOM     68  C   UNL A   1      46.755  29.236  35.563  1.00  0.00     0.198 A 
ATOM     69  C   UNL A   1      45.591  27.461  36.690  1.00  0.00     0.198 A 
ATOM     70  F   UNL A   1      43.243  27.490  36.819  1.00  0.00    -0.203 F 
ATOM     71  F   UNL A   1      47.898  29.775  35.118  1.00  0.00    -0.200 F 
ATOM     72  C   UNL A   1      46.777  28.037  36.260  1.00  0.00     0.200 A 
ATOM     73  F   UNL A   1      45.612  26.311  37.378  1.00  0.00    -0.200 F 
ATOM     74  F   UNL A   1      47.944  27.429  36.510  1.00  0.00    -0.200 F 
ENDBRANCH  41  64
ENDBRANCH  15  16
ENDBRANCH   8  10
ENDBRANCH   7   8
ENDBRANCH   6   7
ENDBRANCH   5   6
ENDBRANCH   4   5
ENDBRANCH   3   4
ENDBRANCH   2   3
ENDBRANCH   1   2
BRANCH   1  75
ATOM     75  C   UNL A   1      34.919  30.528  28.063  1.00  0.00     0.188 C 
BRANCH  75  76
ATOM     76  C   UNL A   1      34.545  29.259  27.274  1.00  0.00     0.188 C 
BRANCH  76  77
ATOM     77  O   UNL A   1      33.169  29.116  26.987  1.00  0.00    -0.376 OA
BRANCH  77  78
ATOM     78  C   UNL A   1      32.645  27.802  26.786  1.00  0.00     0.202 C 
BRANCH  78  79
ATOM     79  C   UNL A   1      33.447  26.689  26.074  1.00  0.00     0.261 C 
BRANCH  79  80
ATOM     80  O   UNL A   1      34.047  27.079  24.824  1.00  0.00    -0.462 OA
BRANCH  80  81
ATOM     81  C   UNL A   1      33.178  27.447  23.832  1.00  0.00     0.331 C 
ATOM     82  O   UNL A   1      33.243  28.529  23.254  1.00  0.00    -0.250 OA
BRANCH  81  83
ATOM     83  C   UNL A   1      32.300  26.278  23.325  1.00  0.00     0.218 C 
BRANCH  83  84
ATOM     84  C   UNL A   1      30.964  26.588  22.617  1.00  0.00     0.193 C 
BRANCH  84  85
ATOM     85  O   UNL A   1      31.100  27.014  21.271  1.00  0.00    -0.394 OA
ATOM     86  H   UNL A   1      32.013  26.872  20.977  1.00  0.00     0.210 HD
ENDBRANCH  84  85
ENDBRANCH  83  84
BRANCH  83  87
ATOM     87  N   UNL A   1      33.060  25.382  22.452  1.00  0.00    -0.340 N 
ATOM     88  C   UNL A   1      33.302  24.053  22.533  1.00  0.00     0.228 C 
ATOM     89  H   UNL A   1      33.465  25.823  21.671  1.00  0.00     0.164 HD
ATOM     90  O   UNL A   1      33.620  23.515  21.463  1.00  0.00    -0.274 OA
BRANCH  88  91
ATOM     91  C   UNL A   1      33.401  23.226  23.825  1.00  0.00     0.109 C 
ATOM     92  C   UNL A   1      32.117  22.372  23.855  1.00  0.00     0.018 C 
ATOM     93  C   UNL A   1      34.658  22.443  24.203  1.00  0.00    -0.032 A 
ATOM     94  C   UNL A   1      32.124  21.386  25.009  1.00  0.00     0.006 C 
ATOM     95  C   UNL A   1      34.579  21.099  24.643  1.00  0.00    -0.044 A 
ATOM     96  C   UNL A   1      35.907  23.085  24.276  1.00  0.00     0.005 A 
ATOM     97  C   UNL A   1      33.255  20.391  24.795  1.00  0.00     0.036 C 
ATOM     98  C   UNL A   1      35.743  20.395  24.995  1.00  0.00     0.004 A 
ATOM     99  C   UNL A   1      37.053  22.385  24.678  1.00  0.00     0.000 A 
ATOM    100  C   UNL A   1      36.976  21.035  25.011  1.00  0.00     0.000 A 
ENDBRANCH  88  91
ENDBRANCH  83  87
ENDBRANCH  81  83
ENDBRANCH  80  81
ENDBRANCH  79  80
ENDBRANCH  78  79
ENDBRANCH  77  78
ENDBRANCH  76  77
ENDBRANCH  75  76
ENDBRANCH   1  75
TORSDOF 24
ENDMDL
MODEL 2
REMARK VINA RESULT:      -9.6      6.965     12.480
REMARK SMILES O=C(OCCOCCOCCOCCOC(=O)[C@@H](CO)NC(=O)[C@H]1CCCc2ccccc21)c1ccc(-c2c3nc(c(-c4c(F)c(F)c(F)c(F)c4F)c4ccc([nH]4)c(-c4c(F)c(F)c(F)c(F)c4F)c4nc(c(-c5c(F)c(F)c(F)c(F)c5F)c5ccc2[nH]5)C=C4)C=C3)cc1
REMARK SMILES IDX 9 1 8 2 7 3 6 4 5 5 4 6 3 7 2 8 1 9 34 10 35 11 96 12 36 13
REMARK SMILES IDX 95 14 37 15 38 16 39 17 89 18 40 19 94 20 88 21 90 22 41 23
REMARK SMILES IDX 93 24 87 25 86 26 42 28 74 29 54 30 73 31 55 32 58 33 72 34
REMARK SMILES IDX 91 35 56 36 57 37 71 39 92 40 59 41 43 42 44 43 52 44 45 45
REMARK SMILES IDX 46 46 50 47 53 48 47 49 48 50 51 51 49 52 75 53 76 54 84 55
REMARK SMILES IDX 77 56 78 57 82 58 85 59 79 60 80 61 83 62 81 63 60 64 61 65
REMARK SMILES IDX 69 66 62 67 63 68 67 69 70 70 64 71 65 72 68 73 66 74 10 75
REMARK SMILES IDX 11 76 12 77 13 78 14 79 15 80 16 81 17 82 18 83 19 84 20 85
REMARK SMILES IDX 21 87 22 88 23 90 24 91 25 92 33 93 26 94 28 95 32 96 27 97
REMARK SMILES IDX 29 98 31 99 30 100
REMARK H PARENT 90 27 58 38 20 86 21 89
REMARK Flexibility Score: inf
ROOT
ATOM      1  O   UNL A   1      48.452  27.964  24.516  1.00  0.00    -0.377 OA
ENDROOT
BRANCH   1   2
ATOM      2  C   UNL A   1      49.525  27.723  25.414  1.00  0.00     0.188 C 
BRANCH   2   3
ATOM      3  C   UNL A   1      50.897  27.676  24.772  1.00  0.00     0.188 C 
BRANCH   3   4
ATOM      4  O   UNL A   1      51.283  26.329  24.586  1.00  0.00    -0.376 OA
BRANCH   4   5
ATOM      5  C   UNL A   1      52.644  25.975  24.451  1.00  0.00     0.202 C 
BRANCH   5   6
ATOM      6  C   UNL A   1      53.184  24.876  25.345  1.00  0.00     0.261 C 
BRANCH   6   7
ATOM      7  O   UNL A   1      53.508  25.189  26.724  1.00  0.00    -0.460 OA
BRANCH   7   8
ATOM      8  C   UNL A   1      53.273  26.189  27.596  1.00  0.00     0.338 C 
ATOM      9  O   UNL A   1      54.128  27.065  27.747  1.00  0.00    -0.246 OA
BRANCH   8  10
ATOM     10  C   UNL A   1      52.006  26.345  28.335  1.00  0.00     0.060 A 
ATOM     11  C   UNL A   1      50.870  25.594  28.091  1.00  0.00     0.016 A 
ATOM     12  C   UNL A   1      51.985  27.210  29.433  1.00  0.00     0.016 A 
ATOM     13  C   UNL A   1      49.657  25.907  28.656  1.00  0.00     0.010 A 
ATOM     14  C   UNL A   1      50.799  27.415  30.144  1.00  0.00     0.010 A 
ATOM     15  C   UNL A   1      49.610  26.831  29.684  1.00  0.00    -0.014 A 
BRANCH  15  16
ATOM     16  C   UNL A   1      48.279  27.301  30.100  1.00  0.00     0.031 A 
ATOM     17  C   UNL A   1      47.671  26.647  31.303  1.00  0.00     0.074 A 
ATOM     18  C   UNL A   1      47.746  28.404  29.542  1.00  0.00     0.049 A 
ATOM     19  N   UNL A   1      46.483  26.793  31.818  1.00  0.00    -0.248 NA
ATOM     20  C   UNL A   1      48.525  25.691  32.032  1.00  0.00     0.031 C 
ATOM     21  C   UNL A   1      48.373  29.214  28.491  1.00  0.00     0.029 A 
ATOM     22  N   UNL A   1      46.585  29.070  29.819  1.00  0.00    -0.354 N 
ATOM     23  C   UNL A   1      46.423  25.892  32.873  1.00  0.00     0.074 A 
ATOM     24  C   UNL A   1      47.693  25.210  32.938  1.00  0.00     0.031 C 
ATOM     25  C   UNL A   1      47.619  30.298  28.258  1.00  0.00     0.029 A 
ATOM     26  C   UNL A   1      46.400  30.192  29.047  1.00  0.00     0.049 A 
ATOM     27  H   UNL A   1      45.943  28.774  30.505  1.00  0.00     0.167 HD
ATOM     28  C   UNL A   1      45.381  25.657  33.698  1.00  0.00     0.037 A 
ATOM     29  C   UNL A   1      45.332  31.002  28.960  1.00  0.00     0.037 A 
ATOM     30  C   UNL A   1      44.154  26.400  33.617  1.00  0.00     0.049 A 
ATOM     31  C   UNL A   1      44.146  30.660  29.822  1.00  0.00     0.074 A 
ATOM     32  C   UNL A   1      42.987  26.237  34.336  1.00  0.00     0.029 A 
ATOM     33  N   UNL A   1      43.952  27.470  32.751  1.00  0.00    -0.354 N 
ATOM     34  N   UNL A   1      44.031  29.724  30.736  1.00  0.00    -0.248 NA
ATOM     35  C   UNL A   1      42.936  31.462  29.622  1.00  0.00     0.031 C 
ATOM     36  C   UNL A   1      42.061  27.175  33.866  1.00  0.00     0.029 A 
ATOM     37  C   UNL A   1      42.673  27.968  32.903  1.00  0.00     0.049 A 
ATOM     38  H   UNL A   1      44.623  27.822  32.123  1.00  0.00     0.167 HD
ATOM     39  C   UNL A   1      42.745  29.836  31.240  1.00  0.00     0.074 A 
ATOM     40  C   UNL A   1      42.128  30.948  30.538  1.00  0.00     0.031 C 
ATOM     41  C   UNL A   1      42.120  29.092  32.187  1.00  0.00     0.037 A 
BRANCH  28  42
ATOM     42  C   UNL A   1      45.506  24.501  34.647  1.00  0.00     0.064 A 
ATOM     43  C   UNL A   1      45.192  23.183  34.282  1.00  0.00     0.173 A 
ATOM     44  C   UNL A   1      45.877  24.737  35.980  1.00  0.00     0.173 A 
ATOM     45  F   UNL A   1      44.791  22.905  33.033  1.00  0.00    -0.203 F 
ATOM     46  C   UNL A   1      45.206  22.155  35.224  1.00  0.00     0.198 A 
ATOM     47  C   UNL A   1      45.923  23.703  36.910  1.00  0.00     0.198 A 
ATOM     48  F   UNL A   1      46.172  25.981  36.388  1.00  0.00    -0.203 F 
ATOM     49  F   UNL A   1      44.823  20.919  34.871  1.00  0.00    -0.200 F 
ATOM     50  C   UNL A   1      45.575  22.416  36.535  1.00  0.00     0.200 A 
ATOM     51  F   UNL A   1      46.280  23.959  38.176  1.00  0.00    -0.200 F 
ATOM     52  F   UNL A   1      45.574  21.429  37.443  1.00  0.00    -0.200 F 
ENDBRANCH  28  42
BRANCH  29  53
ATOM     53  C   UNL A   1      45.308  32.136  27.996  1.00  0.00     0.064 A 
ATOM     54  C   UNL A   1      45.992  33.330  28.260  1.00  0.00     0.173 A 
ATOM     55  C   UNL A   1      44.588  32.059  26.792  1.00  0.00     0.173 A 
ATOM     56  F   UNL A   1      46.684  33.468  29.402  1.00  0.00    -0.203 F 
ATOM     57  C   UNL A   1      45.942  34.405  27.372  1.00  0.00     0.198 A 
ATOM     58  C   UNL A   1      44.567  33.119  25.889  1.00  0.00     0.198 A 
ATOM     59  F   UNL A   1      43.911  30.943  26.483  1.00  0.00    -0.203 F 
ATOM     60  F   UNL A   1      46.565  35.551  27.675  1.00  0.00    -0.200 F 
ATOM     61  C   UNL A   1      45.233  34.297  26.185  1.00  0.00     0.200 A 
ATOM     62  F   UNL A   1      43.897  32.999  24.734  1.00  0.00    -0.200 F 
ATOM     63  F   UNL A   1      45.187  35.329  25.331  1.00  0.00    -0.200 F 
ENDBRANCH  29  53
BRANCH  41  64
ATOM     64  C   UNL A   1      40.729  29.507  32.551  1.00  0.00     0.064 A 
ATOM     65  C   UNL A   1      40.481  30.550  33.454  1.00  0.00     0.173 A 
ATOM     66  C   UNL A   1      39.631  28.873  31.952  1.00  0.00     0.173 A 
ATOM     67  F   UNL A   1      41.501  31.173  34.063  1.00  0.00    -0.203 F 
ATOM     68  C   UNL A   1      39.178  30.920  33.770  1.00  0.00     0.198 A 
ATOM     69  C   UNL A   1      38.332  29.272  32.241  1.00  0.00     0.198 A 
ATOM     70  F   UNL A   1      39.822  27.875  31.074  1.00  0.00    -0.203 F 
ATOM     71  F   UNL A   1      38.960  31.879  34.681  1.00  0.00    -0.200 F 
ATOM     72  C   UNL A   1      38.107  30.288  33.157  1.00  0.00     0.200 A 
ATOM     73  F   UNL A   1      37.299  28.672  31.634  1.00  0.00    -0.200 F 
ATOM     74  F   UNL A   1      36.853  30.653  33.455  1.00  0.00    -0.200 F 
ENDBRANCH  41  64
ENDBRANCH  15  16
ENDBRANCH   8  10
ENDBRANCH   7   8
ENDBRANCH   6   7
ENDBRANCH   5   6
ENDBRANCH   4   5
ENDBRANCH   3   4
ENDBRANCH   2   3
ENDBRANCH   1   2
BRANCH   1  75
ATOM     75  C   UNL A   1      47.835  26.845  23.875  1.00  0.00     0.188 C 
BRANCH  75  76
ATOM     76  C   UNL A   1      47.795  25.467  24.563  1.00  0.00     0.188 C 
BRANCH  76  77
ATOM     77  O   UNL A   1      46.522  24.855  24.606  1.00  0.00    -0.376 OA
BRANCH  77  78
ATOM     78  C   UNL A   1      46.448  23.429  24.584  1.00  0.00     0.202 C 
BRANCH  78  79
ATOM     79  C   UNL A   1      45.543  22.630  25.550  1.00  0.00     0.261 C 
BRANCH  79  80
ATOM     80  O   UNL A   1      44.773  23.434  26.463  1.00  0.00    -0.462 OA
BRANCH  80  81
ATOM     81  C   UNL A   1      43.451  23.597  26.150  1.00  0.00     0.331 C 
ATOM     82  O   UNL A   1      42.981  23.300  25.054  1.00  0.00    -0.250 OA
BRANCH  81  83
ATOM     83  C   UNL A   1      42.568  23.923  27.378  1.00  0.00     0.218 C 
BRANCH  83  84
ATOM     84  C   UNL A   1      41.469  22.927  27.805  1.00  0.00     0.193 C 
BRANCH  84  85
ATOM     85  O   UNL A   1      41.874  21.996  28.795  1.00  0.00    -0.394 OA
ATOM     86  H   UNL A   1      42.595  22.376  29.321  1.00  0.00     0.210 HD
ENDBRANCH  84  85
ENDBRANCH  83  84
BRANCH  83  87
ATOM     87  N   UNL A   1      43.384  24.205  28.559  1.00  0.00    -0.340 N 
ATOM     88  C   UNL A   1      43.746  25.377  29.134  1.00  0.00     0.228 C 
ATOM     89  H   UNL A   1      43.730  23.405  29.015  1.00  0.00     0.164 HD
ATOM     90  O   UNL A   1      44.085  25.291  30.323  1.00  0.00    -0.274 OA
BRANCH  88  91
ATOM     91  C   UNL A   1      43.947  26.718  28.410  1.00  0.00     0.109 C 
ATOM     92  C   UNL A   1      45.182  26.506  27.510  1.00  0.00     0.018 C 
ATOM     93  C   UNL A   1      42.805  27.450  27.708  1.00  0.00    -0.032 A 
ATOM     94  C   UNL A   1      45.436  27.705  26.613  1.00  0.00     0.006 C 
ATOM     95  C   UNL A   1      42.960  27.966  26.398  1.00  0.00    -0.044 A 
ATOM     96  C   UNL A   1      41.624  27.770  28.403  1.00  0.00     0.005 A 
ATOM     97  C   UNL A   1      44.266  27.851  25.651  1.00  0.00     0.036 C 
ATOM     98  C   UNL A   1      41.903  28.645  25.770  1.00  0.00     0.004 A 
ATOM     99  C   UNL A   1      40.596  28.493  27.782  1.00  0.00     0.000 A 
ATOM    100  C   UNL A   1      40.724  28.906  26.458  1.00  0.00     0.000 A 
ENDBRANCH  88  91
ENDBRANCH  83  87
ENDBRANCH  81  83
ENDBRANCH  80  81
ENDBRANCH  79  80
ENDBRANCH  78  79
ENDBRANCH  77  78
ENDBRANCH  76  77
ENDBRANCH  75  76
ENDBRANCH   1  75
TORSDOF 24
ENDMDL
MODEL 3
REMARK VINA RESULT:      -9.4      3.850      9.137
REMARK SMILES O=C(OCCOCCOCCOCCOC(=O)[C@@H](CO)NC(=O)[C@H]1CCCc2ccccc21)c1ccc(-c2c3nc(c(-c4c(F)c(F)c(F)c(F)c4F)c4ccc([nH]4)c(-c4c(F)c(F)c(F)c(F)c4F)c4nc(c(-c5c(F)c(F)c(F)c(F)c5F)c5ccc2[nH]5)C=C4)C=C3)cc1
REMARK SMILES IDX 9 1 8 2 7 3 6 4 5 5 4 6 3 7 2 8 1 9 34 10 35 11 96 12 36 13
REMARK SMILES IDX 95 14 37 15 38 16 39 17 89 18 40 19 94 20 88 21 90 22 41 23
REMARK SMILES IDX 93 24 87 25 86 26 42 28 74 29 54 30 73 31 55 32 58 33 72 34
REMARK SMILES IDX 91 35 56 36 57 37 71 39 92 40 59 41 43 42 44 43 52 44 45 45
REMARK SMILES IDX 46 46 50 47 53 48 47 49 48 50 51 51 49 52 75 53 76 54 84 55
REMARK SMILES IDX 77 56 78 57 82 58 85 59 79 60 80 61 83 62 81 63 60 64 61 65
REMARK SMILES IDX 69 66 62 67 63 68 67 69 70 70 64 71 65 72 68 73 66 74 10 75
REMARK SMILES IDX 11 76 12 77 13 78 14 79 15 80 16 81 17 82 18 83 19 84 20 85
REMARK SMILES IDX 21 87 22 88 23 90 24 91 25 92 33 93 26 94 28 95 32 96 27 97
REMARK SMILES IDX 29 98 31 99 30 100
REMARK H PARENT 90 27 58 38 20 86 21 89
REMARK Flexibility Score: inf
ROOT
ATOM      1  O   UNL A   1      41.138  21.446  26.122  1.00  0.00    -0.377 OA
ENDROOT
BRANCH   1   2
ATOM      2  C   UNL A   1      41.810  22.634  26.520  1.00  0.00     0.188 C 
BRANCH   2   3
ATOM      3  C   UNL A   1      42.466  23.404  25.392  1.00  0.00     0.188 C 
BRANCH   3   4
ATOM      4  O   UNL A   1      43.311  22.537  24.660  1.00  0.00    -0.376 OA
BRANCH   4   5
ATOM      5  C   UNL A   1      44.517  22.056  25.218  1.00  0.00     0.202 C 
BRANCH   5   6
ATOM      6  C   UNL A   1      45.810  22.724  24.797  1.00  0.00     0.261 C 
BRANCH   6   7
ATOM      7  O   UNL A   1      46.230  23.935  25.479  1.00  0.00    -0.460 OA
BRANCH   7   8
ATOM      8  C   UNL A   1      45.999  25.258  25.380  1.00  0.00     0.338 C 
ATOM      9  O   UNL A   1      46.560  25.899  24.489  1.00  0.00    -0.246 OA
BRANCH   8  10
ATOM     10  C   UNL A   1      45.045  25.985  26.239  1.00  0.00     0.060 A 
ATOM     11  C   UNL A   1      44.615  27.278  25.996  1.00  0.00     0.016 A 
ATOM     12  C   UNL A   1      44.438  25.289  27.288  1.00  0.00     0.016 A 
ATOM     13  C   UNL A   1      43.891  27.988  26.923  1.00  0.00     0.010 A 
ATOM     14  C   UNL A   1      43.553  25.945  28.148  1.00  0.00     0.010 A 
ATOM     15  C   UNL A   1      43.360  27.327  28.017  1.00  0.00    -0.014 A 
BRANCH  15  16
ATOM     16  C   UNL A   1      42.794  28.159  29.090  1.00  0.00     0.031 A 
ATOM     17  C   UNL A   1      43.709  28.535  30.215  1.00  0.00     0.074 A 
ATOM     18  C   UNL A   1      41.577  28.717  28.944  1.00  0.00     0.049 A 
ATOM     19  N   UNL A   1      43.448  29.165  31.325  1.00  0.00    -0.248 NA
ATOM     20  C   UNL A   1      45.125  28.146  30.067  1.00  0.00     0.031 C 
ATOM     21  C   UNL A   1      40.701  28.553  27.778  1.00  0.00     0.029 A 
ATOM     22  N   UNL A   1      40.891  29.581  29.750  1.00  0.00    -0.354 N 
ATOM     23  C   UNL A   1      44.640  29.172  32.036  1.00  0.00     0.074 A 
ATOM     24  C   UNL A   1      45.632  28.498  31.235  1.00  0.00     0.031 C 
ATOM     25  C   UNL A   1      39.624  29.339  27.920  1.00  0.00     0.029 A 
ATOM     26  C   UNL A   1      39.675  29.959  29.236  1.00  0.00     0.049 A 
ATOM     27  H   UNL A   1      41.235  29.900  30.616  1.00  0.00     0.167 HD
ATOM     28  C   UNL A   1      44.865  29.691  33.263  1.00  0.00     0.037 A 
ATOM     29  C   UNL A   1      38.695  30.684  29.804  1.00  0.00     0.037 A 
ATOM     30  C   UNL A   1      43.851  30.394  33.998  1.00  0.00     0.049 A 
ATOM     31  C   UNL A   1      38.934  31.168  31.209  1.00  0.00     0.074 A 
ATOM     32  C   UNL A   1      43.905  30.919  35.273  1.00  0.00     0.029 A 
ATOM     33  N   UNL A   1      42.585  30.676  33.494  1.00  0.00    -0.354 N 
ATOM     34  N   UNL A   1      40.018  31.069  31.945  1.00  0.00    -0.248 NA
ATOM     35  C   UNL A   1      37.812  31.837  31.873  1.00  0.00     0.031 C 
ATOM     36  C   UNL A   1      42.652  31.471  35.561  1.00  0.00     0.029 A 
ATOM     37  C   UNL A   1      41.839  31.353  34.440  1.00  0.00     0.049 A 
ATOM     38  H   UNL A   1      42.268  30.432  32.595  1.00  0.00     0.167 HD
ATOM     39  C   UNL A   1      39.719  31.681  33.152  1.00  0.00     0.074 A 
ATOM     40  C   UNL A   1      38.355  32.167  33.035  1.00  0.00     0.031 C 
ATOM     41  C   UNL A   1      40.489  31.829  34.259  1.00  0.00     0.037 A 
BRANCH  28  42
ATOM     42  C   UNL A   1      46.199  29.409  33.891  1.00  0.00     0.064 A 
ATOM     43  C   UNL A   1      46.446  28.265  34.665  1.00  0.00     0.173 A 
ATOM     44  C   UNL A   1      47.231  30.353  33.775  1.00  0.00     0.173 A 
ATOM     45  F   UNL A   1      45.483  27.349  34.844  1.00  0.00    -0.203 F 
ATOM     46  C   UNL A   1      47.660  28.097  35.330  1.00  0.00     0.198 A 
ATOM     47  C   UNL A   1      48.454  30.167  34.412  1.00  0.00     0.198 A 
ATOM     48  F   UNL A   1      47.044  31.474  33.061  1.00  0.00    -0.203 F 
ATOM     49  F   UNL A   1      47.844  27.037  36.129  1.00  0.00    -0.200 F 
ATOM     50  C   UNL A   1      48.663  29.046  35.200  1.00  0.00     0.200 A 
ATOM     51  F   UNL A   1      49.421  31.086  34.285  1.00  0.00    -0.200 F 
ATOM     52  F   UNL A   1      49.825  28.890  35.852  1.00  0.00    -0.200 F 
ENDBRANCH  28  42
BRANCH  29  53
ATOM     53  C   UNL A   1      37.410  30.923  29.092  1.00  0.00     0.064 A 
ATOM     54  C   UNL A   1      37.058  32.200  28.636  1.00  0.00     0.173 A 
ATOM     55  C   UNL A   1      36.494  29.882  28.865  1.00  0.00     0.173 A 
ATOM     56  F   UNL A   1      37.885  33.236  28.839  1.00  0.00    -0.203 F 
ATOM     57  C   UNL A   1      35.837  32.430  27.999  1.00  0.00     0.198 A 
ATOM     58  C   UNL A   1      35.292  30.105  28.198  1.00  0.00     0.198 A 
ATOM     59  F   UNL A   1      36.774  28.637  29.280  1.00  0.00    -0.203 F 
ATOM     60  F   UNL A   1      35.506  33.671  27.618  1.00  0.00    -0.200 F 
ATOM     61  C   UNL A   1      34.958  31.381  27.776  1.00  0.00     0.200 A 
ATOM     62  F   UNL A   1      34.457  29.082  27.968  1.00  0.00    -0.200 F 
ATOM     63  F   UNL A   1      33.787  31.601  27.162  1.00  0.00    -0.200 F 
ENDBRANCH  29  53
BRANCH  41  64
ATOM     64  C   UNL A   1      39.886  32.596  35.394  1.00  0.00     0.064 A 
ATOM     65  C   UNL A   1      40.077  33.978  35.535  1.00  0.00     0.173 A 
ATOM     66  C   UNL A   1      39.072  31.939  36.327  1.00  0.00     0.173 A 
ATOM     67  F   UNL A   1      40.862  34.643  34.674  1.00  0.00    -0.203 F 
ATOM     68  C   UNL A   1      39.499  34.669  36.595  1.00  0.00     0.198 A 
ATOM     69  C   UNL A   1      38.465  32.640  37.362  1.00  0.00     0.198 A 
ATOM     70  F   UNL A   1      38.854  30.619  36.225  1.00  0.00    -0.203 F 
ATOM     71  F   UNL A   1      39.742  35.978  36.748  1.00  0.00    -0.200 F 
ATOM     72  C   UNL A   1      38.688  34.002  37.501  1.00  0.00     0.200 A 
ATOM     73  F   UNL A   1      37.667  31.997  38.225  1.00  0.00    -0.200 F 
ATOM     74  F   UNL A   1      38.124  34.671  38.515  1.00  0.00    -0.200 F 
ENDBRANCH  41  64
ENDBRANCH  15  16
ENDBRANCH   8  10
ENDBRANCH   7   8
ENDBRANCH   6   7
ENDBRANCH   5   6
ENDBRANCH   4   5
ENDBRANCH   3   4
ENDBRANCH   2   3
ENDBRANCH   1   2
BRANCH   1  75
ATOM     75  C   UNL A   1      39.728  21.358  26.336  1.00  0.00     0.188 C 
BRANCH  75  76
ATOM     76  C   UNL A   1      38.772  22.405  25.735  1.00  0.00     0.188 C 
BRANCH  76  77
ATOM     77  O   UNL A   1      37.421  22.282  26.131  1.00  0.00    -0.376 OA
BRANCH  77  78
ATOM     78  C   UNL A   1      36.401  22.453  25.146  1.00  0.00     0.202 C 
BRANCH  78  79
ATOM     79  C   UNL A   1      35.199  21.489  25.020  1.00  0.00     0.261 C 
BRANCH  79  80
ATOM     80  O   UNL A   1      34.003  21.924  25.693  1.00  0.00    -0.462 OA
BRANCH  80  81
ATOM     81  C   UNL A   1      32.854  21.898  24.950  1.00  0.00     0.331 C 
ATOM     82  O   UNL A   1      32.785  21.370  23.843  1.00  0.00    -0.250 OA
BRANCH  81  83
ATOM     83  C   UNL A   1      31.602  22.345  25.744  1.00  0.00     0.218 C 
BRANCH  83  84
ATOM     84  C   UNL A   1      31.782  23.047  27.106  1.00  0.00     0.193 C 
BRANCH  84  85
ATOM     85  O   UNL A   1      32.392  22.245  28.104  1.00  0.00    -0.394 OA
ATOM     86  H   UNL A   1      32.120  22.556  28.981  1.00  0.00     0.210 HD
ENDBRANCH  84  85
ENDBRANCH  83  84
BRANCH  83  87
ATOM     87  N   UNL A   1      30.729  23.189  24.928  1.00  0.00    -0.340 N 
ATOM     88  C   UNL A   1      31.006  24.240  24.120  1.00  0.00     0.228 C 
ATOM     89  H   UNL A   1      29.775  22.951  24.974  1.00  0.00     0.164 HD
ATOM     90  O   UNL A   1      30.140  24.483  23.267  1.00  0.00    -0.274 OA
BRANCH  88  91
ATOM     91  C   UNL A   1      32.165  25.235  24.292  1.00  0.00     0.109 C 
ATOM     92  C   UNL A   1      32.780  25.381  22.886  1.00  0.00     0.018 C 
ATOM     93  C   UNL A   1      31.999  26.567  25.023  1.00  0.00    -0.032 A 
ATOM     94  C   UNL A   1      33.861  26.448  22.853  1.00  0.00     0.006 C 
ATOM     95  C   UNL A   1      32.487  27.774  24.465  1.00  0.00    -0.044 A 
ATOM     96  C   UNL A   1      31.499  26.607  26.337  1.00  0.00     0.005 A 
ATOM     97  C   UNL A   1      33.224  27.798  23.148  1.00  0.00     0.036 C 
ATOM     98  C   UNL A   1      32.336  28.990  25.153  1.00  0.00     0.004 A 
ATOM     99  C   UNL A   1      31.400  27.820  27.033  1.00  0.00     0.000 A 
ATOM    100  C   UNL A   1      31.792  29.013  26.432  1.00  0.00     0.000 A 
ENDBRANCH  88  91
ENDBRANCH  83  87
ENDBRANCH  81  83
ENDBRANCH  80  81
ENDBRANCH  79  80
ENDBRANCH  78  79
ENDBRANCH  77  78
ENDBRANCH  76  77
ENDBRANCH  75  76
ENDBRANCH   1  75
TORSDOF 24
ENDMDL
