MODEL 1
REMARK VINA RESULT:      -9.7      0.000      0.000
REMARK SMILES O=C(OCCOCCOCCOCCOC(=O)[C@H]1CC=CC[C@H]1C(=O)Nc1ccc(S(=O)(=O)N2CCc3ccccc32)cc1)c1ccc(-c2c3nc(c(-c4c(F)c(F)c(F)c(F)c4F)c4ccc([nH]4)c(-c4c(F)c(F)c(F)c(F)c4F)c4nc(c(-c5c(F)c(F)c(F)c(F)c5F)c5ccc2[nH]5)C=C4)C=C3)cc1
REMARK SMILES IDX 10 1 9 2 8 3 7 4 6 5 5 6 4 7 3 8 2 9 1 10 45 11 46 12 107 13
REMARK SMILES IDX 47 14 106 15 48 16 49 17 50 18 100 19 51 20 105 21 99 22
REMARK SMILES IDX 101 23 52 24 104 25 98 26 97 27 53 29 85 30 65 31 84 32
REMARK SMILES IDX 66 33 69 34 83 35 102 36 67 37 68 38 82 40 103 41 70 42
REMARK SMILES IDX 54 43 55 44 63 45 56 46 57 47 61 48 64 49 58 50 59 51 62 52
REMARK SMILES IDX 60 53 86 54 87 55 95 56 88 57 89 58 93 59 96 60 90 61 91 62
REMARK SMILES IDX 94 63 92 64 71 65 72 66 80 67 73 68 74 69 78 70 81 71 75 72
REMARK SMILES IDX 76 73 79 74 77 75 11 76 12 77 13 78 14 79 15 80 16 81 17 82
REMARK SMILES IDX 18 83 19 84 23 85 20 86 22 87 21 88 24 89 25 90 26 91 27 93
REMARK SMILES IDX 28 94 44 95 29 96 43 97 30 98 31 99 32 100 33 101 34 102
REMARK SMILES IDX 35 103 42 104 36 105 37 106 41 107 38 108 40 109 39 110
REMARK H PARENT 101 28 69 39 26 92
REMARK Flexibility Score: inf
ROOT
ATOM      1  C   UNL A   1      36.191  32.088  39.809  1.00  0.00     0.188 C 
ENDROOT
BRANCH   1   2
ATOM      2  O   UNL A   1      36.018  32.791  38.534  1.00  0.00    -0.377 OA
BRANCH   2   3
ATOM      3  C   UNL A   1      37.127  33.274  37.735  1.00  0.00     0.188 C 
BRANCH   3   4
ATOM      4  C   UNL A   1      37.194  33.534  36.193  1.00  0.00     0.188 C 
BRANCH   4   5
ATOM      5  O   UNL A   1      36.018  33.350  35.425  1.00  0.00    -0.376 OA
BRANCH   5   6
ATOM      6  C   UNL A   1      35.593  34.485  34.667  1.00  0.00     0.202 C 
BRANCH   6   7
ATOM      7  C   UNL A   1      36.251  34.589  33.289  1.00  0.00     0.261 C 
BRANCH   7   8
ATOM      8  O   UNL A   1      35.342  34.207  32.247  1.00  0.00    -0.460 OA
BRANCH   8   9
ATOM      9  C   UNL A   1      35.417  33.098  31.471  1.00  0.00     0.338 C 
ATOM     10  O   UNL A   1      34.384  32.615  31.010  1.00  0.00    -0.246 OA
BRANCH   9  11
ATOM     11  C   UNL A   1      36.706  32.452  31.091  1.00  0.00     0.060 A 
ATOM     12  C   UNL A   1      37.575  31.845  31.999  1.00  0.00     0.016 A 
ATOM     13  C   UNL A   1      36.984  32.328  29.725  1.00  0.00     0.016 A 
ATOM     14  C   UNL A   1      38.720  31.168  31.572  1.00  0.00     0.010 A 
ATOM     15  C   UNL A   1      38.111  31.622  29.287  1.00  0.00     0.010 A 
ATOM     16  C   UNL A   1      38.998  31.047  30.213  1.00  0.00    -0.014 A 
BRANCH  16  17
ATOM     17  C   UNL A   1      40.281  30.457  29.758  1.00  0.00     0.031 A 
ATOM     18  C   UNL A   1      41.444  31.384  29.554  1.00  0.00     0.074 A 
ATOM     19  C   UNL A   1      40.434  29.132  29.568  1.00  0.00     0.049 A 
ATOM     20  N   UNL A   1      42.595  31.175  28.973  1.00  0.00    -0.248 NA
ATOM     21  C   UNL A   1      41.279  32.744  30.093  1.00  0.00     0.031 C 
ATOM     22  C   UNL A   1      39.441  28.104  29.878  1.00  0.00     0.029 A 
ATOM     23  N   UNL A   1      41.497  28.425  29.060  1.00  0.00    -0.354 N 
ATOM     24  C   UNL A   1      43.269  32.388  29.031  1.00  0.00     0.074 A 
ATOM     25  C   UNL A   1      42.398  33.329  29.699  1.00  0.00     0.031 C 
ATOM     26  C   UNL A   1      39.932  26.903  29.525  1.00  0.00     0.029 A 
ATOM     27  C   UNL A   1      41.231  27.086  28.894  1.00  0.00     0.049 A 
ATOM     28  H   UNL A   1      42.364  28.836  28.837  1.00  0.00     0.167 HD
ATOM     29  C   UNL A   1      44.502  32.686  28.557  1.00  0.00     0.037 A 
ATOM     30  C   UNL A   1      41.940  26.139  28.249  1.00  0.00     0.037 A 
ATOM     31  C   UNL A   1      45.358  31.728  27.912  1.00  0.00     0.049 A 
ATOM     32  C   UNL A   1      43.263  26.517  27.639  1.00  0.00     0.074 A 
ATOM     33  C   UNL A   1      46.616  31.913  27.371  1.00  0.00     0.029 A 
ATOM     34  N   UNL A   1      45.031  30.392  27.721  1.00  0.00    -0.354 N 
ATOM     35  N   UNL A   1      43.875  27.676  27.637  1.00  0.00    -0.248 NA
ATOM     36  C   UNL A   1      43.995  25.450  26.940  1.00  0.00     0.031 C 
ATOM     37  C   UNL A   1      47.024  30.704  26.797  1.00  0.00     0.029 A 
ATOM     38  C   UNL A   1      46.050  29.751  27.041  1.00  0.00     0.049 A 
ATOM     39  H   UNL A   1      44.198  29.965  28.026  1.00  0.00     0.167 HD
ATOM     40  C   UNL A   1      45.069  27.471  26.963  1.00  0.00     0.074 A 
ATOM     41  C   UNL A   1      45.106  26.075  26.585  1.00  0.00     0.031 C 
ATOM     42  C   UNL A   1      46.052  28.358  26.679  1.00  0.00     0.037 A 
BRANCH  29  43
ATOM     43  C   UNL A   1      44.936  34.120  28.642  1.00  0.00     0.064 A 
ATOM     44  C   UNL A   1      44.800  35.013  27.568  1.00  0.00     0.173 A 
ATOM     45  C   UNL A   1      45.554  34.591  29.811  1.00  0.00     0.173 A 
ATOM     46  F   UNL A   1      44.240  34.609  26.418  1.00  0.00    -0.203 F 
ATOM     47  C   UNL A   1      45.318  36.305  27.643  1.00  0.00     0.198 A 
ATOM     48  C   UNL A   1      46.036  35.894  29.894  1.00  0.00     0.198 A 
ATOM     49  F   UNL A   1      45.709  33.780  30.869  1.00  0.00    -0.203 F 
ATOM     50  F   UNL A   1      45.257  37.111  26.573  1.00  0.00    -0.200 F 
ATOM     51  C   UNL A   1      45.933  36.745  28.806  1.00  0.00     0.200 A 
ATOM     52  F   UNL A   1      46.623  36.318  31.022  1.00  0.00    -0.200 F 
ATOM     53  F   UNL A   1      46.446  37.981  28.868  1.00  0.00    -0.200 F 
ENDBRANCH  29  43
BRANCH  30  54
ATOM     54  C   UNL A   1      41.403  24.774  28.010  1.00  0.00     0.064 A 
ATOM     55  C   UNL A   1      42.024  23.640  28.553  1.00  0.00     0.173 A 
ATOM     56  C   UNL A   1      40.356  24.573  27.099  1.00  0.00     0.173 A 
ATOM     57  F   UNL A   1      43.048  23.780  29.407  1.00  0.00    -0.203 F 
ATOM     58  C   UNL A   1      41.652  22.359  28.151  1.00  0.00     0.198 A 
ATOM     59  C   UNL A   1      39.961  23.290  26.725  1.00  0.00     0.198 A 
ATOM     60  F   UNL A   1      39.714  25.623  26.568  1.00  0.00    -0.203 F 
ATOM     61  F   UNL A   1      42.271  21.288  28.669  1.00  0.00    -0.200 F 
ATOM     62  C   UNL A   1      40.629  22.185  27.230  1.00  0.00     0.200 A 
ATOM     63  F   UNL A   1      38.913  23.124  25.907  1.00  0.00    -0.200 F 
ATOM     64  F   UNL A   1      40.222  20.949  26.904  1.00  0.00    -0.200 F 
ENDBRANCH  30  54
BRANCH  42  65
ATOM     65  C   UNL A   1      47.253  27.825  25.961  1.00  0.00     0.064 A 
ATOM     66  C   UNL A   1      48.379  27.357  26.653  1.00  0.00     0.173 A 
ATOM     67  C   UNL A   1      47.260  27.760  24.560  1.00  0.00     0.173 A 
ATOM     68  F   UNL A   1      48.429  27.429  27.991  1.00  0.00    -0.203 F 
ATOM     69  C   UNL A   1      49.480  26.859  25.964  1.00  0.00     0.198 A 
ATOM     70  C   UNL A   1      48.348  27.229  23.877  1.00  0.00     0.198 A 
ATOM     71  F   UNL A   1      46.206  28.201  23.857  1.00  0.00    -0.203 F 
ATOM     72  F   UNL A   1      50.568  26.463  26.640  1.00  0.00    -0.200 F 
ATOM     73  C   UNL A   1      49.459  26.784  24.578  1.00  0.00     0.200 A 
ATOM     74  F   UNL A   1      48.321  27.147  22.541  1.00  0.00    -0.200 F 
ATOM     75  F   UNL A   1      50.515  26.290  23.917  1.00  0.00    -0.200 F 
ENDBRANCH  42  65
ENDBRANCH  16  17
ENDBRANCH   9  11
ENDBRANCH   8   9
ENDBRANCH   7   8
ENDBRANCH   6   7
ENDBRANCH   5   6
ENDBRANCH   4   5
ENDBRANCH   3   4
ENDBRANCH   2   3
ENDBRANCH   1   2
BRANCH   1  76
ATOM     76  C   UNL A   1      37.211  32.649  41.499  1.00  0.00     0.188 C 
BRANCH  76  77
ATOM     77  O   UNL A   1      39.208  33.128  41.190  1.00  0.00    -0.376 OA
BRANCH  77  78
ATOM     78  C   UNL A   1      39.693  33.685  39.463  1.00  0.00     0.202 C 
BRANCH  78  79
ATOM     79  C   UNL A   1      40.943  32.588  38.500  1.00  0.00     0.261 C 
BRANCH  79  80
ATOM     80  O   UNL A   1      41.453  33.050  36.896  1.00  0.00    -0.463 OA
BRANCH  80  81
ATOM     81  C   UNL A   1      42.316  32.476  35.912  1.00  0.00     0.310 C 
ATOM     82  O   UNL A   1      43.514  32.337  36.178  1.00  0.00    -0.252 OA
BRANCH  81  83
ATOM     83  C   UNL A   1      41.677  31.882  34.362  1.00  0.00     0.116 C 
ATOM     84  C   UNL A   1      42.366  32.781  33.292  1.00  0.00     0.043 C 
ATOM     85  C   UNL A   1      41.563  30.242  33.517  1.00  0.00     0.097 C 
ATOM     86  C   UNL A   1      43.650  32.216  32.767  1.00  0.00    -0.030 C 
ATOM     87  C   UNL A   1      42.761  29.893  32.604  1.00  0.00     0.041 C 
ATOM     88  C   UNL A   1      43.816  30.927  32.459  1.00  0.00    -0.030 C 
BRANCH  85  89
ATOM     89  C   UNL A   1      40.847  28.600  33.904  1.00  0.00     0.228 C 
ATOM     90  O   UNL A   1      39.796  28.319  33.300  1.00  0.00    -0.274 OA
ATOM     91  N   UNL A   1      41.332  27.516  34.782  1.00  0.00    -0.326 N 
ATOM     92  H   UNL A   1      40.733  26.735  34.762  1.00  0.00     0.169 HD
BRANCH  91  93
ATOM     93  C   UNL A   1      42.643  27.269  35.804  1.00  0.00     0.041 A 
ATOM     94  C   UNL A   1      43.354  26.196  34.668  1.00  0.00     0.027 A 
ATOM     95  C   UNL A   1      43.643  28.748  36.352  1.00  0.00     0.027 A 
ATOM     96  C   UNL A   1      44.723  26.575  33.794  1.00  0.00     0.024 A 
ATOM     97  C   UNL A   1      45.184  29.137  35.218  1.00  0.00     0.024 A 
ATOM     98  C   UNL A   1      45.649  27.961  34.028  1.00  0.00     0.088 A 
BRANCH  98  99
ATOM     99  S   UNL A   1      47.403  27.487  34.052  1.00  0.00     0.264 S 
ATOM    100  O   UNL A   1      47.881  27.940  35.348  1.00  0.00    -0.201 OA
ATOM    101  O   UNL A   1      47.475  26.086  33.696  1.00  0.00    -0.201 OA
BRANCH  99 102
ATOM    102  N   UNL A   1      48.172  28.486  32.759  1.00  0.00    -0.266 N 
ATOM    103  C   UNL A   1      47.330  29.738  32.502  1.00  0.00     0.140 C 
ATOM    104  C   UNL A   1      48.097  27.737  31.527  1.00  0.00     0.055 A 
ATOM    105  C   UNL A   1      46.597  29.509  31.163  1.00  0.00     0.060 C 
ATOM    106  C   UNL A   1      46.934  28.093  30.869  1.00  0.00    -0.022 A 
ATOM    107  C   UNL A   1      48.766  26.555  31.270  1.00  0.00     0.027 A 
ATOM    108  C   UNL A   1      46.206  27.125  30.226  1.00  0.00     0.006 A 
ATOM    109  C   UNL A   1      48.065  25.583  30.580  1.00  0.00     0.002 A 
ATOM    110  C   UNL A   1      46.755  25.848  30.160  1.00  0.00     0.000 A 
ENDBRANCH  99 102
ENDBRANCH  98  99
ENDBRANCH  91  93
ENDBRANCH  85  89
ENDBRANCH  81  83
ENDBRANCH  80  81
ENDBRANCH  79  80
ENDBRANCH  78  79
ENDBRANCH  77  78
ENDBRANCH  76  77
ENDBRANCH   1  76
TORSDOF 24
ENDMDL
MODEL 2
REMARK VINA RESULT:      -9.7      5.372     11.139
REMARK SMILES O=C(OCCOCCOCCOCCOC(=O)[C@H]1CC=CC[C@H]1C(=O)Nc1ccc(S(=O)(=O)N2CCc3ccccc32)cc1)c1ccc(-c2c3nc(c(-c4c(F)c(F)c(F)c(F)c4F)c4ccc([nH]4)c(-c4c(F)c(F)c(F)c(F)c4F)c4nc(c(-c5c(F)c(F)c(F)c(F)c5F)c5ccc2[nH]5)C=C4)C=C3)cc1
REMARK SMILES IDX 10 1 9 2 8 3 7 4 6 5 5 6 4 7 3 8 2 9 1 10 45 11 46 12 107 13
REMARK SMILES IDX 47 14 106 15 48 16 49 17 50 18 100 19 51 20 105 21 99 22
REMARK SMILES IDX 101 23 52 24 104 25 98 26 97 27 53 29 85 30 65 31 84 32
REMARK SMILES IDX 66 33 69 34 83 35 102 36 67 37 68 38 82 40 103 41 70 42
REMARK SMILES IDX 54 43 55 44 63 45 56 46 57 47 61 48 64 49 58 50 59 51 62 52
REMARK SMILES IDX 60 53 86 54 87 55 95 56 88 57 89 58 93 59 96 60 90 61 91 62
REMARK SMILES IDX 94 63 92 64 71 65 72 66 80 67 73 68 74 69 78 70 81 71 75 72
REMARK SMILES IDX 76 73 79 74 77 75 11 76 12 77 13 78 14 79 15 80 16 81 17 82
REMARK SMILES IDX 18 83 19 84 23 85 20 86 22 87 21 88 24 89 25 90 26 91 27 93
REMARK SMILES IDX 28 94 44 95 29 96 43 97 30 98 31 99 32 100 33 101 34 102
REMARK SMILES IDX 35 103 42 104 36 105 37 106 41 107 38 108 40 109 39 110
REMARK H PARENT 101 28 69 39 26 92
REMARK Flexibility Score: inf
ROOT
ATOM      1  C   UNL A   1      39.303  26.756  29.666  1.00  0.00     0.188 C 
ENDROOT
BRANCH   1   2
ATOM      2  O   UNL A   1      38.499  27.540  30.609  1.00  0.00    -0.377 OA
BRANCH   2   3
ATOM      3  C   UNL A   1      37.982  28.860  30.306  1.00  0.00     0.188 C 
BRANCH   3   4
ATOM      4  C   UNL A   1      37.802  29.555  28.915  1.00  0.00     0.188 C 
BRANCH   4   5
ATOM      5  O   UNL A   1      36.581  29.369  28.220  1.00  0.00    -0.376 OA
BRANCH   5   6
ATOM      6  C   UNL A   1      35.737  30.520  28.137  1.00  0.00     0.202 C 
BRANCH   6   7
ATOM      7  C   UNL A   1      36.497  31.848  28.189  1.00  0.00     0.261 C 
BRANCH   7   8
ATOM      8  O   UNL A   1      35.913  32.745  29.143  1.00  0.00    -0.460 OA
BRANCH   8   9
ATOM      9  C   UNL A   1      35.663  32.490  30.450  1.00  0.00     0.338 C 
ATOM     10  O   UNL A   1      34.500  32.466  30.847  1.00  0.00    -0.246 OA
BRANCH   9  11
ATOM     11  C   UNL A   1      36.732  32.174  31.440  1.00  0.00     0.060 A 
ATOM     12  C   UNL A   1      38.036  32.667  31.368  1.00  0.00     0.016 A 
ATOM     13  C   UNL A   1      36.360  31.455  32.582  1.00  0.00     0.016 A 
ATOM     14  C   UNL A   1      38.968  32.418  32.379  1.00  0.00     0.010 A 
ATOM     15  C   UNL A   1      37.277  31.231  33.615  1.00  0.00     0.010 A 
ATOM     16  C   UNL A   1      38.597  31.701  33.513  1.00  0.00    -0.014 A 
BRANCH  16  17
ATOM     17  C   UNL A   1      39.615  31.311  34.521  1.00  0.00     0.031 A 
ATOM     18  C   UNL A   1      39.876  32.261  35.654  1.00  0.00     0.074 A 
ATOM     19  C   UNL A   1      40.264  30.132  34.465  1.00  0.00     0.049 A 
ATOM     20  N   UNL A   1      40.838  32.271  36.537  1.00  0.00    -0.248 NA
ATOM     21  C   UNL A   1      38.902  33.353  35.810  1.00  0.00     0.031 C 
ATOM     22  C   UNL A   1      39.997  29.053  33.515  1.00  0.00     0.029 A 
ATOM     23  N   UNL A   1      41.294  29.649  35.236  1.00  0.00    -0.354 N 
ATOM     24  C   UNL A   1      40.614  33.395  37.321  1.00  0.00     0.074 A 
ATOM     25  C   UNL A   1      39.430  34.046  36.806  1.00  0.00     0.031 C 
ATOM     26  C   UNL A   1      40.862  28.049  33.741  1.00  0.00     0.029 A 
ATOM     27  C   UNL A   1      41.789  28.445  34.791  1.00  0.00     0.049 A 
ATOM     28  H   UNL A   1      41.643  30.117  36.029  1.00  0.00     0.167 HD
ATOM     29  C   UNL A   1      41.343  33.846  38.369  1.00  0.00     0.037 A 
ATOM     30  C   UNL A   1      42.902  27.781  35.159  1.00  0.00     0.037 A 
ATOM     31  C   UNL A   1      42.508  33.173  38.875  1.00  0.00     0.049 A 
ATOM     32  C   UNL A   1      43.755  28.354  36.259  1.00  0.00     0.074 A 
ATOM     33  C   UNL A   1      43.341  33.541  39.914  1.00  0.00     0.029 A 
ATOM     34  N   UNL A   1      43.003  31.980  38.365  1.00  0.00    -0.354 N 
ATOM     35  N   UNL A   1      43.581  29.448  36.959  1.00  0.00    -0.248 NA
ATOM     36  C   UNL A   1      44.962  27.595  36.620  1.00  0.00     0.031 C 
ATOM     37  C   UNL A   1      44.377  32.604  39.993  1.00  0.00     0.029 A 
ATOM     38  C   UNL A   1      44.151  31.617  39.047  1.00  0.00     0.049 A 
ATOM     39  H   UNL A   1      42.598  31.469  37.628  1.00  0.00     0.167 HD
ATOM     40  C   UNL A   1      44.638  29.495  37.855  1.00  0.00     0.074 A 
ATOM     41  C   UNL A   1      45.439  28.312  37.624  1.00  0.00     0.031 C 
ATOM     42  C   UNL A   1      44.924  30.432  38.789  1.00  0.00     0.037 A 
BRANCH  29  43
ATOM     43  C   UNL A   1      40.944  35.168  38.957  1.00  0.00     0.064 A 
ATOM     44  C   UNL A   1      41.667  36.347  38.721  1.00  0.00     0.173 A 
ATOM     45  C   UNL A   1      39.843  35.239  39.824  1.00  0.00     0.173 A 
ATOM     46  F   UNL A   1      42.744  36.332  37.921  1.00  0.00    -0.203 F 
ATOM     47  C   UNL A   1      41.336  37.532  39.374  1.00  0.00     0.198 A 
ATOM     48  C   UNL A   1      39.493  36.434  40.446  1.00  0.00     0.198 A 
ATOM     49  F   UNL A   1      39.115  34.143  40.086  1.00  0.00    -0.203 F 
ATOM     50  F   UNL A   1      42.095  38.624  39.202  1.00  0.00    -0.200 F 
ATOM     51  C   UNL A   1      40.249  37.576  40.234  1.00  0.00     0.200 A 
ATOM     52  F   UNL A   1      38.436  36.474  41.270  1.00  0.00    -0.200 F 
ATOM     53  F   UNL A   1      39.944  38.712  40.875  1.00  0.00    -0.200 F 
ENDBRANCH  29  43
BRANCH  30  54
ATOM     54  C   UNL A   1      43.380  26.576  34.433  1.00  0.00     0.064 A 
ATOM     55  C   UNL A   1      42.872  25.301  34.720  1.00  0.00     0.173 A 
ATOM     56  C   UNL A   1      44.472  26.663  33.557  1.00  0.00     0.173 A 
ATOM     57  F   UNL A   1      41.847  25.163  35.574  1.00  0.00    -0.203 F 
ATOM     58  C   UNL A   1      43.473  24.157  34.200  1.00  0.00     0.198 A 
ATOM     59  C   UNL A   1      45.050  25.519  33.009  1.00  0.00     0.198 A 
ATOM     60  F   UNL A   1      44.981  27.860  33.232  1.00  0.00    -0.203 F 
ATOM     61  F   UNL A   1      42.984  22.946  34.502  1.00  0.00    -0.200 F 
ATOM     62  C   UNL A   1      44.568  24.266  33.353  1.00  0.00     0.200 A 
ATOM     63  F   UNL A   1      46.046  25.633  32.120  1.00  0.00    -0.200 F 
ATOM     64  F   UNL A   1      45.095  23.168  32.794  1.00  0.00    -0.200 F 
ENDBRANCH  30  54
BRANCH  42  65
ATOM     65  C   UNL A   1      46.129  30.185  39.643  1.00  0.00     0.064 A 
ATOM     66  C   UNL A   1      46.070  29.377  40.787  1.00  0.00     0.173 A 
ATOM     67  C   UNL A   1      47.365  30.748  39.291  1.00  0.00     0.173 A 
ATOM     68  F   UNL A   1      44.904  28.843  41.179  1.00  0.00    -0.203 F 
ATOM     69  C   UNL A   1      47.205  29.155  41.560  1.00  0.00     0.198 A 
ATOM     70  C   UNL A   1      48.504  30.496  40.047  1.00  0.00     0.198 A 
ATOM     71  F   UNL A   1      47.467  31.532  38.208  1.00  0.00    -0.203 F 
ATOM     72  F   UNL A   1      47.119  28.421  42.678  1.00  0.00    -0.200 F 
ATOM     73  C   UNL A   1      48.423  29.705  41.183  1.00  0.00     0.200 A 
ATOM     74  F   UNL A   1      49.680  31.017  39.676  1.00  0.00    -0.200 F 
ATOM     75  F   UNL A   1      49.517  29.478  41.922  1.00  0.00    -0.200 F 
ENDBRANCH  42  65
ENDBRANCH  16  17
ENDBRANCH   9  11
ENDBRANCH   8   9
ENDBRANCH   7   8
ENDBRANCH   6   7
ENDBRANCH   5   6
ENDBRANCH   4   5
ENDBRANCH   3   4
ENDBRANCH   2   3
ENDBRANCH   1   2
BRANCH   1  76
ATOM     76  C   UNL A   1      41.255  26.995  29.078  1.00  0.00     0.188 C 
BRANCH  76  77
ATOM     77  O   UNL A   1      41.564  28.505  27.684  1.00  0.00    -0.376 OA
BRANCH  77  78
ATOM     78  C   UNL A   1      43.055  28.327  26.554  1.00  0.00     0.202 C 
BRANCH  78  79
ATOM     79  C   UNL A   1      42.913  27.085  25.096  1.00  0.00     0.261 C 
BRANCH  79  80
ATOM     80  O   UNL A   1      44.122  25.844  24.888  1.00  0.00    -0.463 OA
BRANCH  80  81
ATOM     81  C   UNL A   1      45.452  25.645  25.374  1.00  0.00     0.310 C 
ATOM     82  O   UNL A   1      46.404  25.962  24.654  1.00  0.00    -0.252 OA
BRANCH  81  83
ATOM     83  C   UNL A   1      45.748  25.039  27.020  1.00  0.00     0.116 C 
ATOM     84  C   UNL A   1      46.853  25.982  27.584  1.00  0.00     0.043 C 
ATOM     85  C   UNL A   1      44.711  24.679  28.506  1.00  0.00     0.097 C 
ATOM     86  C   UNL A   1      46.313  27.170  28.318  1.00  0.00    -0.030 C 
ATOM     87  C   UNL A   1      44.547  25.859  29.491  1.00  0.00     0.041 C 
ATOM     88  C   UNL A   1      45.287  27.106  29.171  1.00  0.00    -0.030 C 
BRANCH  85  89
ATOM     89  C   UNL A   1      43.261  23.623  28.884  1.00  0.00     0.228 C 
ATOM     90  O   UNL A   1      43.255  23.110  30.019  1.00  0.00    -0.274 OA
ATOM     91  N   UNL A   1      42.058  23.309  28.088  1.00  0.00    -0.326 N 
ATOM     92  H   UNL A   1      41.437  22.725  28.580  1.00  0.00     0.169 HD
BRANCH  91  93
ATOM     93  C   UNL A   1      41.474  23.693  26.559  1.00  0.00     0.041 A 
ATOM     94  C   UNL A   1      41.128  22.040  26.253  1.00  0.00     0.027 A 
ATOM     95  C   UNL A   1      40.073  24.920  26.417  1.00  0.00     0.027 A 
ATOM     96  C   UNL A   1      39.574  21.438  26.166  1.00  0.00     0.024 A 
ATOM     97  C   UNL A   1      38.298  24.108  26.389  1.00  0.00     0.024 A 
ATOM     98  C   UNL A   1      38.183  22.384  26.208  1.00  0.00     0.088 A 
BRANCH  98  99
ATOM     99  S   UNL A   1      37.059  21.817  24.897  1.00  0.00     0.264 S 
ATOM    100  O   UNL A   1      36.950  22.954  23.999  1.00  0.00    -0.201 OA
ATOM    101  O   UNL A   1      37.565  20.550  24.416  1.00  0.00    -0.201 OA
BRANCH  99 102
ATOM    102  N   UNL A   1      35.472  21.567  25.724  1.00  0.00    -0.266 N 
ATOM    103  C   UNL A   1      34.745  20.374  25.099  1.00  0.00     0.140 C 
ATOM    104  C   UNL A   1      34.637  22.704  25.418  1.00  0.00     0.055 A 
ATOM    105  C   UNL A   1      33.609  20.956  24.233  1.00  0.00     0.060 C 
ATOM    106  C   UNL A   1      33.896  22.411  24.288  1.00  0.00    -0.022 A 
ATOM    107  C   UNL A   1      34.866  23.999  25.844  1.00  0.00     0.027 A 
ATOM    108  C   UNL A   1      33.692  23.391  23.350  1.00  0.00     0.006 A 
ATOM    109  C   UNL A   1      34.618  25.005  24.929  1.00  0.00     0.002 A 
ATOM    110  C   UNL A   1      34.133  24.675  23.657  1.00  0.00     0.000 A 
ENDBRANCH  99 102
ENDBRANCH  98  99
ENDBRANCH  91  93
ENDBRANCH  85  89
ENDBRANCH  81  83
ENDBRANCH  80  81
ENDBRANCH  79  80
ENDBRANCH  78  79
ENDBRANCH  77  78
ENDBRANCH  76  77
ENDBRANCH   1  76
TORSDOF 24
ENDMDL
MODEL 3
REMARK VINA RESULT:      -8.9      5.773     11.468
REMARK SMILES O=C(OCCOCCOCCOCCOC(=O)[C@H]1CC=CC[C@H]1C(=O)Nc1ccc(S(=O)(=O)N2CCc3ccccc32)cc1)c1ccc(-c2c3nc(c(-c4c(F)c(F)c(F)c(F)c4F)c4ccc([nH]4)c(-c4c(F)c(F)c(F)c(F)c4F)c4nc(c(-c5c(F)c(F)c(F)c(F)c5F)c5ccc2[nH]5)C=C4)C=C3)cc1
REMARK SMILES IDX 10 1 9 2 8 3 7 4 6 5 5 6 4 7 3 8 2 9 1 10 45 11 46 12 107 13
REMARK SMILES IDX 47 14 106 15 48 16 49 17 50 18 100 19 51 20 105 21 99 22
REMARK SMILES IDX 101 23 52 24 104 25 98 26 97 27 53 29 85 30 65 31 84 32
REMARK SMILES IDX 66 33 69 34 83 35 102 36 67 37 68 38 82 40 103 41 70 42
REMARK SMILES IDX 54 43 55 44 63 45 56 46 57 47 61 48 64 49 58 50 59 51 62 52
REMARK SMILES IDX 60 53 86 54 87 55 95 56 88 57 89 58 93 59 96 60 90 61 91 62
REMARK SMILES IDX 94 63 92 64 71 65 72 66 80 67 73 68 74 69 78 70 81 71 75 72
REMARK SMILES IDX 76 73 79 74 77 75 11 76 12 77 13 78 14 79 15 80 16 81 17 82
REMARK SMILES IDX 18 83 19 84 23 85 20 86 22 87 21 88 24 89 25 90 26 91 27 93
REMARK SMILES IDX 28 94 44 95 29 96 43 97 30 98 31 99 32 100 33 101 34 102
REMARK SMILES IDX 35 103 42 104 36 105 37 106 41 107 38 108 40 109 39 110
REMARK H PARENT 101 28 69 39 26 92
REMARK Flexibility Score: inf
ROOT
ATOM      1  C   UNL A   1      38.303  27.889  31.832  1.00  0.00     0.188 C 
ENDROOT
BRANCH   1   2
ATOM      2  O   UNL A   1      37.395  28.707  32.642  1.00  0.00    -0.377 OA
BRANCH   2   3
ATOM      3  C   UNL A   1      36.982  30.044  32.266  1.00  0.00     0.188 C 
BRANCH   3   4
ATOM      4  C   UNL A   1      37.117  30.768  30.885  1.00  0.00     0.188 C 
BRANCH   4   5
ATOM      5  O   UNL A   1      36.010  30.747  29.999  1.00  0.00    -0.376 OA
BRANCH   5   6
ATOM      6  C   UNL A   1      35.284  31.973  29.892  1.00  0.00     0.202 C 
BRANCH   6   7
ATOM      7  C   UNL A   1      36.176  33.214  29.805  1.00  0.00     0.261 C 
BRANCH   7   8
ATOM      8  O   UNL A   1      35.772  34.214  30.751  1.00  0.00    -0.460 OA
BRANCH   8   9
ATOM      9  C   UNL A   1      35.619  34.052  32.088  1.00  0.00     0.338 C 
ATOM     10  O   UNL A   1      34.497  34.148  32.581  1.00  0.00    -0.246 OA
BRANCH   9  11
ATOM     11  C   UNL A   1      36.743  33.701  33.002  1.00  0.00     0.060 A 
ATOM     12  C   UNL A   1      38.084  33.985  32.739  1.00  0.00     0.016 A 
ATOM     13  C   UNL A   1      36.411  33.185  34.260  1.00  0.00     0.016 A 
ATOM     14  C   UNL A   1      39.084  33.722  33.678  1.00  0.00     0.010 A 
ATOM     15  C   UNL A   1      37.403  32.952  35.220  1.00  0.00     0.010 A 
ATOM     16  C   UNL A   1      38.754  33.206  34.929  1.00  0.00    -0.014 A 
BRANCH  16  17
ATOM     17  C   UNL A   1      39.819  32.792  35.875  1.00  0.00     0.031 A 
ATOM     18  C   UNL A   1      40.203  33.756  36.960  1.00  0.00     0.074 A 
ATOM     19  C   UNL A   1      40.406  31.582  35.810  1.00  0.00     0.049 A 
ATOM     20  N   UNL A   1      41.224  33.741  37.776  1.00  0.00    -0.248 NA
ATOM     21  C   UNL A   1      39.296  34.899  37.151  1.00  0.00     0.031 C 
ATOM     22  C   UNL A   1      40.023  30.493  34.911  1.00  0.00     0.029 A 
ATOM     23  N   UNL A   1      41.463  31.067  36.522  1.00  0.00    -0.354 N 
ATOM     24  C   UNL A   1      41.108  34.895  38.540  1.00  0.00     0.074 A 
ATOM     25  C   UNL A   1      39.923  35.590  38.089  1.00  0.00     0.031 C 
ATOM     26  C   UNL A   1      40.852  29.453  35.107  1.00  0.00     0.029 A 
ATOM     27  C   UNL A   1      41.868  29.830  36.080  1.00  0.00     0.049 A 
ATOM     28  H   UNL A   1      41.888  31.538  37.276  1.00  0.00     0.167 HD
ATOM     29  C   UNL A   1      41.929  35.336  39.522  1.00  0.00     0.037 A 
ATOM     30  C   UNL A   1      42.971  29.121  36.390  1.00  0.00     0.037 A 
ATOM     31  C   UNL A   1      43.093  34.618  39.967  1.00  0.00     0.049 A 
ATOM     32  C   UNL A   1      43.925  29.679  37.412  1.00  0.00     0.074 A 
ATOM     33  C   UNL A   1      44.012  34.971  40.937  1.00  0.00     0.029 A 
ATOM     34  N   UNL A   1      43.494  33.391  39.459  1.00  0.00    -0.354 N 
ATOM     35  N   UNL A   1      43.852  30.798  38.091  1.00  0.00    -0.248 NA
ATOM     36  C   UNL A   1      45.116  28.871  37.712  1.00  0.00     0.031 C 
ATOM     37  C   UNL A   1      45.006  33.987  40.971  1.00  0.00     0.029 A 
ATOM     38  C   UNL A   1      44.667  32.989  40.072  1.00  0.00     0.049 A 
ATOM     39  H   UNL A   1      43.015  32.881  38.766  1.00  0.00     0.167 HD
ATOM     40  C   UNL A   1      44.969  30.815  38.912  1.00  0.00     0.074 A 
ATOM     41  C   UNL A   1      45.695  29.588  38.661  1.00  0.00     0.031 C 
ATOM     42  C   UNL A   1      45.364  31.760  39.796  1.00  0.00     0.037 A 
BRANCH  29  43
ATOM     43  C   UNL A   1      41.635  36.690  40.098  1.00  0.00     0.064 A 
ATOM     44  C   UNL A   1      42.149  37.872  39.544  1.00  0.00     0.173 A 
ATOM     45  C   UNL A   1      40.866  36.796  41.268  1.00  0.00     0.173 A 
ATOM     46  F   UNL A   1      42.912  37.827  38.441  1.00  0.00    -0.203 F 
ATOM     47  C   UNL A   1      41.951  39.101  40.170  1.00  0.00     0.198 A 
ATOM     48  C   UNL A   1      40.639  38.031  41.869  1.00  0.00     0.198 A 
ATOM     49  F   UNL A   1      40.349  35.699  41.841  1.00  0.00    -0.203 F 
ATOM     50  F   UNL A   1      42.526  40.205  39.672  1.00  0.00    -0.200 F 
ATOM     51  C   UNL A   1      41.195  39.180  41.331  1.00  0.00     0.200 A 
ATOM     52  F   UNL A   1      39.901  38.104  42.986  1.00  0.00    -0.200 F 
ATOM     53  F   UNL A   1      41.021  40.360  41.940  1.00  0.00    -0.200 F 
ENDBRANCH  29  43
BRANCH  30  54
ATOM     54  C   UNL A   1      43.340  27.875  35.668  1.00  0.00     0.064 A 
ATOM     55  C   UNL A   1      44.287  27.884  34.635  1.00  0.00     0.173 A 
ATOM     56  C   UNL A   1      42.626  26.689  35.893  1.00  0.00     0.173 A 
ATOM     57  F   UNL A   1      44.973  29.003  34.362  1.00  0.00    -0.203 F 
ATOM     58  C   UNL A   1      44.466  26.768  33.819  1.00  0.00     0.198 A 
ATOM     59  C   UNL A   1      42.834  25.562  35.099  1.00  0.00     0.198 A 
ATOM     60  F   UNL A   1      41.726  26.621  36.884  1.00  0.00    -0.203 F 
ATOM     61  F   UNL A   1      45.364  26.803  32.824  1.00  0.00    -0.200 F 
ATOM     62  C   UNL A   1      43.733  25.612  34.046  1.00  0.00     0.200 A 
ATOM     63  F   UNL A   1      42.191  24.419  35.379  1.00  0.00    -0.200 F 
ATOM     64  F   UNL A   1      43.964  24.516  33.309  1.00  0.00    -0.200 F 
ENDBRANCH  30  54
BRANCH  42  65
ATOM     65  C   UNL A   1      46.612  31.476  40.573  1.00  0.00     0.064 A 
ATOM     66  C   UNL A   1      47.871  31.902  40.128  1.00  0.00     0.173 A 
ATOM     67  C   UNL A   1      46.537  30.790  41.794  1.00  0.00     0.173 A 
ATOM     68  F   UNL A   1      47.995  32.535  38.952  1.00  0.00    -0.203 F 
ATOM     69  C   UNL A   1      49.016  31.634  40.871  1.00  0.00     0.198 A 
ATOM     70  C   UNL A   1      47.679  30.554  42.550  1.00  0.00     0.198 A 
ATOM     71  F   UNL A   1      45.354  30.359  42.256  1.00  0.00    -0.203 F 
ATOM     72  F   UNL A   1      50.217  32.005  40.405  1.00  0.00    -0.200 F 
ATOM     73  C   UNL A   1      48.918  30.971  42.087  1.00  0.00     0.200 A 
ATOM     74  F   UNL A   1      47.581  29.925  43.728  1.00  0.00    -0.200 F 
ATOM     75  F   UNL A   1      50.020  30.727  42.808  1.00  0.00    -0.200 F 
ENDBRANCH  42  65
ENDBRANCH  16  17
ENDBRANCH   9  11
ENDBRANCH   8   9
ENDBRANCH   7   8
ENDBRANCH   6   7
ENDBRANCH   5   6
ENDBRANCH   4   5
ENDBRANCH   3   4
ENDBRANCH   2   3
ENDBRANCH   1   2
BRANCH   1  76
ATOM     76  C   UNL A   1      40.172  28.318  31.101  1.00  0.00     0.188 C 
BRANCH  76  77
ATOM     77  O   UNL A   1      40.202  29.687  29.538  1.00  0.00    -0.376 OA
BRANCH  77  78
ATOM     78  C   UNL A   1      41.558  29.483  28.254  1.00  0.00     0.202 C 
BRANCH  78  79
ATOM     79  C   UNL A   1      41.204  28.307  26.776  1.00  0.00     0.261 C 
BRANCH  79  80
ATOM     80  O   UNL A   1      42.527  27.525  25.948  1.00  0.00    -0.463 OA
BRANCH  80  81
ATOM     81  C   UNL A   1      43.944  27.486  26.132  1.00  0.00     0.310 C 
ATOM     82  O   UNL A   1      44.663  28.143  25.372  1.00  0.00    -0.252 OA
BRANCH  81  83
ATOM     83  C   UNL A   1      44.672  26.585  27.482  1.00  0.00     0.116 C 
ATOM     84  C   UNL A   1      45.473  27.662  28.275  1.00  0.00     0.043 C 
ATOM     85  C   UNL A   1      44.053  25.464  28.814  1.00  0.00     0.097 C 
ATOM     86  C   UNL A   1      44.688  28.309  29.373  1.00  0.00    -0.030 C 
ATOM     87  C   UNL A   1      43.658  26.169  30.132  1.00  0.00     0.041 C 
ATOM     88  C   UNL A   1      43.884  27.635  30.200  1.00  0.00    -0.030 C 
BRANCH  85  89
ATOM     89  C   UNL A   1      43.112  23.893  28.890  1.00  0.00     0.228 C 
ATOM     90  O   UNL A   1      43.275  23.221  29.926  1.00  0.00    -0.274 OA
ATOM     91  N   UNL A   1      42.142  23.298  27.949  1.00  0.00    -0.326 N 
ATOM     92  H   UNL A   1      41.781  22.447  28.285  1.00  0.00     0.169 HD
BRANCH  91  93
ATOM     93  C   UNL A   1      41.493  23.702  26.452  1.00  0.00     0.041 A 
ATOM     94  C   UNL A   1      41.158  22.049  26.128  1.00  0.00     0.027 A 
ATOM     95  C   UNL A   1      40.070  24.910  26.387  1.00  0.00     0.027 A 
ATOM     96  C   UNL A   1      39.610  21.427  26.090  1.00  0.00     0.024 A 
ATOM     97  C   UNL A   1      38.307  24.073  26.413  1.00  0.00     0.024 A 
ATOM     98  C   UNL A   1      38.209  22.352  26.205  1.00  0.00     0.088 A 
BRANCH  98  99
ATOM     99  S   UNL A   1      37.042  21.792  24.929  1.00  0.00     0.264 S 
ATOM    100  O   UNL A   1      36.995  22.890  23.977  1.00  0.00    -0.201 OA
ATOM    101  O   UNL A   1      37.467  20.475  24.505  1.00  0.00    -0.201 OA
BRANCH  99 102
ATOM    102  N   UNL A   1      35.450  21.678  25.774  1.00  0.00    -0.266 N 
ATOM    103  C   UNL A   1      34.717  20.409  25.331  1.00  0.00     0.140 C 
ATOM    104  C   UNL A   1      34.624  22.761  25.298  1.00  0.00     0.055 A 
ATOM    105  C   UNL A   1      33.590  20.862  24.381  1.00  0.00     0.060 C 
ATOM    106  C   UNL A   1      33.887  22.308  24.220  1.00  0.00    -0.022 A 
ATOM    107  C   UNL A   1      34.860  24.105  25.527  1.00  0.00     0.027 A 
ATOM    108  C   UNL A   1      33.693  23.137  23.145  1.00  0.00     0.006 A 
ATOM    109  C   UNL A   1      34.624  24.964  24.470  1.00  0.00     0.002 A 
ATOM    110  C   UNL A   1      34.142  24.450  23.259  1.00  0.00     0.000 A 
ENDBRANCH  99 102
ENDBRANCH  98  99
ENDBRANCH  91  93
ENDBRANCH  85  89
ENDBRANCH  81  83
ENDBRANCH  80  81
ENDBRANCH  79  80
ENDBRANCH  78  79
ENDBRANCH  77  78
ENDBRANCH  76  77
ENDBRANCH   1  76
TORSDOF 24
ENDMDL
