MODEL 1
REMARK VINA RESULT:      -8.8      0.000      0.000
REMARK SMILES COC(=O)[C@@H]1[C@@H](NC(=O)COCC(=O)OCCOCCOCCOCCOC(=O)c2ccc(-c3c4nc(c(-c5c(F)c(F)c(F)c(F)c5F)c5ccc([nH]5)c(-c5c(F)c(F)c(F)c(F)c5F)c5nc(c(-c6c(F)c(F)c(F)c(F)c6F)c6ccc3[nH]6)C=C5)C=C4)cc2)CCN1C(C)=O
REMARK SMILES IDX 19 1 18 2 17 3 16 4 15 5 13 6 14 7 12 8 11 9 10 10 8 11 7 12
REMARK SMILES IDX 9 14 6 15 5 16 95 17 93 18 94 19 3 20 4 21 2 22 1 23 96 24
REMARK SMILES IDX 97 25 98 26 20 27 21 28 22 29 23 30 24 31 25 32 26 33 27 34
REMARK SMILES IDX 28 35 29 36 30 37 31 38 92 39 32 40 91 41 33 42 34 43 35 44
REMARK SMILES IDX 85 45 36 46 90 47 84 48 86 49 37 50 89 51 83 52 82 53 38 55
REMARK SMILES IDX 70 56 50 57 69 58 51 59 54 60 68 61 87 62 52 63 53 64 67 66
REMARK SMILES IDX 88 67 55 68 39 69 40 70 48 71 41 72 42 73 46 74 49 75 43 76
REMARK SMILES IDX 44 77 47 78 45 79 71 80 72 81 80 82 73 83 74 84 78 85 81 86
REMARK SMILES IDX 75 87 76 88 79 89 77 90 56 91 57 92 65 93 58 94 59 95 63 96
REMARK SMILES IDX 66 97 60 98 61 99 64 100 62 101
REMARK H PARENT 7 13 86 54 54 65
REMARK Flexibility Score: inf
ROOT
ATOM      1  C   UNL A   1      33.158  23.246  22.788  1.00  0.00     0.188 C 
ENDROOT
BRANCH   1   2
ATOM      2  O   UNL A   1      31.827  22.726  22.889  1.00  0.00    -0.376 OA
BRANCH   2   3
ATOM      3  C   UNL A   1      30.881  23.489  23.634  1.00  0.00     0.202 C 
BRANCH   3   4
ATOM      4  C   UNL A   1      30.653  23.083  25.101  1.00  0.00     0.261 C 
BRANCH   4   5
ATOM      5  O   UNL A   1      31.074  24.054  26.079  1.00  0.00    -0.462 OA
BRANCH   5   6
ATOM      6  C   UNL A   1      32.250  23.788  26.713  1.00  0.00     0.332 C 
ATOM      7  O   UNL A   1      32.391  22.940  27.590  1.00  0.00    -0.250 OA
BRANCH   6   8
ATOM      8  C   UNL A   1      33.441  24.633  26.201  1.00  0.00     0.283 C 
BRANCH   8   9
ATOM      9  O   UNL A   1      33.300  25.794  25.393  1.00  0.00    -0.360 OA
BRANCH   9  10
ATOM     10  C   UNL A   1      32.925  26.935  26.135  1.00  0.00     0.260 C 
BRANCH  10  11
ATOM     11  C   UNL A   1      33.532  28.293  25.779  1.00  0.00     0.246 C 
ATOM     12  N   UNL A   1      32.828  29.268  25.148  1.00  0.00    -0.349 N 
ATOM     13  H   UNL A   1      33.407  29.928  24.703  1.00  0.00     0.163 HD
ATOM     14  O   UNL A   1      34.730  28.510  25.991  1.00  0.00    -0.272 OA
BRANCH  12  15
ATOM     15  C   UNL A   1      31.403  29.562  24.980  1.00  0.00     0.118 C 
ATOM     16  C   UNL A   1      30.875  29.325  23.553  1.00  0.00     0.217 C 
ATOM     17  N   UNL A   1      29.760  30.260  23.410  1.00  0.00    -0.327 N 
ATOM     18  C   UNL A   1      30.882  30.934  25.398  1.00  0.00     0.049 C 
ATOM     19  C   UNL A   1      29.697  31.218  24.491  1.00  0.00     0.122 C 
BRANCH  16  20
ATOM     20  C   UNL A   1      30.430  27.856  23.484  1.00  0.00     0.330 C 
ATOM     21  O   UNL A   1      30.008  27.202  24.430  1.00  0.00    -0.250 OA
BRANCH  20  22
ATOM     22  O   UNL A   1      30.726  27.342  22.251  1.00  0.00    -0.467 OA
ATOM     23  C   UNL A   1      31.959  26.620  22.186  1.00  0.00     0.282 C 
ENDBRANCH  20  22
ENDBRANCH  16  20
BRANCH  17  24
ATOM     24  C   UNL A   1      29.003  30.284  22.261  1.00  0.00     0.220 C 
ATOM     25  C   UNL A   1      27.520  30.502  22.429  1.00  0.00     0.114 C 
ATOM     26  O   UNL A   1      29.498  30.081  21.153  1.00  0.00    -0.275 OA
ENDBRANCH  17  24
ENDBRANCH  12  15
ENDBRANCH  10  11
ENDBRANCH   9  10
ENDBRANCH   8   9
ENDBRANCH   6   8
ENDBRANCH   5   6
ENDBRANCH   4   5
ENDBRANCH   3   4
ENDBRANCH   2   3
ENDBRANCH   1   2
BRANCH   1  27
ATOM     27  C   UNL A   1      34.228  22.453  23.548  1.00  0.00     0.188 C 
BRANCH  27  28
ATOM     28  O   UNL A   1      33.626  21.363  24.250  1.00  0.00    -0.377 OA
BRANCH  28  29
ATOM     29  C   UNL A   1      34.308  20.775  25.352  1.00  0.00     0.188 C 
BRANCH  29  30
ATOM     30  C   UNL A   1      35.836  20.850  25.377  1.00  0.00     0.188 C 
BRANCH  30  31
ATOM     31  O   UNL A   1      36.554  19.669  25.024  1.00  0.00    -0.376 OA
BRANCH  31  32
ATOM     32  C   UNL A   1      37.958  19.765  24.801  1.00  0.00     0.202 C 
BRANCH  32  33
ATOM     33  C   UNL A   1      38.765  20.545  25.841  1.00  0.00     0.261 C 
BRANCH  33  34
ATOM     34  O   UNL A   1      40.164  20.229  25.808  1.00  0.00    -0.460 OA
BRANCH  34  35
ATOM     35  C   UNL A   1      40.790  20.289  27.004  1.00  0.00     0.338 C 
ATOM     36  O   UNL A   1      40.871  19.409  27.852  1.00  0.00    -0.246 OA
BRANCH  35  37
ATOM     37  C   UNL A   1      41.533  21.552  27.096  1.00  0.00     0.060 A 
ATOM     38  C   UNL A   1      41.978  21.972  28.356  1.00  0.00     0.016 A 
ATOM     39  C   UNL A   1      41.719  22.353  25.966  1.00  0.00     0.016 A 
ATOM     40  C   UNL A   1      42.584  23.213  28.500  1.00  0.00     0.010 A 
ATOM     41  C   UNL A   1      42.301  23.611  26.116  1.00  0.00     0.010 A 
ATOM     42  C   UNL A   1      42.699  24.055  27.389  1.00  0.00    -0.014 A 
BRANCH  42  43
ATOM     43  C   UNL A   1      43.041  25.474  27.608  1.00  0.00     0.031 A 
ATOM     44  C   UNL A   1      44.411  25.942  27.210  1.00  0.00     0.074 A 
ATOM     45  C   UNL A   1      42.131  26.324  28.107  1.00  0.00     0.049 A 
ATOM     46  N   UNL A   1      44.955  27.124  27.337  1.00  0.00    -0.248 NA
ATOM     47  C   UNL A   1      45.288  24.939  26.582  1.00  0.00     0.031 C 
ATOM     48  C   UNL A   1      40.758  25.975  28.465  1.00  0.00     0.029 A 
ATOM     49  N   UNL A   1      42.231  27.659  28.399  1.00  0.00    -0.354 N 
ATOM     50  C   UNL A   1      46.234  27.004  26.812  1.00  0.00     0.074 A 
ATOM     51  C   UNL A   1      46.401  25.630  26.395  1.00  0.00     0.031 C 
ATOM     52  C   UNL A   1      40.144  27.068  28.946  1.00  0.00     0.029 A 
ATOM     53  C   UNL A   1      41.092  28.180  28.960  1.00  0.00     0.049 A 
ATOM     54  H   UNL A   1      43.039  28.191  28.223  1.00  0.00     0.167 HD
ATOM     55  C   UNL A   1      47.182  27.963  26.688  1.00  0.00     0.037 A 
ATOM     56  C   UNL A   1      40.863  29.411  29.454  1.00  0.00     0.037 A 
ATOM     57  C   UNL A   1      46.999  29.324  27.118  1.00  0.00     0.049 A 
ATOM     58  C   UNL A   1      41.964  30.437  29.380  1.00  0.00     0.074 A 
ATOM     59  C   UNL A   1      47.885  30.382  27.035  1.00  0.00     0.029 A 
ATOM     60  N   UNL A   1      45.847  29.810  27.721  1.00  0.00    -0.354 N 
ATOM     61  N   UNL A   1      43.169  30.327  28.872  1.00  0.00    -0.248 NA
ATOM     62  C   UNL A   1      41.673  31.760  29.947  1.00  0.00     0.031 C 
ATOM     63  C   UNL A   1      47.293  31.493  27.646  1.00  0.00     0.029 A 
ATOM     64  C   UNL A   1      46.012  31.147  28.047  1.00  0.00     0.049 A 
ATOM     65  H   UNL A   1      45.033  29.284  27.893  1.00  0.00     0.167 HD
ATOM     66  C   UNL A   1      43.766  31.570  29.029  1.00  0.00     0.074 A 
ATOM     67  C   UNL A   1      42.785  32.424  29.666  1.00  0.00     0.031 C 
ATOM     68  C   UNL A   1      45.015  31.974  28.680  1.00  0.00     0.037 A 
BRANCH  55  69
ATOM     69  C   UNL A   1      48.506  27.561  26.106  1.00  0.00     0.064 A 
ATOM     70  C   UNL A   1      48.733  27.539  24.722  1.00  0.00     0.173 A 
ATOM     71  C   UNL A   1      49.572  27.209  26.949  1.00  0.00     0.173 A 
ATOM     72  F   UNL A   1      47.744  27.846  23.869  1.00  0.00    -0.203 F 
ATOM     73  C   UNL A   1      49.969  27.155  24.203  1.00  0.00     0.198 A 
ATOM     74  C   UNL A   1      50.815  26.859  26.429  1.00  0.00     0.198 A 
ATOM     75  F   UNL A   1      49.409  27.211  28.281  1.00  0.00    -0.203 F 
ATOM     76  F   UNL A   1      50.146  27.090  22.876  1.00  0.00    -0.200 F 
ATOM     77  C   UNL A   1      51.010  26.824  25.057  1.00  0.00     0.200 A 
ATOM     78  F   UNL A   1      51.822  26.549  27.257  1.00  0.00    -0.200 F 
ATOM     79  F   UNL A   1      52.199  26.461  24.557  1.00  0.00    -0.200 F 
ENDBRANCH  55  69
BRANCH  56  80
ATOM     80  C   UNL A   1      39.551  29.732  30.073  1.00  0.00     0.064 A 
ATOM     81  C   UNL A   1      39.362  29.648  31.458  1.00  0.00     0.173 A 
ATOM     82  C   UNL A   1      38.453  30.117  29.288  1.00  0.00     0.173 A 
ATOM     83  F   UNL A   1      40.374  29.265  32.250  1.00  0.00    -0.203 F 
ATOM     84  C   UNL A   1      38.122  29.916  32.035  1.00  0.00     0.198 A 
ATOM     85  C   UNL A   1      37.222  30.416  29.868  1.00  0.00     0.198 A 
ATOM     86  F   UNL A   1      38.578  30.215  27.957  1.00  0.00    -0.203 F 
ATOM     87  F   UNL A   1      37.957  29.780  33.357  1.00  0.00    -0.200 F 
ATOM     88  C   UNL A   1      37.054  30.306  31.239  1.00  0.00     0.200 A 
ATOM     89  F   UNL A   1      36.199  30.808  29.096  1.00  0.00    -0.200 F 
ATOM     90  F   UNL A   1      35.863  30.569  31.794  1.00  0.00    -0.200 F 
ENDBRANCH  56  80
BRANCH  68  91
ATOM     91  C   UNL A   1      45.372  33.409  28.946  1.00  0.00     0.064 A 
ATOM     92  C   UNL A   1      45.050  34.431  28.042  1.00  0.00     0.173 A 
ATOM     93  C   UNL A   1      46.014  33.768  30.141  1.00  0.00     0.173 A 
ATOM     94  F   UNL A   1      44.448  34.139  26.879  1.00  0.00    -0.203 F 
ATOM     95  C   UNL A   1      45.389  35.755  28.308  1.00  0.00     0.198 A 
ATOM     96  C   UNL A   1      46.318  35.097  30.422  1.00  0.00     0.198 A 
ATOM     97  F   UNL A   1      46.336  32.830  31.046  1.00  0.00    -0.203 F 
ATOM     98  F   UNL A   1      45.125  36.707  27.404  1.00  0.00    -0.200 F 
ATOM     99  C   UNL A   1      46.015  36.087  29.501  1.00  0.00     0.200 A 
ATOM    100  F   UNL A   1      46.905  35.418  31.583  1.00  0.00    -0.200 F 
ATOM    101  F   UNL A   1      46.332  37.364  29.759  1.00  0.00    -0.200 F 
ENDBRANCH  68  91
ENDBRANCH  42  43
ENDBRANCH  35  37
ENDBRANCH  34  35
ENDBRANCH  33  34
ENDBRANCH  32  33
ENDBRANCH  31  32
ENDBRANCH  30  31
ENDBRANCH  29  30
ENDBRANCH  28  29
ENDBRANCH  27  28
ENDBRANCH   1  27
TORSDOF 27
ENDMDL
MODEL 2
REMARK VINA RESULT:      -7.9      2.029      7.376
REMARK SMILES COC(=O)[C@@H]1[C@@H](NC(=O)COCC(=O)OCCOCCOCCOCCOC(=O)c2ccc(-c3c4nc(c(-c5c(F)c(F)c(F)c(F)c5F)c5ccc([nH]5)c(-c5c(F)c(F)c(F)c(F)c5F)c5nc(c(-c6c(F)c(F)c(F)c(F)c6F)c6ccc3[nH]6)C=C5)C=C4)cc2)CCN1C(C)=O
REMARK SMILES IDX 19 1 18 2 17 3 16 4 15 5 13 6 14 7 12 8 11 9 10 10 8 11 7 12
REMARK SMILES IDX 9 14 6 15 5 16 95 17 93 18 94 19 3 20 4 21 2 22 1 23 96 24
REMARK SMILES IDX 97 25 98 26 20 27 21 28 22 29 23 30 24 31 25 32 26 33 27 34
REMARK SMILES IDX 28 35 29 36 30 37 31 38 92 39 32 40 91 41 33 42 34 43 35 44
REMARK SMILES IDX 85 45 36 46 90 47 84 48 86 49 37 50 89 51 83 52 82 53 38 55
REMARK SMILES IDX 70 56 50 57 69 58 51 59 54 60 68 61 87 62 52 63 53 64 67 66
REMARK SMILES IDX 88 67 55 68 39 69 40 70 48 71 41 72 42 73 46 74 49 75 43 76
REMARK SMILES IDX 44 77 47 78 45 79 71 80 72 81 80 82 73 83 74 84 78 85 81 86
REMARK SMILES IDX 75 87 76 88 79 89 77 90 56 91 57 92 65 93 58 94 59 95 63 96
REMARK SMILES IDX 66 97 60 98 61 99 64 100 62 101
REMARK H PARENT 7 13 86 54 54 65
REMARK Flexibility Score: inf
ROOT
ATOM      1  C   UNL A   1      32.495  21.753  23.128  1.00  0.00     0.188 C 
ENDROOT
BRANCH   1   2
ATOM      2  O   UNL A   1      31.281  22.473  22.882  1.00  0.00    -0.376 OA
BRANCH   2   3
ATOM      3  C   UNL A   1      31.020  23.614  23.694  1.00  0.00     0.202 C 
BRANCH   3   4
ATOM      4  C   UNL A   1      30.636  23.357  25.161  1.00  0.00     0.261 C 
BRANCH   4   5
ATOM      5  O   UNL A   1      31.162  24.307  26.109  1.00  0.00    -0.462 OA
BRANCH   5   6
ATOM      6  C   UNL A   1      32.475  24.157  26.436  1.00  0.00     0.332 C 
ATOM      7  O   UNL A   1      32.909  23.290  27.190  1.00  0.00    -0.250 OA
BRANCH   6   8
ATOM      8  C   UNL A   1      33.414  25.166  25.733  1.00  0.00     0.283 C 
BRANCH   8   9
ATOM      9  O   UNL A   1      32.958  26.287  24.987  1.00  0.00    -0.360 OA
BRANCH   9  10
ATOM     10  C   UNL A   1      32.599  27.380  25.806  1.00  0.00     0.260 C 
BRANCH  10  11
ATOM     11  C   UNL A   1      33.136  28.773  25.472  1.00  0.00     0.246 C 
ATOM     12  N   UNL A   1      32.395  29.708  24.824  1.00  0.00    -0.349 N 
ATOM     13  H   UNL A   1      32.947  30.403  24.399  1.00  0.00     0.163 HD
ATOM     14  O   UNL A   1      34.312  29.059  25.721  1.00  0.00    -0.272 OA
BRANCH  12  15
ATOM     15  C   UNL A   1      30.961  29.919  24.614  1.00  0.00     0.118 C 
ATOM     16  C   UNL A   1      30.498  29.699  23.162  1.00  0.00     0.217 C 
ATOM     17  N   UNL A   1      29.331  30.567  23.009  1.00  0.00    -0.327 N 
ATOM     18  C   UNL A   1      30.341  31.241  25.057  1.00  0.00     0.049 C 
ATOM     19  C   UNL A   1      29.171  31.482  24.118  1.00  0.00     0.122 C 
BRANCH  16  20
ATOM     20  C   UNL A   1      30.148  28.208  23.030  1.00  0.00     0.330 C 
ATOM     21  O   UNL A   1      29.691  27.509  23.927  1.00  0.00    -0.250 OA
BRANCH  20  22
ATOM     22  O   UNL A   1      30.572  27.741  21.817  1.00  0.00    -0.467 OA
ATOM     23  C   UNL A   1      31.581  26.730  21.886  1.00  0.00     0.282 C 
ENDBRANCH  20  22
ENDBRANCH  16  20
BRANCH  17  24
ATOM     24  C   UNL A   1      28.614  30.584  21.835  1.00  0.00     0.220 C 
ATOM     25  C   UNL A   1      28.414  31.928  21.180  1.00  0.00     0.114 C 
ATOM     26  O   UNL A   1      28.109  29.564  21.368  1.00  0.00    -0.275 OA
ENDBRANCH  17  24
ENDBRANCH  12  15
ENDBRANCH  10  11
ENDBRANCH   9  10
ENDBRANCH   8   9
ENDBRANCH   6   8
ENDBRANCH   5   6
ENDBRANCH   4   5
ENDBRANCH   3   4
ENDBRANCH   2   3
ENDBRANCH   1   2
BRANCH   1  27
ATOM     27  C   UNL A   1      32.320  20.388  23.803  1.00  0.00     0.188 C 
BRANCH  27  28
ATOM     28  O   UNL A   1      33.592  19.864  24.189  1.00  0.00    -0.377 OA
BRANCH  28  29
ATOM     29  C   UNL A   1      34.121  20.179  25.472  1.00  0.00     0.188 C 
BRANCH  29  30
ATOM     30  C   UNL A   1      35.178  21.280  25.564  1.00  0.00     0.188 C 
BRANCH  30  31
ATOM     31  O   UNL A   1      35.779  21.713  24.345  1.00  0.00    -0.376 OA
BRANCH  31  32
ATOM     32  C   UNL A   1      37.064  22.326  24.398  1.00  0.00     0.202 C 
BRANCH  32  33
ATOM     33  C   UNL A   1      37.122  23.747  24.964  1.00  0.00     0.261 C 
BRANCH  33  34
ATOM     34  O   UNL A   1      37.615  23.787  26.311  1.00  0.00    -0.460 OA
BRANCH  34  35
ATOM     35  C   UNL A   1      38.849  23.263  26.482  1.00  0.00     0.338 C 
ATOM     36  O   UNL A   1      39.219  22.122  26.233  1.00  0.00    -0.246 OA
BRANCH  35  37
ATOM     37  C   UNL A   1      39.777  24.332  26.873  1.00  0.00     0.060 A 
ATOM     38  C   UNL A   1      40.257  24.347  28.189  1.00  0.00     0.016 A 
ATOM     39  C   UNL A   1      40.106  25.352  25.976  1.00  0.00     0.016 A 
ATOM     40  C   UNL A   1      41.045  25.403  28.627  1.00  0.00     0.010 A 
ATOM     41  C   UNL A   1      40.873  26.426  26.426  1.00  0.00     0.010 A 
ATOM     42  C   UNL A   1      41.310  26.469  27.761  1.00  0.00    -0.014 A 
BRANCH  42  43
ATOM     43  C   UNL A   1      41.864  27.717  28.322  1.00  0.00     0.031 A 
ATOM     44  C   UNL A   1      40.903  28.752  28.831  1.00  0.00     0.074 A 
ATOM     45  C   UNL A   1      43.191  27.892  28.412  1.00  0.00     0.049 A 
ATOM     46  N   UNL A   1      41.145  29.935  29.330  1.00  0.00    -0.248 NA
ATOM     47  C   UNL A   1      39.474  28.405  28.769  1.00  0.00     0.031 C 
ATOM     48  C   UNL A   1      44.200  26.919  28.000  1.00  0.00     0.029 A 
ATOM     49  N   UNL A   1      43.915  28.956  28.881  1.00  0.00    -0.354 N 
ATOM     50  C   UNL A   1      39.902  30.473  29.634  1.00  0.00     0.074 A 
ATOM     51  C   UNL A   1      38.906  29.505  29.236  1.00  0.00     0.031 C 
ATOM     52  C   UNL A   1      45.419  27.438  28.221  1.00  0.00     0.029 A 
ATOM     53  C   UNL A   1      45.271  28.790  28.754  1.00  0.00     0.049 A 
ATOM     54  H   UNL A   1      43.503  29.760  29.270  1.00  0.00     0.167 HD
ATOM     55  C   UNL A   1      39.623  31.671  30.202  1.00  0.00     0.037 A 
ATOM     56  C   UNL A   1      46.271  29.653  29.016  1.00  0.00     0.037 A 
ATOM     57  C   UNL A   1      40.629  32.625  30.585  1.00  0.00     0.049 A 
ATOM     58  C   UNL A   1      45.928  31.012  29.568  1.00  0.00     0.074 A 
ATOM     59  C   UNL A   1      40.465  33.864  31.174  1.00  0.00     0.029 A 
ATOM     60  N   UNL A   1      41.994  32.443  30.405  1.00  0.00    -0.354 N 
ATOM     61  N   UNL A   1      44.754  31.515  29.868  1.00  0.00    -0.248 NA
ATOM     62  C   UNL A   1      47.051  31.924  29.821  1.00  0.00     0.031 C 
ATOM     63  C   UNL A   1      41.725  34.459  31.293  1.00  0.00     0.029 A 
ATOM     64  C   UNL A   1      42.682  33.563  30.841  1.00  0.00     0.049 A 
ATOM     65  H   UNL A   1      42.411  31.637  30.023  1.00  0.00     0.167 HD
ATOM     66  C   UNL A   1      44.997  32.785  30.372  1.00  0.00     0.074 A 
ATOM     67  C   UNL A   1      46.434  32.970  30.352  1.00  0.00     0.031 C 
ATOM     68  C   UNL A   1      44.115  33.719  30.812  1.00  0.00     0.037 A 
BRANCH  55  69
ATOM     69  C   UNL A   1      38.178  32.027  30.400  1.00  0.00     0.064 A 
ATOM     70  C   UNL A   1      37.446  32.729  29.430  1.00  0.00     0.173 A 
ATOM     71  C   UNL A   1      37.508  31.643  31.572  1.00  0.00     0.173 A 
ATOM     72  F   UNL A   1      38.042  33.139  28.299  1.00  0.00    -0.203 F 
ATOM     73  C   UNL A   1      36.107  33.055  29.637  1.00  0.00     0.198 A 
ATOM     74  C   UNL A   1      36.162  31.941  31.762  1.00  0.00     0.198 A 
ATOM     75  F   UNL A   1      38.161  30.971  32.533  1.00  0.00    -0.203 F 
ATOM     76  F   UNL A   1      35.444  33.773  28.720  1.00  0.00    -0.200 F 
ATOM     77  C   UNL A   1      35.465  32.654  30.799  1.00  0.00     0.200 A 
ATOM     78  F   UNL A   1      35.541  31.543  32.880  1.00  0.00    -0.200 F 
ATOM     79  F   UNL A   1      34.176  32.963  30.994  1.00  0.00    -0.200 F 
ENDBRANCH  55  69
BRANCH  56  80
ATOM     80  C   UNL A   1      47.678  29.265  28.743  1.00  0.00     0.064 A 
ATOM     81  C   UNL A   1      48.463  28.642  29.722  1.00  0.00     0.173 A 
ATOM     82  C   UNL A   1      48.274  29.520  27.497  1.00  0.00     0.173 A 
ATOM     83  F   UNL A   1      47.947  28.394  30.935  1.00  0.00    -0.203 F 
ATOM     84  C   UNL A   1      49.794  28.308  29.476  1.00  0.00     0.198 A 
ATOM     85  C   UNL A   1      49.595  29.157  27.241  1.00  0.00     0.198 A 
ATOM     86  F   UNL A   1      47.569  30.113  26.523  1.00  0.00    -0.203 F 
ATOM     87  F   UNL A   1      50.534  27.759  30.448  1.00  0.00    -0.200 F 
ATOM     88  C   UNL A   1      50.356  28.561  28.234  1.00  0.00     0.200 A 
ATOM     89  F   UNL A   1      50.127  29.389  26.034  1.00  0.00    -0.200 F 
ATOM     90  F   UNL A   1      51.634  28.235  27.996  1.00  0.00    -0.200 F 
ENDBRANCH  56  80
BRANCH  68  91
ATOM     91  C   UNL A   1      44.684  35.005  31.341  1.00  0.00     0.064 A 
ATOM     92  C   UNL A   1      45.054  35.152  32.686  1.00  0.00     0.173 A 
ATOM     93  C   UNL A   1      44.893  36.093  30.480  1.00  0.00     0.173 A 
ATOM     94  F   UNL A   1      44.862  34.146  33.553  1.00  0.00    -0.203 F 
ATOM     95  C   UNL A   1      45.580  36.352  33.156  1.00  0.00     0.198 A 
ATOM     96  C   UNL A   1      45.454  37.279  30.945  1.00  0.00     0.198 A 
ATOM     97  F   UNL A   1      44.566  36.003  29.182  1.00  0.00    -0.203 F 
ATOM     98  F   UNL A   1      45.872  36.490  34.456  1.00  0.00    -0.200 F 
ATOM     99  C   UNL A   1      45.787  37.411  32.284  1.00  0.00     0.200 A 
ATOM    100  F   UNL A   1      45.672  38.293  30.097  1.00  0.00    -0.200 F 
ATOM    101  F   UNL A   1      46.302  38.562  32.737  1.00  0.00    -0.200 F 
ENDBRANCH  68  91
ENDBRANCH  42  43
ENDBRANCH  35  37
ENDBRANCH  34  35
ENDBRANCH  33  34
ENDBRANCH  32  33
ENDBRANCH  31  32
ENDBRANCH  30  31
ENDBRANCH  29  30
ENDBRANCH  28  29
ENDBRANCH  27  28
ENDBRANCH   1  27
TORSDOF 27
ENDMDL
MODEL 3
REMARK VINA RESULT:      -7.5      6.936     13.638
REMARK SMILES COC(=O)[C@@H]1[C@@H](NC(=O)COCC(=O)OCCOCCOCCOCCOC(=O)c2ccc(-c3c4nc(c(-c5c(F)c(F)c(F)c(F)c5F)c5ccc([nH]5)c(-c5c(F)c(F)c(F)c(F)c5F)c5nc(c(-c6c(F)c(F)c(F)c(F)c6F)c6ccc3[nH]6)C=C5)C=C4)cc2)CCN1C(C)=O
REMARK SMILES IDX 19 1 18 2 17 3 16 4 15 5 13 6 14 7 12 8 11 9 10 10 8 11 7 12
REMARK SMILES IDX 9 14 6 15 5 16 95 17 93 18 94 19 3 20 4 21 2 22 1 23 96 24
REMARK SMILES IDX 97 25 98 26 20 27 21 28 22 29 23 30 24 31 25 32 26 33 27 34
REMARK SMILES IDX 28 35 29 36 30 37 31 38 92 39 32 40 91 41 33 42 34 43 35 44
REMARK SMILES IDX 85 45 36 46 90 47 84 48 86 49 37 50 89 51 83 52 82 53 38 55
REMARK SMILES IDX 70 56 50 57 69 58 51 59 54 60 68 61 87 62 52 63 53 64 67 66
REMARK SMILES IDX 88 67 55 68 39 69 40 70 48 71 41 72 42 73 46 74 49 75 43 76
REMARK SMILES IDX 44 77 47 78 45 79 71 80 72 81 80 82 73 83 74 84 78 85 81 86
REMARK SMILES IDX 75 87 76 88 79 89 77 90 56 91 57 92 65 93 58 94 59 95 63 96
REMARK SMILES IDX 66 97 60 98 61 99 64 100 62 101
REMARK H PARENT 7 13 86 54 54 65
REMARK Flexibility Score: inf
ROOT
ATOM      1  C   UNL A   1      46.760  28.335  32.339  1.00  0.00     0.188 C 
ENDROOT
BRANCH   1   2
ATOM      2  O   UNL A   1      45.554  27.568  32.436  1.00  0.00    -0.376 OA
BRANCH   2   3
ATOM      3  C   UNL A   1      45.543  26.284  31.818  1.00  0.00     0.202 C 
BRANCH   3   4
ATOM      4  C   UNL A   1      45.364  25.065  32.739  1.00  0.00     0.261 C 
BRANCH   4   5
ATOM      5  O   UNL A   1      45.090  25.375  34.120  1.00  0.00    -0.462 OA
BRANCH   5   6
ATOM      6  C   UNL A   1      45.700  24.578  35.040  1.00  0.00     0.332 C 
ATOM      7  O   UNL A   1      46.145  24.972  36.114  1.00  0.00    -0.250 OA
BRANCH   6   8
ATOM      8  C   UNL A   1      45.755  23.086  34.636  1.00  0.00     0.283 C 
BRANCH   8   9
ATOM      9  O   UNL A   1      45.105  22.045  35.354  1.00  0.00    -0.360 OA
BRANCH   9  10
ATOM     10  C   UNL A   1      46.005  21.232  36.077  1.00  0.00     0.260 C 
BRANCH  10  11
ATOM     11  C   UNL A   1      46.581  19.980  35.414  1.00  0.00     0.246 C 
ATOM     12  N   UNL A   1      47.909  19.815  35.187  1.00  0.00    -0.349 N 
ATOM     13  H   UNL A   1      48.096  19.148  34.488  1.00  0.00     0.163 HD
ATOM     14  O   UNL A   1      45.823  19.102  34.988  1.00  0.00    -0.272 OA
BRANCH  12  15
ATOM     15  C   UNL A   1      49.128  20.403  35.747  1.00  0.00     0.118 C 
ATOM     16  C   UNL A   1      50.419  19.995  35.013  1.00  0.00     0.217 C 
ATOM     17  N   UNL A   1      51.465  20.066  36.032  1.00  0.00    -0.327 N 
ATOM     18  C   UNL A   1      49.415  20.217  37.235  1.00  0.00     0.049 C 
ATOM     19  C   UNL A   1      50.929  20.228  37.366  1.00  0.00     0.122 C 
BRANCH  16  20
ATOM     20  C   UNL A   1      50.625  21.014  33.882  1.00  0.00     0.330 C 
ATOM     21  O   UNL A   1      51.076  20.755  32.772  1.00  0.00    -0.250 OA
BRANCH  20  22
ATOM     22  O   UNL A   1      50.385  22.277  34.350  1.00  0.00    -0.467 OA
ATOM     23  C   UNL A   1      49.912  23.199  33.364  1.00  0.00     0.282 C 
ENDBRANCH  20  22
ENDBRANCH  16  20
BRANCH  17  24
ATOM     24  C   UNL A   1      52.780  19.819  35.712  1.00  0.00     0.220 C 
ATOM     25  C   UNL A   1      53.611  21.007  35.294  1.00  0.00     0.114 C 
ATOM     26  O   UNL A   1      53.245  18.680  35.710  1.00  0.00    -0.275 OA
ENDBRANCH  17  24
ENDBRANCH  12  15
ENDBRANCH  10  11
ENDBRANCH   9  10
ENDBRANCH   8   9
ENDBRANCH   6   8
ENDBRANCH   5   6
ENDBRANCH   4   5
ENDBRANCH   3   4
ENDBRANCH   2   3
ENDBRANCH   1   2
BRANCH   1  27
ATOM     27  C   UNL A   1      48.036  27.518  32.101  1.00  0.00     0.188 C 
BRANCH  27  28
ATOM     28  O   UNL A   1      48.751  28.040  30.979  1.00  0.00    -0.377 OA
BRANCH  28  29
ATOM     29  C   UNL A   1      49.903  27.356  30.499  1.00  0.00     0.188 C 
BRANCH  29  30
ATOM     30  C   UNL A   1      51.048  28.189  29.923  1.00  0.00     0.188 C 
BRANCH  30  31
ATOM     31  O   UNL A   1      51.732  27.663  28.786  1.00  0.00    -0.376 OA
BRANCH  31  32
ATOM     32  C   UNL A   1      52.911  26.891  28.996  1.00  0.00     0.202 C 
BRANCH  32  33
ATOM     33  C   UNL A   1      53.572  26.298  27.750  1.00  0.00     0.261 C 
BRANCH  33  34
ATOM     34  O   UNL A   1      52.777  26.469  26.567  1.00  0.00    -0.460 OA
BRANCH  34  35
ATOM     35  C   UNL A   1      52.188  25.342  26.109  1.00  0.00     0.338 C 
ATOM     36  O   UNL A   1      52.734  24.333  25.681  1.00  0.00    -0.246 OA
BRANCH  35  37
ATOM     37  C   UNL A   1      50.741  25.422  26.349  1.00  0.00     0.060 A 
ATOM     38  C   UNL A   1      49.960  26.172  25.461  1.00  0.00     0.016 A 
ATOM     39  C   UNL A   1      50.175  24.830  27.481  1.00  0.00     0.016 A 
ATOM     40  C   UNL A   1      48.609  26.364  25.718  1.00  0.00     0.010 A 
ATOM     41  C   UNL A   1      48.825  25.048  27.753  1.00  0.00     0.010 A 
ATOM     42  C   UNL A   1      48.052  25.845  26.892  1.00  0.00    -0.014 A 
BRANCH  42  43
ATOM     43  C   UNL A   1      46.719  26.319  27.313  1.00  0.00     0.031 A 
ATOM     44  C   UNL A   1      46.598  27.722  27.835  1.00  0.00     0.074 A 
ATOM     45  C   UNL A   1      45.644  25.527  27.185  1.00  0.00     0.049 A 
ATOM     46  N   UNL A   1      45.549  28.348  28.297  1.00  0.00    -0.248 NA
ATOM     47  C   UNL A   1      47.830  28.528  27.836  1.00  0.00     0.031 C 
ATOM     48  C   UNL A   1      45.654  24.175  26.633  1.00  0.00     0.029 A 
ATOM     49  N   UNL A   1      44.334  25.751  27.515  1.00  0.00    -0.354 N 
ATOM     50  C   UNL A   1      45.994  29.615  28.648  1.00  0.00     0.074 A 
ATOM     51  C   UNL A   1      47.414  29.661  28.377  1.00  0.00     0.031 C 
ATOM     52  C   UNL A   1      44.406  23.680  26.675  1.00  0.00     0.029 A 
ATOM     53  C   UNL A   1      43.523  24.668  27.290  1.00  0.00     0.049 A 
ATOM     54  H   UNL A   1      44.006  26.605  27.877  1.00  0.00     0.167 HD
ATOM     55  C   UNL A   1      45.276  30.648  29.148  1.00  0.00     0.037 A 
ATOM     56  C   UNL A   1      42.219  24.494  27.580  1.00  0.00     0.037 A 
ATOM     57  C   UNL A   1      43.864  30.579  29.418  1.00  0.00     0.049 A 
ATOM     58  C   UNL A   1      41.462  25.631  28.214  1.00  0.00     0.074 A 
ATOM     59  C   UNL A   1      43.031  31.564  29.916  1.00  0.00     0.029 A 
ATOM     60  N   UNL A   1      43.079  29.452  29.217  1.00  0.00    -0.354 N 
ATOM     61  N   UNL A   1      41.880  26.833  28.533  1.00  0.00    -0.248 NA
ATOM     62  C   UNL A   1      40.047  25.389  28.527  1.00  0.00     0.031 C 
ATOM     63  C   UNL A   1      41.756  31.013  30.077  1.00  0.00     0.029 A 
ATOM     64  C   UNL A   1      41.777  29.706  29.614  1.00  0.00     0.049 A 
ATOM     65  H   UNL A   1      43.400  28.598  28.848  1.00  0.00     0.167 HD
ATOM     66  C   UNL A   1      40.778  27.498  29.053  1.00  0.00     0.074 A 
ATOM     67  C   UNL A   1      39.668  26.570  28.993  1.00  0.00     0.031 C 
ATOM     68  C   UNL A   1      40.689  28.763  29.540  1.00  0.00     0.037 A 
BRANCH  55  69
ATOM     69  C   UNL A   1      46.012  31.915  29.471  1.00  0.00     0.064 A 
ATOM     70  C   UNL A   1      46.277  32.890  28.498  1.00  0.00     0.173 A 
ATOM     71  C   UNL A   1      46.445  32.167  30.783  1.00  0.00     0.173 A 
ATOM     72  F   UNL A   1      45.905  32.693  27.224  1.00  0.00    -0.203 F 
ATOM     73  C   UNL A   1      46.969  34.057  28.819  1.00  0.00     0.198 A 
ATOM     74  C   UNL A   1      47.106  33.348  31.108  1.00  0.00     0.198 A 
ATOM     75  F   UNL A   1      46.220  31.267  31.753  1.00  0.00    -0.203 F 
ATOM     76  F   UNL A   1      47.258  34.949  27.862  1.00  0.00    -0.200 F 
ATOM     77  C   UNL A   1      47.376  34.288  30.125  1.00  0.00     0.200 A 
ATOM     78  F   UNL A   1      47.488  33.573  32.372  1.00  0.00    -0.200 F 
ATOM     79  F   UNL A   1      48.036  35.412  30.434  1.00  0.00    -0.200 F 
ENDBRANCH  55  69
BRANCH  56  80
ATOM     80  C   UNL A   1      41.560  23.195  27.290  1.00  0.00     0.064 A 
ATOM     81  C   UNL A   1      41.988  22.010  27.904  1.00  0.00     0.173 A 
ATOM     82  C   UNL A   1      40.493  23.108  26.382  1.00  0.00     0.173 A 
ATOM     83  F   UNL A   1      43.017  22.036  28.765  1.00  0.00    -0.203 F 
ATOM     84  C   UNL A   1      41.391  20.787  27.606  1.00  0.00     0.198 A 
ATOM     85  C   UNL A   1      39.875  21.889  26.109  1.00  0.00     0.198 A 
ATOM     86  F   UNL A   1      40.042  24.210  25.767  1.00  0.00    -0.203 F 
ATOM     87  F   UNL A   1      41.854  19.663  28.171  1.00  0.00    -0.200 F 
ATOM     88  C   UNL A   1      40.331  20.728  26.713  1.00  0.00     0.200 A 
ATOM     89  F   UNL A   1      38.841  21.842  25.258  1.00  0.00    -0.200 F 
ATOM     90  F   UNL A   1      39.754  19.552  26.431  1.00  0.00    -0.200 F 
ENDBRANCH  56  80
BRANCH  68  91
ATOM     91  C   UNL A   1      39.338  29.223  30.008  1.00  0.00     0.064 A 
ATOM     92  C   UNL A   1      38.418  29.824  29.136  1.00  0.00     0.173 A 
ATOM     93  C   UNL A   1      38.946  29.028  31.341  1.00  0.00     0.173 A 
ATOM     94  F   UNL A   1      38.749  30.045  27.854  1.00  0.00    -0.203 F 
ATOM     95  C   UNL A   1      37.170  30.243  29.589  1.00  0.00     0.198 A 
ATOM     96  C   UNL A   1      37.684  29.414  31.783  1.00  0.00     0.198 A 
ATOM     97  F   UNL A   1      39.784  28.449  32.216  1.00  0.00    -0.203 F 
ATOM     98  F   UNL A   1      36.331  30.868  28.753  1.00  0.00    -0.200 F 
ATOM     99  C   UNL A   1      36.802  30.031  30.910  1.00  0.00     0.200 A 
ATOM    100  F   UNL A   1      37.323  29.191  33.054  1.00  0.00    -0.200 F 
ATOM    101  F   UNL A   1      35.597  30.428  31.342  1.00  0.00    -0.200 F 
ENDBRANCH  68  91
ENDBRANCH  42  43
ENDBRANCH  35  37
ENDBRANCH  34  35
ENDBRANCH  33  34
ENDBRANCH  32  33
ENDBRANCH  31  32
ENDBRANCH  30  31
ENDBRANCH  29  30
ENDBRANCH  28  29
ENDBRANCH  27  28
ENDBRANCH   1  27
TORSDOF 27
ENDMDL
