MODEL 1
REMARK VINA RESULT:     -10.8      0.000      0.000
REMARK SMILES CC(=O)Nc1ccc2c(C(=O)OCCOCCOCCOCCOC(=O)c3ccc(-c4c5nc(c(-c6c(F)c(F)c(F)c(F)c6F)c6ccc([nH]6)c(-c6c(F)c(F)c(F)c(F)c6F)c6nc(c(-c7c(F)c(F)c(F)c(F)c7F)c7ccc4[nH]7)C=C6)C=C5)cc3)c(C)c(O)nc2n1
REMARK SMILES IDX 19 1 18 2 17 3 16 4 15 5 14 6 13 7 12 8 10 9 11 10 9 11 5 12
REMARK SMILES IDX 6 13 96 14 7 15 95 16 8 17 94 18 92 19 90 20 91 21 4 22 1 23
REMARK SMILES IDX 2 24 3 25 93 27 20 29 21 30 22 31 23 32 24 33 25 34 26 35
REMARK SMILES IDX 27 36 28 37 89 38 29 39 88 40 30 41 31 42 32 43 82 44 33 45
REMARK SMILES IDX 87 46 81 47 83 48 34 49 86 50 80 51 79 52 35 54 67 55 47 56
REMARK SMILES IDX 66 57 48 58 51 59 65 60 84 61 49 62 50 63 64 65 85 66 52 67
REMARK SMILES IDX 36 68 37 69 45 70 38 71 39 72 43 73 46 74 40 75 41 76 44 77
REMARK SMILES IDX 42 78 68 79 69 80 77 81 70 82 71 83 75 84 78 85 72 86 73 87
REMARK SMILES IDX 76 88 74 89 53 90 54 91 62 92 55 93 56 94 60 95 63 96 57 97
REMARK SMILES IDX 58 98 61 99 59 100
REMARK H PARENT 4 26 93 28 83 53 51 64
REMARK Flexibility Score: inf
ROOT
ATOM      1  C   UNL A   1      34.163  34.006  28.027  1.00  0.00     0.188 C 
ENDROOT
BRANCH   1   2
ATOM      2  O   UNL A   1      35.386  33.510  27.489  1.00  0.00    -0.377 OA
BRANCH   2   3
ATOM      3  C   UNL A   1      35.777  32.173  27.766  1.00  0.00     0.188 C 
BRANCH   3   4
ATOM      4  C   UNL A   1      34.801  31.255  28.539  1.00  0.00     0.188 C 
BRANCH   4   5
ATOM      5  O   UNL A   1      35.152  29.882  28.515  1.00  0.00    -0.376 OA
BRANCH   5   6
ATOM      6  C   UNL A   1      35.209  29.209  27.272  1.00  0.00     0.202 C 
BRANCH   6   7
ATOM      7  C   UNL A   1      33.919  28.620  26.687  1.00  0.00     0.261 C 
BRANCH   7   8
ATOM      8  O   UNL A   1      34.042  27.295  26.155  1.00  0.00    -0.460 OA
BRANCH   8   9
ATOM      9  C   UNL A   1      32.918  26.576  25.956  1.00  0.00     0.339 C 
ATOM     10  O   UNL A   1      32.173  26.152  26.822  1.00  0.00    -0.246 OA
BRANCH   9  11
ATOM     11  C   UNL A   1      32.640  26.502  24.492  1.00  0.00     0.079 A 
ATOM     12  C   UNL A   1      30.378  29.394  22.490  1.00  0.00     0.135 A 
ATOM     13  C   UNL A   1      30.673  29.670  23.808  1.00  0.00     0.048 A 
ATOM     14  N   UNL A   1      30.714  28.235  21.907  1.00  0.00    -0.211 NA
ATOM     15  C   UNL A   1      31.327  28.682  24.541  1.00  0.00     0.017 A 
ATOM     16  C   UNL A   1      31.481  27.359  22.555  1.00  0.00     0.166 A 
ATOM     17  C   UNL A   1      31.800  27.503  23.909  1.00  0.00     0.035 A 
ATOM     18  N   UNL A   1      31.971  26.368  21.831  1.00  0.00    -0.193 NA
ATOM     19  C   UNL A   1      32.860  25.515  22.361  1.00  0.00     0.216 A 
ATOM     20  C   UNL A   1      33.256  25.522  23.687  1.00  0.00     0.026 A 
ATOM     21  C   UNL A   1      34.389  24.667  24.185  1.00  0.00     0.051 C 
BRANCH  12  22
ATOM     22  N   UNL A   1      29.609  30.248  21.707  1.00  0.00    -0.311 N 
ATOM     23  C   UNL A   1      27.376  29.715  22.612  1.00  0.00     0.114 C 
ATOM     24  C   UNL A   1      28.257  30.309  21.543  1.00  0.00     0.222 C 
ATOM     25  O   UNL A   1      27.776  30.932  20.596  1.00  0.00    -0.275 OA
ATOM     26  H   UNL A   1      30.121  30.912  21.190  1.00  0.00     0.171 HD
ENDBRANCH  12  22
BRANCH  19  27
ATOM     27  O   UNL A   1      33.366  24.661  21.431  1.00  0.00    -0.493 OA
ATOM     28  H   UNL A   1      33.424  24.926  20.535  1.00  0.00     0.295 HD
ENDBRANCH  19  27
ENDBRANCH   9  11
ENDBRANCH   8   9
ENDBRANCH   7   8
ENDBRANCH   6   7
ENDBRANCH   5   6
ENDBRANCH   4   5
ENDBRANCH   3   4
ENDBRANCH   2   3
ENDBRANCH   1   2
BRANCH   1  29
ATOM     29  C   UNL A   1      34.142  35.048  29.175  1.00  0.00     0.188 C 
BRANCH  29  30
ATOM     30  O   UNL A   1      34.767  34.626  30.373  1.00  0.00    -0.376 OA
BRANCH  30  31
ATOM     31  C   UNL A   1      33.979  34.517  31.544  1.00  0.00     0.202 C 
BRANCH  31  32
ATOM     32  C   UNL A   1      34.409  33.493  32.602  1.00  0.00     0.261 C 
BRANCH  32  33
ATOM     33  O   UNL A   1      35.320  32.474  32.169  1.00  0.00    -0.460 OA
BRANCH  33  34
ATOM     34  C   UNL A   1      36.296  32.112  33.024  1.00  0.00     0.338 C 
ATOM     35  O   UNL A   1      36.333  32.286  34.233  1.00  0.00    -0.246 OA
BRANCH  34  36
ATOM     36  C   UNL A   1      37.263  31.305  32.260  1.00  0.00     0.060 A 
ATOM     37  C   UNL A   1      38.021  30.319  32.911  1.00  0.00     0.016 A 
ATOM     38  C   UNL A   1      37.407  31.531  30.892  1.00  0.00     0.016 A 
ATOM     39  C   UNL A   1      38.950  29.570  32.192  1.00  0.00     0.010 A 
ATOM     40  C   UNL A   1      38.367  30.814  30.184  1.00  0.00     0.010 A 
ATOM     41  C   UNL A   1      39.164  29.860  30.840  1.00  0.00    -0.014 A 
BRANCH  41  42
ATOM     42  C   UNL A   1      40.384  29.375  30.161  1.00  0.00     0.031 A 
ATOM     43  C   UNL A   1      41.513  30.349  29.987  1.00  0.00     0.074 A 
ATOM     44  C   UNL A   1      40.466  28.129  29.672  1.00  0.00     0.049 A 
ATOM     45  N   UNL A   1      42.615  30.231  29.296  1.00  0.00    -0.248 NA
ATOM     46  C   UNL A   1      41.374  31.637  30.688  1.00  0.00     0.031 C 
ATOM     47  C   UNL A   1      39.458  27.087  29.838  1.00  0.00     0.029 A 
ATOM     48  N   UNL A   1      41.445  27.542  28.912  1.00  0.00    -0.354 N 
ATOM     49  C   UNL A   1      43.296  31.427  29.476  1.00  0.00     0.074 A 
ATOM     50  C   UNL A   1      42.476  32.269  30.317  1.00  0.00     0.031 C 
ATOM     51  C   UNL A   1      39.860  25.990  29.172  1.00  0.00     0.029 A 
ATOM     52  C   UNL A   1      41.128  26.273  28.501  1.00  0.00     0.049 A 
ATOM     53  H   UNL A   1      42.292  27.989  28.682  1.00  0.00     0.167 HD
ATOM     54  C   UNL A   1      44.503  31.787  28.982  1.00  0.00     0.037 A 
ATOM     55  C   UNL A   1      41.777  25.453  27.652  1.00  0.00     0.037 A 
ATOM     56  C   UNL A   1      45.296  30.954  28.119  1.00  0.00     0.049 A 
ATOM     57  C   UNL A   1      43.068  25.917  27.025  1.00  0.00     0.074 A 
ATOM     58  C   UNL A   1      46.524  31.226  27.545  1.00  0.00     0.029 A 
ATOM     59  N   UNL A   1      44.928  29.684  27.696  1.00  0.00    -0.354 N 
ATOM     60  N   UNL A   1      43.711  27.049  27.188  1.00  0.00    -0.248 NA
ATOM     61  C   UNL A   1      43.726  24.985  26.099  1.00  0.00     0.031 C 
ATOM     62  C   UNL A   1      46.873  30.147  26.729  1.00  0.00     0.029 A 
ATOM     63  C   UNL A   1      45.898  29.169  26.851  1.00  0.00     0.049 A 
ATOM     64  H   UNL A   1      44.101  29.218  27.956  1.00  0.00     0.167 HD
ATOM     65  C   UNL A   1      44.863  26.952  26.416  1.00  0.00     0.074 A 
ATOM     66  C   UNL A   1      44.834  25.645  25.793  1.00  0.00     0.031 C 
ATOM     67  C   UNL A   1      45.856  27.861  26.243  1.00  0.00     0.037 A 
BRANCH  54  68
ATOM     68  C   UNL A   1      45.021  33.149  29.340  1.00  0.00     0.064 A 
ATOM     69  C   UNL A   1      45.801  33.363  30.487  1.00  0.00     0.173 A 
ATOM     70  C   UNL A   1      44.767  34.249  28.507  1.00  0.00     0.173 A 
ATOM     71  F   UNL A   1      46.054  32.349  31.329  1.00  0.00    -0.203 F 
ATOM     72  C   UNL A   1      46.293  34.628  30.794  1.00  0.00     0.198 A 
ATOM     73  C   UNL A   1      45.289  35.507  28.800  1.00  0.00     0.198 A 
ATOM     74  F   UNL A   1      44.022  34.102  27.402  1.00  0.00    -0.203 F 
ATOM     75  F   UNL A   1      46.999  34.816  31.918  1.00  0.00    -0.200 F 
ATOM     76  C   UNL A   1      46.047  35.696  29.944  1.00  0.00     0.200 A 
ATOM     77  F   UNL A   1      45.059  36.534  27.971  1.00  0.00    -0.200 F 
ATOM     78  F   UNL A   1      46.536  36.910  30.233  1.00  0.00    -0.200 F 
ENDBRANCH  54  68
BRANCH  55  79
ATOM     79  C   UNL A   1      41.218  24.110  27.354  1.00  0.00     0.064 A 
ATOM     80  C   UNL A   1      41.823  22.953  27.864  1.00  0.00     0.173 A 
ATOM     81  C   UNL A   1      40.061  23.951  26.577  1.00  0.00     0.173 A 
ATOM     82  F   UNL A   1      42.946  23.052  28.591  1.00  0.00    -0.203 F 
ATOM     83  C   UNL A   1      41.295  21.690  27.609  1.00  0.00     0.198 A 
ATOM     84  C   UNL A   1      39.516  22.690  26.346  1.00  0.00     0.198 A 
ATOM     85  F   UNL A   1      39.444  25.025  26.063  1.00  0.00    -0.203 F 
ATOM     86  F   UNL A   1      41.911  20.600  28.085  1.00  0.00    -0.200 F 
ATOM     87  C   UNL A   1      40.136  21.560  26.859  1.00  0.00     0.200 A 
ATOM     88  F   UNL A   1      38.386  22.569  25.636  1.00  0.00    -0.200 F 
ATOM     89  F   UNL A   1      39.616  20.346  26.630  1.00  0.00    -0.200 F 
ENDBRANCH  55  79
BRANCH  67  90
ATOM     90  C   UNL A   1      47.022  27.460  25.382  1.00  0.00     0.064 A 
ATOM     91  C   UNL A   1      47.127  27.858  24.041  1.00  0.00     0.173 A 
ATOM     92  C   UNL A   1      48.076  26.706  25.925  1.00  0.00     0.173 A 
ATOM     93  F   UNL A   1      46.145  28.573  23.470  1.00  0.00    -0.203 F 
ATOM     94  C   UNL A   1      48.223  27.488  23.267  1.00  0.00     0.198 A 
ATOM     95  C   UNL A   1      49.188  26.371  25.159  1.00  0.00     0.198 A 
ATOM     96  F   UNL A   1      48.034  26.310  27.206  1.00  0.00    -0.203 F 
ATOM     97  F   UNL A   1      48.274  27.832  21.973  1.00  0.00    -0.200 F 
ATOM     98  C   UNL A   1      49.257  26.753  23.829  1.00  0.00     0.200 A 
ATOM     99  F   UNL A   1      50.195  25.678  25.711  1.00  0.00    -0.200 F 
ATOM    100  F   UNL A   1      50.316  26.405  23.085  1.00  0.00    -0.200 F 
ENDBRANCH  67  90
ENDBRANCH  41  42
ENDBRANCH  34  36
ENDBRANCH  33  34
ENDBRANCH  32  33
ENDBRANCH  31  32
ENDBRANCH  30  31
ENDBRANCH  29  30
ENDBRANCH   1  29
TORSDOF 22
ENDMDL
MODEL 2
REMARK VINA RESULT:     -10.4      1.052      7.128
REMARK SMILES CC(=O)Nc1ccc2c(C(=O)OCCOCCOCCOCCOC(=O)c3ccc(-c4c5nc(c(-c6c(F)c(F)c(F)c(F)c6F)c6ccc([nH]6)c(-c6c(F)c(F)c(F)c(F)c6F)c6nc(c(-c7c(F)c(F)c(F)c(F)c7F)c7ccc4[nH]7)C=C6)C=C5)cc3)c(C)c(O)nc2n1
REMARK SMILES IDX 19 1 18 2 17 3 16 4 15 5 14 6 13 7 12 8 10 9 11 10 9 11 5 12
REMARK SMILES IDX 6 13 96 14 7 15 95 16 8 17 94 18 92 19 90 20 91 21 4 22 1 23
REMARK SMILES IDX 2 24 3 25 93 27 20 29 21 30 22 31 23 32 24 33 25 34 26 35
REMARK SMILES IDX 27 36 28 37 89 38 29 39 88 40 30 41 31 42 32 43 82 44 33 45
REMARK SMILES IDX 87 46 81 47 83 48 34 49 86 50 80 51 79 52 35 54 67 55 47 56
REMARK SMILES IDX 66 57 48 58 51 59 65 60 84 61 49 62 50 63 64 65 85 66 52 67
REMARK SMILES IDX 36 68 37 69 45 70 38 71 39 72 43 73 46 74 40 75 41 76 44 77
REMARK SMILES IDX 42 78 68 79 69 80 77 81 70 82 71 83 75 84 78 85 72 86 73 87
REMARK SMILES IDX 76 88 74 89 53 90 54 91 62 92 55 93 56 94 60 95 63 96 57 97
REMARK SMILES IDX 58 98 61 99 59 100
REMARK H PARENT 4 26 93 28 83 53 51 64
REMARK Flexibility Score: inf
ROOT
ATOM      1  C   UNL A   1      35.024  32.251  30.930  1.00  0.00     0.188 C 
ENDROOT
BRANCH   1   2
ATOM      2  O   UNL A   1      35.603  31.395  29.948  1.00  0.00    -0.377 OA
BRANCH   2   3
ATOM      3  C   UNL A   1      35.934  31.925  28.672  1.00  0.00     0.188 C 
BRANCH   3   4
ATOM      4  C   UNL A   1      35.136  31.449  27.437  1.00  0.00     0.188 C 
BRANCH   4   5
ATOM      5  O   UNL A   1      33.860  30.910  27.739  1.00  0.00    -0.376 OA
BRANCH   5   6
ATOM      6  C   UNL A   1      33.331  29.894  26.909  1.00  0.00     0.202 C 
BRANCH   6   7
ATOM      7  C   UNL A   1      33.259  28.459  27.447  1.00  0.00     0.261 C 
BRANCH   7   8
ATOM      8  O   UNL A   1      33.541  27.434  26.485  1.00  0.00    -0.460 OA
BRANCH   8   9
ATOM      9  C   UNL A   1      32.544  26.599  26.126  1.00  0.00     0.339 C 
ATOM     10  O   UNL A   1      31.766  26.043  26.880  1.00  0.00    -0.246 OA
BRANCH   9  11
ATOM     11  C   UNL A   1      32.444  26.572  24.637  1.00  0.00     0.079 A 
ATOM     12  C   UNL A   1      30.281  29.431  22.484  1.00  0.00     0.135 A 
ATOM     13  C   UNL A   1      30.404  29.666  23.837  1.00  0.00     0.048 A 
ATOM     14  N   UNL A   1      30.745  28.315  21.904  1.00  0.00    -0.211 NA
ATOM     15  C   UNL A   1      31.020  28.682  24.606  1.00  0.00     0.017 A 
ATOM     16  C   UNL A   1      31.476  27.451  22.608  1.00  0.00     0.166 A 
ATOM     17  C   UNL A   1      31.626  27.554  23.994  1.00  0.00     0.035 A 
ATOM     18  N   UNL A   1      32.099  26.516  21.912  1.00  0.00    -0.193 NA
ATOM     19  C   UNL A   1      32.964  25.687  22.514  1.00  0.00     0.216 A 
ATOM     20  C   UNL A   1      33.202  25.658  23.877  1.00  0.00     0.026 A 
ATOM     21  C   UNL A   1      34.312  24.839  24.475  1.00  0.00     0.051 C 
BRANCH  12  22
ATOM     22  N   UNL A   1      29.564  30.278  21.646  1.00  0.00    -0.311 N 
ATOM     23  C   UNL A   1      27.362  30.166  22.754  1.00  0.00     0.114 C 
ATOM     24  C   UNL A   1      28.222  30.500  21.562  1.00  0.00     0.222 C 
ATOM     25  O   UNL A   1      27.748  31.062  20.574  1.00  0.00    -0.275 OA
ATOM     26  H   UNL A   1      30.112  30.798  21.014  1.00  0.00     0.171 HD
ENDBRANCH  12  22
BRANCH  19  27
ATOM     27  O   UNL A   1      33.621  24.898  21.621  1.00  0.00    -0.493 OA
ATOM     28  H   UNL A   1      33.767  25.201  20.747  1.00  0.00     0.295 HD
ENDBRANCH  19  27
ENDBRANCH   9  11
ENDBRANCH   8   9
ENDBRANCH   7   8
ENDBRANCH   6   7
ENDBRANCH   5   6
ENDBRANCH   4   5
ENDBRANCH   3   4
ENDBRANCH   2   3
ENDBRANCH   1   2
BRANCH   1  29
ATOM     29  C   UNL A   1      35.328  33.770  30.968  1.00  0.00     0.188 C 
BRANCH  29  30
ATOM     30  O   UNL A   1      35.158  34.381  32.234  1.00  0.00    -0.376 OA
BRANCH  30  31
ATOM     31  C   UNL A   1      36.276  34.468  33.097  1.00  0.00     0.202 C 
BRANCH  31  32
ATOM     32  C   UNL A   1      36.396  33.430  34.220  1.00  0.00     0.261 C 
BRANCH  32  33
ATOM     33  O   UNL A   1      36.807  32.114  33.828  1.00  0.00    -0.460 OA
BRANCH  33  34
ATOM     34  C   UNL A   1      37.949  31.637  34.361  1.00  0.00     0.338 C 
ATOM     35  O   UNL A   1      38.249  31.565  35.543  1.00  0.00    -0.246 OA
BRANCH  34  36
ATOM     36  C   UNL A   1      38.731  31.053  33.258  1.00  0.00     0.060 A 
ATOM     37  C   UNL A   1      39.733  30.110  33.533  1.00  0.00     0.016 A 
ATOM     38  C   UNL A   1      38.456  31.444  31.948  1.00  0.00     0.016 A 
ATOM     39  C   UNL A   1      40.486  29.572  32.490  1.00  0.00     0.010 A 
ATOM     40  C   UNL A   1      39.238  30.941  30.913  1.00  0.00     0.010 A 
ATOM     41  C   UNL A   1      40.277  30.034  31.186  1.00  0.00    -0.014 A 
BRANCH  41  42
ATOM     42  C   UNL A   1      41.293  29.791  30.141  1.00  0.00     0.031 A 
ATOM     43  C   UNL A   1      41.279  28.454  29.459  1.00  0.00     0.074 A 
ATOM     44  C   UNL A   1      42.225  30.708  29.843  1.00  0.00     0.049 A 
ATOM     45  N   UNL A   1      42.146  27.932  28.632  1.00  0.00    -0.248 NA
ATOM     46  C   UNL A   1      40.127  27.585  29.757  1.00  0.00     0.031 C 
ATOM     47  C   UNL A   1      42.294  32.056  30.397  1.00  0.00     0.029 A 
ATOM     48  N   UNL A   1      43.311  30.623  29.010  1.00  0.00    -0.354 N 
ATOM     49  C   UNL A   1      41.647  26.676  28.316  1.00  0.00     0.074 A 
ATOM     50  C   UNL A   1      40.419  26.500  29.057  1.00  0.00     0.031 C 
ATOM     51  C   UNL A   1      43.386  32.668  29.907  1.00  0.00     0.029 A 
ATOM     52  C   UNL A   1      44.111  31.737  29.044  1.00  0.00     0.049 A 
ATOM     53  H   UNL A   1      43.499  29.840  28.444  1.00  0.00     0.167 HD
ATOM     54  C   UNL A   1      42.171  25.752  27.478  1.00  0.00     0.037 A 
ATOM     55  C   UNL A   1      45.309  31.957  28.467  1.00  0.00     0.037 A 
ATOM     56  C   UNL A   1      43.412  25.925  26.772  1.00  0.00     0.049 A 
ATOM     57  C   UNL A   1      45.929  30.871  27.623  1.00  0.00     0.074 A 
ATOM     58  C   UNL A   1      44.045  25.047  25.912  1.00  0.00     0.029 A 
ATOM     59  N   UNL A   1      44.214  27.055  26.855  1.00  0.00    -0.354 N 
ATOM     60  N   UNL A   1      45.463  29.680  27.328  1.00  0.00    -0.248 NA
ATOM     61  C   UNL A   1      47.240  31.164  27.028  1.00  0.00     0.031 C 
ATOM     62  C   UNL A   1      45.259  25.620  25.520  1.00  0.00     0.029 A 
ATOM     63  C   UNL A   1      45.348  26.886  26.077  1.00  0.00     0.049 A 
ATOM     64  H   UNL A   1      44.009  27.856  27.388  1.00  0.00     0.167 HD
ATOM     65  C   UNL A   1      46.404  29.097  26.487  1.00  0.00     0.074 A 
ATOM     66  C   UNL A   1      47.462  30.071  26.312  1.00  0.00     0.031 C 
ATOM     67  C   UNL A   1      46.390  27.870  25.909  1.00  0.00     0.037 A 
BRANCH  54  68
ATOM     68  C   UNL A   1      41.419  24.465  27.305  1.00  0.00     0.064 A 
ATOM     69  C   UNL A   1      40.218  24.405  26.583  1.00  0.00     0.173 A 
ATOM     70  C   UNL A   1      41.923  23.269  27.838  1.00  0.00     0.173 A 
ATOM     71  F   UNL A   1      39.681  25.523  26.072  1.00  0.00    -0.203 F 
ATOM     72  C   UNL A   1      39.543  23.199  26.412  1.00  0.00     0.198 A 
ATOM     73  C   UNL A   1      41.263  22.059  27.638  1.00  0.00     0.198 A 
ATOM     74  F   UNL A   1      43.064  23.271  28.544  1.00  0.00    -0.203 F 
ATOM     75  F   UNL A   1      38.375  23.174  25.754  1.00  0.00    -0.200 F 
ATOM     76  C   UNL A   1      40.072  22.026  26.930  1.00  0.00     0.200 A 
ATOM     77  F   UNL A   1      41.782  20.926  28.129  1.00  0.00    -0.200 F 
ATOM     78  F   UNL A   1      39.430  20.864  26.749  1.00  0.00    -0.200 F 
ENDBRANCH  54  68
BRANCH  55  79
ATOM     79  C   UNL A   1      45.991  33.261  28.664  1.00  0.00     0.064 A 
ATOM     80  C   UNL A   1      46.953  33.421  29.670  1.00  0.00     0.173 A 
ATOM     81  C   UNL A   1      45.718  34.365  27.843  1.00  0.00     0.173 A 
ATOM     82  F   UNL A   1      47.231  32.402  30.497  1.00  0.00    -0.203 F 
ATOM     83  C   UNL A   1      47.614  34.634  29.850  1.00  0.00     0.198 A 
ATOM     84  C   UNL A   1      46.400  35.569  28.004  1.00  0.00     0.198 A 
ATOM     85  F   UNL A   1      44.804  34.266  26.866  1.00  0.00    -0.203 F 
ATOM     86  F   UNL A   1      48.508  34.767  30.839  1.00  0.00    -0.200 F 
ATOM     87  C   UNL A   1      47.345  35.704  29.010  1.00  0.00     0.200 A 
ATOM     88  F   UNL A   1      46.149  36.595  27.180  1.00  0.00    -0.200 F 
ATOM     89  F   UNL A   1      47.995  36.864  29.171  1.00  0.00    -0.200 F 
ENDBRANCH  55  79
BRANCH  67  90
ATOM     90  C   UNL A   1      47.530  27.521  24.992  1.00  0.00     0.064 A 
ATOM     91  C   UNL A   1      47.485  27.787  23.615  1.00  0.00     0.173 A 
ATOM     92  C   UNL A   1      48.707  26.956  25.511  1.00  0.00     0.173 A 
ATOM     93  F   UNL A   1      46.381  28.319  23.066  1.00  0.00    -0.203 F 
ATOM     94  C   UNL A   1      48.559  27.470  22.788  1.00  0.00     0.198 A 
ATOM     95  C   UNL A   1      49.794  26.677  24.687  1.00  0.00     0.198 A 
ATOM     96  F   UNL A   1      48.811  26.694  26.822  1.00  0.00    -0.203 F 
ATOM     97  F   UNL A   1      48.470  27.680  21.468  1.00  0.00    -0.200 F 
ATOM     98  C   UNL A   1      49.715  26.923  23.326  1.00  0.00     0.200 A 
ATOM     99  F   UNL A   1      50.918  26.168  25.212  1.00  0.00    -0.200 F 
ATOM    100  F   UNL A   1      50.752  26.627  22.529  1.00  0.00    -0.200 F 
ENDBRANCH  67  90
ENDBRANCH  41  42
ENDBRANCH  34  36
ENDBRANCH  33  34
ENDBRANCH  32  33
ENDBRANCH  31  32
ENDBRANCH  30  31
ENDBRANCH  29  30
ENDBRANCH   1  29
TORSDOF 22
ENDMDL
MODEL 3
REMARK VINA RESULT:     -10.0      7.731     13.096
REMARK SMILES CC(=O)Nc1ccc2c(C(=O)OCCOCCOCCOCCOC(=O)c3ccc(-c4c5nc(c(-c6c(F)c(F)c(F)c(F)c6F)c6ccc([nH]6)c(-c6c(F)c(F)c(F)c(F)c6F)c6nc(c(-c7c(F)c(F)c(F)c(F)c7F)c7ccc4[nH]7)C=C6)C=C5)cc3)c(C)c(O)nc2n1
REMARK SMILES IDX 19 1 18 2 17 3 16 4 15 5 14 6 13 7 12 8 10 9 11 10 9 11 5 12
REMARK SMILES IDX 6 13 96 14 7 15 95 16 8 17 94 18 92 19 90 20 91 21 4 22 1 23
REMARK SMILES IDX 2 24 3 25 93 27 20 29 21 30 22 31 23 32 24 33 25 34 26 35
REMARK SMILES IDX 27 36 28 37 89 38 29 39 88 40 30 41 31 42 32 43 82 44 33 45
REMARK SMILES IDX 87 46 81 47 83 48 34 49 86 50 80 51 79 52 35 54 67 55 47 56
REMARK SMILES IDX 66 57 48 58 51 59 65 60 84 61 49 62 50 63 64 65 85 66 52 67
REMARK SMILES IDX 36 68 37 69 45 70 38 71 39 72 43 73 46 74 40 75 41 76 44 77
REMARK SMILES IDX 42 78 68 79 69 80 77 81 70 82 71 83 75 84 78 85 72 86 73 87
REMARK SMILES IDX 76 88 74 89 53 90 54 91 62 92 55 93 56 94 60 95 63 96 57 97
REMARK SMILES IDX 58 98 61 99 59 100
REMARK H PARENT 4 26 93 28 83 53 51 64
REMARK Flexibility Score: inf
ROOT
ATOM      1  C   UNL A   1      33.418  35.713  29.549  1.00  0.00     0.188 C 
ENDROOT
BRANCH   1   2
ATOM      2  O   UNL A   1      32.255  36.097  30.279  1.00  0.00    -0.377 OA
BRANCH   2   3
ATOM      3  C   UNL A   1      32.388  36.518  31.629  1.00  0.00     0.188 C 
BRANCH   3   4
ATOM      4  C   UNL A   1      33.448  37.589  31.975  1.00  0.00     0.188 C 
BRANCH   4   5
ATOM      5  O   UNL A   1      34.479  37.132  32.834  1.00  0.00    -0.376 OA
BRANCH   5   6
ATOM      6  C   UNL A   1      34.250  35.987  33.632  1.00  0.00     0.202 C 
BRANCH   6   7
ATOM      7  C   UNL A   1      35.078  34.722  33.370  1.00  0.00     0.261 C 
BRANCH   7   8
ATOM      8  O   UNL A   1      35.684  34.141  34.532  1.00  0.00    -0.460 OA
BRANCH   8   9
ATOM      9  C   UNL A   1      37.031  34.115  34.609  1.00  0.00     0.339 C 
ATOM     10  O   UNL A   1      37.779  35.057  34.420  1.00  0.00    -0.246 OA
BRANCH   9  11
ATOM     11  C   UNL A   1      37.464  32.778  35.110  1.00  0.00     0.079 A 
ATOM     12  C   UNL A   1      37.493  31.811  39.178  1.00  0.00     0.135 A 
ATOM     13  C   UNL A   1      36.932  33.028  38.855  1.00  0.00     0.048 A 
ATOM     14  N   UNL A   1      38.074  31.023  38.263  1.00  0.00    -0.211 NA
ATOM     15  C   UNL A   1      37.005  33.436  37.526  1.00  0.00     0.017 A 
ATOM     16  C   UNL A   1      38.000  31.335  36.970  1.00  0.00     0.166 A 
ATOM     17  C   UNL A   1      37.503  32.564  36.524  1.00  0.00     0.035 A 
ATOM     18  N   UNL A   1      38.374  30.391  36.123  1.00  0.00    -0.193 NA
ATOM     19  C   UNL A   1      38.207  30.561  34.803  1.00  0.00     0.216 A 
ATOM     20  C   UNL A   1      37.747  31.726  34.215  1.00  0.00     0.026 A 
ATOM     21  C   UNL A   1      37.404  31.800  32.753  1.00  0.00     0.051 C 
BRANCH  12  22
ATOM     22  N   UNL A   1      37.600  31.368  40.493  1.00  0.00    -0.311 N 
ATOM     23  C   UNL A   1      35.281  31.765  41.237  1.00  0.00     0.114 C 
ATOM     24  C   UNL A   1      36.735  31.502  41.537  1.00  0.00     0.222 C 
ATOM     25  O   UNL A   1      37.120  31.303  42.690  1.00  0.00    -0.275 OA
ATOM     26  H   UNL A   1      38.431  30.883  40.701  1.00  0.00     0.171 HD
ENDBRANCH  12  22
BRANCH  19  27
ATOM     27  O   UNL A   1      38.504  29.433  34.102  1.00  0.00    -0.493 OA
ATOM     28  H   UNL A   1      39.238  29.424  33.520  1.00  0.00     0.295 HD
ENDBRANCH  19  27
ENDBRANCH   9  11
ENDBRANCH   8   9
ENDBRANCH   7   8
ENDBRANCH   6   7
ENDBRANCH   5   6
ENDBRANCH   4   5
ENDBRANCH   3   4
ENDBRANCH   2   3
ENDBRANCH   1   2
BRANCH   1  29
ATOM     29  C   UNL A   1      33.372  34.598  28.473  1.00  0.00     0.188 C 
BRANCH  29  30
ATOM     30  O   UNL A   1      34.427  33.656  28.546  1.00  0.00    -0.376 OA
BRANCH  30  31
ATOM     31  C   UNL A   1      34.159  32.313  28.192  1.00  0.00     0.202 C 
BRANCH  31  32
ATOM     32  C   UNL A   1      35.297  31.295  28.334  1.00  0.00     0.261 C 
BRANCH  32  33
ATOM     33  O   UNL A   1      36.320  31.612  29.287  1.00  0.00    -0.460 OA
BRANCH  33  34
ATOM     34  C   UNL A   1      37.445  30.871  29.260  1.00  0.00     0.338 C 
ATOM     35  O   UNL A   1      37.557  29.695  28.948  1.00  0.00    -0.246 OA
BRANCH  34  36
ATOM     36  C   UNL A   1      38.571  31.783  29.522  1.00  0.00     0.060 A 
ATOM     37  C   UNL A   1      39.836  31.262  29.833  1.00  0.00     0.016 A 
ATOM     38  C   UNL A   1      38.362  33.160  29.450  1.00  0.00     0.016 A 
ATOM     39  C   UNL A   1      40.897  32.126  30.100  1.00  0.00     0.010 A 
ATOM     40  C   UNL A   1      39.410  34.021  29.761  1.00  0.00     0.010 A 
ATOM     41  C   UNL A   1      40.667  33.506  30.122  1.00  0.00    -0.014 A 
BRANCH  41  42
ATOM     42  C   UNL A   1      41.638  34.410  30.772  1.00  0.00     0.031 A 
ATOM     43  C   UNL A   1      41.611  34.494  32.270  1.00  0.00     0.074 A 
ATOM     44  C   UNL A   1      42.482  35.165  30.054  1.00  0.00     0.049 A 
ATOM     45  N   UNL A   1      42.237  35.317  33.069  1.00  0.00    -0.248 NA
ATOM     46  C   UNL A   1      40.751  33.517  32.960  1.00  0.00     0.031 C 
ATOM     47  C   UNL A   1      42.636  35.117  28.603  1.00  0.00     0.029 A 
ATOM     48  N   UNL A   1      43.354  36.143  30.459  1.00  0.00    -0.354 N 
ATOM     49  C   UNL A   1      41.845  34.959  34.352  1.00  0.00     0.074 A 
ATOM     50  C   UNL A   1      40.908  33.865  34.228  1.00  0.00     0.031 C 
ATOM     51  C   UNL A   1      43.532  36.049  28.234  1.00  0.00     0.029 A 
ATOM     52  C   UNL A   1      43.977  36.783  29.419  1.00  0.00     0.049 A 
ATOM     53  H   UNL A   1      43.516  36.365  31.405  1.00  0.00     0.167 HD
ATOM     54  C   UNL A   1      42.237  35.496  35.530  1.00  0.00     0.037 A 
ATOM     55  C   UNL A   1      44.787  37.860  29.428  1.00  0.00     0.037 A 
ATOM     56  C   UNL A   1      43.144  36.607  35.640  1.00  0.00     0.049 A 
ATOM     57  C   UNL A   1      45.125  38.514  30.744  1.00  0.00     0.074 A 
ATOM     58  C   UNL A   1      43.595  37.244  36.781  1.00  0.00     0.029 A 
ATOM     59  N   UNL A   1      43.733  37.253  34.561  1.00  0.00    -0.354 N 
ATOM     60  N   UNL A   1      44.751  38.182  31.957  1.00  0.00    -0.248 NA
ATOM     61  C   UNL A   1      46.003  39.691  30.691  1.00  0.00     0.031 C 
ATOM     62  C   UNL A   1      44.409  38.311  36.392  1.00  0.00     0.029 A 
ATOM     63  C   UNL A   1      44.526  38.295  35.011  1.00  0.00     0.049 A 
ATOM     64  H   UNL A   1      43.604  37.007  33.616  1.00  0.00     0.167 HD
ATOM     65  C   UNL A   1      45.374  39.083  32.812  1.00  0.00     0.074 A 
ATOM     66  C   UNL A   1      46.158  39.970  31.978  1.00  0.00     0.031 C 
ATOM     67  C   UNL A   1      45.306  39.166  34.165  1.00  0.00     0.037 A 
BRANCH  54  68
ATOM     68  C   UNL A   1      41.662  34.911  36.786  1.00  0.00     0.064 A 
ATOM     69  C   UNL A   1      42.248  33.803  37.417  1.00  0.00     0.173 A 
ATOM     70  C   UNL A   1      40.533  35.486  37.388  1.00  0.00     0.173 A 
ATOM     71  F   UNL A   1      43.316  33.202  36.871  1.00  0.00    -0.203 F 
ATOM     72  C   UNL A   1      41.717  33.285  38.595  1.00  0.00     0.198 A 
ATOM     73  C   UNL A   1      40.023  34.985  38.583  1.00  0.00     0.198 A 
ATOM     74  F   UNL A   1      39.929  36.542  36.823  1.00  0.00    -0.203 F 
ATOM     75  F   UNL A   1      42.268  32.199  39.157  1.00  0.00    -0.200 F 
ATOM     76  C   UNL A   1      40.612  33.883  39.183  1.00  0.00     0.200 A 
ATOM     77  F   UNL A   1      38.963  35.572  39.155  1.00  0.00    -0.200 F 
ATOM     78  F   UNL A   1      40.112  33.393  40.326  1.00  0.00    -0.200 F 
ENDBRANCH  54  68
BRANCH  55  79
ATOM     79  C   UNL A   1      45.336  38.378  28.149  1.00  0.00     0.064 A 
ATOM     80  C   UNL A   1      46.542  37.883  27.635  1.00  0.00     0.173 A 
ATOM     81  C   UNL A   1      44.663  39.358  27.403  1.00  0.00     0.173 A 
ATOM     82  F   UNL A   1      47.235  36.965  28.324  1.00  0.00    -0.203 F 
ATOM     83  C   UNL A   1      47.055  38.347  26.426  1.00  0.00     0.198 A 
ATOM     84  C   UNL A   1      45.162  39.800  26.180  1.00  0.00     0.198 A 
ATOM     85  F   UNL A   1      43.506  39.867  27.852  1.00  0.00    -0.203 F 
ATOM     86  F   UNL A   1      48.224  37.877  25.972  1.00  0.00    -0.200 F 
ATOM     87  C   UNL A   1      46.359  39.297  25.694  1.00  0.00     0.200 A 
ATOM     88  F   UNL A   1      44.478  40.706  25.468  1.00  0.00    -0.200 F 
ATOM     89  F   UNL A   1      46.843  39.729  24.521  1.00  0.00    -0.200 F 
ENDBRANCH  55  79
BRANCH  67  90
ATOM     90  C   UNL A   1      46.138  40.222  34.839  1.00  0.00     0.064 A 
ATOM     91  C   UNL A   1      45.636  41.503  35.110  1.00  0.00     0.173 A 
ATOM     92  C   UNL A   1      47.445  39.928  35.264  1.00  0.00     0.173 A 
ATOM     93  F   UNL A   1      44.397  41.839  34.719  1.00  0.00    -0.203 F 
ATOM     94  C   UNL A   1      46.420  42.460  35.749  1.00  0.00     0.198 A 
ATOM     95  C   UNL A   1      48.211  40.875  35.937  1.00  0.00     0.198 A 
ATOM     96  F   UNL A   1      47.971  38.714  35.043  1.00  0.00    -0.203 F 
ATOM     97  F   UNL A   1      45.938  43.695  35.946  1.00  0.00    -0.200 F 
ATOM     98  C   UNL A   1      47.703  42.142  36.169  1.00  0.00     0.200 A 
ATOM     99  F   UNL A   1      49.443  40.558  36.361  1.00  0.00    -0.200 F 
ATOM    100  F   UNL A   1      48.453  43.062  36.793  1.00  0.00    -0.200 F 
ENDBRANCH  67  90
ENDBRANCH  41  42
ENDBRANCH  34  36
ENDBRANCH  33  34
ENDBRANCH  32  33
ENDBRANCH  31  32
ENDBRANCH  30  31
ENDBRANCH  29  30
ENDBRANCH   1  29
TORSDOF 22
ENDMDL
