MODEL 1
REMARK VINA RESULT:      -9.8      0.000      0.000
REMARK SMILES COc1ccc(C(=O)N[C@@H]2CCC[C@H]2C(=O)OCCOCCOCCOCCOC(=O)c2ccc(-c3c4nc(c(-c5c(F)c(F)c(F)c(F)c5F)c5ccc([nH]5)c(-c5c(F)c(F)c(F)c(F)c5F)c5nc(c(-c6c(F)c(F)c(F)c(F)c6F)c6ccc3[nH]6)C=C5)C=C4)cc2)cc1O
REMARK SMILES IDX 22 1 21 2 20 3 19 4 18 5 17 6 15 7 16 8 14 9 10 10 11 11
REMARK SMILES IDX 12 12 13 13 9 14 7 15 8 16 6 18 3 19 4 20 96 21 5 22 95 23
REMARK SMILES IDX 2 24 1 25 97 26 23 28 24 29 25 30 26 31 27 32 28 33 29 34
REMARK SMILES IDX 30 35 31 36 32 37 33 38 94 39 34 40 93 41 35 42 36 43 37 44
REMARK SMILES IDX 87 45 38 46 92 47 86 48 88 49 39 50 91 51 85 52 84 53 40 55
REMARK SMILES IDX 72 56 52 57 71 58 53 59 56 60 70 61 89 62 54 63 55 64 69 66
REMARK SMILES IDX 90 67 57 68 41 69 42 70 50 71 43 72 44 73 48 74 51 75 45 76
REMARK SMILES IDX 46 77 49 78 47 79 73 80 74 81 82 82 75 83 76 84 80 85 83 86
REMARK SMILES IDX 77 87 78 88 81 89 79 90 58 91 59 92 67 93 60 94 61 95 65 96
REMARK SMILES IDX 68 97 62 98 63 99 66 100 64 101
REMARK H PARENT 9 17 97 27 88 54 56 65
REMARK Flexibility Score: inf
ROOT
ATOM      1  C   UNL A   1      39.563  23.412  26.998  1.00  0.00     0.188 C 
ENDROOT
BRANCH   1   2
ATOM      2  C   UNL A   1      38.518  24.383  26.399  1.00  0.00     0.188 C 
BRANCH   2   3
ATOM      3  O   UNL A   1      37.146  24.023  26.261  1.00  0.00    -0.376 OA
BRANCH   3   4
ATOM      4  C   UNL A   1      36.624  23.684  24.990  1.00  0.00     0.202 C 
BRANCH   4   5
ATOM      5  C   UNL A   1      35.180  24.129  24.684  1.00  0.00     0.261 C 
BRANCH   5   6
ATOM      6  O   UNL A   1      34.759  25.408  25.214  1.00  0.00    -0.463 OA
BRANCH   6   7
ATOM      7  C   UNL A   1      33.883  26.094  24.442  1.00  0.00     0.311 C 
ATOM      8  O   UNL A   1      33.785  25.954  23.226  1.00  0.00    -0.252 OA
BRANCH   7   9
ATOM      9  C   UNL A   1      33.089  27.173  25.166  1.00  0.00     0.121 C 
ATOM     10  C   UNL A   1      31.780  26.955  25.964  1.00  0.00     0.096 C 
ATOM     11  C   UNL A   1      31.767  28.242  26.797  1.00  0.00     0.026 C 
ATOM     12  C   UNL A   1      33.180  28.342  27.328  1.00  0.00     0.003 C 
ATOM     13  C   UNL A   1      34.047  27.703  26.252  1.00  0.00     0.017 C 
BRANCH  10  14
ATOM     14  N   UNL A   1      30.513  26.835  25.230  1.00  0.00    -0.348 N 
ATOM     15  C   UNL A   1      30.010  25.820  24.424  1.00  0.00     0.251 C 
ATOM     16  O   UNL A   1      28.939  26.020  23.850  1.00  0.00    -0.269 OA
ATOM     17  H   UNL A   1      29.915  27.611  25.325  1.00  0.00     0.164 HD
BRANCH  15  18
ATOM     18  C   UNL A   1      30.641  24.467  24.310  1.00  0.00     0.043 A 
ATOM     19  C   UNL A   1      32.276  22.147  24.269  1.00  0.00     0.160 A 
ATOM     20  C   UNL A   1      31.689  22.589  25.460  1.00  0.00     0.051 A 
ATOM     21  C   UNL A   1      31.945  22.825  23.098  1.00  0.00     0.158 A 
ATOM     22  C   UNL A   1      30.903  23.751  25.490  1.00  0.00     0.018 A 
ATOM     23  C   UNL A   1      31.062  23.909  23.108  1.00  0.00     0.064 A 
BRANCH  19  24
ATOM     24  O   UNL A   1      33.107  21.075  24.428  1.00  0.00    -0.493 OA
ATOM     25  C   UNL A   1      32.838  20.143  25.466  1.00  0.00     0.278 C 
ENDBRANCH  19  24
BRANCH  21  26
ATOM     26  O   UNL A   1      32.506  22.562  21.881  1.00  0.00    -0.504 OA
ATOM     27  H   UNL A   1      32.849  23.262  21.362  1.00  0.00     0.293 HD
ENDBRANCH  21  26
ENDBRANCH  15  18
ENDBRANCH  10  14
ENDBRANCH   7   9
ENDBRANCH   6   7
ENDBRANCH   5   6
ENDBRANCH   4   5
ENDBRANCH   3   4
ENDBRANCH   2   3
ENDBRANCH   1   2
BRANCH   1  28
ATOM     28  O   UNL A   1      39.502  22.078  26.523  1.00  0.00    -0.377 OA
BRANCH  28  29
ATOM     29  C   UNL A   1      40.759  21.458  26.327  1.00  0.00     0.188 C 
BRANCH  29  30
ATOM     30  C   UNL A   1      40.824  19.994  26.784  1.00  0.00     0.188 C 
BRANCH  30  31
ATOM     31  O   UNL A   1      42.015  19.705  27.500  1.00  0.00    -0.376 OA
BRANCH  31  32
ATOM     32  C   UNL A   1      42.794  18.572  27.163  1.00  0.00     0.202 C 
BRANCH  32  33
ATOM     33  C   UNL A   1      43.140  18.309  25.687  1.00  0.00     0.261 C 
BRANCH  33  34
ATOM     34  O   UNL A   1      43.321  19.454  24.841  1.00  0.00    -0.460 OA
BRANCH  34  35
ATOM     35  C   UNL A   1      44.549  19.699  24.346  1.00  0.00     0.338 C 
ATOM     36  O   UNL A   1      45.183  19.004  23.568  1.00  0.00    -0.246 OA
BRANCH  35  37
ATOM     37  C   UNL A   1      44.917  21.081  24.731  1.00  0.00     0.060 A 
ATOM     38  C   UNL A   1      45.352  21.321  26.041  1.00  0.00     0.016 A 
ATOM     39  C   UNL A   1      44.870  22.127  23.805  1.00  0.00     0.016 A 
ATOM     40  C   UNL A   1      45.708  22.611  26.439  1.00  0.00     0.010 A 
ATOM     41  C   UNL A   1      45.196  23.426  24.212  1.00  0.00     0.010 A 
ATOM     42  C   UNL A   1      45.581  23.678  25.541  1.00  0.00    -0.014 A 
BRANCH  42  43
ATOM     43  C   UNL A   1      45.625  25.065  26.063  1.00  0.00     0.031 A 
ATOM     44  C   UNL A   1      46.943  25.792  26.026  1.00  0.00     0.074 A 
ATOM     45  C   UNL A   1      44.517  25.693  26.498  1.00  0.00     0.049 A 
ATOM     46  N   UNL A   1      47.244  26.999  26.429  1.00  0.00    -0.248 NA
ATOM     47  C   UNL A   1      48.077  25.051  25.447  1.00  0.00     0.031 C 
ATOM     48  C   UNL A   1      43.174  25.119  26.528  1.00  0.00     0.029 A 
ATOM     49  N   UNL A   1      44.353  26.962  26.999  1.00  0.00    -0.354 N 
ATOM     50  C   UNL A   1      48.596  27.162  26.150  1.00  0.00     0.074 A 
ATOM     51  C   UNL A   1      49.067  25.919  25.582  1.00  0.00     0.031 C 
ATOM     52  C   UNL A   1      42.322  26.031  27.028  1.00  0.00     0.029 A 
ATOM     53  C   UNL A   1      43.065  27.240  27.384  1.00  0.00     0.049 A 
ATOM     54  H   UNL A   1      45.089  27.612  27.074  1.00  0.00     0.167 HD
ATOM     55  C   UNL A   1      49.370  28.256  26.337  1.00  0.00     0.037 A 
ATOM     56  C   UNL A   1      42.555  28.339  27.976  1.00  0.00     0.037 A 
ATOM     57  C   UNL A   1      48.901  29.488  26.910  1.00  0.00     0.049 A 
ATOM     58  C   UNL A   1      43.467  29.506  28.269  1.00  0.00     0.074 A 
ATOM     59  C   UNL A   1      49.609  30.652  27.153  1.00  0.00     0.029 A 
ATOM     60  N   UNL A   1      47.601  29.714  27.335  1.00  0.00    -0.354 N 
ATOM     61  N   UNL A   1      44.740  29.660  27.989  1.00  0.00    -0.248 NA
ATOM     62  C   UNL A   1      42.867  30.660  28.957  1.00  0.00     0.031 C 
ATOM     63  C   UNL A   1      48.751  31.562  27.777  1.00  0.00     0.029 A 
ATOM     64  C   UNL A   1      47.492  30.991  27.861  1.00  0.00     0.049 A 
ATOM     65  H   UNL A   1      46.863  29.063  27.273  1.00  0.00     0.167 HD
ATOM     66  C   UNL A   1      45.079  30.935  28.429  1.00  0.00     0.074 A 
ATOM     67  C   UNL A   1      43.874  31.520  28.977  1.00  0.00     0.031 C 
ATOM     68  C   UNL A   1      46.278  31.566  28.384  1.00  0.00     0.037 A 
BRANCH  55  69
ATOM     69  C   UNL A   1      50.814  28.161  25.936  1.00  0.00     0.064 A 
ATOM     70  C   UNL A   1      51.824  27.890  26.872  1.00  0.00     0.173 A 
ATOM     71  C   UNL A   1      51.188  28.301  24.590  1.00  0.00     0.173 A 
ATOM     72  F   UNL A   1      51.521  27.766  28.174  1.00  0.00    -0.203 F 
ATOM     73  C   UNL A   1      53.155  27.781  26.479  1.00  0.00     0.198 A 
ATOM     74  C   UNL A   1      52.516  28.159  24.197  1.00  0.00     0.198 A 
ATOM     75  F   UNL A   1      50.263  28.561  23.654  1.00  0.00    -0.203 F 
ATOM     76  F   UNL A   1      54.107  27.564  27.398  1.00  0.00    -0.200 F 
ATOM     77  C   UNL A   1      53.498  27.905  25.142  1.00  0.00     0.200 A 
ATOM     78  F   UNL A   1      52.845  28.267  22.902  1.00  0.00    -0.200 F 
ATOM     79  F   UNL A   1      54.778  27.785  24.763  1.00  0.00    -0.200 F 
ENDBRANCH  55  69
BRANCH  56  80
ATOM     80  C   UNL A   1      41.116  28.396  28.358  1.00  0.00     0.064 A 
ATOM     81  C   UNL A   1      40.156  28.944  27.494  1.00  0.00     0.173 A 
ATOM     82  C   UNL A   1      40.680  27.969  29.621  1.00  0.00     0.173 A 
ATOM     83  F   UNL A   1      40.524  29.395  26.284  1.00  0.00    -0.203 F 
ATOM     84  C   UNL A   1      38.829  29.094  27.891  1.00  0.00     0.198 A 
ATOM     85  C   UNL A   1      39.345  28.086  30.003  1.00  0.00     0.198 A 
ATOM     86  F   UNL A   1      41.555  27.442  30.491  1.00  0.00    -0.203 F 
ATOM     87  F   UNL A   1      37.950  29.688  27.070  1.00  0.00    -0.200 F 
ATOM     88  C   UNL A   1      38.423  28.662  29.143  1.00  0.00     0.200 A 
ATOM     89  F   UNL A   1      38.957  27.656  31.211  1.00  0.00    -0.200 F 
ATOM     90  F   UNL A   1      37.149  28.815  29.529  1.00  0.00    -0.200 F 
ENDBRANCH  56  80
BRANCH  68  91
ATOM     91  C   UNL A   1      46.337  32.982  28.888  1.00  0.00     0.064 A 
ATOM     92  C   UNL A   1      46.746  33.289  30.193  1.00  0.00     0.173 A 
ATOM     93  C   UNL A   1      46.009  34.049  28.035  1.00  0.00     0.173 A 
ATOM     94  F   UNL A   1      47.060  32.307  31.052  1.00  0.00    -0.203 F 
ATOM     95  C   UNL A   1      46.790  34.608  30.638  1.00  0.00     0.198 A 
ATOM     96  C   UNL A   1      46.091  35.368  28.472  1.00  0.00     0.198 A 
ATOM     97  F   UNL A   1      45.622  33.812  26.772  1.00  0.00    -0.203 F 
ATOM     98  F   UNL A   1      47.125  34.873  31.908  1.00  0.00    -0.200 F 
ATOM     99  C   UNL A   1      46.470  35.646  29.776  1.00  0.00     0.200 A 
ATOM    100  F   UNL A   1      45.800  36.370  27.630  1.00  0.00    -0.200 F 
ATOM    101  F   UNL A   1      46.519  36.914  30.204  1.00  0.00    -0.200 F 
ENDBRANCH  68  91
ENDBRANCH  42  43
ENDBRANCH  35  37
ENDBRANCH  34  35
ENDBRANCH  33  34
ENDBRANCH  32  33
ENDBRANCH  31  32
ENDBRANCH  30  31
ENDBRANCH  29  30
ENDBRANCH  28  29
ENDBRANCH   1  28
TORSDOF 24
ENDMDL
MODEL 2
REMARK VINA RESULT:      -9.5      1.132      2.975
REMARK SMILES COc1ccc(C(=O)N[C@@H]2CCC[C@H]2C(=O)OCCOCCOCCOCCOC(=O)c2ccc(-c3c4nc(c(-c5c(F)c(F)c(F)c(F)c5F)c5ccc([nH]5)c(-c5c(F)c(F)c(F)c(F)c5F)c5nc(c(-c6c(F)c(F)c(F)c(F)c6F)c6ccc3[nH]6)C=C5)C=C4)cc2)cc1O
REMARK SMILES IDX 22 1 21 2 20 3 19 4 18 5 17 6 15 7 16 8 14 9 10 10 11 11
REMARK SMILES IDX 12 12 13 13 9 14 7 15 8 16 6 18 3 19 4 20 96 21 5 22 95 23
REMARK SMILES IDX 2 24 1 25 97 26 23 28 24 29 25 30 26 31 27 32 28 33 29 34
REMARK SMILES IDX 30 35 31 36 32 37 33 38 94 39 34 40 93 41 35 42 36 43 37 44
REMARK SMILES IDX 87 45 38 46 92 47 86 48 88 49 39 50 91 51 85 52 84 53 40 55
REMARK SMILES IDX 72 56 52 57 71 58 53 59 56 60 70 61 89 62 54 63 55 64 69 66
REMARK SMILES IDX 90 67 57 68 41 69 42 70 50 71 43 72 44 73 48 74 51 75 45 76
REMARK SMILES IDX 46 77 49 78 47 79 73 80 74 81 82 82 75 83 76 84 80 85 83 86
REMARK SMILES IDX 77 87 78 88 81 89 79 90 58 91 59 92 67 93 60 94 61 95 65 96
REMARK SMILES IDX 68 97 62 98 63 99 66 100 64 101
REMARK H PARENT 9 17 97 27 88 54 56 65
REMARK Flexibility Score: inf
ROOT
ATOM      1  C   UNL A   1      39.738  23.436  27.139  1.00  0.00     0.188 C 
ENDROOT
BRANCH   1   2
ATOM      2  C   UNL A   1      38.637  24.437  26.718  1.00  0.00     0.188 C 
BRANCH   2   3
ATOM      3  O   UNL A   1      37.299  24.021  26.458  1.00  0.00    -0.376 OA
BRANCH   3   4
ATOM      4  C   UNL A   1      36.992  23.319  25.268  1.00  0.00     0.202 C 
BRANCH   4   5
ATOM      5  C   UNL A   1      35.579  23.513  24.684  1.00  0.00     0.261 C 
BRANCH   5   6
ATOM      6  O   UNL A   1      35.140  24.873  24.461  1.00  0.00    -0.463 OA
BRANCH   6   7
ATOM      7  C   UNL A   1      33.996  25.003  23.748  1.00  0.00     0.311 C 
ATOM      8  O   UNL A   1      33.662  26.035  23.173  1.00  0.00    -0.252 OA
BRANCH   7   9
ATOM      9  C   UNL A   1      33.058  23.806  23.804  1.00  0.00     0.121 C 
ATOM     10  C   UNL A   1      31.510  23.865  23.808  1.00  0.00     0.096 C 
ATOM     11  C   UNL A   1      31.195  22.421  23.397  1.00  0.00     0.026 C 
ATOM     12  C   UNL A   1      32.119  22.169  22.227  1.00  0.00     0.003 C 
ATOM     13  C   UNL A   1      33.350  23.019  22.510  1.00  0.00     0.017 C 
BRANCH  10  14
ATOM     14  N   UNL A   1      30.815  24.180  25.062  1.00  0.00    -0.348 N 
ATOM     15  C   UNL A   1      30.310  25.376  25.559  1.00  0.00     0.251 C 
ATOM     16  O   UNL A   1      29.844  25.374  26.699  1.00  0.00    -0.269 OA
ATOM     17  H   UNL A   1      30.684  23.406  25.658  1.00  0.00     0.164 HD
BRANCH  15  18
ATOM     18  C   UNL A   1      30.202  26.628  24.744  1.00  0.00     0.043 A 
ATOM     19  C   UNL A   1      30.158  28.692  22.796  1.00  0.00     0.160 A 
ATOM     20  C   UNL A   1      29.092  27.793  22.912  1.00  0.00     0.051 A 
ATOM     21  C   UNL A   1      31.183  28.598  23.734  1.00  0.00     0.158 A 
ATOM     22  C   UNL A   1      29.122  26.753  23.855  1.00  0.00     0.018 A 
ATOM     23  C   UNL A   1      31.155  27.640  24.752  1.00  0.00     0.064 A 
BRANCH  19  24
ATOM     24  O   UNL A   1      30.032  29.567  21.755  1.00  0.00    -0.493 OA
ATOM     25  C   UNL A   1      29.186  30.699  21.906  1.00  0.00     0.278 C 
ENDBRANCH  19  24
BRANCH  21  26
ATOM     26  O   UNL A   1      32.324  29.348  23.693  1.00  0.00    -0.504 OA
ATOM     27  H   UNL A   1      32.286  30.269  23.858  1.00  0.00     0.293 HD
ENDBRANCH  21  26
ENDBRANCH  15  18
ENDBRANCH  10  14
ENDBRANCH   7   9
ENDBRANCH   6   7
ENDBRANCH   5   6
ENDBRANCH   4   5
ENDBRANCH   3   4
ENDBRANCH   2   3
ENDBRANCH   1   2
BRANCH   1  28
ATOM     28  O   UNL A   1      39.590  22.118  26.639  1.00  0.00    -0.377 OA
BRANCH  28  29
ATOM     29  C   UNL A   1      40.805  21.452  26.347  1.00  0.00     0.188 C 
BRANCH  29  30
ATOM     30  C   UNL A   1      40.854  19.989  26.809  1.00  0.00     0.188 C 
BRANCH  30  31
ATOM     31  O   UNL A   1      42.051  19.686  27.511  1.00  0.00    -0.376 OA
BRANCH  31  32
ATOM     32  C   UNL A   1      42.835  18.568  27.137  1.00  0.00     0.202 C 
BRANCH  32  33
ATOM     33  C   UNL A   1      43.135  18.325  25.647  1.00  0.00     0.261 C 
BRANCH  33  34
ATOM     34  O   UNL A   1      43.335  19.479  24.820  1.00  0.00    -0.460 OA
BRANCH  34  35
ATOM     35  C   UNL A   1      44.571  19.718  24.341  1.00  0.00     0.338 C 
ATOM     36  O   UNL A   1      45.210  19.022  23.569  1.00  0.00    -0.246 OA
BRANCH  35  37
ATOM     37  C   UNL A   1      44.941  21.099  24.732  1.00  0.00     0.060 A 
ATOM     38  C   UNL A   1      45.333  21.340  26.055  1.00  0.00     0.016 A 
ATOM     39  C   UNL A   1      44.939  22.140  23.800  1.00  0.00     0.016 A 
ATOM     40  C   UNL A   1      45.690  22.627  26.459  1.00  0.00     0.010 A 
ATOM     41  C   UNL A   1      45.265  23.437  24.212  1.00  0.00     0.010 A 
ATOM     42  C   UNL A   1      45.607  23.692  25.552  1.00  0.00    -0.014 A 
BRANCH  42  43
ATOM     43  C   UNL A   1      45.648  25.081  26.070  1.00  0.00     0.031 A 
ATOM     44  C   UNL A   1      46.965  25.809  26.029  1.00  0.00     0.074 A 
ATOM     45  C   UNL A   1      44.540  25.708  26.502  1.00  0.00     0.049 A 
ATOM     46  N   UNL A   1      47.264  27.019  26.428  1.00  0.00    -0.248 NA
ATOM     47  C   UNL A   1      48.101  25.068  25.453  1.00  0.00     0.031 C 
ATOM     48  C   UNL A   1      43.198  25.132  26.534  1.00  0.00     0.029 A 
ATOM     49  N   UNL A   1      44.374  26.979  26.998  1.00  0.00    -0.354 N 
ATOM     50  C   UNL A   1      48.616  27.182  26.148  1.00  0.00     0.074 A 
ATOM     51  C   UNL A   1      49.090  25.938  25.584  1.00  0.00     0.031 C 
ATOM     52  C   UNL A   1      42.344  26.045  27.031  1.00  0.00     0.029 A 
ATOM     53  C   UNL A   1      43.085  27.256  27.383  1.00  0.00     0.049 A 
ATOM     54  H   UNL A   1      45.109  27.630  27.071  1.00  0.00     0.167 HD
ATOM     55  C   UNL A   1      49.389  28.279  26.331  1.00  0.00     0.037 A 
ATOM     56  C   UNL A   1      42.574  28.357  27.971  1.00  0.00     0.037 A 
ATOM     57  C   UNL A   1      48.918  29.512  26.899  1.00  0.00     0.049 A 
ATOM     58  C   UNL A   1      43.484  29.527  28.259  1.00  0.00     0.074 A 
ATOM     59  C   UNL A   1      49.624  30.677  27.138  1.00  0.00     0.029 A 
ATOM     60  N   UNL A   1      47.617  29.737  27.324  1.00  0.00    -0.354 N 
ATOM     61  N   UNL A   1      44.756  29.681  27.979  1.00  0.00    -0.248 NA
ATOM     62  C   UNL A   1      42.882  30.682  28.943  1.00  0.00     0.031 C 
ATOM     63  C   UNL A   1      48.764  31.589  27.759  1.00  0.00     0.029 A 
ATOM     64  C   UNL A   1      47.506  31.016  27.845  1.00  0.00     0.049 A 
ATOM     65  H   UNL A   1      46.881  29.085  27.264  1.00  0.00     0.167 HD
ATOM     66  C   UNL A   1      45.093  30.958  28.414  1.00  0.00     0.074 A 
ATOM     67  C   UNL A   1      43.888  31.543  28.960  1.00  0.00     0.031 C 
ATOM     68  C   UNL A   1      46.291  31.591  28.366  1.00  0.00     0.037 A 
BRANCH  55  69
ATOM     69  C   UNL A   1      50.833  28.185  25.930  1.00  0.00     0.064 A 
ATOM     70  C   UNL A   1      51.237  28.307  24.592  1.00  0.00     0.173 A 
ATOM     71  C   UNL A   1      51.830  28.014  26.903  1.00  0.00     0.173 A 
ATOM     72  F   UNL A   1      50.322  28.453  23.621  1.00  0.00    -0.203 F 
ATOM     73  C   UNL A   1      52.583  28.242  24.241  1.00  0.00     0.198 A 
ATOM     74  C   UNL A   1      53.177  27.982  26.552  1.00  0.00     0.198 A 
ATOM     75  F   UNL A   1      51.498  27.891  28.197  1.00  0.00    -0.203 F 
ATOM     76  F   UNL A   1      52.941  28.318  22.952  1.00  0.00    -0.200 F 
ATOM     77  C   UNL A   1      53.551  28.090  25.221  1.00  0.00     0.200 A 
ATOM     78  F   UNL A   1      54.112  27.848  27.502  1.00  0.00    -0.200 F 
ATOM     79  F   UNL A   1      54.847  28.043  24.883  1.00  0.00    -0.200 F 
ENDBRANCH  55  69
BRANCH  56  80
ATOM     80  C   UNL A   1      41.135  28.413  28.353  1.00  0.00     0.064 A 
ATOM     81  C   UNL A   1      40.175  28.964  27.490  1.00  0.00     0.173 A 
ATOM     82  C   UNL A   1      40.698  27.982  29.615  1.00  0.00     0.173 A 
ATOM     83  F   UNL A   1      40.543  29.418  26.282  1.00  0.00    -0.203 F 
ATOM     84  C   UNL A   1      38.848  29.113  27.887  1.00  0.00     0.198 A 
ATOM     85  C   UNL A   1      39.364  28.099  29.997  1.00  0.00     0.198 A 
ATOM     86  F   UNL A   1      41.573  27.453  30.483  1.00  0.00    -0.203 F 
ATOM     87  F   UNL A   1      37.969  29.709  27.069  1.00  0.00    -0.200 F 
ATOM     88  C   UNL A   1      38.442  28.678  29.138  1.00  0.00     0.200 A 
ATOM     89  F   UNL A   1      38.975  27.665  31.204  1.00  0.00    -0.200 F 
ATOM     90  F   UNL A   1      37.168  28.829  29.524  1.00  0.00    -0.200 F 
ENDBRANCH  56  80
BRANCH  68  91
ATOM     91  C   UNL A   1      46.348  33.009  28.865  1.00  0.00     0.064 A 
ATOM     92  C   UNL A   1      46.142  34.104  28.014  1.00  0.00     0.173 A 
ATOM     93  C   UNL A   1      46.580  33.271  30.225  1.00  0.00     0.173 A 
ATOM     94  F   UNL A   1      45.927  33.910  26.703  1.00  0.00    -0.203 F 
ATOM     95  C   UNL A   1      46.203  35.409  28.497  1.00  0.00     0.198 A 
ATOM     96  C   UNL A   1      46.602  34.575  30.711  1.00  0.00     0.198 A 
ATOM     97  F   UNL A   1      46.772  32.260  31.086  1.00  0.00    -0.203 F 
ATOM     98  F   UNL A   1      46.065  36.440  27.653  1.00  0.00    -0.200 F 
ATOM     99  C   UNL A   1      46.425  35.643  29.845  1.00  0.00     0.200 A 
ATOM    100  F   UNL A   1      46.797  34.797  32.018  1.00  0.00    -0.200 F 
ATOM    101  F   UNL A   1      46.477  36.898  30.310  1.00  0.00    -0.200 F 
ENDBRANCH  68  91
ENDBRANCH  42  43
ENDBRANCH  35  37
ENDBRANCH  34  35
ENDBRANCH  33  34
ENDBRANCH  32  33
ENDBRANCH  31  32
ENDBRANCH  30  31
ENDBRANCH  29  30
ENDBRANCH  28  29
ENDBRANCH   1  28
TORSDOF 24
ENDMDL
MODEL 3
REMARK VINA RESULT:      -9.1      4.096      9.964
REMARK SMILES COc1ccc(C(=O)N[C@@H]2CCC[C@H]2C(=O)OCCOCCOCCOCCOC(=O)c2ccc(-c3c4nc(c(-c5c(F)c(F)c(F)c(F)c5F)c5ccc([nH]5)c(-c5c(F)c(F)c(F)c(F)c5F)c5nc(c(-c6c(F)c(F)c(F)c(F)c6F)c6ccc3[nH]6)C=C5)C=C4)cc2)cc1O
REMARK SMILES IDX 22 1 21 2 20 3 19 4 18 5 17 6 15 7 16 8 14 9 10 10 11 11
REMARK SMILES IDX 12 12 13 13 9 14 7 15 8 16 6 18 3 19 4 20 96 21 5 22 95 23
REMARK SMILES IDX 2 24 1 25 97 26 23 28 24 29 25 30 26 31 27 32 28 33 29 34
REMARK SMILES IDX 30 35 31 36 32 37 33 38 94 39 34 40 93 41 35 42 36 43 37 44
REMARK SMILES IDX 87 45 38 46 92 47 86 48 88 49 39 50 91 51 85 52 84 53 40 55
REMARK SMILES IDX 72 56 52 57 71 58 53 59 56 60 70 61 89 62 54 63 55 64 69 66
REMARK SMILES IDX 90 67 57 68 41 69 42 70 50 71 43 72 44 73 48 74 51 75 45 76
REMARK SMILES IDX 46 77 49 78 47 79 73 80 74 81 82 82 75 83 76 84 80 85 83 86
REMARK SMILES IDX 77 87 78 88 81 89 79 90 58 91 59 92 67 93 60 94 61 95 65 96
REMARK SMILES IDX 68 97 62 98 63 99 66 100 64 101
REMARK H PARENT 9 17 97 27 88 54 56 65
REMARK Flexibility Score: inf
ROOT
ATOM      1  C   UNL A   1      33.898  35.005  30.100  1.00  0.00     0.188 C 
ENDROOT
BRANCH   1   2
ATOM      2  C   UNL A   1      34.421  33.553  30.000  1.00  0.00     0.188 C 
BRANCH   2   3
ATOM      3  O   UNL A   1      33.809  32.589  29.148  1.00  0.00    -0.376 OA
BRANCH   3   4
ATOM      4  C   UNL A   1      34.450  32.189  27.951  1.00  0.00     0.202 C 
BRANCH   4   5
ATOM      5  C   UNL A   1      34.404  30.690  27.598  1.00  0.00     0.261 C 
BRANCH   5   6
ATOM      6  O   UNL A   1      33.157  30.175  27.076  1.00  0.00    -0.463 OA
BRANCH   6   7
ATOM      7  C   UNL A   1      33.256  29.028  26.362  1.00  0.00     0.311 C 
ATOM      8  O   UNL A   1      33.860  28.031  26.749  1.00  0.00    -0.252 OA
BRANCH   7   9
ATOM      9  C   UNL A   1      32.669  29.086  24.959  1.00  0.00     0.121 C 
ATOM     10  C   UNL A   1      32.151  27.876  24.142  1.00  0.00     0.096 C 
ATOM     11  C   UNL A   1      31.295  28.612  23.103  1.00  0.00     0.026 C 
ATOM     12  C   UNL A   1      30.495  29.595  23.928  1.00  0.00     0.003 C 
ATOM     13  C   UNL A   1      31.398  29.949  25.101  1.00  0.00     0.017 C 
BRANCH  10  14
ATOM     14  N   UNL A   1      33.123  27.017  23.454  1.00  0.00    -0.348 N 
ATOM     15  C   UNL A   1      33.496  25.695  23.668  1.00  0.00     0.251 C 
ATOM     16  O   UNL A   1      34.417  25.239  22.988  1.00  0.00    -0.269 OA
ATOM     17  H   UNL A   1      33.595  27.455  22.708  1.00  0.00     0.164 HD
BRANCH  15  18
ATOM     18  C   UNL A   1      32.767  24.771  24.595  1.00  0.00     0.043 A 
ATOM     19  C   UNL A   1      31.323  23.456  26.655  1.00  0.00     0.160 A 
ATOM     20  C   UNL A   1      30.656  24.184  25.664  1.00  0.00     0.051 A 
ATOM     21  C   UNL A   1      32.704  23.318  26.532  1.00  0.00     0.158 A 
ATOM     22  C   UNL A   1      31.368  24.859  24.660  1.00  0.00     0.018 A 
ATOM     23  C   UNL A   1      33.401  23.888  25.462  1.00  0.00     0.064 A 
BRANCH  19  24
ATOM     24  O   UNL A   1      30.500  22.960  27.625  1.00  0.00    -0.493 OA
ATOM     25  C   UNL A   1      29.168  22.604  27.281  1.00  0.00     0.278 C 
ENDBRANCH  19  24
BRANCH  21  26
ATOM     26  O   UNL A   1      33.495  22.712  27.466  1.00  0.00    -0.504 OA
ATOM     27  H   UNL A   1      33.151  22.019  27.993  1.00  0.00     0.293 HD
ENDBRANCH  21  26
ENDBRANCH  15  18
ENDBRANCH  10  14
ENDBRANCH   7   9
ENDBRANCH   6   7
ENDBRANCH   5   6
ENDBRANCH   4   5
ENDBRANCH   3   4
ENDBRANCH   2   3
ENDBRANCH   1   2
BRANCH   1  28
ATOM     28  O   UNL A   1      32.651  35.163  30.756  1.00  0.00    -0.377 OA
BRANCH  28  29
ATOM     29  C   UNL A   1      32.732  35.688  32.069  1.00  0.00     0.188 C 
BRANCH  29  30
ATOM     30  C   UNL A   1      34.144  36.102  32.502  1.00  0.00     0.188 C 
BRANCH  30  31
ATOM     31  O   UNL A   1      34.683  35.232  33.487  1.00  0.00    -0.376 OA
BRANCH  31  32
ATOM     32  C   UNL A   1      35.841  34.466  33.207  1.00  0.00     0.202 C 
BRANCH  32  33
ATOM     33  C   UNL A   1      36.407  33.535  34.293  1.00  0.00     0.261 C 
BRANCH  33  34
ATOM     34  O   UNL A   1      36.741  32.195  33.901  1.00  0.00    -0.460 OA
BRANCH  34  35
ATOM     35  C   UNL A   1      37.759  31.578  34.530  1.00  0.00     0.338 C 
ATOM     36  O   UNL A   1      37.856  31.346  35.725  1.00  0.00    -0.246 OA
BRANCH  35  37
ATOM     37  C   UNL A   1      38.651  31.016  33.489  1.00  0.00     0.060 A 
ATOM     38  C   UNL A   1      39.637  30.098  33.874  1.00  0.00     0.016 A 
ATOM     39  C   UNL A   1      38.498  31.359  32.143  1.00  0.00     0.016 A 
ATOM     40  C   UNL A   1      40.494  29.547  32.920  1.00  0.00     0.010 A 
ATOM     41  C   UNL A   1      39.379  30.832  31.191  1.00  0.00     0.010 A 
ATOM     42  C   UNL A   1      40.403  29.952  31.582  1.00  0.00    -0.014 A 
BRANCH  42  43
ATOM     43  C   UNL A   1      41.519  29.636  30.658  1.00  0.00     0.031 A 
ATOM     44  C   UNL A   1      41.428  28.369  29.851  1.00  0.00     0.074 A 
ATOM     45  C   UNL A   1      42.555  30.477  30.486  1.00  0.00     0.049 A 
ATOM     46  N   UNL A   1      42.272  27.866  28.987  1.00  0.00    -0.248 NA
ATOM     47  C   UNL A   1      40.212  27.560  30.044  1.00  0.00     0.031 C 
ATOM     48  C   UNL A   1      42.727  31.759  31.163  1.00  0.00     0.029 A 
ATOM     49  N   UNL A   1      43.662  30.370  29.678  1.00  0.00    -0.354 N 
ATOM     50  C   UNL A   1      41.687  26.689  28.534  1.00  0.00     0.074 A 
ATOM     51  C   UNL A   1      40.439  26.530  29.244  1.00  0.00     0.031 C 
ATOM     52  C   UNL A   1      43.877  32.320  30.748  1.00  0.00     0.029 A 
ATOM     53  C   UNL A   1      44.537  31.420  29.802  1.00  0.00     0.049 A 
ATOM     54  H   UNL A   1      43.813  29.612  29.068  1.00  0.00     0.167 HD
ATOM     55  C   UNL A   1      42.144  25.826  27.595  1.00  0.00     0.037 A 
ATOM     56  C   UNL A   1      45.743  31.616  29.231  1.00  0.00     0.037 A 
ATOM     57  C   UNL A   1      43.390  25.982  26.895  1.00  0.00     0.049 A 
ATOM     58  C   UNL A   1      46.276  30.583  28.266  1.00  0.00     0.074 A 
ATOM     59  C   UNL A   1      43.949  25.157  25.936  1.00  0.00     0.029 A 
ATOM     60  N   UNL A   1      44.274  27.033  27.086  1.00  0.00    -0.354 N 
ATOM     61  N   UNL A   1      45.712  29.481  27.830  1.00  0.00    -0.248 NA
ATOM     62  C   UNL A   1      47.614  30.826  27.708  1.00  0.00     0.031 C 
ATOM     63  C   UNL A   1      45.198  25.680  25.586  1.00  0.00     0.029 A 
ATOM     64  C   UNL A   1      45.387  26.865  26.277  1.00  0.00     0.049 A 
ATOM     65  H   UNL A   1      44.133  27.787  27.703  1.00  0.00     0.167 HD
ATOM     66  C   UNL A   1      46.607  28.925  26.922  1.00  0.00     0.074 A 
ATOM     67  C   UNL A   1      47.742  29.820  26.856  1.00  0.00     0.031 C 
ATOM     68  C   UNL A   1      46.500  27.778  26.207  1.00  0.00     0.037 A 
BRANCH  55  69
ATOM     69  C   UNL A   1      41.300  24.623  27.288  1.00  0.00     0.064 A 
ATOM     70  C   UNL A   1      41.601  23.357  27.812  1.00  0.00     0.173 A 
ATOM     71  C   UNL A   1      40.148  24.748  26.494  1.00  0.00     0.173 A 
ATOM     72  F   UNL A   1      42.699  23.181  28.561  1.00  0.00    -0.203 F 
ATOM     73  C   UNL A   1      40.792  22.257  27.536  1.00  0.00     0.198 A 
ATOM     74  C   UNL A   1      39.325  23.653  26.248  1.00  0.00     0.198 A 
ATOM     75  F   UNL A   1      39.815  25.936  25.968  1.00  0.00    -0.203 F 
ATOM     76  F   UNL A   1      41.124  21.049  28.012  1.00  0.00    -0.200 F 
ATOM     77  C   UNL A   1      39.652  22.408  26.764  1.00  0.00     0.200 A 
ATOM     78  F   UNL A   1      38.216  23.803  25.511  1.00  0.00    -0.200 F 
ATOM     79  F   UNL A   1      38.867  21.351  26.512  1.00  0.00    -0.200 F 
ENDBRANCH  55  69
BRANCH  56  80
ATOM     80  C   UNL A   1      46.551  32.823  29.559  1.00  0.00     0.064 A 
ATOM     81  C   UNL A   1      46.429  34.005  28.813  1.00  0.00     0.173 A 
ATOM     82  C   UNL A   1      47.512  32.800  30.582  1.00  0.00     0.173 A 
ATOM     83  F   UNL A   1      45.546  34.072  27.805  1.00  0.00    -0.203 F 
ATOM     84  C   UNL A   1      47.259  35.099  29.053  1.00  0.00     0.198 A 
ATOM     85  C   UNL A   1      48.316  33.907  30.844  1.00  0.00     0.198 A 
ATOM     86  F   UNL A   1      47.677  31.695  31.324  1.00  0.00    -0.203 F 
ATOM     87  F   UNL A   1      47.169  36.188  28.276  1.00  0.00    -0.200 F 
ATOM     88  C   UNL A   1      48.199  35.051  30.070  1.00  0.00     0.200 A 
ATOM     89  F   UNL A   1      49.215  33.859  31.836  1.00  0.00    -0.200 F 
ATOM     90  F   UNL A   1      49.002  36.099  30.294  1.00  0.00    -0.200 F 
ENDBRANCH  56  80
BRANCH  68  91
ATOM     91  C   UNL A   1      47.611  27.452  25.248  1.00  0.00     0.064 A 
ATOM     92  C   UNL A   1      48.772  26.781  25.656  1.00  0.00     0.173 A 
ATOM     93  C   UNL A   1      47.492  27.789  23.889  1.00  0.00     0.173 A 
ATOM     94  F   UNL A   1      48.941  26.446  26.945  1.00  0.00    -0.203 F 
ATOM     95  C   UNL A   1      49.790  26.493  24.750  1.00  0.00     0.198 A 
ATOM     96  C   UNL A   1      48.494  27.464  22.979  1.00  0.00     0.198 A 
ATOM     97  F   UNL A   1      46.396  28.421  23.442  1.00  0.00    -0.203 F 
ATOM     98  F   UNL A   1      50.917  25.907  25.176  1.00  0.00    -0.200 F 
ATOM     99  C   UNL A   1      49.647  26.827  23.412  1.00  0.00     0.200 A 
ATOM    100  F   UNL A   1      48.344  27.771  21.683  1.00  0.00    -0.200 F 
ATOM    101  F   UNL A   1      50.623  26.543  22.540  1.00  0.00    -0.200 F 
ENDBRANCH  68  91
ENDBRANCH  42  43
ENDBRANCH  35  37
ENDBRANCH  34  35
ENDBRANCH  33  34
ENDBRANCH  32  33
ENDBRANCH  31  32
ENDBRANCH  30  31
ENDBRANCH  29  30
ENDBRANCH  28  29
ENDBRANCH   1  28
TORSDOF 24
ENDMDL
