MODEL 1
REMARK VINA RESULT:     -11.7      0.000      0.000
REMARK SMILES O=C(NC(=S)Nc1ccccc1C(=O)OCCOCCOCCOCCOC(=O)c1ccc(-c2c3nc(c(-c4c(F)c(F)c(F)c(F)c4F)c4ccc([nH]4)c(-c4c(F)c(F)c(F)c(F)c4F)c4nc(c(-c5c(F)c(F)c(F)c(F)c5F)c5ccc2[nH]5)C=C4)C=C3)cc1)c1ccc2ccccc2c1
REMARK SMILES IDX 20 1 19 2 18 3 17 4 16 5 15 6 13 7 14 8 12 9 7 10 8 11 9 12
REMARK SMILES IDX 11 13 10 14 6 15 4 17 5 18 3 19 1 20 2 21 93 23 94 24 102 25
REMARK SMILES IDX 95 26 101 27 96 28 100 29 97 30 99 31 98 32 21 33 22 34
REMARK SMILES IDX 23 35 24 36 25 37 26 38 27 39 28 40 29 41 30 42 31 43 92 44
REMARK SMILES IDX 32 45 91 46 33 47 34 48 35 49 85 50 36 51 90 52 84 53 86 54
REMARK SMILES IDX 37 55 89 56 83 57 82 58 38 60 70 61 50 62 69 63 51 64 54 65
REMARK SMILES IDX 68 66 87 67 52 68 53 69 67 71 88 72 55 73 39 74 40 75 48 76
REMARK SMILES IDX 41 77 42 78 46 79 49 80 43 81 44 82 47 83 45 84 71 85 72 86
REMARK SMILES IDX 80 87 73 88 74 89 78 90 81 91 75 92 76 93 79 94 77 95 56 96
REMARK SMILES IDX 57 97 65 98 58 99 59 100 63 101 66 102 60 103 61 104 64 105
REMARK SMILES IDX 62 106
REMARK H PARENT 6 16 3 22 86 59 54 70
REMARK Flexibility Score: inf
ROOT
ATOM      1  C   UNL A   1      33.021  33.520  27.784  1.00  0.00     0.188 C 
ENDROOT
BRANCH   1   2
ATOM      2  C   UNL A   1      31.935  32.885  26.876  1.00  0.00     0.188 C 
BRANCH   2   3
ATOM      3  O   UNL A   1      31.723  31.487  26.856  1.00  0.00    -0.376 OA
BRANCH   3   4
ATOM      4  C   UNL A   1      32.690  30.479  27.079  1.00  0.00     0.202 C 
BRANCH   4   5
ATOM      5  C   UNL A   1      32.537  28.983  26.787  1.00  0.00     0.261 C 
BRANCH   5   6
ATOM      6  O   UNL A   1      31.415  28.602  25.992  1.00  0.00    -0.460 OA
BRANCH   6   7
ATOM      7  C   UNL A   1      31.804  28.113  24.806  1.00  0.00     0.340 C 
ATOM      8  O   UNL A   1      32.973  27.912  24.491  1.00  0.00    -0.246 OA
BRANCH   7   9
ATOM      9  C   UNL A   1      30.718  27.807  23.812  1.00  0.00     0.083 A 
ATOM     10  C   UNL A   1      29.400  26.436  24.335  1.00  0.00     0.055 A 
ATOM     11  C   UNL A   1      27.451  26.829  24.021  1.00  0.00     0.027 A 
ATOM     12  C   UNL A   1      27.137  28.588  23.177  1.00  0.00     0.002 A 
ATOM     13  C   UNL A   1      30.384  29.562  22.969  1.00  0.00     0.018 A 
ATOM     14  C   UNL A   1      28.448  29.953  22.642  1.00  0.00     0.001 A 
BRANCH  10  15
ATOM     15  N   UNL A   1      29.703  25.540  25.352  1.00  0.00    -0.332 N 
ATOM     16  H   UNL A   1      29.135  25.536  26.156  1.00  0.00     0.169 HD
BRANCH  15  17
ATOM     17  C   UNL A   1      30.737  24.676  25.293  1.00  0.00     0.177 C 
ATOM     18  S   UNL A   1      31.362  24.082  26.728  1.00  0.00    -0.040 S 
BRANCH  17  19
ATOM     19  N   UNL A   1      31.320  24.308  24.075  1.00  0.00    -0.299 N 
ATOM     20  O   UNL A   1      32.257  23.481  22.172  1.00  0.00    -0.269 OA
ATOM     21  C   UNL A   1      32.212  23.393  23.404  1.00  0.00     0.257 C 
ATOM     22  H   UNL A   1      30.982  24.933  23.394  1.00  0.00     0.172 HD
BRANCH  21  23
ATOM     23  C   UNL A   1      33.119  22.325  24.005  1.00  0.00     0.040 A 
ATOM     24  C   UNL A   1      33.006  21.209  23.388  1.00  0.00     0.014 A 
ATOM     25  C   UNL A   1      33.042  21.062  24.419  1.00  0.00     0.022 A 
ATOM     26  C   UNL A   1      32.715  19.190  23.337  1.00  0.00     0.009 A 
ATOM     27  C   UNL A   1      32.765  19.012  24.608  1.00  0.00    -0.018 A 
ATOM     28  C   UNL A   1      32.559  18.040  23.828  1.00  0.00    -0.018 A 
ATOM     29  C   UNL A   1      32.676  17.855  25.776  1.00  0.00     0.009 A 
ATOM     30  C   UNL A   1      33.354  16.878  23.556  1.00  0.00     0.009 A 
ATOM     31  C   UNL A   1      32.811  16.412  25.706  1.00  0.00     0.001 A 
ATOM     32  C   UNL A   1      33.268  15.919  24.513  1.00  0.00     0.001 A 
ENDBRANCH  21  23
ENDBRANCH  17  19
ENDBRANCH  15  17
ENDBRANCH  10  15
ENDBRANCH   7   9
ENDBRANCH   6   7
ENDBRANCH   5   6
ENDBRANCH   4   5
ENDBRANCH   3   4
ENDBRANCH   2   3
ENDBRANCH   1   2
BRANCH   1  33
ATOM     33  O   UNL A   1      32.658  34.139  28.994  1.00  0.00    -0.377 OA
BRANCH  33  34
ATOM     34  C   UNL A   1      33.191  35.414  29.304  1.00  0.00     0.188 C 
BRANCH  34  35
ATOM     35  C   UNL A   1      33.582  35.838  30.746  1.00  0.00     0.188 C 
BRANCH  35  36
ATOM     36  O   UNL A   1      33.014  35.147  31.833  1.00  0.00    -0.376 OA
BRANCH  36  37
ATOM     37  C   UNL A   1      33.613  34.041  32.472  1.00  0.00     0.202 C 
BRANCH  37  38
ATOM     38  C   UNL A   1      34.442  32.970  31.744  1.00  0.00     0.261 C 
BRANCH  38  39
ATOM     39  O   UNL A   1      35.863  33.110  31.753  1.00  0.00    -0.460 OA
BRANCH  39  40
ATOM     40  C   UNL A   1      36.528  32.366  32.665  1.00  0.00     0.338 C 
ATOM     41  O   UNL A   1      36.294  32.274  33.856  1.00  0.00    -0.246 OA
BRANCH  40  42
ATOM     42  C   UNL A   1      37.489  31.517  31.929  1.00  0.00     0.060 A 
ATOM     43  C   UNL A   1      38.274  30.578  32.620  1.00  0.00     0.016 A 
ATOM     44  C   UNL A   1      37.598  31.652  30.547  1.00  0.00     0.016 A 
ATOM     45  C   UNL A   1      39.189  29.785  31.934  1.00  0.00     0.010 A 
ATOM     46  C   UNL A   1      38.550  30.897  29.868  1.00  0.00     0.010 A 
ATOM     47  C   UNL A   1      39.374  29.992  30.565  1.00  0.00    -0.014 A 
BRANCH  47  48
ATOM     48  C   UNL A   1      40.593  29.489  29.896  1.00  0.00     0.031 A 
ATOM     49  C   UNL A   1      41.714  30.466  29.680  1.00  0.00     0.074 A 
ATOM     50  C   UNL A   1      40.696  28.221  29.467  1.00  0.00     0.049 A 
ATOM     51  N   UNL A   1      42.795  30.349  28.957  1.00  0.00    -0.248 NA
ATOM     52  C   UNL A   1      41.581  31.765  30.364  1.00  0.00     0.031 C 
ATOM     53  C   UNL A   1      39.709  27.166  29.684  1.00  0.00     0.029 A 
ATOM     54  N   UNL A   1      41.683  27.617  28.728  1.00  0.00    -0.354 N 
ATOM     55  C   UNL A   1      43.461  31.560  29.087  1.00  0.00     0.074 A 
ATOM     56  C   UNL A   1      42.644  32.415  29.918  1.00  0.00     0.031 C 
ATOM     57  C   UNL A   1      40.128  26.048  29.064  1.00  0.00     0.029 A 
ATOM     58  C   UNL A   1      41.383  26.327  28.368  1.00  0.00     0.049 A 
ATOM     59  H   UNL A   1      42.523  28.066  28.480  1.00  0.00     0.167 HD
ATOM     60  C   UNL A   1      44.656  31.920  28.566  1.00  0.00     0.037 A 
ATOM     61  C   UNL A   1      42.035  25.491  27.536  1.00  0.00     0.037 A 
ATOM     62  C   UNL A   1      45.454  31.067  27.729  1.00  0.00     0.049 A 
ATOM     63  C   UNL A   1      43.304  25.964  26.861  1.00  0.00     0.074 A 
ATOM     64  C   UNL A   1      46.673  31.337  27.135  1.00  0.00     0.029 A 
ATOM     65  N   UNL A   1      45.106  29.775  27.363  1.00  0.00    -0.354 N 
ATOM     66  N   UNL A   1      43.934  27.109  26.980  1.00  0.00    -0.248 NA
ATOM     67  C   UNL A   1      43.953  25.025  25.934  1.00  0.00     0.031 C 
ATOM     68  C   UNL A   1      47.029  30.235  26.354  1.00  0.00     0.029 A 
ATOM     69  C   UNL A   1      46.078  29.244  26.534  1.00  0.00     0.049 A 
ATOM     70  H   UNL A   1      44.289  29.306  27.651  1.00  0.00     0.167 HD
ATOM     71  C   UNL A   1      45.077  27.002  26.196  1.00  0.00     0.074 A 
ATOM     72  C   UNL A   1      45.055  25.681  25.605  1.00  0.00     0.031 C 
ATOM     73  C   UNL A   1      46.060  27.912  25.987  1.00  0.00     0.037 A 
BRANCH  60  74
ATOM     74  C   UNL A   1      45.161  33.301  28.869  1.00  0.00     0.064 A 
ATOM     75  C   UNL A   1      46.041  33.546  29.934  1.00  0.00     0.173 A 
ATOM     76  C   UNL A   1      44.792  34.387  28.060  1.00  0.00     0.173 A 
ATOM     77  F   UNL A   1      46.416  32.545  30.745  1.00  0.00    -0.203 F 
ATOM     78  C   UNL A   1      46.510  34.830  30.194  1.00  0.00     0.198 A 
ATOM     79  C   UNL A   1      45.295  35.663  28.300  1.00  0.00     0.198 A 
ATOM     80  F   UNL A   1      43.955  34.210  27.027  1.00  0.00    -0.203 F 
ATOM     81  F   UNL A   1      47.307  35.048  31.250  1.00  0.00    -0.200 F 
ATOM     82  C   UNL A   1      46.146  35.886  29.372  1.00  0.00     0.200 A 
ATOM     83  F   UNL A   1      44.957  36.676  27.491  1.00  0.00    -0.200 F 
ATOM     84  F   UNL A   1      46.610  37.118  29.615  1.00  0.00    -0.200 F 
ENDBRANCH  60  74
BRANCH  61  85
ATOM     85  C   UNL A   1      41.505  24.126  27.262  1.00  0.00     0.064 A 
ATOM     86  C   UNL A   1      40.320  23.949  26.532  1.00  0.00     0.173 A 
ATOM     87  C   UNL A   1      42.123  22.978  27.782  1.00  0.00     0.173 A 
ATOM     88  F   UNL A   1      39.678  25.015  26.032  1.00  0.00    -0.203 F 
ATOM     89  C   UNL A   1      39.748  22.688  26.380  1.00  0.00     0.198 A 
ATOM     90  C   UNL A   1      41.573  21.713  27.591  1.00  0.00     0.198 A 
ATOM     91  F   UNL A   1      43.257  23.086  28.491  1.00  0.00    -0.203 F 
ATOM     92  F   UNL A   1      38.567  22.563  25.756  1.00  0.00    -0.200 F 
ATOM     93  C   UNL A   1      40.376  21.571  26.906  1.00  0.00     0.200 A 
ATOM     94  F   UNL A   1      42.190  20.633  28.090  1.00  0.00    -0.200 F 
ATOM     95  F   UNL A   1      39.817  20.360  26.772  1.00  0.00    -0.200 F 
ENDBRANCH  61  85
BRANCH  73  96
ATOM     96  C   UNL A   1      47.248  27.493  25.164  1.00  0.00     0.064 A 
ATOM     97  C   UNL A   1      47.365  27.807  23.803  1.00  0.00     0.173 A 
ATOM     98  C   UNL A   1      48.322  26.827  25.778  1.00  0.00     0.173 A 
ATOM     99  F   UNL A   1      46.366  28.434  23.164  1.00  0.00    -0.203 F 
ATOM    100  C   UNL A   1      48.503  27.448  23.082  1.00  0.00     0.198 A 
ATOM    101  C   UNL A   1      49.474  26.508  25.065  1.00  0.00     0.198 A 
ATOM    102  F   UNL A   1      48.267  26.510  27.081  1.00  0.00    -0.203 F 
ATOM    103  F   UNL A   1      48.574  27.715  21.770  1.00  0.00    -0.200 F 
ATOM    104  C   UNL A   1      49.560  26.812  23.716  1.00  0.00     0.200 A 
ATOM    105  F   UNL A   1      50.503  25.917  25.687  1.00  0.00    -0.200 F 
ATOM    106  F   UNL A   1      50.662  26.489  23.025  1.00  0.00    -0.200 F 
ENDBRANCH  73  96
ENDBRANCH  47  48
ENDBRANCH  40  42
ENDBRANCH  39  40
ENDBRANCH  38  39
ENDBRANCH  37  38
ENDBRANCH  36  37
ENDBRANCH  35  36
ENDBRANCH  34  35
ENDBRANCH  33  34
ENDBRANCH   1  33
TORSDOF 24
ENDMDL
MODEL 2
REMARK VINA RESULT:     -10.6      5.073     10.531
REMARK SMILES O=C(NC(=S)Nc1ccccc1C(=O)OCCOCCOCCOCCOC(=O)c1ccc(-c2c3nc(c(-c4c(F)c(F)c(F)c(F)c4F)c4ccc([nH]4)c(-c4c(F)c(F)c(F)c(F)c4F)c4nc(c(-c5c(F)c(F)c(F)c(F)c5F)c5ccc2[nH]5)C=C4)C=C3)cc1)c1ccc2ccccc2c1
REMARK SMILES IDX 20 1 19 2 18 3 17 4 16 5 15 6 13 7 14 8 12 9 7 10 8 11 9 12
REMARK SMILES IDX 11 13 10 14 6 15 4 17 5 18 3 19 1 20 2 21 93 23 94 24 102 25
REMARK SMILES IDX 95 26 101 27 96 28 100 29 97 30 99 31 98 32 21 33 22 34
REMARK SMILES IDX 23 35 24 36 25 37 26 38 27 39 28 40 29 41 30 42 31 43 92 44
REMARK SMILES IDX 32 45 91 46 33 47 34 48 35 49 85 50 36 51 90 52 84 53 86 54
REMARK SMILES IDX 37 55 89 56 83 57 82 58 38 60 70 61 50 62 69 63 51 64 54 65
REMARK SMILES IDX 68 66 87 67 52 68 53 69 67 71 88 72 55 73 39 74 40 75 48 76
REMARK SMILES IDX 41 77 42 78 46 79 49 80 43 81 44 82 47 83 45 84 71 85 72 86
REMARK SMILES IDX 80 87 73 88 74 89 78 90 81 91 75 92 76 93 79 94 77 95 56 96
REMARK SMILES IDX 57 97 65 98 58 99 59 100 63 101 66 102 60 103 61 104 64 105
REMARK SMILES IDX 62 106
REMARK H PARENT 6 16 3 22 86 59 54 70
REMARK Flexibility Score: inf
ROOT
ATOM      1  C   UNL A   1      40.636  27.109  27.540  1.00  0.00     0.188 C 
ENDROOT
BRANCH   1   2
ATOM      2  C   UNL A   1      40.480  28.638  27.751  1.00  0.00     0.188 C 
BRANCH   2   3
ATOM      3  O   UNL A   1      39.413  29.167  28.512  1.00  0.00    -0.376 OA
BRANCH   3   4
ATOM      4  C   UNL A   1      38.390  28.437  29.162  1.00  0.00     0.202 C 
BRANCH   4   5
ATOM      5  C   UNL A   1      37.233  29.015  29.981  1.00  0.00     0.261 C 
BRANCH   5   6
ATOM      6  O   UNL A   1      37.364  30.374  30.396  1.00  0.00    -0.460 OA
BRANCH   6   7
ATOM      7  C   UNL A   1      36.994  30.528  31.676  1.00  0.00     0.340 C 
ATOM      8  O   UNL A   1      36.634  29.610  32.407  1.00  0.00    -0.246 OA
BRANCH   7   9
ATOM      9  C   UNL A   1      37.024  31.928  32.224  1.00  0.00     0.083 A 
ATOM     10  C   UNL A   1      35.367  32.984  32.047  1.00  0.00     0.055 A 
ATOM     11  C   UNL A   1      34.728  34.017  33.652  1.00  0.00     0.027 A 
ATOM     12  C   UNL A   1      35.917  33.835  35.219  1.00  0.00     0.002 A 
ATOM     13  C   UNL A   1      38.200  31.758  33.802  1.00  0.00     0.018 A 
ATOM     14  C   UNL A   1      37.575  32.794  35.398  1.00  0.00     0.001 A 
BRANCH  10  15
ATOM     15  N   UNL A   1      34.404  32.606  31.120  1.00  0.00    -0.332 N 
ATOM     16  H   UNL A   1      33.585  32.170  31.448  1.00  0.00     0.169 HD
BRANCH  15  17
ATOM     17  C   UNL A   1      34.537  32.807  29.793  1.00  0.00     0.177 C 
ATOM     18  S   UNL A   1      34.299  34.353  29.194  1.00  0.00    -0.040 S 
BRANCH  17  19
ATOM     19  N   UNL A   1      34.817  31.757  28.912  1.00  0.00    -0.299 N 
ATOM     20  O   UNL A   1      35.134  30.161  27.319  1.00  0.00    -0.269 OA
ATOM     21  C   UNL A   1      34.314  30.918  27.851  1.00  0.00     0.257 C 
ATOM     22  H   UNL A   1      35.742  31.471  29.091  1.00  0.00     0.172 HD
BRANCH  21  23
ATOM     23  C   UNL A   1      32.900  30.829  27.289  1.00  0.00     0.040 A 
ATOM     24  C   UNL A   1      32.564  29.618  27.046  1.00  0.00     0.014 A 
ATOM     25  C   UNL A   1      32.258  30.250  26.277  1.00  0.00     0.022 A 
ATOM     26  C   UNL A   1      31.821  28.153  25.835  1.00  0.00     0.009 A 
ATOM     27  C   UNL A   1      31.440  28.936  24.891  1.00  0.00    -0.018 A 
ATOM     28  C   UNL A   1      31.286  27.686  24.794  1.00  0.00    -0.018 A 
ATOM     29  C   UNL A   1      30.712  28.955  23.414  1.00  0.00     0.009 A 
ATOM     30  C   UNL A   1      30.092  26.896  24.725  1.00  0.00     0.009 A 
ATOM     31  C   UNL A   1      29.897  27.965  22.736  1.00  0.00     0.001 A 
ATOM     32  C   UNL A   1      29.501  26.901  23.503  1.00  0.00     0.001 A 
ENDBRANCH  21  23
ENDBRANCH  17  19
ENDBRANCH  15  17
ENDBRANCH  10  15
ENDBRANCH   7   9
ENDBRANCH   6   7
ENDBRANCH   5   6
ENDBRANCH   4   5
ENDBRANCH   3   4
ENDBRANCH   2   3
ENDBRANCH   1   2
BRANCH   1  33
ATOM     33  O   UNL A   1      41.404  26.345  28.438  1.00  0.00    -0.377 OA
BRANCH  33  34
ATOM     34  C   UNL A   1      41.535  24.951  28.222  1.00  0.00     0.188 C 
BRANCH  34  35
ATOM     35  C   UNL A   1      42.844  24.170  28.517  1.00  0.00     0.188 C 
BRANCH  35  36
ATOM     36  O   UNL A   1      43.912  24.270  27.605  1.00  0.00    -0.376 OA
BRANCH  36  37
ATOM     37  C   UNL A   1      43.920  23.683  26.323  1.00  0.00     0.202 C 
BRANCH  37  38
ATOM     38  C   UNL A   1      44.954  24.008  25.233  1.00  0.00     0.261 C 
BRANCH  38  39
ATOM     39  O   UNL A   1      44.947  25.325  24.681  1.00  0.00    -0.460 OA
BRANCH  39  40
ATOM     40  C   UNL A   1      46.032  26.087  24.947  1.00  0.00     0.338 C 
ATOM     41  O   UNL A   1      47.124  26.027  24.414  1.00  0.00    -0.246 OA
BRANCH  40  42
ATOM     42  C   UNL A   1      45.608  27.153  25.878  1.00  0.00     0.060 A 
ATOM     43  C   UNL A   1      46.527  27.698  26.791  1.00  0.00     0.016 A 
ATOM     44  C   UNL A   1      44.295  27.616  25.832  1.00  0.00     0.016 A 
ATOM     45  C   UNL A   1      46.129  28.695  27.680  1.00  0.00     0.010 A 
ATOM     46  C   UNL A   1      43.884  28.574  26.755  1.00  0.00     0.010 A 
ATOM     47  C   UNL A   1      44.789  29.085  27.705  1.00  0.00    -0.014 A 
BRANCH  47  48
ATOM     48  C   UNL A   1      44.248  29.807  28.877  1.00  0.00     0.031 A 
ATOM     49  C   UNL A   1      44.107  31.299  28.761  1.00  0.00     0.074 A 
ATOM     50  C   UNL A   1      43.922  29.173  30.014  1.00  0.00     0.049 A 
ATOM     51  N   UNL A   1      43.853  32.187  29.685  1.00  0.00    -0.248 NA
ATOM     52  C   UNL A   1      44.299  31.866  27.414  1.00  0.00     0.031 C 
ATOM     53  C   UNL A   1      43.946  27.728  30.219  1.00  0.00     0.029 A 
ATOM     54  N   UNL A   1      43.529  29.682  31.227  1.00  0.00    -0.354 N 
ATOM     55  C   UNL A   1      43.870  33.413  29.035  1.00  0.00     0.074 A 
ATOM     56  C   UNL A   1      44.204  33.164  27.652  1.00  0.00     0.031 C 
ATOM     57  C   UNL A   1      43.610  27.466  31.495  1.00  0.00     0.029 A 
ATOM     58  C   UNL A   1      43.399  28.727  32.204  1.00  0.00     0.049 A 
ATOM     59  H   UNL A   1      43.358  30.640  31.380  1.00  0.00     0.167 HD
ATOM     60  C   UNL A   1      43.617  34.639  29.550  1.00  0.00     0.037 A 
ATOM     61  C   UNL A   1      43.178  28.871  33.525  1.00  0.00     0.037 A 
ATOM     62  C   UNL A   1      43.300  34.877  30.931  1.00  0.00     0.049 A 
ATOM     63  C   UNL A   1      43.028  30.262  34.100  1.00  0.00     0.074 A 
ATOM     64  C   UNL A   1      43.042  36.080  31.561  1.00  0.00     0.029 A 
ATOM     65  N   UNL A   1      43.204  33.887  31.898  1.00  0.00    -0.354 N 
ATOM     66  N   UNL A   1      43.046  31.423  33.489  1.00  0.00    -0.248 NA
ATOM     67  C   UNL A   1      42.826  30.362  35.554  1.00  0.00     0.031 C 
ATOM     68  C   UNL A   1      42.857  35.827  32.922  1.00  0.00     0.029 A 
ATOM     69  C   UNL A   1      42.911  34.457  33.124  1.00  0.00     0.049 A 
ATOM     70  H   UNL A   1      43.326  32.924  31.736  1.00  0.00     0.167 HD
ATOM     71  C   UNL A   1      42.798  32.378  34.469  1.00  0.00     0.074 A 
ATOM     72  C   UNL A   1      42.633  31.662  35.715  1.00  0.00     0.031 C 
ATOM     73  C   UNL A   1      42.709  33.725  34.348  1.00  0.00     0.037 A 
BRANCH  60  74
ATOM     74  C   UNL A   1      43.695  35.814  28.619  1.00  0.00     0.064 A 
ATOM     75  C   UNL A   1      42.548  36.350  28.012  1.00  0.00     0.173 A 
ATOM     76  C   UNL A   1      44.925  36.439  28.363  1.00  0.00     0.173 A 
ATOM     77  F   UNL A   1      41.349  35.782  28.214  1.00  0.00    -0.203 F 
ATOM     78  C   UNL A   1      42.635  37.448  27.162  1.00  0.00     0.198 A 
ATOM     79  C   UNL A   1      45.001  37.562  27.543  1.00  0.00     0.198 A 
ATOM     80  F   UNL A   1      46.052  35.971  28.919  1.00  0.00    -0.203 F 
ATOM     81  F   UNL A   1      41.533  37.907  26.551  1.00  0.00    -0.200 F 
ATOM     82  C   UNL A   1      43.859  38.060  26.936  1.00  0.00     0.200 A 
ATOM     83  F   UNL A   1      46.182  38.164  27.344  1.00  0.00    -0.200 F 
ATOM     84  F   UNL A   1      43.938  39.126  26.129  1.00  0.00    -0.200 F 
ENDBRANCH  60  74
BRANCH  61  85
ATOM     85  C   UNL A   1      43.104  27.680  34.417  1.00  0.00     0.064 A 
ATOM     86  C   UNL A   1      44.253  27.190  35.055  1.00  0.00     0.173 A 
ATOM     87  C   UNL A   1      41.910  26.964  34.591  1.00  0.00     0.173 A 
ATOM     88  F   UNL A   1      45.425  27.824  34.904  1.00  0.00    -0.203 F 
ATOM     89  C   UNL A   1      44.221  26.005  35.788  1.00  0.00     0.198 A 
ATOM     90  C   UNL A   1      41.870  25.803  35.361  1.00  0.00     0.198 A 
ATOM     91  F   UNL A   1      40.780  27.384  34.003  1.00  0.00    -0.203 F 
ATOM     92  F   UNL A   1      45.354  25.513  36.309  1.00  0.00    -0.200 F 
ATOM     93  C   UNL A   1      43.030  25.314  35.943  1.00  0.00     0.200 A 
ATOM     94  F   UNL A   1      40.714  25.145  35.519  1.00  0.00    -0.200 F 
ATOM     95  F   UNL A   1      43.003  24.166  36.633  1.00  0.00    -0.200 F 
ENDBRANCH  61  85
BRANCH  73  96
ATOM     96  C   UNL A   1      42.326  34.520  35.567  1.00  0.00     0.064 A 
ATOM     97  C   UNL A   1      43.269  34.948  36.511  1.00  0.00     0.173 A 
ATOM     98  C   UNL A   1      40.991  34.922  35.745  1.00  0.00     0.173 A 
ATOM     99  F   UNL A   1      44.555  34.585  36.395  1.00  0.00    -0.203 F 
ATOM    100  C   UNL A   1      42.886  35.727  37.602  1.00  0.00     0.198 A 
ATOM    101  C   UNL A   1      40.620  35.736  36.812  1.00  0.00     0.198 A 
ATOM    102  F   UNL A   1      40.048  34.550  34.866  1.00  0.00    -0.203 F 
ATOM    103  F   UNL A   1      43.796  36.083  38.520  1.00  0.00    -0.200 F 
ATOM    104  C   UNL A   1      41.566  36.130  37.743  1.00  0.00     0.200 A 
ATOM    105  F   UNL A   1      39.349  36.144  36.931  1.00  0.00    -0.200 F 
ATOM    106  F   UNL A   1      41.207  36.899  38.781  1.00  0.00    -0.200 F 
ENDBRANCH  73  96
ENDBRANCH  47  48
ENDBRANCH  40  42
ENDBRANCH  39  40
ENDBRANCH  38  39
ENDBRANCH  37  38
ENDBRANCH  36  37
ENDBRANCH  35  36
ENDBRANCH  34  35
ENDBRANCH  33  34
ENDBRANCH   1  33
TORSDOF 24
ENDMDL
MODEL 3
REMARK VINA RESULT:     -10.6      5.411      9.127
REMARK SMILES O=C(NC(=S)Nc1ccccc1C(=O)OCCOCCOCCOCCOC(=O)c1ccc(-c2c3nc(c(-c4c(F)c(F)c(F)c(F)c4F)c4ccc([nH]4)c(-c4c(F)c(F)c(F)c(F)c4F)c4nc(c(-c5c(F)c(F)c(F)c(F)c5F)c5ccc2[nH]5)C=C4)C=C3)cc1)c1ccc2ccccc2c1
REMARK SMILES IDX 20 1 19 2 18 3 17 4 16 5 15 6 13 7 14 8 12 9 7 10 8 11 9 12
REMARK SMILES IDX 11 13 10 14 6 15 4 17 5 18 3 19 1 20 2 21 93 23 94 24 102 25
REMARK SMILES IDX 95 26 101 27 96 28 100 29 97 30 99 31 98 32 21 33 22 34
REMARK SMILES IDX 23 35 24 36 25 37 26 38 27 39 28 40 29 41 30 42 31 43 92 44
REMARK SMILES IDX 32 45 91 46 33 47 34 48 35 49 85 50 36 51 90 52 84 53 86 54
REMARK SMILES IDX 37 55 89 56 83 57 82 58 38 60 70 61 50 62 69 63 51 64 54 65
REMARK SMILES IDX 68 66 87 67 52 68 53 69 67 71 88 72 55 73 39 74 40 75 48 76
REMARK SMILES IDX 41 77 42 78 46 79 49 80 43 81 44 82 47 83 45 84 71 85 72 86
REMARK SMILES IDX 80 87 73 88 74 89 78 90 81 91 75 92 76 93 79 94 77 95 56 96
REMARK SMILES IDX 57 97 65 98 58 99 59 100 63 101 66 102 60 103 61 104 64 105
REMARK SMILES IDX 62 106
REMARK H PARENT 6 16 3 22 86 59 54 70
REMARK Flexibility Score: inf
ROOT
ATOM      1  C   UNL A   1      40.823  32.801  38.706  1.00  0.00     0.188 C 
ENDROOT
BRANCH   1   2
ATOM      2  C   UNL A   1      39.465  33.041  37.994  1.00  0.00     0.188 C 
BRANCH   2   3
ATOM      3  O   UNL A   1      38.554  31.982  37.780  1.00  0.00    -0.376 OA
BRANCH   3   4
ATOM      4  C   UNL A   1      38.428  31.195  36.611  1.00  0.00     0.202 C 
BRANCH   4   5
ATOM      5  C   UNL A   1      37.887  31.654  35.253  1.00  0.00     0.261 C 
BRANCH   5   6
ATOM      6  O   UNL A   1      38.583  32.728  34.622  1.00  0.00    -0.460 OA
BRANCH   6   7
ATOM      7  C   UNL A   1      38.871  32.435  33.346  1.00  0.00     0.340 C 
ATOM      8  O   UNL A   1      39.423  33.207  32.567  1.00  0.00    -0.246 OA
BRANCH   7   9
ATOM      9  C   UNL A   1      38.476  31.069  32.859  1.00  0.00     0.083 A 
ATOM     10  C   UNL A   1      36.670  30.892  32.086  1.00  0.00     0.055 A 
ATOM     11  C   UNL A   1      36.475  29.876  30.359  1.00  0.00     0.027 A 
ATOM     12  C   UNL A   1      38.185  29.152  29.684  1.00  0.00     0.002 A 
ATOM     13  C   UNL A   1      40.176  30.338  32.168  1.00  0.00     0.018 A 
ATOM     14  C   UNL A   1      39.987  29.314  30.457  1.00  0.00     0.001 A 
BRANCH  10  15
ATOM     15  N   UNL A   1      35.706  31.854  32.359  1.00  0.00    -0.332 N 
ATOM     16  H   UNL A   1      35.031  31.658  33.049  1.00  0.00     0.169 HD
BRANCH  15  17
ATOM     17  C   UNL A   1      35.649  33.044  31.727  1.00  0.00     0.177 C 
ATOM     18  S   UNL A   1      34.226  33.923  31.809  1.00  0.00    -0.040 S 
BRANCH  17  19
ATOM     19  N   UNL A   1      36.723  33.531  30.974  1.00  0.00    -0.299 N 
ATOM     20  O   UNL A   1      38.315  34.354  29.569  1.00  0.00    -0.269 OA
ATOM     21  C   UNL A   1      37.325  33.620  29.665  1.00  0.00     0.257 C 
ATOM     22  H   UNL A   1      37.316  34.012  31.596  1.00  0.00     0.172 HD
BRANCH  21  23
ATOM     23  C   UNL A   1      36.909  32.929  28.371  1.00  0.00     0.040 A 
ATOM     24  C   UNL A   1      35.635  32.877  28.253  1.00  0.00     0.014 A 
ATOM     25  C   UNL A   1      36.072  31.975  27.969  1.00  0.00     0.022 A 
ATOM     26  C   UNL A   1      33.888  31.881  27.908  1.00  0.00     0.009 A 
ATOM     27  C   UNL A   1      34.430  30.772  27.554  1.00  0.00    -0.018 A 
ATOM     28  C   UNL A   1      33.173  30.890  27.600  1.00  0.00    -0.018 A 
ATOM     29  C   UNL A   1      34.084  29.244  27.046  1.00  0.00     0.009 A 
ATOM     30  C   UNL A   1      32.193  30.834  26.554  1.00  0.00     0.009 A 
ATOM     31  C   UNL A   1      32.873  28.673  26.487  1.00  0.00     0.001 A 
ATOM     32  C   UNL A   1      31.898  29.573  26.147  1.00  0.00     0.001 A 
ENDBRANCH  21  23
ENDBRANCH  17  19
ENDBRANCH  15  17
ENDBRANCH  10  15
ENDBRANCH   7   9
ENDBRANCH   6   7
ENDBRANCH   5   6
ENDBRANCH   4   5
ENDBRANCH   3   4
ENDBRANCH   2   3
ENDBRANCH   1   2
BRANCH   1  33
ATOM     33  O   UNL A   1      40.853  32.352  40.039  1.00  0.00    -0.377 OA
BRANCH  33  34
ATOM     34  C   UNL A   1      39.867  32.814  40.946  1.00  0.00     0.188 C 
BRANCH  34  35
ATOM     35  C   UNL A   1      39.686  34.313  41.305  1.00  0.00     0.188 C 
BRANCH  35  36
ATOM     36  O   UNL A   1      38.682  35.051  40.649  1.00  0.00    -0.376 OA
BRANCH  36  37
ATOM     37  C   UNL A   1      38.527  36.449  40.753  1.00  0.00     0.202 C 
BRANCH  37  38
ATOM     38  C   UNL A   1      38.925  37.444  39.650  1.00  0.00     0.261 C 
BRANCH  38  39
ATOM     39  O   UNL A   1      39.604  36.929  38.505  1.00  0.00    -0.460 OA
BRANCH  39  40
ATOM     40  C   UNL A   1      40.943  36.788  38.620  1.00  0.00     0.338 C 
ATOM     41  O   UNL A   1      41.621  36.964  39.616  1.00  0.00    -0.246 OA
BRANCH  40  42
ATOM     42  C   UNL A   1      41.437  36.190  37.362  1.00  0.00     0.060 A 
ATOM     43  C   UNL A   1      40.532  35.828  36.350  1.00  0.00     0.016 A 
ATOM     44  C   UNL A   1      42.806  36.000  37.190  1.00  0.00     0.016 A 
ATOM     45  C   UNL A   1      40.991  35.252  35.168  1.00  0.00     0.010 A 
ATOM     46  C   UNL A   1      43.261  35.377  36.031  1.00  0.00     0.010 A 
ATOM     47  C   UNL A   1      42.352  34.966  35.037  1.00  0.00    -0.014 A 
BRANCH  47  48
ATOM     48  C   UNL A   1      42.812  34.003  34.015  1.00  0.00     0.031 A 
ATOM     49  C   UNL A   1      43.057  34.532  32.630  1.00  0.00     0.074 A 
ATOM     50  C   UNL A   1      42.980  32.699  34.290  1.00  0.00     0.049 A 
ATOM     51  N   UNL A   1      43.269  33.886  31.515  1.00  0.00    -0.248 NA
ATOM     52  C   UNL A   1      43.041  35.999  32.484  1.00  0.00     0.031 C 
ATOM     53  C   UNL A   1      42.845  32.084  35.608  1.00  0.00     0.029 A 
ATOM     54  N   UNL A   1      43.276  31.652  33.454  1.00  0.00    -0.354 N 
ATOM     55  C   UNL A   1      43.395  34.864  30.537  1.00  0.00     0.074 A 
ATOM     56  C   UNL A   1      43.191  36.143  31.178  1.00  0.00     0.031 C 
ATOM     57  C   UNL A   1      43.030  30.757  35.487  1.00  0.00     0.029 A 
ATOM     58  C   UNL A   1      43.245  30.429  34.078  1.00  0.00     0.049 A 
ATOM     59  H   UNL A   1      43.489  31.766  32.500  1.00  0.00     0.167 HD
ATOM     60  C   UNL A   1      43.670  34.705  29.222  1.00  0.00     0.037 A 
ATOM     61  C   UNL A   1      43.337  29.192  33.553  1.00  0.00     0.037 A 
ATOM     62  C   UNL A   1      43.857  33.427  28.593  1.00  0.00     0.049 A 
ATOM     63  C   UNL A   1      43.514  29.036  32.059  1.00  0.00     0.074 A 
ATOM     64  C   UNL A   1      44.123  33.151  27.264  1.00  0.00     0.029 A 
ATOM     65  N   UNL A   1      43.791  32.208  29.252  1.00  0.00    -0.354 N 
ATOM     66  N   UNL A   1      43.630  29.958  31.133  1.00  0.00    -0.248 NA
ATOM     67  C   UNL A   1      43.570  27.662  31.536  1.00  0.00     0.031 C 
ATOM     68  C   UNL A   1      44.150  31.764  27.106  1.00  0.00     0.029 A 
ATOM     69  C   UNL A   1      43.991  31.177  28.350  1.00  0.00     0.049 A 
ATOM     70  H   UNL A   1      43.626  32.094  30.215  1.00  0.00     0.167 HD
ATOM     71  C   UNL A   1      43.835  29.279  29.937  1.00  0.00     0.074 A 
ATOM     72  C   UNL A   1      43.826  27.867  30.253  1.00  0.00     0.031 C 
ATOM     73  C   UNL A   1      44.019  29.777  28.690  1.00  0.00     0.037 A 
BRANCH  60  74
ATOM     74  C   UNL A   1      43.762  35.942  28.376  1.00  0.00     0.064 A 
ATOM     75  C   UNL A   1      42.619  36.547  27.831  1.00  0.00     0.173 A 
ATOM     76  C   UNL A   1      45.004  36.553  28.141  1.00  0.00     0.173 A 
ATOM     77  F   UNL A   1      41.410  35.997  28.016  1.00  0.00    -0.203 F 
ATOM     78  C   UNL A   1      42.720  37.701  27.060  1.00  0.00     0.198 A 
ATOM     79  C   UNL A   1      45.095  37.729  27.402  1.00  0.00     0.198 A 
ATOM     80  F   UNL A   1      46.127  36.018  28.641  1.00  0.00    -0.203 F 
ATOM     81  F   UNL A   1      41.620  38.231  26.504  1.00  0.00    -0.200 F 
ATOM     82  C   UNL A   1      43.955  38.297  26.854  1.00  0.00     0.200 A 
ATOM     83  F   UNL A   1      46.288  38.313  27.223  1.00  0.00    -0.200 F 
ATOM     84  F   UNL A   1      44.048  39.415  26.123  1.00  0.00    -0.200 F 
ENDBRANCH  60  74
BRANCH  61  85
ATOM     85  C   UNL A   1      43.244  27.988  34.426  1.00  0.00     0.064 A 
ATOM     86  C   UNL A   1      42.047  27.264  34.525  1.00  0.00     0.173 A 
ATOM     87  C   UNL A   1      44.317  27.580  35.234  1.00  0.00     0.173 A 
ATOM     88  F   UNL A   1      40.984  27.625  33.792  1.00  0.00    -0.203 F 
ATOM     89  C   UNL A   1      41.911  26.216  35.433  1.00  0.00     0.198 A 
ATOM     90  C   UNL A   1      44.193  26.503  36.109  1.00  0.00     0.198 A 
ATOM     91  F   UNL A   1      45.486  28.236  35.184  1.00  0.00    -0.203 F 
ATOM     92  F   UNL A   1      40.726  25.603  35.569  1.00  0.00    -0.200 F 
ATOM     93  C   UNL A   1      42.984  25.834  36.221  1.00  0.00     0.200 A 
ATOM     94  F   UNL A   1      45.237  26.129  36.860  1.00  0.00    -0.200 F 
ATOM     95  F   UNL A   1      42.847  24.836  37.105  1.00  0.00    -0.200 F 
ENDBRANCH  61  85
BRANCH  73  96
ATOM     96  C   UNL A   1      44.324  28.809  27.580  1.00  0.00     0.064 A 
ATOM     97  C   UNL A   1      45.599  28.258  27.393  1.00  0.00     0.173 A 
ATOM     98  C   UNL A   1      43.290  28.370  26.735  1.00  0.00     0.173 A 
ATOM     99  F   UNL A   1      46.624  28.648  28.165  1.00  0.00    -0.203 F 
ATOM    100  C   UNL A   1      45.834  27.323  26.385  1.00  0.00     0.198 A 
ATOM    101  C   UNL A   1      43.519  27.405  25.758  1.00  0.00     0.198 A 
ATOM    102  F   UNL A   1      42.047  28.857  26.876  1.00  0.00    -0.203 F 
ATOM    103  F   UNL A   1      47.072  26.847  26.193  1.00  0.00    -0.200 F 
ATOM    104  C   UNL A   1      44.791  26.889  25.579  1.00  0.00     0.200 A 
ATOM    105  F   UNL A   1      42.504  26.970  24.998  1.00  0.00    -0.200 F 
ATOM    106  F   UNL A   1      45.016  25.973  24.627  1.00  0.00    -0.200 F 
ENDBRANCH  73  96
ENDBRANCH  47  48
ENDBRANCH  40  42
ENDBRANCH  39  40
ENDBRANCH  38  39
ENDBRANCH  37  38
ENDBRANCH  36  37
ENDBRANCH  35  36
ENDBRANCH  34  35
ENDBRANCH  33  34
ENDBRANCH   1  33
TORSDOF 24
ENDMDL
