MODEL 1
REMARK VINA RESULT:      -9.8      0.000      0.000
REMARK SMILES Cn1cc(SCC[C@@H]2CCC[C@@]2([NH3+])C(=O)OCCOCCOCCOCCOC(=O)c2ccc(-c3c4nc(c(-c5c(F)c(F)c(F)c(F)c5F)c5ccc([nH]5)c(-c5c(F)c(F)c(F)c(F)c5F)c5nc(c(-c6c(F)c(F)c(F)c(F)c6F)c6ccc3[nH]6)C=C5)C=C4)cc2)cn1
REMARK SMILES IDX 21 1 20 2 19 3 18 4 17 5 16 6 14 7 15 8 12 9 8 10 9 11 10 12
REMARK SMILES IDX 11 13 7 14 6 15 5 16 4 17 1 18 2 19 3 20 95 21 94 22 13 23
REMARK SMILES IDX 22 27 23 28 24 29 25 30 26 31 27 32 28 33 29 34 30 35 31 36
REMARK SMILES IDX 32 37 93 38 33 39 92 40 34 41 35 42 36 43 86 44 37 45 91 46
REMARK SMILES IDX 85 47 87 48 38 49 90 50 84 51 83 52 39 54 71 55 51 56 70 57
REMARK SMILES IDX 52 58 55 59 69 60 88 61 53 62 54 63 68 65 89 66 56 67 40 68
REMARK SMILES IDX 41 69 49 70 42 71 43 72 47 73 50 74 44 75 45 76 48 77 46 78
REMARK SMILES IDX 72 79 73 80 81 81 74 82 75 83 79 84 82 85 76 86 77 87 80 88
REMARK SMILES IDX 78 89 57 90 58 91 66 92 59 93 60 94 64 95 67 96 61 97 62 98
REMARK SMILES IDX 65 99 63 100
REMARK H PARENT 13 24 13 25 13 26 87 53 55 64
REMARK Flexibility Score: inf
ROOT
ATOM      1  C   UNL A   1      39.734  22.396  26.279  1.00  0.00     0.188 C 
ENDROOT
BRANCH   1   2
ATOM      2  C   UNL A   1      38.292  21.886  26.049  1.00  0.00     0.188 C 
BRANCH   2   3
ATOM      3  O   UNL A   1      37.782  22.179  24.751  1.00  0.00    -0.376 OA
BRANCH   3   4
ATOM      4  C   UNL A   1      36.673  23.059  24.643  1.00  0.00     0.202 C 
BRANCH   4   5
ATOM      5  C   UNL A   1      36.255  23.774  25.939  1.00  0.00     0.261 C 
BRANCH   5   6
ATOM      6  O   UNL A   1      34.833  23.817  26.170  1.00  0.00    -0.459 OA
BRANCH   6   7
ATOM      7  C   UNL A   1      34.088  24.438  25.222  1.00  0.00     0.368 C 
ATOM      8  O   UNL A   1      34.447  25.473  24.668  1.00  0.00    -0.245 OA
BRANCH   7   9
ATOM      9  C   UNL A   1      32.789  23.656  24.869  1.00  0.00     0.195 C 
ATOM     10  C   UNL A   1      31.690  24.499  24.187  1.00  0.00     0.063 C 
ATOM     11  C   UNL A   1      30.885  23.424  23.433  1.00  0.00     0.011 C 
ATOM     12  C   UNL A   1      31.901  22.396  22.957  1.00  0.00     0.008 C 
ATOM     13  C   UNL A   1      33.171  22.678  23.736  1.00  0.00     0.081 C 
BRANCH  10  14
ATOM     14  C   UNL A   1      30.773  25.388  25.053  1.00  0.00     0.022 C 
BRANCH  14  15
ATOM     15  C   UNL A   1      29.926  26.446  24.305  1.00  0.00     0.075 C 
BRANCH  15  16
ATOM     16  S   UNL A   1      30.754  27.824  23.436  1.00  0.00    -0.123 SA
BRANCH  16  17
ATOM     17  C   UNL A   1      29.509  29.034  23.302  1.00  0.00     0.045 A 
ATOM     18  C   UNL A   1      28.336  32.246  22.366  1.00  0.00     0.173 C 
ATOM     19  N   UNL A   1      28.479  30.904  22.883  1.00  0.00    -0.275 N 
ATOM     20  C   UNL A   1      29.591  30.392  23.496  1.00  0.00     0.123 A 
ATOM     21  N   UNL A   1      27.567  29.967  22.566  1.00  0.00    -0.181 NA
ATOM     22  C   UNL A   1      28.201  28.817  22.827  1.00  0.00     0.150 A 
ENDBRANCH  16  17
ENDBRANCH  15  16
ENDBRANCH  14  15
ENDBRANCH  10  14
BRANCH   9  23
ATOM     23  N   UNL A   1      32.253  22.894  26.016  1.00  0.00    -0.343 N 
ATOM     24  H   UNL A   1      32.847  22.084  26.194  1.00  0.00     0.345 HD
ATOM     25  H   UNL A   1      31.307  22.579  25.804  1.00  0.00     0.345 HD
ATOM     26  H   UNL A   1      32.234  23.490  26.843  1.00  0.00     0.345 HD
ENDBRANCH   9  23
ENDBRANCH   7   9
ENDBRANCH   6   7
ENDBRANCH   5   6
ENDBRANCH   4   5
ENDBRANCH   3   4
ENDBRANCH   2   3
ENDBRANCH   1   2
BRANCH   1  27
ATOM     27  O   UNL A   1      40.677  21.495  26.851  1.00  0.00    -0.377 OA
BRANCH  27  28
ATOM     28  C   UNL A   1      40.592  20.162  26.390  1.00  0.00     0.188 C 
BRANCH  28  29
ATOM     29  C   UNL A   1      41.954  19.440  26.342  1.00  0.00     0.188 C 
BRANCH  29  30
ATOM     30  O   UNL A   1      42.848  19.609  25.252  1.00  0.00    -0.376 OA
BRANCH  30  31
ATOM     31  C   UNL A   1      43.929  20.524  25.292  1.00  0.00     0.202 C 
BRANCH  31  32
ATOM     32  C   UNL A   1      43.818  22.011  24.907  1.00  0.00     0.261 C 
BRANCH  32  33
ATOM     33  O   UNL A   1      43.998  22.987  25.934  1.00  0.00    -0.460 OA
BRANCH  33  34
ATOM     34  C   UNL A   1      44.227  24.250  25.520  1.00  0.00     0.338 C 
ATOM     35  O   UNL A   1      44.790  24.610  24.499  1.00  0.00    -0.246 OA
BRANCH  34  36
ATOM     36  C   UNL A   1      43.500  25.156  26.431  1.00  0.00     0.060 A 
ATOM     37  C   UNL A   1      43.900  26.498  26.511  1.00  0.00     0.016 A 
ATOM     38  C   UNL A   1      42.410  24.696  27.173  1.00  0.00     0.016 A 
ATOM     39  C   UNL A   1      43.220  27.384  27.338  1.00  0.00     0.010 A 
ATOM     40  C   UNL A   1      41.760  25.572  28.043  1.00  0.00     0.010 A 
ATOM     41  C   UNL A   1      42.183  26.910  28.147  1.00  0.00    -0.014 A 
BRANCH  41  42
ATOM     42  C   UNL A   1      41.713  27.750  29.269  1.00  0.00     0.031 A 
ATOM     43  C   UNL A   1      42.460  27.662  30.568  1.00  0.00     0.074 A 
ATOM     44  C   UNL A   1      40.675  28.590  29.128  1.00  0.00     0.049 A 
ATOM     45  N   UNL A   1      42.216  28.248  31.711  1.00  0.00    -0.248 NA
ATOM     46  C   UNL A   1      43.647  26.790  30.578  1.00  0.00     0.031 C 
ATOM     47  C   UNL A   1      39.915  28.799  27.898  1.00  0.00     0.029 A 
ATOM     48  N   UNL A   1      40.077  29.419  30.042  1.00  0.00    -0.354 N 
ATOM     49  C   UNL A   1      43.209  27.808  32.576  1.00  0.00     0.074 A 
ATOM     50  C   UNL A   1      44.042  26.885  31.837  1.00  0.00     0.031 C 
ATOM     51  C   UNL A   1      38.933  29.685  28.141  1.00  0.00     0.029 A 
ATOM     52  C   UNL A   1      38.978  30.076  29.549  1.00  0.00     0.049 A 
ATOM     53  H   UNL A   1      40.404  29.533  30.964  1.00  0.00     0.167 HD
ATOM     54  C   UNL A   1      43.408  28.148  33.870  1.00  0.00     0.037 A 
ATOM     55  C   UNL A   1      38.095  30.876  30.180  1.00  0.00     0.037 A 
ATOM     56  C   UNL A   1      42.570  29.063  34.596  1.00  0.00     0.049 A 
ATOM     57  C   UNL A   1      38.290  31.173  31.646  1.00  0.00     0.074 A 
ATOM     58  C   UNL A   1      42.692  29.491  35.905  1.00  0.00     0.029 A 
ATOM     59  N   UNL A   1      41.443  29.684  34.075  1.00  0.00    -0.354 N 
ATOM     60  N   UNL A   1      39.242  30.775  32.455  1.00  0.00    -0.248 NA
ATOM     61  C   UNL A   1      37.286  32.036  32.286  1.00  0.00     0.031 C 
ATOM     62  C   UNL A   1      41.603  30.316  36.197  1.00  0.00     0.029 A 
ATOM     63  C   UNL A   1      40.842  30.464  35.049  1.00  0.00     0.049 A 
ATOM     64  H   UNL A   1      41.120  29.585  33.150  1.00  0.00     0.167 HD
ATOM     65  C   UNL A   1      38.971  31.362  33.686  1.00  0.00     0.074 A 
ATOM     66  C   UNL A   1      37.774  32.157  33.512  1.00  0.00     0.031 C 
ATOM     67  C   UNL A   1      39.653  31.256  34.855  1.00  0.00     0.037 A 
BRANCH  54  68
ATOM     68  C   UNL A   1      44.551  27.496  34.590  1.00  0.00     0.064 A 
ATOM     69  C   UNL A   1      45.810  28.107  34.693  1.00  0.00     0.173 A 
ATOM     70  C   UNL A   1      44.375  26.250  35.210  1.00  0.00     0.173 A 
ATOM     71  F   UNL A   1      46.037  29.290  34.103  1.00  0.00    -0.203 F 
ATOM     72  C   UNL A   1      46.855  27.483  35.369  1.00  0.00     0.198 A 
ATOM     73  C   UNL A   1      45.411  25.645  35.914  1.00  0.00     0.198 A 
ATOM     74  F   UNL A   1      43.192  25.621  35.142  1.00  0.00    -0.203 F 
ATOM     75  F   UNL A   1      48.063  28.062  35.412  1.00  0.00    -0.200 F 
ATOM     76  C   UNL A   1      46.653  26.258  35.987  1.00  0.00     0.200 A 
ATOM     77  F   UNL A   1      45.210  24.467  36.522  1.00  0.00    -0.200 F 
ATOM     78  F   UNL A   1      47.657  25.663  36.646  1.00  0.00    -0.200 F 
ENDBRANCH  54  68
BRANCH  55  79
ATOM     79  C   UNL A   1      36.932  31.433  29.439  1.00  0.00     0.064 A 
ATOM     80  C   UNL A   1      35.857  30.619  29.056  1.00  0.00     0.173 A 
ATOM     81  C   UNL A   1      36.884  32.787  29.074  1.00  0.00     0.173 A 
ATOM     82  F   UNL A   1      35.866  29.312  29.360  1.00  0.00    -0.203 F 
ATOM     83  C   UNL A   1      34.792  31.130  28.318  1.00  0.00     0.198 A 
ATOM     84  C   UNL A   1      35.803  33.304  28.363  1.00  0.00     0.198 A 
ATOM     85  F   UNL A   1      37.886  33.611  29.412  1.00  0.00    -0.203 F 
ATOM     86  F   UNL A   1      33.804  30.317  27.919  1.00  0.00    -0.200 F 
ATOM     87  C   UNL A   1      34.763  32.474  27.977  1.00  0.00     0.200 A 
ATOM     88  F   UNL A   1      35.772  34.607  28.051  1.00  0.00    -0.200 F 
ATOM     89  F   UNL A   1      33.737  32.966  27.270  1.00  0.00    -0.200 F 
ENDBRANCH  55  79
BRANCH  67  90
ATOM     90  C   UNL A   1      39.148  32.051  36.026  1.00  0.00     0.064 A 
ATOM     91  C   UNL A   1      39.528  33.384  36.236  1.00  0.00     0.173 A 
ATOM     92  C   UNL A   1      38.234  31.480  36.926  1.00  0.00     0.173 A 
ATOM     93  F   UNL A   1      40.408  33.974  35.413  1.00  0.00    -0.203 F 
ATOM     94  C   UNL A   1      39.035  34.108  37.320  1.00  0.00     0.198 A 
ATOM     95  C   UNL A   1      37.715  32.217  37.988  1.00  0.00     0.198 A 
ATOM     96  F   UNL A   1      37.829  30.211  36.767  1.00  0.00    -0.203 F 
ATOM     97  F   UNL A   1      39.455  35.362  37.532  1.00  0.00    -0.200 F 
ATOM     98  C   UNL A   1      38.123  33.527  38.189  1.00  0.00     0.200 A 
ATOM     99  F   UNL A   1      36.819  31.660  38.814  1.00  0.00    -0.200 F 
ATOM    100  F   UNL A   1      37.644  34.227  39.226  1.00  0.00    -0.200 F 
ENDBRANCH  67  90
ENDBRANCH  41  42
ENDBRANCH  34  36
ENDBRANCH  33  34
ENDBRANCH  32  33
ENDBRANCH  31  32
ENDBRANCH  30  31
ENDBRANCH  29  30
ENDBRANCH  28  29
ENDBRANCH  27  28
ENDBRANCH   1  27
TORSDOF 25
ENDMDL
MODEL 2
REMARK VINA RESULT:      -9.8      0.820      2.137
REMARK SMILES Cn1cc(SCC[C@@H]2CCC[C@@]2([NH3+])C(=O)OCCOCCOCCOCCOC(=O)c2ccc(-c3c4nc(c(-c5c(F)c(F)c(F)c(F)c5F)c5ccc([nH]5)c(-c5c(F)c(F)c(F)c(F)c5F)c5nc(c(-c6c(F)c(F)c(F)c(F)c6F)c6ccc3[nH]6)C=C5)C=C4)cc2)cn1
REMARK SMILES IDX 21 1 20 2 19 3 18 4 17 5 16 6 14 7 15 8 12 9 8 10 9 11 10 12
REMARK SMILES IDX 11 13 7 14 6 15 5 16 4 17 1 18 2 19 3 20 95 21 94 22 13 23
REMARK SMILES IDX 22 27 23 28 24 29 25 30 26 31 27 32 28 33 29 34 30 35 31 36
REMARK SMILES IDX 32 37 93 38 33 39 92 40 34 41 35 42 36 43 86 44 37 45 91 46
REMARK SMILES IDX 85 47 87 48 38 49 90 50 84 51 83 52 39 54 71 55 51 56 70 57
REMARK SMILES IDX 52 58 55 59 69 60 88 61 53 62 54 63 68 65 89 66 56 67 40 68
REMARK SMILES IDX 41 69 49 70 42 71 43 72 47 73 50 74 44 75 45 76 48 77 46 78
REMARK SMILES IDX 72 79 73 80 81 81 74 82 75 83 79 84 82 85 76 86 77 87 80 88
REMARK SMILES IDX 78 89 57 90 58 91 66 92 59 93 60 94 64 95 67 96 61 97 62 98
REMARK SMILES IDX 65 99 63 100
REMARK H PARENT 13 24 13 25 13 26 87 53 55 64
REMARK Flexibility Score: inf
ROOT
ATOM      1  C   UNL A   1      39.744  21.796  26.139  1.00  0.00     0.188 C 
ENDROOT
BRANCH   1   2
ATOM      2  C   UNL A   1      38.355  21.229  25.758  1.00  0.00     0.188 C 
BRANCH   2   3
ATOM      3  O   UNL A   1      37.784  21.843  24.606  1.00  0.00    -0.376 OA
BRANCH   3   4
ATOM      4  C   UNL A   1      36.415  22.215  24.647  1.00  0.00     0.202 C 
BRANCH   4   5
ATOM      5  C   UNL A   1      36.127  23.673  25.043  1.00  0.00     0.261 C 
BRANCH   5   6
ATOM      6  O   UNL A   1      34.911  24.217  24.494  1.00  0.00    -0.459 OA
BRANCH   6   7
ATOM      7  C   UNL A   1      33.877  23.351  24.349  1.00  0.00     0.368 C 
ATOM      8  O   UNL A   1      33.768  22.602  23.383  1.00  0.00    -0.245 OA
BRANCH   7   9
ATOM      9  C   UNL A   1      32.907  23.362  25.567  1.00  0.00     0.195 C 
ATOM     10  C   UNL A   1      31.916  24.546  25.595  1.00  0.00     0.063 C 
ATOM     11  C   UNL A   1      30.770  23.981  26.455  1.00  0.00     0.011 C 
ATOM     12  C   UNL A   1      30.669  22.504  26.104  1.00  0.00     0.008 C 
ATOM     13  C   UNL A   1      31.950  22.166  25.365  1.00  0.00     0.081 C 
BRANCH  10  14
ATOM     14  C   UNL A   1      32.391  25.918  26.117  1.00  0.00     0.022 C 
BRANCH  14  15
ATOM     15  C   UNL A   1      31.564  27.150  25.680  1.00  0.00     0.075 C 
BRANCH  15  16
ATOM     16  S   UNL A   1      32.229  28.289  24.415  1.00  0.00    -0.123 SA
BRANCH  16  17
ATOM     17  C   UNL A   1      30.880  28.552  23.346  1.00  0.00     0.045 A 
ATOM     18  C   UNL A   1      27.506  29.428  22.700  1.00  0.00     0.173 C 
ATOM     19  N   UNL A   1      28.884  29.002  22.607  1.00  0.00    -0.275 N 
ATOM     20  C   UNL A   1      29.555  28.238  23.525  1.00  0.00     0.123 A 
ATOM     21  N   UNL A   1      29.691  29.555  21.684  1.00  0.00    -0.181 NA
ATOM     22  C   UNL A   1      30.919  29.274  22.138  1.00  0.00     0.150 A 
ENDBRANCH  16  17
ENDBRANCH  15  16
ENDBRANCH  14  15
ENDBRANCH  10  14
BRANCH   9  23
ATOM     23  N   UNL A   1      33.611  23.216  26.858  1.00  0.00    -0.343 N 
ATOM     24  H   UNL A   1      33.887  24.136  27.202  1.00  0.00     0.345 HD
ATOM     25  H   UNL A   1      34.442  22.639  26.730  1.00  0.00     0.345 HD
ATOM     26  H   UNL A   1      32.991  22.772  27.536  1.00  0.00     0.345 HD
ENDBRANCH   9  23
ENDBRANCH   7   9
ENDBRANCH   6   7
ENDBRANCH   5   6
ENDBRANCH   4   5
ENDBRANCH   3   4
ENDBRANCH   2   3
ENDBRANCH   1   2
BRANCH   1  27
ATOM     27  O   UNL A   1      40.672  20.920  26.771  1.00  0.00    -0.377 OA
BRANCH  27  28
ATOM     28  C   UNL A   1      40.744  19.620  26.220  1.00  0.00     0.188 C 
BRANCH  28  29
ATOM     29  C   UNL A   1      42.180  19.065  26.142  1.00  0.00     0.188 C 
BRANCH  29  30
ATOM     30  O   UNL A   1      43.095  19.503  25.148  1.00  0.00    -0.376 OA
BRANCH  30  31
ATOM     31  C   UNL A   1      43.975  20.593  25.354  1.00  0.00     0.202 C 
BRANCH  31  32
ATOM     32  C   UNL A   1      43.584  22.070  25.155  1.00  0.00     0.261 C 
BRANCH  32  33
ATOM     33  O   UNL A   1      44.193  23.046  26.001  1.00  0.00    -0.460 OA
BRANCH  33  34
ATOM     34  C   UNL A   1      44.272  24.297  25.502  1.00  0.00     0.338 C 
ATOM     35  O   UNL A   1      44.731  24.644  24.426  1.00  0.00    -0.246 OA
BRANCH  34  36
ATOM     36  C   UNL A   1      43.524  25.187  26.411  1.00  0.00     0.060 A 
ATOM     37  C   UNL A   1      43.853  26.550  26.445  1.00  0.00     0.016 A 
ATOM     38  C   UNL A   1      42.483  24.689  27.198  1.00  0.00     0.016 A 
ATOM     39  C   UNL A   1      43.149  27.420  27.271  1.00  0.00     0.010 A 
ATOM     40  C   UNL A   1      41.811  25.552  28.064  1.00  0.00     0.010 A 
ATOM     41  C   UNL A   1      42.163  26.913  28.122  1.00  0.00    -0.014 A 
BRANCH  41  42
ATOM     42  C   UNL A   1      41.681  27.757  29.236  1.00  0.00     0.031 A 
ATOM     43  C   UNL A   1      42.416  27.676  30.542  1.00  0.00     0.074 A 
ATOM     44  C   UNL A   1      40.642  28.593  29.082  1.00  0.00     0.049 A 
ATOM     45  N   UNL A   1      42.160  28.266  31.680  1.00  0.00    -0.248 NA
ATOM     46  C   UNL A   1      43.606  26.807  30.567  1.00  0.00     0.031 C 
ATOM     47  C   UNL A   1      39.892  28.795  27.844  1.00  0.00     0.029 A 
ATOM     48  N   UNL A   1      40.034  29.425  29.987  1.00  0.00    -0.354 N 
ATOM     49  C   UNL A   1      43.146  27.833  32.556  1.00  0.00     0.074 A 
ATOM     50  C   UNL A   1      43.989  26.909  31.829  1.00  0.00     0.031 C 
ATOM     51  C   UNL A   1      38.907  29.679  28.075  1.00  0.00     0.029 A 
ATOM     52  C   UNL A   1      38.937  30.076  29.481  1.00  0.00     0.049 A 
ATOM     53  H   UNL A   1      40.352  29.543  30.911  1.00  0.00     0.167 HD
ATOM     54  C   UNL A   1      43.333  28.179  33.850  1.00  0.00     0.037 A 
ATOM     55  C   UNL A   1      38.047  30.876  30.100  1.00  0.00     0.037 A 
ATOM     56  C   UNL A   1      42.486  29.095  34.565  1.00  0.00     0.049 A 
ATOM     57  C   UNL A   1      38.227  31.180  31.567  1.00  0.00     0.074 A 
ATOM     58  C   UNL A   1      42.594  29.528  35.873  1.00  0.00     0.029 A 
ATOM     59  N   UNL A   1      41.362  29.711  34.031  1.00  0.00    -0.354 N 
ATOM     60  N   UNL A   1      39.173  30.788  32.386  1.00  0.00    -0.248 NA
ATOM     61  C   UNL A   1      37.215  32.043  32.194  1.00  0.00     0.031 C 
ATOM     62  C   UNL A   1      41.500  30.351  36.152  1.00  0.00     0.029 A 
ATOM     63  C   UNL A   1      40.749  30.493  34.996  1.00  0.00     0.049 A 
ATOM     64  H   UNL A   1      41.047  29.606  33.104  1.00  0.00     0.167 HD
ATOM     65  C   UNL A   1      38.889  31.379  33.612  1.00  0.00     0.074 A 
ATOM     66  C   UNL A   1      37.691  32.170  33.424  1.00  0.00     0.031 C 
ATOM     67  C   UNL A   1      39.560  31.280  34.788  1.00  0.00     0.037 A 
BRANCH  54  68
ATOM     68  C   UNL A   1      44.471  27.533  34.584  1.00  0.00     0.064 A 
ATOM     69  C   UNL A   1      44.316  26.323  35.277  1.00  0.00     0.173 A 
ATOM     70  C   UNL A   1      45.744  28.123  34.570  1.00  0.00     0.173 A 
ATOM     71  F   UNL A   1      43.117  25.727  35.338  1.00  0.00    -0.203 F 
ATOM     72  C   UNL A   1      45.389  25.742  35.950  1.00  0.00     0.198 A 
ATOM     73  C   UNL A   1      46.821  27.522  35.214  1.00  0.00     0.198 A 
ATOM     74  F   UNL A   1      45.946  29.280  33.923  1.00  0.00    -0.203 F 
ATOM     75  F   UNL A   1      45.206  24.612  36.648  1.00  0.00    -0.200 F 
ATOM     76  C   UNL A   1      46.641  26.336  35.910  1.00  0.00     0.200 A 
ATOM     77  F   UNL A   1      48.034  28.090  35.162  1.00  0.00    -0.200 F 
ATOM     78  F   UNL A   1      47.675  25.769  36.548  1.00  0.00    -0.200 F 
ENDBRANCH  54  68
BRANCH  55  79
ATOM     79  C   UNL A   1      36.889  31.427  29.346  1.00  0.00     0.064 A 
ATOM     80  C   UNL A   1      36.823  32.786  29.009  1.00  0.00     0.173 A 
ATOM     81  C   UNL A   1      35.811  30.611  28.972  1.00  0.00     0.173 A 
ATOM     82  F   UNL A   1      37.818  33.613  29.365  1.00  0.00    -0.203 F 
ATOM     83  C   UNL A   1      35.715  33.313  28.348  1.00  0.00     0.198 A 
ATOM     84  C   UNL A   1      34.718  31.132  28.282  1.00  0.00     0.198 A 
ATOM     85  F   UNL A   1      35.820  29.304  29.270  1.00  0.00    -0.203 F 
ATOM     86  F   UNL A   1      35.654  34.625  28.086  1.00  0.00    -0.200 F 
ATOM     87  C   UNL A   1      34.665  32.483  27.980  1.00  0.00     0.200 A 
ATOM     88  F   UNL A   1      33.714  30.324  27.914  1.00  0.00    -0.200 F 
ATOM     89  F   UNL A   1      33.602  32.989  27.342  1.00  0.00    -0.200 F 
ENDBRANCH  55  79
BRANCH  67  90
ATOM     90  C   UNL A   1      39.043  32.079  35.951  1.00  0.00     0.064 A 
ATOM     91  C   UNL A   1      38.191  31.520  36.914  1.00  0.00     0.173 A 
ATOM     92  C   UNL A   1      39.445  33.413  36.126  1.00  0.00     0.173 A 
ATOM     93  F   UNL A   1      37.767  30.254  36.788  1.00  0.00    -0.203 F 
ATOM     94  C   UNL A   1      37.737  32.275  37.994  1.00  0.00     0.198 A 
ATOM     95  C   UNL A   1      39.019  34.154  37.226  1.00  0.00     0.198 A 
ATOM     96  F   UNL A   1      40.267  33.995  35.240  1.00  0.00    -0.203 F 
ATOM     97  F   UNL A   1      36.879  31.736  38.871  1.00  0.00    -0.200 F 
ATOM     98  C   UNL A   1      38.158  33.587  38.153  1.00  0.00     0.200 A 
ATOM     99  F   UNL A   1      39.443  35.414  37.388  1.00  0.00    -0.200 F 
ATOM    100  F   UNL A   1      37.727  34.308  39.197  1.00  0.00    -0.200 F 
ENDBRANCH  67  90
ENDBRANCH  41  42
ENDBRANCH  34  36
ENDBRANCH  33  34
ENDBRANCH  32  33
ENDBRANCH  31  32
ENDBRANCH  30  31
ENDBRANCH  29  30
ENDBRANCH  28  29
ENDBRANCH  27  28
ENDBRANCH   1  27
TORSDOF 25
ENDMDL
MODEL 3
REMARK VINA RESULT:      -9.5      2.061      8.123
REMARK SMILES Cn1cc(SCC[C@@H]2CCC[C@@]2([NH3+])C(=O)OCCOCCOCCOCCOC(=O)c2ccc(-c3c4nc(c(-c5c(F)c(F)c(F)c(F)c5F)c5ccc([nH]5)c(-c5c(F)c(F)c(F)c(F)c5F)c5nc(c(-c6c(F)c(F)c(F)c(F)c6F)c6ccc3[nH]6)C=C5)C=C4)cc2)cn1
REMARK SMILES IDX 21 1 20 2 19 3 18 4 17 5 16 6 14 7 15 8 12 9 8 10 9 11 10 12
REMARK SMILES IDX 11 13 7 14 6 15 5 16 4 17 1 18 2 19 3 20 95 21 94 22 13 23
REMARK SMILES IDX 22 27 23 28 24 29 25 30 26 31 27 32 28 33 29 34 30 35 31 36
REMARK SMILES IDX 32 37 93 38 33 39 92 40 34 41 35 42 36 43 86 44 37 45 91 46
REMARK SMILES IDX 85 47 87 48 38 49 90 50 84 51 83 52 39 54 71 55 51 56 70 57
REMARK SMILES IDX 52 58 55 59 69 60 88 61 53 62 54 63 68 65 89 66 56 67 40 68
REMARK SMILES IDX 41 69 49 70 42 71 43 72 47 73 50 74 44 75 45 76 48 77 46 78
REMARK SMILES IDX 72 79 73 80 81 81 74 82 75 83 79 84 82 85 76 86 77 87 80 88
REMARK SMILES IDX 78 89 57 90 58 91 66 92 59 93 60 94 64 95 67 96 61 97 62 98
REMARK SMILES IDX 65 99 63 100
REMARK H PARENT 13 24 13 25 13 26 87 53 55 64
REMARK Flexibility Score: inf
ROOT
ATOM      1  C   UNL A   1      39.350  23.429  26.682  1.00  0.00     0.188 C 
ENDROOT
BRANCH   1   2
ATOM      2  C   UNL A   1      37.927  23.620  26.107  1.00  0.00     0.188 C 
BRANCH   2   3
ATOM      3  O   UNL A   1      37.483  22.528  25.305  1.00  0.00    -0.376 OA
BRANCH   3   4
ATOM      4  C   UNL A   1      36.894  22.809  24.045  1.00  0.00     0.202 C 
BRANCH   4   5
ATOM      5  C   UNL A   1      35.385  22.541  23.934  1.00  0.00     0.261 C 
BRANCH   5   6
ATOM      6  O   UNL A   1      34.582  23.712  23.691  1.00  0.00    -0.459 OA
BRANCH   6   7
ATOM      7  C   UNL A   1      33.401  23.510  23.053  1.00  0.00     0.368 C 
ATOM      8  O   UNL A   1      33.323  22.953  21.962  1.00  0.00    -0.245 OA
BRANCH   7   9
ATOM      9  C   UNL A   1      32.177  23.988  23.887  1.00  0.00     0.195 C 
ATOM     10  C   UNL A   1      32.039  23.322  25.274  1.00  0.00     0.063 C 
ATOM     11  C   UNL A   1      31.218  24.370  26.049  1.00  0.00     0.011 C 
ATOM     12  C   UNL A   1      31.692  25.728  25.552  1.00  0.00     0.008 C 
ATOM     13  C   UNL A   1      32.470  25.453  24.279  1.00  0.00     0.081 C 
BRANCH  10  14
ATOM     14  C   UNL A   1      31.407  21.919  25.379  1.00  0.00     0.022 C 
BRANCH  14  15
ATOM     15  C   UNL A   1      32.381  20.717  25.356  1.00  0.00     0.075 C 
BRANCH  15  16
ATOM     16  S   UNL A   1      32.640  19.786  23.804  1.00  0.00    -0.123 SA
BRANCH  16  17
ATOM     17  C   UNL A   1      33.117  18.203  24.348  1.00  0.00     0.045 A 
ATOM     18  C   UNL A   1      35.544  15.831  25.375  1.00  0.00     0.173 C 
ATOM     19  N   UNL A   1      34.331  16.514  24.986  1.00  0.00    -0.275 N 
ATOM     20  C   UNL A   1      34.219  17.460  24.002  1.00  0.00     0.123 A 
ATOM     21  N   UNL A   1      33.237  16.424  25.764  1.00  0.00    -0.181 NA
ATOM     22  C   UNL A   1      32.490  17.462  25.368  1.00  0.00     0.150 A 
ENDBRANCH  16  17
ENDBRANCH  15  16
ENDBRANCH  14  15
ENDBRANCH  10  14
BRANCH   9  23
ATOM     23  N   UNL A   1      30.910  23.926  23.129  1.00  0.00    -0.343 N 
ATOM     24  H   UNL A   1      30.281  23.256  23.572  1.00  0.00     0.345 HD
ATOM     25  H   UNL A   1      31.100  23.630  22.172  1.00  0.00     0.345 HD
ATOM     26  H   UNL A   1      30.474  24.847  23.119  1.00  0.00     0.345 HD
ENDBRANCH   9  23
ENDBRANCH   7   9
ENDBRANCH   6   7
ENDBRANCH   5   6
ENDBRANCH   4   5
ENDBRANCH   3   4
ENDBRANCH   2   3
ENDBRANCH   1   2
BRANCH   1  27
ATOM     27  O   UNL A   1      39.957  22.148  26.550  1.00  0.00    -0.377 OA
BRANCH  27  28
ATOM     28  C   UNL A   1      40.797  21.766  27.621  1.00  0.00     0.188 C 
BRANCH  28  29
ATOM     29  C   UNL A   1      41.973  20.869  27.189  1.00  0.00     0.188 C 
BRANCH  29  30
ATOM     30  O   UNL A   1      42.256  20.620  25.820  1.00  0.00    -0.376 OA
BRANCH  30  31
ATOM     31  C   UNL A   1      43.290  21.293  25.124  1.00  0.00     0.202 C 
BRANCH  31  32
ATOM     32  C   UNL A   1      43.401  22.826  25.012  1.00  0.00     0.261 C 
BRANCH  32  33
ATOM     33  O   UNL A   1      44.326  23.496  25.869  1.00  0.00    -0.460 OA
BRANCH  33  34
ATOM     34  C   UNL A   1      44.531  24.805  25.612  1.00  0.00     0.338 C 
ATOM     35  O   UNL A   1      45.092  25.297  24.646  1.00  0.00    -0.246 OA
BRANCH  34  36
ATOM     36  C   UNL A   1      43.783  25.580  26.621  1.00  0.00     0.060 A 
ATOM     37  C   UNL A   1      44.127  26.922  26.834  1.00  0.00     0.016 A 
ATOM     38  C   UNL A   1      42.728  24.997  27.328  1.00  0.00     0.016 A 
ATOM     39  C   UNL A   1      43.424  27.688  27.758  1.00  0.00     0.010 A 
ATOM     40  C   UNL A   1      42.057  25.750  28.292  1.00  0.00     0.010 A 
ATOM     41  C   UNL A   1      42.423  27.088  28.528  1.00  0.00    -0.014 A 
BRANCH  41  42
ATOM     42  C   UNL A   1      41.939  27.787  29.737  1.00  0.00     0.031 A 
ATOM     43  C   UNL A   1      40.674  28.587  29.621  1.00  0.00     0.074 A 
ATOM     44  C   UNL A   1      42.585  27.686  30.909  1.00  0.00     0.049 A 
ATOM     45  N   UNL A   1      40.075  29.332  30.513  1.00  0.00    -0.248 NA
ATOM     46  C   UNL A   1      39.991  28.540  28.317  1.00  0.00     0.031 C 
ATOM     47  C   UNL A   1      43.787  26.892  31.150  1.00  0.00     0.029 A 
ATOM     48  N   UNL A   1      42.316  28.272  32.120  1.00  0.00    -0.354 N 
ATOM     49  C   UNL A   1      38.955  29.850  29.876  1.00  0.00     0.074 A 
ATOM     50  C   UNL A   1      38.970  29.358  28.516  1.00  0.00     0.031 C 
ATOM     51  C   UNL A   1      44.167  27.058  32.429  1.00  0.00     0.029 A 
ATOM     52  C   UNL A   1      43.255  27.996  33.082  1.00  0.00     0.049 A 
ATOM     53  H   UNL A   1      41.527  28.837  32.284  1.00  0.00     0.167 HD
ATOM     54  C   UNL A   1      37.999  30.660  30.384  1.00  0.00     0.037 A 
ATOM     55  C   UNL A   1      43.374  28.475  34.336  1.00  0.00     0.037 A 
ATOM     56  C   UNL A   1      37.995  31.147  31.737  1.00  0.00     0.049 A 
ATOM     57  C   UNL A   1      42.339  29.445  34.853  1.00  0.00     0.074 A 
ATOM     58  C   UNL A   1      37.066  31.959  32.359  1.00  0.00     0.029 A 
ATOM     59  N   UNL A   1      38.982  30.875  32.675  1.00  0.00    -0.354 N 
ATOM     60  N   UNL A   1      41.270  29.914  34.257  1.00  0.00    -0.248 NA
ATOM     61  C   UNL A   1      42.530  29.949  36.220  1.00  0.00     0.031 C 
ATOM     62  C   UNL A   1      37.522  32.233  33.651  1.00  0.00     0.029 A 
ATOM     63  C   UNL A   1      38.699  31.532  33.861  1.00  0.00     0.049 A 
ATOM     64  H   UNL A   1      39.766  30.299  32.520  1.00  0.00     0.167 HD
ATOM     65  C   UNL A   1      40.644  30.740  35.184  1.00  0.00     0.074 A 
ATOM     66  C   UNL A   1      41.447  30.694  36.388  1.00  0.00     0.031 C 
ATOM     67  C   UNL A   1      39.507  31.469  35.053  1.00  0.00     0.037 A 
BRANCH  54  68
ATOM     68  C   UNL A   1      36.901  31.100  29.461  1.00  0.00     0.064 A 
ATOM     69  C   UNL A   1      36.844  32.403  28.943  1.00  0.00     0.173 A 
ATOM     70  C   UNL A   1      35.905  30.195  29.068  1.00  0.00     0.173 A 
ATOM     71  F   UNL A   1      37.762  33.314  29.301  1.00  0.00    -0.203 F 
ATOM     72  C   UNL A   1      35.816  32.789  28.086  1.00  0.00     0.198 A 
ATOM     73  C   UNL A   1      34.898  30.573  28.184  1.00  0.00     0.198 A 
ATOM     74  F   UNL A   1      35.911  28.937  29.534  1.00  0.00    -0.203 F 
ATOM     75  F   UNL A   1      35.754  34.052  27.643  1.00  0.00    -0.200 F 
ATOM     76  C   UNL A   1      34.850  31.871  27.700  1.00  0.00     0.200 A 
ATOM     77  F   UNL A   1      33.973  29.682  27.802  1.00  0.00    -0.200 F 
ATOM     78  F   UNL A   1      33.867  32.241  26.867  1.00  0.00    -0.200 F 
ENDBRANCH  54  68
BRANCH  55  79
ATOM     79  C   UNL A   1      44.526  28.069  35.184  1.00  0.00     0.064 A 
ATOM     80  C   UNL A   1      44.445  26.956  36.033  1.00  0.00     0.173 A 
ATOM     81  C   UNL A   1      45.722  28.802  35.185  1.00  0.00     0.173 A 
ATOM     82  F   UNL A   1      43.314  26.236  36.087  1.00  0.00    -0.203 F 
ATOM     83  C   UNL A   1      45.506  26.606  36.866  1.00  0.00     0.198 A 
ATOM     84  C   UNL A   1      46.794  28.432  35.994  1.00  0.00     0.198 A 
ATOM     85  F   UNL A   1      45.853  29.876  34.394  1.00  0.00    -0.203 F 
ATOM     86  F   UNL A   1      45.382  25.570  37.706  1.00  0.00    -0.200 F 
ATOM     87  C   UNL A   1      46.682  27.341  36.841  1.00  0.00     0.200 A 
ATOM     88  F   UNL A   1      47.934  29.135  35.954  1.00  0.00    -0.200 F 
ATOM     89  F   UNL A   1      47.703  27.002  37.639  1.00  0.00    -0.200 F 
ENDBRANCH  55  79
BRANCH  67  90
ATOM     90  C   UNL A   1      39.036  32.241  36.253  1.00  0.00     0.064 A 
ATOM     91  C   UNL A   1      38.169  31.681  37.202  1.00  0.00     0.173 A 
ATOM     92  C   UNL A   1      39.499  33.548  36.478  1.00  0.00     0.173 A 
ATOM     93  F   UNL A   1      37.688  30.440  37.029  1.00  0.00    -0.203 F 
ATOM     94  C   UNL A   1      37.758  32.410  38.317  1.00  0.00     0.198 A 
ATOM     95  C   UNL A   1      39.115  34.261  37.612  1.00  0.00     0.198 A 
ATOM     96  F   UNL A   1      40.338  34.129  35.608  1.00  0.00    -0.203 F 
ATOM     97  F   UNL A   1      36.886  31.874  39.181  1.00  0.00    -0.200 F 
ATOM     98  C   UNL A   1      38.238  33.695  38.524  1.00  0.00     0.200 A 
ATOM     99  F   UNL A   1      39.596  35.494  37.820  1.00  0.00    -0.200 F 
ATOM    100  F   UNL A   1      37.849  34.391  39.601  1.00  0.00    -0.200 F 
ENDBRANCH  67  90
ENDBRANCH  41  42
ENDBRANCH  34  36
ENDBRANCH  33  34
ENDBRANCH  32  33
ENDBRANCH  31  32
ENDBRANCH  30  31
ENDBRANCH  29  30
ENDBRANCH  28  29
ENDBRANCH  27  28
ENDBRANCH   1  27
TORSDOF 25
ENDMDL
