MODEL 1
REMARK VINA RESULT:     -10.4      0.000      0.000
REMARK SMILES CC1=C[C@@H]([C@@H]2N=N[C@H](S)N2/N=C/c2ccc(C(=O)OCCOCCOCCOCCOC(=O)c3ccc(-c4c5nc(c(-c6c(F)c(F)c(F)c(F)c6F)c6ccc([nH]6)c(-c6c(F)c(F)c(F)c(F)c6F)c6nc(c(-c7c(F)c(F)c(F)c(F)c7F)c7ccc4[nH]7)C=C6)C=C5)cc3)cc2)N=N1
REMARK SMILES IDX 24 1 23 2 22 3 21 4 20 5 19 6 17 7 18 8 16 9 13 10 14 11
REMARK SMILES IDX 98 12 15 13 97 14 12 15 11 16 10 17 5 18 6 19 7 20 8 21 4 22
REMARK SMILES IDX 1 23 2 24 3 25 100 26 99 27 9 28 25 30 26 31 27 32 28 33
REMARK SMILES IDX 29 34 30 35 31 36 32 37 33 38 34 39 35 40 96 41 36 42 95 43
REMARK SMILES IDX 37 44 38 45 39 46 89 47 40 48 94 49 88 50 90 51 41 52 93 53
REMARK SMILES IDX 87 54 86 55 42 57 74 58 54 59 73 60 55 61 58 62 72 63 91 64
REMARK SMILES IDX 56 65 57 66 71 68 92 69 59 70 43 71 44 72 52 73 45 74 46 75
REMARK SMILES IDX 50 76 53 77 47 78 48 79 51 80 49 81 75 82 76 83 84 84 77 85
REMARK SMILES IDX 78 86 82 87 85 88 79 89 80 90 83 91 81 92 60 93 61 94 69 95
REMARK SMILES IDX 62 96 63 97 67 98 70 99 64 100 65 101 68 102 66 103
REMARK H PARENT 9 29 90 56 58 67
REMARK Flexibility Score: inf
ROOT
ATOM      1  C   UNL A   1      32.450  29.248  26.512  1.00  0.00     0.188 C 
ENDROOT
BRANCH   1   2
ATOM      2  C   UNL A   1      33.425  28.321  25.750  1.00  0.00     0.188 C 
BRANCH   2   3
ATOM      3  O   UNL A   1      32.952  27.920  24.481  1.00  0.00    -0.376 OA
BRANCH   3   4
ATOM      4  C   UNL A   1      33.658  26.956  23.736  1.00  0.00     0.202 C 
BRANCH   4   5
ATOM      5  C   UNL A   1      33.093  25.532  23.642  1.00  0.00     0.261 C 
BRANCH   5   6
ATOM      6  O   UNL A   1      34.021  24.500  23.282  1.00  0.00    -0.460 OA
BRANCH   6   7
ATOM      7  C   UNL A   1      33.823  23.289  23.836  1.00  0.00     0.338 C 
ATOM      8  O   UNL A   1      32.818  22.590  23.728  1.00  0.00    -0.246 OA
BRANCH   7   9
ATOM      9  C   UNL A   1      35.091  22.827  24.439  1.00  0.00     0.060 A 
ATOM     10  C   UNL A   1      37.544  22.020  25.479  1.00  0.00    -0.005 A 
ATOM     11  C   UNL A   1      37.297  23.379  25.283  1.00  0.00     0.010 A 
ATOM     12  C   UNL A   1      36.549  21.067  25.226  1.00  0.00     0.010 A 
ATOM     13  C   UNL A   1      36.075  23.780  24.742  1.00  0.00     0.016 A 
ATOM     14  C   UNL A   1      35.312  21.473  24.723  1.00  0.00     0.016 A 
BRANCH  10  15
ATOM     15  C   UNL A   1      38.904  21.603  25.870  1.00  0.00     0.141 C 
ATOM     16  N   UNL A   1      39.853  22.479  25.939  1.00  0.00    -0.180 NA
BRANCH  16  17
ATOM     17  N   UNL A   1      41.084  22.084  26.344  1.00  0.00    -0.233 NA
ATOM     18  C   UNL A   1      42.021  23.110  26.819  1.00  0.00     0.274 C 
ATOM     19  N   UNL A   1      42.983  22.462  27.744  1.00  0.00    -0.161 NA
ATOM     20  N   UNL A   1      42.649  21.272  27.953  1.00  0.00    -0.153 NA
ATOM     21  C   UNL A   1      41.460  20.919  27.146  1.00  0.00     0.298 C 
BRANCH  18  22
ATOM     22  C   UNL A   1      42.744  23.789  25.636  1.00  0.00     0.201 C 
ATOM     23  C   UNL A   1      46.001  22.574  24.362  1.00  0.00     0.068 C 
ATOM     24  C   UNL A   1      44.805  23.254  24.918  1.00  0.00     0.058 C 
ATOM     25  C   UNL A   1      43.541  22.858  24.790  1.00  0.00     0.031 C 
ATOM     26  N   UNL A   1      44.927  24.374  25.701  1.00  0.00    -0.160 NA
ATOM     27  N   UNL A   1      43.791  24.736  26.127  1.00  0.00    -0.177 NA
ENDBRANCH  18  22
BRANCH  21  28
ATOM     28  S   UNL A   1      41.748  19.469  26.061  1.00  0.00    -0.128 SA
ATOM     29  H   UNL A   1      42.817  18.764  26.522  1.00  0.00     0.106 HD
ENDBRANCH  21  28
ENDBRANCH  16  17
ENDBRANCH  10  15
ENDBRANCH   7   9
ENDBRANCH   6   7
ENDBRANCH   5   6
ENDBRANCH   4   5
ENDBRANCH   3   4
ENDBRANCH   2   3
ENDBRANCH   1   2
BRANCH   1  30
ATOM     30  O   UNL A   1      32.890  30.019  27.623  1.00  0.00    -0.377 OA
BRANCH  30  31
ATOM     31  C   UNL A   1      33.522  31.282  27.433  1.00  0.00     0.188 C 
BRANCH  31  32
ATOM     32  C   UNL A   1      34.463  31.912  28.495  1.00  0.00     0.188 C 
BRANCH  32  33
ATOM     33  O   UNL A   1      34.411  33.324  28.597  1.00  0.00    -0.376 OA
BRANCH  33  34
ATOM     34  C   UNL A   1      33.226  34.063  28.407  1.00  0.00     0.202 C 
BRANCH  34  35
ATOM     35  C   UNL A   1      32.989  35.311  29.244  1.00  0.00     0.261 C 
BRANCH  35  36
ATOM     36  O   UNL A   1      33.872  35.446  30.337  1.00  0.00    -0.460 OA
BRANCH  36  37
ATOM     37  C   UNL A   1      33.360  35.079  31.516  1.00  0.00     0.338 C 
ATOM     38  O   UNL A   1      32.238  35.339  31.959  1.00  0.00    -0.246 OA
BRANCH  37  39
ATOM     39  C   UNL A   1      34.416  34.440  32.286  1.00  0.00     0.060 A 
ATOM     40  C   UNL A   1      35.514  35.240  32.596  1.00  0.00     0.016 A 
ATOM     41  C   UNL A   1      34.470  33.036  32.288  1.00  0.00     0.016 A 
ATOM     42  C   UNL A   1      36.743  34.636  32.616  1.00  0.00     0.010 A 
ATOM     43  C   UNL A   1      35.700  32.438  32.280  1.00  0.00     0.010 A 
ATOM     44  C   UNL A   1      36.814  33.264  32.341  1.00  0.00    -0.014 A 
BRANCH  44  45
ATOM     45  C   UNL A   1      38.126  32.688  32.204  1.00  0.00     0.031 A 
ATOM     46  C   UNL A   1      38.875  32.729  33.471  1.00  0.00     0.074 A 
ATOM     47  C   UNL A   1      38.557  32.140  31.055  1.00  0.00     0.049 A 
ATOM     48  N   UNL A   1      39.906  33.452  33.738  1.00  0.00    -0.248 NA
ATOM     49  C   UNL A   1      38.289  32.044  34.634  1.00  0.00     0.031 C 
ATOM     50  C   UNL A   1      37.790  31.833  29.846  1.00  0.00     0.029 A 
ATOM     51  N   UNL A   1      39.789  31.648  30.770  1.00  0.00    -0.354 N 
ATOM     52  C   UNL A   1      40.232  33.147  35.052  1.00  0.00     0.074 A 
ATOM     53  C   UNL A   1      39.101  32.452  35.608  1.00  0.00     0.031 C 
ATOM     54  C   UNL A   1      38.517  31.003  29.063  1.00  0.00     0.029 A 
ATOM     55  C   UNL A   1      39.831  30.822  29.657  1.00  0.00     0.049 A 
ATOM     56  H   UNL A   1      40.586  31.858  31.309  1.00  0.00     0.167 HD
ATOM     57  C   UNL A   1      41.524  33.216  35.462  1.00  0.00     0.037 A 
ATOM     58  C   UNL A   1      40.852  29.989  29.333  1.00  0.00     0.037 A 
ATOM     59  C   UNL A   1      42.298  34.075  34.599  1.00  0.00     0.049 A 
ATOM     60  C   UNL A   1      42.060  30.466  30.060  1.00  0.00     0.074 A 
ATOM     61  C   UNL A   1      42.193  35.398  34.208  1.00  0.00     0.029 A 
ATOM     62  N   UNL A   1      43.145  33.488  33.690  1.00  0.00    -0.354 N 
ATOM     63  N   UNL A   1      42.676  31.584  29.789  1.00  0.00    -0.248 NA
ATOM     64  C   UNL A   1      42.306  29.930  31.392  1.00  0.00     0.031 C 
ATOM     65  C   UNL A   1      42.590  35.416  32.837  1.00  0.00     0.029 A 
ATOM     66  C   UNL A   1      42.971  34.121  32.488  1.00  0.00     0.049 A 
ATOM     67  H   UNL A   1      43.766  32.745  33.872  1.00  0.00     0.167 HD
ATOM     68  C   UNL A   1      43.014  32.109  31.027  1.00  0.00     0.074 A 
ATOM     69  C   UNL A   1      42.843  31.007  31.970  1.00  0.00     0.031 C 
ATOM     70  C   UNL A   1      43.110  33.458  31.212  1.00  0.00     0.037 A 
BRANCH  57  71
ATOM     71  C   UNL A   1      42.151  32.166  36.345  1.00  0.00     0.064 A 
ATOM     72  C   UNL A   1      42.944  32.588  37.427  1.00  0.00     0.173 A 
ATOM     73  C   UNL A   1      42.274  30.801  35.993  1.00  0.00     0.173 A 
ATOM     74  F   UNL A   1      42.918  33.866  37.833  1.00  0.00    -0.203 F 
ATOM     75  C   UNL A   1      43.862  31.734  38.041  1.00  0.00     0.198 A 
ATOM     76  C   UNL A   1      43.148  29.940  36.646  1.00  0.00     0.198 A 
ATOM     77  F   UNL A   1      41.653  30.267  34.936  1.00  0.00    -0.203 F 
ATOM     78  F   UNL A   1      44.699  32.217  38.968  1.00  0.00    -0.200 F 
ATOM     79  C   UNL A   1      43.969  30.413  37.644  1.00  0.00     0.200 A 
ATOM     80  F   UNL A   1      43.248  28.668  36.231  1.00  0.00    -0.200 F 
ATOM     81  F   UNL A   1      44.897  29.612  38.182  1.00  0.00    -0.200 F 
ENDBRANCH  57  71
BRANCH  58  82
ATOM     82  C   UNL A   1      40.768  28.632  28.738  1.00  0.00     0.064 A 
ATOM     83  C   UNL A   1      40.039  27.613  29.374  1.00  0.00     0.173 A 
ATOM     84  C   UNL A   1      41.159  28.378  27.407  1.00  0.00     0.173 A 
ATOM     85  F   UNL A   1      39.588  27.787  30.626  1.00  0.00    -0.203 F 
ATOM     86  C   UNL A   1      39.693  26.431  28.710  1.00  0.00     0.198 A 
ATOM     87  C   UNL A   1      40.824  27.194  26.751  1.00  0.00     0.198 A 
ATOM     88  F   UNL A   1      41.791  29.310  26.681  1.00  0.00    -0.203 F 
ATOM     89  F   UNL A   1      38.936  25.514  29.328  1.00  0.00    -0.200 F 
ATOM     90  C   UNL A   1      40.076  26.227  27.396  1.00  0.00     0.200 A 
ATOM     91  F   UNL A   1      41.172  27.025  25.466  1.00  0.00    -0.200 F 
ATOM     92  F   UNL A   1      39.693  25.124  26.738  1.00  0.00    -0.200 F 
ENDBRANCH  58  82
BRANCH  70  93
ATOM     93  C   UNL A   1      43.129  34.333  29.991  1.00  0.00     0.064 A 
ATOM     94  C   UNL A   1      44.294  34.673  29.282  1.00  0.00     0.173 A 
ATOM     95  C   UNL A   1      41.902  34.730  29.444  1.00  0.00     0.173 A 
ATOM     96  F   UNL A   1      45.498  34.243  29.683  1.00  0.00    -0.203 F 
ATOM     97  C   UNL A   1      44.231  35.422  28.107  1.00  0.00     0.198 A 
ATOM     98  C   UNL A   1      41.839  35.443  28.251  1.00  0.00     0.198 A 
ATOM     99  F   UNL A   1      40.754  34.385  30.048  1.00  0.00    -0.203 F 
ATOM    100  F   UNL A   1      45.358  35.750  27.458  1.00  0.00    -0.200 F 
ATOM    101  C   UNL A   1      43.004  35.800  27.590  1.00  0.00     0.200 A 
ATOM    102  F   UNL A   1      40.647  35.763  27.729  1.00  0.00    -0.200 F 
ATOM    103  F   UNL A   1      42.939  36.485  26.440  1.00  0.00    -0.200 F 
ENDBRANCH  70  93
ENDBRANCH  44  45
ENDBRANCH  37  39
ENDBRANCH  36  37
ENDBRANCH  35  36
ENDBRANCH  34  35
ENDBRANCH  33  34
ENDBRANCH  32  33
ENDBRANCH  31  32
ENDBRANCH  30  31
ENDBRANCH   1  30
TORSDOF 24
ENDMDL
MODEL 2
REMARK VINA RESULT:      -9.3      4.736      7.377
REMARK SMILES CC1=C[C@@H]([C@@H]2N=N[C@H](S)N2/N=C/c2ccc(C(=O)OCCOCCOCCOCCOC(=O)c3ccc(-c4c5nc(c(-c6c(F)c(F)c(F)c(F)c6F)c6ccc([nH]6)c(-c6c(F)c(F)c(F)c(F)c6F)c6nc(c(-c7c(F)c(F)c(F)c(F)c7F)c7ccc4[nH]7)C=C6)C=C5)cc3)cc2)N=N1
REMARK SMILES IDX 24 1 23 2 22 3 21 4 20 5 19 6 17 7 18 8 16 9 13 10 14 11
REMARK SMILES IDX 98 12 15 13 97 14 12 15 11 16 10 17 5 18 6 19 7 20 8 21 4 22
REMARK SMILES IDX 1 23 2 24 3 25 100 26 99 27 9 28 25 30 26 31 27 32 28 33
REMARK SMILES IDX 29 34 30 35 31 36 32 37 33 38 34 39 35 40 96 41 36 42 95 43
REMARK SMILES IDX 37 44 38 45 39 46 89 47 40 48 94 49 88 50 90 51 41 52 93 53
REMARK SMILES IDX 87 54 86 55 42 57 74 58 54 59 73 60 55 61 58 62 72 63 91 64
REMARK SMILES IDX 56 65 57 66 71 68 92 69 59 70 43 71 44 72 52 73 45 74 46 75
REMARK SMILES IDX 50 76 53 77 47 78 48 79 51 80 49 81 75 82 76 83 84 84 77 85
REMARK SMILES IDX 78 86 82 87 85 88 79 89 80 90 83 91 81 92 60 93 61 94 69 95
REMARK SMILES IDX 62 96 63 97 67 98 70 99 64 100 65 101 68 102 66 103
REMARK H PARENT 9 29 90 56 58 67
REMARK Flexibility Score: inf
ROOT
ATOM      1  C   UNL A   1      32.059  32.355  26.997  1.00  0.00     0.188 C 
ENDROOT
BRANCH   1   2
ATOM      2  C   UNL A   1      31.109  31.503  26.125  1.00  0.00     0.188 C 
BRANCH   2   3
ATOM      3  O   UNL A   1      30.359  32.260  25.197  1.00  0.00    -0.376 OA
BRANCH   3   4
ATOM      4  C   UNL A   1      29.305  31.659  24.483  1.00  0.00     0.202 C 
BRANCH   4   5
ATOM      5  C   UNL A   1      29.032  32.112  23.043  1.00  0.00     0.261 C 
BRANCH   5   6
ATOM      6  O   UNL A   1      29.501  31.246  22.002  1.00  0.00    -0.460 OA
BRANCH   6   7
ATOM      7  C   UNL A   1      28.717  30.196  21.688  1.00  0.00     0.338 C 
ATOM      8  O   UNL A   1      27.883  30.149  20.788  1.00  0.00    -0.246 OA
BRANCH   7   9
ATOM      9  C   UNL A   1      29.155  29.022  22.472  1.00  0.00     0.060 A 
ATOM     10  C   UNL A   1      30.047  26.769  23.842  1.00  0.00    -0.005 A 
ATOM     11  C   UNL A   1      30.979  27.636  23.268  1.00  0.00     0.010 A 
ATOM     12  C   UNL A   1      28.678  27.058  23.798  1.00  0.00     0.010 A 
ATOM     13  C   UNL A   1      30.529  28.753  22.564  1.00  0.00     0.016 A 
ATOM     14  C   UNL A   1      28.231  28.198  23.127  1.00  0.00     0.016 A 
BRANCH  10  15
ATOM     15  C   UNL A   1      30.532  25.500  24.416  1.00  0.00     0.141 C 
ATOM     16  N   UNL A   1      31.586  25.490  25.165  1.00  0.00    -0.180 NA
BRANCH  16  17
ATOM     17  N   UNL A   1      31.988  24.320  25.718  1.00  0.00    -0.233 NA
ATOM     18  C   UNL A   1      33.426  24.020  25.739  1.00  0.00     0.274 C 
ATOM     19  N   UNL A   1      33.686  23.091  26.866  1.00  0.00    -0.161 NA
ATOM     20  N   UNL A   1      32.645  22.932  27.545  1.00  0.00    -0.153 NA
ATOM     21  C   UNL A   1      31.514  23.667  26.938  1.00  0.00     0.298 C 
BRANCH  18  22
ATOM     22  C   UNL A   1      33.885  23.420  24.393  1.00  0.00     0.201 C 
ATOM     23  C   UNL A   1      32.904  24.899  21.144  1.00  0.00     0.068 C 
ATOM     24  C   UNL A   1      33.188  24.121  22.375  1.00  0.00     0.058 C 
ATOM     25  C   UNL A   1      34.084  24.424  23.311  1.00  0.00     0.031 C 
ATOM     26  N   UNL A   1      32.463  22.999  22.686  1.00  0.00    -0.160 NA
ATOM     27  N   UNL A   1      32.822  22.544  23.812  1.00  0.00    -0.177 NA
ENDBRANCH  18  22
BRANCH  21  28
ATOM     28  S   UNL A   1      30.086  22.578  26.561  1.00  0.00    -0.128 SA
ATOM     29  H   UNL A   1      29.481  22.208  27.721  1.00  0.00     0.106 HD
ENDBRANCH  21  28
ENDBRANCH  16  17
ENDBRANCH  10  15
ENDBRANCH   7   9
ENDBRANCH   6   7
ENDBRANCH   5   6
ENDBRANCH   4   5
ENDBRANCH   3   4
ENDBRANCH   2   3
ENDBRANCH   1   2
BRANCH   1  30
ATOM     30  O   UNL A   1      33.197  31.774  27.622  1.00  0.00    -0.377 OA
BRANCH  30  31
ATOM     31  C   UNL A   1      34.333  32.567  27.956  1.00  0.00     0.188 C 
BRANCH  31  32
ATOM     32  C   UNL A   1      34.400  33.425  29.249  1.00  0.00     0.188 C 
BRANCH  32  33
ATOM     33  O   UNL A   1      34.399  32.700  30.465  1.00  0.00    -0.376 OA
BRANCH  33  34
ATOM     34  C   UNL A   1      34.827  33.255  31.689  1.00  0.00     0.202 C 
BRANCH  34  35
ATOM     35  C   UNL A   1      36.310  33.251  32.026  1.00  0.00     0.261 C 
BRANCH  35  36
ATOM     36  O   UNL A   1      37.066  32.319  31.283  1.00  0.00    -0.460 OA
BRANCH  36  37
ATOM     37  C   UNL A   1      38.373  32.591  31.212  1.00  0.00     0.338 C 
ATOM     38  O   UNL A   1      38.917  33.488  30.563  1.00  0.00    -0.246 OA
BRANCH  37  39
ATOM     39  C   UNL A   1      39.091  31.537  31.913  1.00  0.00     0.060 A 
ATOM     40  C   UNL A   1      40.435  31.789  32.181  1.00  0.00     0.016 A 
ATOM     41  C   UNL A   1      38.548  30.241  31.884  1.00  0.00     0.016 A 
ATOM     42  C   UNL A   1      41.295  30.724  32.124  1.00  0.00     0.010 A 
ATOM     43  C   UNL A   1      39.410  29.183  31.799  1.00  0.00     0.010 A 
ATOM     44  C   UNL A   1      40.770  29.461  31.818  1.00  0.00    -0.014 A 
BRANCH  44  45
ATOM     45  C   UNL A   1      41.711  28.394  31.601  1.00  0.00     0.031 A 
ATOM     46  C   UNL A   1      42.244  27.870  32.869  1.00  0.00     0.074 A 
ATOM     47  C   UNL A   1      41.999  27.924  30.375  1.00  0.00     0.049 A 
ATOM     48  N   UNL A   1      43.446  27.995  33.315  1.00  0.00    -0.248 NA
ATOM     49  C   UNL A   1      41.283  27.325  33.842  1.00  0.00     0.031 C 
ATOM     50  C   UNL A   1      41.327  28.213  29.107  1.00  0.00     0.029 A 
ATOM     51  N   UNL A   1      42.922  26.992  30.029  1.00  0.00    -0.354 N 
ATOM     52  C   UNL A   1      43.446  27.349  34.543  1.00  0.00     0.074 A 
ATOM     53  C   UNL A   1      42.068  27.147  34.905  1.00  0.00     0.031 C 
ATOM     54  C   UNL A   1      41.714  27.299  28.186  1.00  0.00     0.029 A 
ATOM     55  C   UNL A   1      42.739  26.447  28.767  1.00  0.00     0.049 A 
ATOM     56  H   UNL A   1      43.660  26.724  30.623  1.00  0.00     0.167 HD
ATOM     57  C   UNL A   1      44.581  26.759  34.996  1.00  0.00     0.037 A 
ATOM     58  C   UNL A   1      43.331  25.318  28.304  1.00  0.00     0.037 A 
ATOM     59  C   UNL A   1      45.748  27.319  34.360  1.00  0.00     0.049 A 
ATOM     60  C   UNL A   1      44.528  25.066  29.152  1.00  0.00     0.074 A 
ATOM     61  C   UNL A   1      46.273  28.594  34.256  1.00  0.00     0.029 A 
ATOM     62  N   UNL A   1      46.362  26.586  33.372  1.00  0.00    -0.354 N 
ATOM     63  N   UNL A   1      45.594  25.819  29.143  1.00  0.00    -0.248 NA
ATOM     64  C   UNL A   1      44.355  24.250  30.345  1.00  0.00     0.031 C 
ATOM     65  C   UNL A   1      46.801  28.676  32.933  1.00  0.00     0.029 A 
ATOM     66  C   UNL A   1      46.626  27.432  32.327  1.00  0.00     0.049 A 
ATOM     67  H   UNL A   1      46.574  25.625  33.410  1.00  0.00     0.167 HD
ATOM     68  C   UNL A   1      45.972  25.908  30.474  1.00  0.00     0.074 A 
ATOM     69  C   UNL A   1      45.230  24.852  31.156  1.00  0.00     0.031 C 
ATOM     70  C   UNL A   1      46.618  27.015  30.945  1.00  0.00     0.037 A 
BRANCH  57  71
ATOM     71  C   UNL A   1      44.581  25.402  35.654  1.00  0.00     0.064 A 
ATOM     72  C   UNL A   1      45.303  25.237  36.849  1.00  0.00     0.173 A 
ATOM     73  C   UNL A   1      44.186  24.206  35.009  1.00  0.00     0.173 A 
ATOM     74  F   UNL A   1      45.741  26.304  37.533  1.00  0.00    -0.203 F 
ATOM     75  C   UNL A   1      45.686  23.975  37.308  1.00  0.00     0.198 A 
ATOM     76  C   UNL A   1      44.520  22.949  35.501  1.00  0.00     0.198 A 
ATOM     77  F   UNL A   1      43.569  24.192  33.823  1.00  0.00    -0.203 F 
ATOM     78  F   UNL A   1      46.496  23.874  38.369  1.00  0.00    -0.200 F 
ATOM     79  C   UNL A   1      45.301  22.833  36.629  1.00  0.00     0.200 A 
ATOM     80  F   UNL A   1      44.153  21.857  34.816  1.00  0.00    -0.200 F 
ATOM     81  F   UNL A   1      45.726  21.628  37.026  1.00  0.00    -0.200 F 
ENDBRANCH  57  71
BRANCH  58  82
ATOM     82  C   UNL A   1      42.742  24.271  27.431  1.00  0.00     0.064 A 
ATOM     83  C   UNL A   1      43.506  23.669  26.416  1.00  0.00     0.173 A 
ATOM     84  C   UNL A   1      41.522  23.639  27.748  1.00  0.00     0.173 A 
ATOM     85  F   UNL A   1      44.701  24.178  26.081  1.00  0.00    -0.203 F 
ATOM     86  C   UNL A   1      43.092  22.493  25.783  1.00  0.00     0.198 A 
ATOM     87  C   UNL A   1      41.105  22.472  27.107  1.00  0.00     0.198 A 
ATOM     88  F   UNL A   1      40.753  24.082  28.751  1.00  0.00    -0.203 F 
ATOM     89  F   UNL A   1      43.882  21.911  24.870  1.00  0.00    -0.200 F 
ATOM     90  C   UNL A   1      41.897  21.889  26.136  1.00  0.00     0.200 A 
ATOM     91  F   UNL A   1      39.963  21.880  27.484  1.00  0.00    -0.200 F 
ATOM     92  F   UNL A   1      41.529  20.729  25.576  1.00  0.00    -0.200 F 
ENDBRANCH  58  82
BRANCH  70  93
ATOM     93  C   UNL A   1      47.161  27.990  29.939  1.00  0.00     0.064 A 
ATOM     94  C   UNL A   1      48.421  27.874  29.328  1.00  0.00     0.173 A 
ATOM     95  C   UNL A   1      46.313  29.006  29.480  1.00  0.00     0.173 A 
ATOM     96  F   UNL A   1      49.249  26.866  29.636  1.00  0.00    -0.203 F 
ATOM     97  C   UNL A   1      48.830  28.769  28.339  1.00  0.00     0.198 A 
ATOM     98  C   UNL A   1      46.708  29.874  28.466  1.00  0.00     0.198 A 
ATOM     99  F   UNL A   1      45.077  29.130  29.988  1.00  0.00    -0.203 F 
ATOM    100  F   UNL A   1      50.045  28.648  27.784  1.00  0.00    -0.200 F 
ATOM    101  C   UNL A   1      47.970  29.763  27.905  1.00  0.00     0.200 A 
ATOM    102  F   UNL A   1      45.853  30.803  28.016  1.00  0.00    -0.200 F 
ATOM    103  F   UNL A   1      48.345  30.600  26.928  1.00  0.00    -0.200 F 
ENDBRANCH  70  93
ENDBRANCH  44  45
ENDBRANCH  37  39
ENDBRANCH  36  37
ENDBRANCH  35  36
ENDBRANCH  34  35
ENDBRANCH  33  34
ENDBRANCH  32  33
ENDBRANCH  31  32
ENDBRANCH  30  31
ENDBRANCH   1  30
TORSDOF 24
ENDMDL
MODEL 3
REMARK VINA RESULT:      -9.2      5.739     10.790
REMARK SMILES CC1=C[C@@H]([C@@H]2N=N[C@H](S)N2/N=C/c2ccc(C(=O)OCCOCCOCCOCCOC(=O)c3ccc(-c4c5nc(c(-c6c(F)c(F)c(F)c(F)c6F)c6ccc([nH]6)c(-c6c(F)c(F)c(F)c(F)c6F)c6nc(c(-c7c(F)c(F)c(F)c(F)c7F)c7ccc4[nH]7)C=C6)C=C5)cc3)cc2)N=N1
REMARK SMILES IDX 24 1 23 2 22 3 21 4 20 5 19 6 17 7 18 8 16 9 13 10 14 11
REMARK SMILES IDX 98 12 15 13 97 14 12 15 11 16 10 17 5 18 6 19 7 20 8 21 4 22
REMARK SMILES IDX 1 23 2 24 3 25 100 26 99 27 9 28 25 30 26 31 27 32 28 33
REMARK SMILES IDX 29 34 30 35 31 36 32 37 33 38 34 39 35 40 96 41 36 42 95 43
REMARK SMILES IDX 37 44 38 45 39 46 89 47 40 48 94 49 88 50 90 51 41 52 93 53
REMARK SMILES IDX 87 54 86 55 42 57 74 58 54 59 73 60 55 61 58 62 72 63 91 64
REMARK SMILES IDX 56 65 57 66 71 68 92 69 59 70 43 71 44 72 52 73 45 74 46 75
REMARK SMILES IDX 50 76 53 77 47 78 48 79 51 80 49 81 75 82 76 83 84 84 77 85
REMARK SMILES IDX 78 86 82 87 85 88 79 89 80 90 83 91 81 92 60 93 61 94 69 95
REMARK SMILES IDX 62 96 63 97 67 98 70 99 64 100 65 101 68 102 66 103
REMARK H PARENT 9 29 90 56 58 67
REMARK Flexibility Score: inf
ROOT
ATOM      1  C   UNL A   1      39.959  31.390  34.736  1.00  0.00     0.188 C 
ENDROOT
BRANCH   1   2
ATOM      2  C   UNL A   1      40.756  30.669  35.846  1.00  0.00     0.188 C 
BRANCH   2   3
ATOM      3  O   UNL A   1      40.633  29.262  35.811  1.00  0.00    -0.376 OA
BRANCH   3   4
ATOM      4  C   UNL A   1      40.731  28.575  34.586  1.00  0.00     0.202 C 
BRANCH   4   5
ATOM      5  C   UNL A   1      41.820  27.508  34.419  1.00  0.00     0.261 C 
BRANCH   5   6
ATOM      6  O   UNL A   1      42.223  26.815  35.608  1.00  0.00    -0.460 OA
BRANCH   6   7
ATOM      7  C   UNL A   1      41.784  25.550  35.750  1.00  0.00     0.338 C 
ATOM      8  O   UNL A   1      40.614  25.188  35.844  1.00  0.00    -0.246 OA
BRANCH   7   9
ATOM      9  C   UNL A   1      42.925  24.627  35.573  1.00  0.00     0.060 A 
ATOM     10  C   UNL A   1      45.148  22.992  35.212  1.00  0.00    -0.005 A 
ATOM     11  C   UNL A   1      45.208  24.036  36.136  1.00  0.00     0.010 A 
ATOM     12  C   UNL A   1      43.963  22.714  34.521  1.00  0.00     0.010 A 
ATOM     13  C   UNL A   1      44.100  24.867  36.300  1.00  0.00     0.016 A 
ATOM     14  C   UNL A   1      42.841  23.522  34.716  1.00  0.00     0.016 A 
BRANCH  10  15
ATOM     15  C   UNL A   1      46.386  22.246  34.916  1.00  0.00     0.141 C 
ATOM     16  N   UNL A   1      47.537  22.815  35.072  1.00  0.00    -0.180 NA
BRANCH  16  17
ATOM     17  N   UNL A   1      48.663  22.099  34.837  1.00  0.00    -0.233 NA
ATOM     18  C   UNL A   1      48.651  20.664  35.151  1.00  0.00     0.274 C 
ATOM     19  N   UNL A   1      49.657  19.996  34.290  1.00  0.00    -0.161 NA
ATOM     20  N   UNL A   1      50.130  20.811  33.464  1.00  0.00    -0.153 NA
ATOM     21  C   UNL A   1      49.571  22.162  33.692  1.00  0.00     0.298 C 
BRANCH  18  22
ATOM     22  C   UNL A   1      48.938  20.424  36.648  1.00  0.00     0.201 C 
ATOM     23  C   UNL A   1      46.370  20.979  39.257  1.00  0.00     0.068 C 
ATOM     24  C   UNL A   1      47.518  20.916  38.319  1.00  0.00     0.058 C 
ATOM     25  C   UNL A   1      47.760  19.956  37.431  1.00  0.00     0.031 C 
ATOM     26  N   UNL A   1      48.435  21.934  38.254  1.00  0.00    -0.160 NA
ATOM     27  N   UNL A   1      49.278  21.706  37.337  1.00  0.00    -0.177 NA
ENDBRANCH  18  22
BRANCH  21  28
ATOM     28  S   UNL A   1      50.870  23.424  33.982  1.00  0.00    -0.128 SA
ATOM     29  H   UNL A   1      51.082  24.128  32.838  1.00  0.00     0.106 HD
ENDBRANCH  21  28
ENDBRANCH  16  17
ENDBRANCH  10  15
ENDBRANCH   7   9
ENDBRANCH   6   7
ENDBRANCH   5   6
ENDBRANCH   4   5
ENDBRANCH   3   4
ENDBRANCH   2   3
ENDBRANCH   1   2
BRANCH   1  30
ATOM     30  O   UNL A   1      38.879  32.259  35.056  1.00  0.00    -0.377 OA
BRANCH  30  31
ATOM     31  C   UNL A   1      37.577  32.036  34.522  1.00  0.00     0.188 C 
BRANCH  31  32
ATOM     32  C   UNL A   1      36.814  33.115  33.706  1.00  0.00     0.188 C 
BRANCH  32  33
ATOM     33  O   UNL A   1      35.779  32.632  32.870  1.00  0.00    -0.376 OA
BRANCH  33  34
ATOM     34  C   UNL A   1      35.723  32.901  31.487  1.00  0.00     0.202 C 
BRANCH  34  35
ATOM     35  C   UNL A   1      35.597  31.742  30.511  1.00  0.00     0.261 C 
BRANCH  35  36
ATOM     36  O   UNL A   1      36.798  31.029  30.307  1.00  0.00    -0.460 OA
BRANCH  36  37
ATOM     37  C   UNL A   1      36.855  29.845  30.924  1.00  0.00     0.338 C 
ATOM     38  O   UNL A   1      36.334  29.534  31.999  1.00  0.00    -0.246 OA
BRANCH  37  39
ATOM     39  C   UNL A   1      37.785  28.999  30.191  1.00  0.00     0.060 A 
ATOM     40  C   UNL A   1      38.463  28.042  30.943  1.00  0.00     0.016 A 
ATOM     41  C   UNL A   1      38.245  29.456  28.944  1.00  0.00     0.016 A 
ATOM     42  C   UNL A   1      39.755  27.765  30.585  1.00  0.00     0.010 A 
ATOM     43  C   UNL A   1      39.544  29.200  28.603  1.00  0.00     0.010 A 
ATOM     44  C   UNL A   1      40.301  28.442  29.486  1.00  0.00    -0.014 A 
BRANCH  44  45
ATOM     45  C   UNL A   1      41.706  28.258  29.232  1.00  0.00     0.031 A 
ATOM     46  C   UNL A   1      41.975  26.976  28.561  1.00  0.00     0.074 A 
ATOM     47  C   UNL A   1      42.623  29.192  29.536  1.00  0.00     0.049 A 
ATOM     48  N   UNL A   1      42.571  25.950  29.060  1.00  0.00    -0.248 NA
ATOM     49  C   UNL A   1      41.328  26.735  27.261  1.00  0.00     0.031 C 
ATOM     50  C   UNL A   1      42.409  30.577  29.961  1.00  0.00     0.029 A 
ATOM     51  N   UNL A   1      43.973  29.108  29.431  1.00  0.00    -0.354 N 
ATOM     52  C   UNL A   1      42.565  24.999  28.050  1.00  0.00     0.074 A 
ATOM     53  C   UNL A   1      41.620  25.450  27.063  1.00  0.00     0.031 C 
ATOM     54  C   UNL A   1      43.573  31.257  29.848  1.00  0.00     0.029 A 
ATOM     55  C   UNL A   1      44.625  30.331  29.461  1.00  0.00     0.049 A 
ATOM     56  H   UNL A   1      44.450  28.252  29.341  1.00  0.00     0.167 HD
ATOM     57  C   UNL A   1      43.570  24.090  27.970  1.00  0.00     0.037 A 
ATOM     58  C   UNL A   1      45.913  30.546  29.092  1.00  0.00     0.037 A 
ATOM     59  C   UNL A   1      44.234  23.937  29.241  1.00  0.00     0.049 A 
ATOM     60  C   UNL A   1      46.610  29.231  29.133  1.00  0.00     0.074 A 
ATOM     61  C   UNL A   1      43.817  23.589  30.513  1.00  0.00     0.029 A 
ATOM     62  N   UNL A   1      45.463  24.531  29.406  1.00  0.00    -0.354 N 
ATOM     63  N   UNL A   1      46.867  28.581  30.235  1.00  0.00    -0.248 NA
ATOM     64  C   UNL A   1      46.604  28.422  27.922  1.00  0.00     0.031 C 
ATOM     65  C   UNL A   1      44.581  24.409  31.396  1.00  0.00     0.029 A 
ATOM     66  C   UNL A   1      45.462  25.164  30.621  1.00  0.00     0.049 A 
ATOM     67  H   UNL A   1      46.210  24.505  28.765  1.00  0.00     0.167 HD
ATOM     68  C   UNL A   1      46.617  27.253  29.926  1.00  0.00     0.074 A 
ATOM     69  C   UNL A   1      46.546  27.205  28.468  1.00  0.00     0.031 C 
ATOM     70  C   UNL A   1      46.194  26.379  30.886  1.00  0.00     0.037 A 
BRANCH  57  71
ATOM     71  C   UNL A   1      44.212  23.705  26.661  1.00  0.00     0.064 A 
ATOM     72  C   UNL A   1      44.173  22.356  26.266  1.00  0.00     0.173 A 
ATOM     73  C   UNL A   1      45.125  24.522  25.953  1.00  0.00     0.173 A 
ATOM     74  F   UNL A   1      43.355  21.490  26.883  1.00  0.00    -0.203 F 
ATOM     75  C   UNL A   1      45.051  21.845  25.309  1.00  0.00     0.198 A 
ATOM     76  C   UNL A   1      45.958  24.020  24.959  1.00  0.00     0.198 A 
ATOM     77  F   UNL A   1      45.343  25.804  26.265  1.00  0.00    -0.203 F 
ATOM     78  F   UNL A   1      45.077  20.528  25.071  1.00  0.00    -0.200 F 
ATOM     79  C   UNL A   1      45.948  22.676  24.663  1.00  0.00     0.200 A 
ATOM     80  F   UNL A   1      46.833  24.840  24.360  1.00  0.00    -0.200 F 
ATOM     81  F   UNL A   1      46.838  22.176  23.797  1.00  0.00    -0.200 F 
ENDBRANCH  57  71
BRANCH  58  82
ATOM     82  C   UNL A   1      46.474  31.719  28.375  1.00  0.00     0.064 A 
ATOM     83  C   UNL A   1      45.906  32.161  27.168  1.00  0.00     0.173 A 
ATOM     84  C   UNL A   1      47.389  32.597  28.989  1.00  0.00     0.173 A 
ATOM     85  F   UNL A   1      44.992  31.409  26.537  1.00  0.00    -0.203 F 
ATOM     86  C   UNL A   1      46.210  33.416  26.628  1.00  0.00     0.198 A 
ATOM     87  C   UNL A   1      47.700  33.843  28.444  1.00  0.00     0.198 A 
ATOM     88  F   UNL A   1      47.931  32.312  30.181  1.00  0.00    -0.203 F 
ATOM     89  F   UNL A   1      45.594  33.830  25.512  1.00  0.00    -0.200 F 
ATOM     90  C   UNL A   1      47.098  34.260  27.272  1.00  0.00     0.200 A 
ATOM     91  F   UNL A   1      48.535  34.664  29.097  1.00  0.00    -0.200 F 
ATOM     92  F   UNL A   1      47.341  35.487  26.791  1.00  0.00    -0.200 F 
ENDBRANCH  58  82
BRANCH  70  93
ATOM     93  C   UNL A   1      46.290  26.815  32.321  1.00  0.00     0.064 A 
ATOM     94  C   UNL A   1      45.374  27.678  32.947  1.00  0.00     0.173 A 
ATOM     95  C   UNL A   1      47.276  26.227  33.124  1.00  0.00     0.173 A 
ATOM     96  F   UNL A   1      44.341  28.198  32.271  1.00  0.00    -0.203 F 
ATOM     97  C   UNL A   1      45.476  27.977  34.305  1.00  0.00     0.198 A 
ATOM     98  C   UNL A   1      47.352  26.496  34.488  1.00  0.00     0.198 A 
ATOM     99  F   UNL A   1      48.143  25.353  32.592  1.00  0.00    -0.203 F 
ATOM    100  F   UNL A   1      44.601  28.817  34.876  1.00  0.00    -0.200 F 
ATOM    101  C   UNL A   1      46.460  27.380  35.075  1.00  0.00     0.200 A 
ATOM    102  F   UNL A   1      48.275  25.878  35.237  1.00  0.00    -0.200 F 
ATOM    103  F   UNL A   1      46.536  27.635  36.389  1.00  0.00    -0.200 F 
ENDBRANCH  70  93
ENDBRANCH  44  45
ENDBRANCH  37  39
ENDBRANCH  36  37
ENDBRANCH  35  36
ENDBRANCH  34  35
ENDBRANCH  33  34
ENDBRANCH  32  33
ENDBRANCH  31  32
ENDBRANCH  30  31
ENDBRANCH   1  30
TORSDOF 24
ENDMDL
