MODEL 1
REMARK VINA RESULT:      -9.3      0.000      0.000
REMARK SMILES O=C(CCNC(=O)C1CCCCC1)OCCOCCOCCOCCOC(=O)c1ccc(-c2c3nc(c(-c4c(F)c(F)c(F)c(F)c4F)c4ccc([nH]4)c(-c4c(F)c(F)c(F)c(F)c4F)c4nc(c(-c5c(F)c(F)c(F)c(F)c5F)c5ccc2[nH]5)C=C4)C=C3)cc1
REMARK SMILES IDX 19 1 18 2 17 3 16 4 15 5 14 6 2 7 1 8 3 9 4 10 5 11 6 12
REMARK SMILES IDX 7 14 8 15 9 16 13 17 10 18 12 19 11 20 20 21 21 22 22 23
REMARK SMILES IDX 23 24 24 25 25 26 26 27 27 28 28 29 29 30 30 31 91 32 31 33
REMARK SMILES IDX 90 34 32 35 33 36 34 37 84 38 35 39 89 40 83 41 85 42 36 43
REMARK SMILES IDX 88 44 82 45 81 46 37 48 69 49 49 50 68 51 50 52 53 53 67 54
REMARK SMILES IDX 86 55 51 56 52 57 66 59 87 60 54 61 38 62 39 63 47 64 40 65
REMARK SMILES IDX 41 66 45 67 48 68 42 69 43 70 46 71 44 72 70 73 71 74 79 75
REMARK SMILES IDX 72 76 73 77 77 78 80 79 74 80 75 81 78 82 76 83 55 84 56 85
REMARK SMILES IDX 64 86 57 87 58 88 62 89 65 90 59 91 60 92 63 93 61 94
REMARK H PARENT 5 13 85 47 53 58
REMARK Flexibility Score: inf
ROOT
ATOM      1  C   UNL A   1      34.383  30.366  27.536  1.00  0.00     0.188 C 
ENDROOT
BRANCH   1   2
ATOM      2  C   UNL A   1      34.846  28.964  27.138  1.00  0.00     0.188 C 
BRANCH   2   3
ATOM      3  O   UNL A   1      33.881  28.090  26.581  1.00  0.00    -0.376 OA
BRANCH   3   4
ATOM      4  C   UNL A   1      34.168  27.071  25.647  1.00  0.00     0.202 C 
BRANCH   4   5
ATOM      5  C   UNL A   1      33.319  25.823  25.522  1.00  0.00     0.261 C 
BRANCH   5   6
ATOM      6  O   UNL A   1      32.159  25.679  26.369  1.00  0.00    -0.463 OA
BRANCH   6   7
ATOM      7  C   UNL A   1      30.991  26.347  26.384  1.00  0.00     0.307 C 
ATOM      8  O   UNL A   1      30.845  27.280  27.172  1.00  0.00    -0.252 OA
BRANCH   7   9
ATOM      9  C   UNL A   1      29.838  25.907  25.528  1.00  0.00     0.144 C 
BRANCH   9  10
ATOM     10  C   UNL A   1      29.812  26.551  24.150  1.00  0.00     0.127 C 
BRANCH  10  11
ATOM     11  N   UNL A   1      30.889  27.501  23.945  1.00  0.00    -0.355 N 
ATOM     12  C   UNL A   1      30.906  28.740  23.376  1.00  0.00     0.223 C 
ATOM     13  H   UNL A   1      31.765  27.196  24.276  1.00  0.00     0.163 HD
ATOM     14  O   UNL A   1      32.022  29.234  23.195  1.00  0.00    -0.275 OA
BRANCH  12  15
ATOM     15  C   UNL A   1      29.612  29.473  22.997  1.00  0.00     0.078 C 
ATOM     16  C   UNL A   1      29.447  30.707  23.909  1.00  0.00     0.013 C 
ATOM     17  C   UNL A   1      29.527  29.941  21.538  1.00  0.00     0.013 C 
ATOM     18  C   UNL A   1      28.134  31.440  23.651  1.00  0.00     0.001 C 
ATOM     19  C   UNL A   1      28.202  30.652  21.253  1.00  0.00     0.001 C 
ATOM     20  C   UNL A   1      27.981  31.836  22.186  1.00  0.00     0.000 C 
ENDBRANCH  12  15
ENDBRANCH  10  11
ENDBRANCH   9  10
ENDBRANCH   7   9
ENDBRANCH   6   7
ENDBRANCH   5   6
ENDBRANCH   4   5
ENDBRANCH   3   4
ENDBRANCH   2   3
ENDBRANCH   1   2
BRANCH   1  21
ATOM     21  O   UNL A   1      35.167  31.036  28.516  1.00  0.00    -0.377 OA
BRANCH  21  22
ATOM     22  C   UNL A   1      35.924  32.138  28.029  1.00  0.00     0.188 C 
BRANCH  22  23
ATOM     23  C   UNL A   1      35.443  33.503  28.564  1.00  0.00     0.188 C 
BRANCH  23  24
ATOM     24  O   UNL A   1      34.575  34.186  27.664  1.00  0.00    -0.376 OA
BRANCH  24  25
ATOM     25  C   UNL A   1      33.269  34.462  28.159  1.00  0.00     0.202 C 
BRANCH  25  26
ATOM     26  C   UNL A   1      33.196  35.433  29.348  1.00  0.00     0.261 C 
BRANCH  26  27
ATOM     27  O   UNL A   1      32.591  34.908  30.546  1.00  0.00    -0.460 OA
BRANCH  27  28
ATOM     28  C   UNL A   1      32.798  35.567  31.703  1.00  0.00     0.338 C 
ATOM     29  O   UNL A   1      32.082  36.412  32.211  1.00  0.00    -0.246 OA
BRANCH  28  30
ATOM     30  C   UNL A   1      33.947  34.931  32.389  1.00  0.00     0.060 A 
ATOM     31  C   UNL A   1      35.138  35.664  32.510  1.00  0.00     0.016 A 
ATOM     32  C   UNL A   1      33.848  33.652  32.946  1.00  0.00     0.016 A 
ATOM     33  C   UNL A   1      36.253  35.089  33.121  1.00  0.00     0.010 A 
ATOM     34  C   UNL A   1      34.971  33.068  33.539  1.00  0.00     0.010 A 
ATOM     35  C   UNL A   1      36.193  33.763  33.573  1.00  0.00    -0.014 A 
BRANCH  35  36
ATOM     36  C   UNL A   1      37.465  33.020  33.744  1.00  0.00     0.031 A 
ATOM     37  C   UNL A   1      38.241  33.279  35.010  1.00  0.00     0.074 A 
ATOM     38  C   UNL A   1      37.899  32.106  32.860  1.00  0.00     0.049 A 
ATOM     39  N   UNL A   1      39.349  32.734  35.441  1.00  0.00    -0.248 NA
ATOM     40  C   UNL A   1      37.682  34.298  35.917  1.00  0.00     0.031 C 
ATOM     41  C   UNL A   1      37.226  31.737  31.618  1.00  0.00     0.029 A 
ATOM     42  N   UNL A   1      39.021  31.314  32.886  1.00  0.00    -0.354 N 
ATOM     43  C   UNL A   1      39.614  33.342  36.662  1.00  0.00     0.074 A 
ATOM     44  C   UNL A   1      38.579  34.324  36.887  1.00  0.00     0.031 C 
ATOM     45  C   UNL A   1      37.949  30.786  30.999  1.00  0.00     0.029 A 
ATOM     46  C   UNL A   1      39.142  30.492  31.793  1.00  0.00     0.049 A 
ATOM     47  H   UNL A   1      39.677  31.334  33.620  1.00  0.00     0.167 HD
ATOM     48  C   UNL A   1      40.622  33.097  37.530  1.00  0.00     0.037 A 
ATOM     49  C   UNL A   1      40.110  29.606  31.479  1.00  0.00     0.037 A 
ATOM     50  C   UNL A   1      41.656  32.126  37.309  1.00  0.00     0.049 A 
ATOM     51  C   UNL A   1      41.260  29.395  32.436  1.00  0.00     0.074 A 
ATOM     52  C   UNL A   1      42.718  31.793  38.129  1.00  0.00     0.029 A 
ATOM     53  N   UNL A   1      41.761  31.336  36.174  1.00  0.00    -0.354 N 
ATOM     54  N   UNL A   1      41.480  29.942  33.607  1.00  0.00    -0.248 NA
ATOM     55  C   UNL A   1      42.290  28.429  32.027  1.00  0.00     0.031 C 
ATOM     56  C   UNL A   1      43.496  30.837  37.468  1.00  0.00     0.029 A 
ATOM     57  C   UNL A   1      42.883  30.530  36.263  1.00  0.00     0.049 A 
ATOM     58  H   UNL A   1      41.130  31.346  35.418  1.00  0.00     0.167 HD
ATOM     59  C   UNL A   1      42.643  29.353  34.094  1.00  0.00     0.074 A 
ATOM     60  C   UNL A   1      43.080  28.405  33.091  1.00  0.00     0.031 C 
ATOM     61  C   UNL A   1      43.288  29.573  35.267  1.00  0.00     0.037 A 
BRANCH  48  62
ATOM     62  C   UNL A   1      40.666  33.925  38.781  1.00  0.00     0.064 A 
ATOM     63  C   UNL A   1      41.407  35.114  38.855  1.00  0.00     0.173 A 
ATOM     64  C   UNL A   1      39.962  33.517  39.923  1.00  0.00     0.173 A 
ATOM     65  F   UNL A   1      42.119  35.534  37.797  1.00  0.00    -0.203 F 
ATOM     66  C   UNL A   1      41.465  35.850  40.036  1.00  0.00     0.198 A 
ATOM     67  C   UNL A   1      39.996  34.272  41.092  1.00  0.00     0.198 A 
ATOM     68  F   UNL A   1      39.242  32.386  39.907  1.00  0.00    -0.203 F 
ATOM     69  F   UNL A   1      42.226  36.951  40.101  1.00  0.00    -0.200 F 
ATOM     70  C   UNL A   1      40.754  35.432  41.151  1.00  0.00     0.200 A 
ATOM     71  F   UNL A   1      39.302  33.871  42.166  1.00  0.00    -0.200 F 
ATOM     72  F   UNL A   1      40.809  36.140  42.287  1.00  0.00    -0.200 F 
ENDBRANCH  48  62
BRANCH  49  73
ATOM     73  C   UNL A   1      40.035  28.831  30.213  1.00  0.00     0.064 A 
ATOM     74  C   UNL A   1      39.424  27.569  30.171  1.00  0.00     0.173 A 
ATOM     75  C   UNL A   1      40.612  29.313  29.028  1.00  0.00     0.173 A 
ATOM     76  F   UNL A   1      38.884  27.050  31.283  1.00  0.00    -0.203 F 
ATOM     77  C   UNL A   1      39.413  26.810  29.001  1.00  0.00     0.198 A 
ATOM     78  C   UNL A   1      40.576  28.565  27.853  1.00  0.00     0.198 A 
ATOM     79  F   UNL A   1      41.216  30.510  29.015  1.00  0.00    -0.203 F 
ATOM     80  F   UNL A   1      38.870  25.585  29.005  1.00  0.00    -0.200 F 
ATOM     81  C   UNL A   1      39.985  27.311  27.842  1.00  0.00     0.200 A 
ATOM     82  F   UNL A   1      41.124  29.056  26.732  1.00  0.00    -0.200 F 
ATOM     83  F   UNL A   1      39.978  26.581  26.719  1.00  0.00    -0.200 F 
ENDBRANCH  49  73
BRANCH  61  84
ATOM     84  C   UNL A   1      44.493  28.727  35.566  1.00  0.00     0.064 A 
ATOM     85  C   UNL A   1      44.393  27.503  36.244  1.00  0.00     0.173 A 
ATOM     86  C   UNL A   1      45.763  29.132  35.128  1.00  0.00     0.173 A 
ATOM     87  F   UNL A   1      43.204  27.073  36.691  1.00  0.00    -0.203 F 
ATOM     88  C   UNL A   1      45.526  26.734  36.503  1.00  0.00     0.198 A 
ATOM     89  C   UNL A   1      46.888  28.346  35.358  1.00  0.00     0.198 A 
ATOM     90  F   UNL A   1      45.913  30.288  34.463  1.00  0.00    -0.203 F 
ATOM     91  F   UNL A   1      45.415  25.595  37.200  1.00  0.00    -0.200 F 
ATOM     92  C   UNL A   1      46.770  27.153  36.055  1.00  0.00     0.200 A 
ATOM     93  F   UNL A   1      48.087  28.743  34.908  1.00  0.00    -0.200 F 
ATOM     94  F   UNL A   1      47.858  26.409  36.300  1.00  0.00    -0.200 F 
ENDBRANCH  61  84
ENDBRANCH  35  36
ENDBRANCH  28  30
ENDBRANCH  27  28
ENDBRANCH  26  27
ENDBRANCH  25  26
ENDBRANCH  24  25
ENDBRANCH  23  24
ENDBRANCH  22  23
ENDBRANCH  21  22
ENDBRANCH   1  21
TORSDOF 23
ENDMDL
MODEL 2
REMARK VINA RESULT:      -9.3      4.587      8.837
REMARK SMILES O=C(CCNC(=O)C1CCCCC1)OCCOCCOCCOCCOC(=O)c1ccc(-c2c3nc(c(-c4c(F)c(F)c(F)c(F)c4F)c4ccc([nH]4)c(-c4c(F)c(F)c(F)c(F)c4F)c4nc(c(-c5c(F)c(F)c(F)c(F)c5F)c5ccc2[nH]5)C=C4)C=C3)cc1
REMARK SMILES IDX 19 1 18 2 17 3 16 4 15 5 14 6 2 7 1 8 3 9 4 10 5 11 6 12
REMARK SMILES IDX 7 14 8 15 9 16 13 17 10 18 12 19 11 20 20 21 21 22 22 23
REMARK SMILES IDX 23 24 24 25 25 26 26 27 27 28 28 29 29 30 30 31 91 32 31 33
REMARK SMILES IDX 90 34 32 35 33 36 34 37 84 38 35 39 89 40 83 41 85 42 36 43
REMARK SMILES IDX 88 44 82 45 81 46 37 48 69 49 49 50 68 51 50 52 53 53 67 54
REMARK SMILES IDX 86 55 51 56 52 57 66 59 87 60 54 61 38 62 39 63 47 64 40 65
REMARK SMILES IDX 41 66 45 67 48 68 42 69 43 70 46 71 44 72 70 73 71 74 79 75
REMARK SMILES IDX 72 76 73 77 77 78 80 79 74 80 75 81 78 82 76 83 55 84 56 85
REMARK SMILES IDX 64 86 57 87 58 88 62 89 65 90 59 91 60 92 63 93 61 94
REMARK H PARENT 5 13 85 47 53 58
REMARK Flexibility Score: inf
ROOT
ATOM      1  C   UNL A   1      33.659  35.229  32.974  1.00  0.00     0.188 C 
ENDROOT
BRANCH   1   2
ATOM      2  C   UNL A   1      34.286  33.872  33.295  1.00  0.00     0.188 C 
BRANCH   2   3
ATOM      3  O   UNL A   1      35.695  33.764  33.201  1.00  0.00    -0.376 OA
BRANCH   3   4
ATOM      4  C   UNL A   1      36.479  34.369  32.195  1.00  0.00     0.202 C 
BRANCH   4   5
ATOM      5  C   UNL A   1      37.891  33.916  31.885  1.00  0.00     0.261 C 
BRANCH   5   6
ATOM      6  O   UNL A   1      38.994  34.560  32.556  1.00  0.00    -0.463 OA
BRANCH   6   7
ATOM      7  C   UNL A   1      39.243  34.742  33.866  1.00  0.00     0.307 C 
ATOM      8  O   UNL A   1      38.373  35.242  34.578  1.00  0.00    -0.252 OA
BRANCH   7   9
ATOM      9  C   UNL A   1      40.595  34.437  34.445  1.00  0.00     0.144 C 
BRANCH   9  10
ATOM     10  C   UNL A   1      40.836  32.958  34.704  1.00  0.00     0.127 C 
BRANCH  10  11
ATOM     11  N   UNL A   1      39.654  32.143  34.491  1.00  0.00    -0.355 N 
ATOM     12  C   UNL A   1      39.510  30.824  34.179  1.00  0.00     0.223 C 
ATOM     13  H   UNL A   1      38.804  32.630  34.591  1.00  0.00     0.163 HD
ATOM     14  O   UNL A   1      38.367  30.459  33.894  1.00  0.00    -0.275 OA
BRANCH  12  15
ATOM     15  C   UNL A   1      40.700  29.855  34.193  1.00  0.00     0.078 C 
ATOM     16  C   UNL A   1      40.969  29.407  35.645  1.00  0.00     0.013 C 
ATOM     17  C   UNL A   1      40.532  28.598  33.328  1.00  0.00     0.013 C 
ATOM     18  C   UNL A   1      42.197  28.509  35.751  1.00  0.00     0.001 C 
ATOM     19  C   UNL A   1      41.769  27.699  33.399  1.00  0.00     0.001 C 
ATOM     20  C   UNL A   1      42.098  27.297  34.831  1.00  0.00     0.000 C 
ENDBRANCH  12  15
ENDBRANCH  10  11
ENDBRANCH   9  10
ENDBRANCH   7   9
ENDBRANCH   6   7
ENDBRANCH   5   6
ENDBRANCH   4   5
ENDBRANCH   3   4
ENDBRANCH   2   3
ENDBRANCH   1   2
BRANCH   1  21
ATOM     21  O   UNL A   1      32.598  35.226  32.026  1.00  0.00    -0.377 OA
BRANCH  21  22
ATOM     22  C   UNL A   1      32.618  36.307  31.100  1.00  0.00     0.188 C 
BRANCH  22  23
ATOM     23  C   UNL A   1      33.065  35.896  29.681  1.00  0.00     0.188 C 
BRANCH  23  24
ATOM     24  O   UNL A   1      32.849  34.516  29.400  1.00  0.00    -0.376 OA
BRANCH  24  25
ATOM     25  C   UNL A   1      33.303  34.068  28.127  1.00  0.00     0.202 C 
BRANCH  25  26
ATOM     26  C   UNL A   1      34.771  33.618  28.062  1.00  0.00     0.261 C 
BRANCH  26  27
ATOM     27  O   UNL A   1      35.003  32.215  28.295  1.00  0.00    -0.460 OA
BRANCH  27  28
ATOM     28  C   UNL A   1      35.376  31.830  29.531  1.00  0.00     0.338 C 
ATOM     29  O   UNL A   1      34.768  32.002  30.574  1.00  0.00    -0.246 OA
BRANCH  28  30
ATOM     30  C   UNL A   1      36.558  30.949  29.396  1.00  0.00     0.060 A 
ATOM     31  C   UNL A   1      36.950  30.186  30.507  1.00  0.00     0.016 A 
ATOM     32  C   UNL A   1      37.249  30.835  28.185  1.00  0.00     0.016 A 
ATOM     33  C   UNL A   1      38.078  29.368  30.430  1.00  0.00     0.010 A 
ATOM     34  C   UNL A   1      38.392  30.032  28.114  1.00  0.00     0.010 A 
ATOM     35  C   UNL A   1      38.842  29.345  29.255  1.00  0.00    -0.014 A 
BRANCH  35  36
ATOM     36  C   UNL A   1      40.254  28.898  29.343  1.00  0.00     0.031 A 
ATOM     37  C   UNL A   1      41.209  29.798  30.086  1.00  0.00     0.074 A 
ATOM     38  C   UNL A   1      40.678  27.723  28.849  1.00  0.00     0.049 A 
ATOM     39  N   UNL A   1      42.477  29.631  30.359  1.00  0.00    -0.248 NA
ATOM     40  C   UNL A   1      40.648  31.064  30.591  1.00  0.00     0.031 C 
ATOM     41  C   UNL A   1      39.851  26.748  28.144  1.00  0.00     0.029 A 
ATOM     42  N   UNL A   1      41.926  27.150  28.878  1.00  0.00    -0.354 N 
ATOM     43  C   UNL A   1      42.859  30.766  31.065  1.00  0.00     0.074 A 
ATOM     44  C   UNL A   1      41.706  31.632  31.144  1.00  0.00     0.031 C 
ATOM     45  C   UNL A   1      40.615  25.693  27.807  1.00  0.00     0.029 A 
ATOM     46  C   UNL A   1      41.987  25.926  28.259  1.00  0.00     0.049 A 
ATOM     47  H   UNL A   1      42.705  27.578  29.303  1.00  0.00     0.167 HD
ATOM     48  C   UNL A   1      44.061  31.058  31.613  1.00  0.00     0.037 A 
ATOM     49  C   UNL A   1      43.035  25.096  28.083  1.00  0.00     0.037 A 
ATOM     50  C   UNL A   1      45.212  30.204  31.533  1.00  0.00     0.049 A 
ATOM     51  C   UNL A   1      44.384  25.473  28.651  1.00  0.00     0.074 A 
ATOM     52  C   UNL A   1      46.473  30.402  32.062  1.00  0.00     0.029 A 
ATOM     53  N   UNL A   1      45.240  28.986  30.870  1.00  0.00    -0.354 N 
ATOM     54  N   UNL A   1      44.726  26.527  29.353  1.00  0.00    -0.248 NA
ATOM     55  C   UNL A   1      45.488  24.534  28.409  1.00  0.00     0.031 C 
ATOM     56  C   UNL A   1      47.281  29.328  31.675  1.00  0.00     0.029 A 
ATOM     57  C   UNL A   1      46.506  28.431  30.958  1.00  0.00     0.049 A 
ATOM     58  H   UNL A   1      44.474  28.578  30.405  1.00  0.00     0.167 HD
ATOM     59  C   UNL A   1      46.067  26.354  29.677  1.00  0.00     0.074 A 
ATOM     60  C   UNL A   1      46.475  25.092  29.095  1.00  0.00     0.031 C 
ATOM     61  C   UNL A   1      46.887  27.162  30.395  1.00  0.00     0.037 A 
BRANCH  48  62
ATOM     62  C   UNL A   1      44.190  32.378  32.316  1.00  0.00     0.064 A 
ATOM     63  C   UNL A   1      44.400  33.573  31.612  1.00  0.00     0.173 A 
ATOM     64  C   UNL A   1      44.110  32.445  33.714  1.00  0.00     0.173 A 
ATOM     65  F   UNL A   1      44.510  33.559  30.274  1.00  0.00    -0.203 F 
ATOM     66  C   UNL A   1      44.555  34.783  32.284  1.00  0.00     0.198 A 
ATOM     67  C   UNL A   1      44.232  33.660  34.381  1.00  0.00     0.198 A 
ATOM     68  F   UNL A   1      43.915  31.330  34.435  1.00  0.00    -0.203 F 
ATOM     69  F   UNL A   1      44.813  35.903  31.594  1.00  0.00    -0.200 F 
ATOM     70  C   UNL A   1      44.463  34.826  33.667  1.00  0.00     0.200 A 
ATOM     71  F   UNL A   1      44.135  33.701  35.717  1.00  0.00    -0.200 F 
ATOM     72  F   UNL A   1      44.611  35.991  34.313  1.00  0.00    -0.200 F 
ENDBRANCH  48  62
BRANCH  49  73
ATOM     73  C   UNL A   1      42.862  23.812  27.354  1.00  0.00     0.064 A 
ATOM     74  C   UNL A   1      42.437  22.652  28.019  1.00  0.00     0.173 A 
ATOM     75  C   UNL A   1      43.159  23.705  25.986  1.00  0.00     0.173 A 
ATOM     76  F   UNL A   1      42.170  22.695  29.332  1.00  0.00    -0.203 F 
ATOM     77  C   UNL A   1      42.340  21.432  27.352  1.00  0.00     0.198 A 
ATOM     78  C   UNL A   1      43.034  22.490  25.315  1.00  0.00     0.198 A 
ATOM     79  F   UNL A   1      43.574  24.781  25.304  1.00  0.00    -0.203 F 
ATOM     80  F   UNL A   1      41.985  20.329  28.026  1.00  0.00    -0.200 F 
ATOM     81  C   UNL A   1      42.633  21.353  26.000  1.00  0.00     0.200 A 
ATOM     82  F   UNL A   1      43.311  22.419  24.005  1.00  0.00    -0.200 F 
ATOM     83  F   UNL A   1      42.543  20.179  25.359  1.00  0.00    -0.200 F 
ENDBRANCH  49  73
BRANCH  61  84
ATOM     84  C   UNL A   1      48.285  26.679  30.656  1.00  0.00     0.064 A 
ATOM     85  C   UNL A   1      48.592  25.835  31.734  1.00  0.00     0.173 A 
ATOM     86  C   UNL A   1      49.326  27.036  29.785  1.00  0.00     0.173 A 
ATOM     87  F   UNL A   1      47.636  25.471  32.601  1.00  0.00    -0.203 F 
ATOM     88  C   UNL A   1      49.897  25.397  31.950  1.00  0.00     0.198 A 
ATOM     89  C   UNL A   1      50.621  26.567  29.983  1.00  0.00     0.198 A 
ATOM     90  F   UNL A   1      49.084  27.829  28.730  1.00  0.00    -0.203 F 
ATOM     91  F   UNL A   1      50.178  24.636  33.016  1.00  0.00    -0.200 F 
ATOM     92  C   UNL A   1      50.908  25.757  31.071  1.00  0.00     0.200 A 
ATOM     93  F   UNL A   1      51.594  26.902  29.123  1.00  0.00    -0.200 F 
ATOM     94  F   UNL A   1      52.162  25.329  31.277  1.00  0.00    -0.200 F 
ENDBRANCH  61  84
ENDBRANCH  35  36
ENDBRANCH  28  30
ENDBRANCH  27  28
ENDBRANCH  26  27
ENDBRANCH  25  26
ENDBRANCH  24  25
ENDBRANCH  23  24
ENDBRANCH  22  23
ENDBRANCH  21  22
ENDBRANCH   1  21
TORSDOF 23
ENDMDL
MODEL 3
REMARK VINA RESULT:      -9.0      8.358     16.414
REMARK SMILES O=C(CCNC(=O)C1CCCCC1)OCCOCCOCCOCCOC(=O)c1ccc(-c2c3nc(c(-c4c(F)c(F)c(F)c(F)c4F)c4ccc([nH]4)c(-c4c(F)c(F)c(F)c(F)c4F)c4nc(c(-c5c(F)c(F)c(F)c(F)c5F)c5ccc2[nH]5)C=C4)C=C3)cc1
REMARK SMILES IDX 19 1 18 2 17 3 16 4 15 5 14 6 2 7 1 8 3 9 4 10 5 11 6 12
REMARK SMILES IDX 7 14 8 15 9 16 13 17 10 18 12 19 11 20 20 21 21 22 22 23
REMARK SMILES IDX 23 24 24 25 25 26 26 27 27 28 28 29 29 30 30 31 91 32 31 33
REMARK SMILES IDX 90 34 32 35 33 36 34 37 84 38 35 39 89 40 83 41 85 42 36 43
REMARK SMILES IDX 88 44 82 45 81 46 37 48 69 49 49 50 68 51 50 52 53 53 67 54
REMARK SMILES IDX 86 55 51 56 52 57 66 59 87 60 54 61 38 62 39 63 47 64 40 65
REMARK SMILES IDX 41 66 45 67 48 68 42 69 43 70 46 71 44 72 70 73 71 74 79 75
REMARK SMILES IDX 72 76 73 77 77 78 80 79 74 80 75 81 78 82 76 83 55 84 56 85
REMARK SMILES IDX 64 86 57 87 58 88 62 89 65 90 59 91 60 92 63 93 61 94
REMARK H PARENT 5 13 85 47 53 58
REMARK Flexibility Score: inf
ROOT
ATOM      1  C   UNL A   1      46.191  20.713  37.216  1.00  0.00     0.188 C 
ENDROOT
BRANCH   1   2
ATOM      2  C   UNL A   1      47.057  19.529  37.649  1.00  0.00     0.188 C 
BRANCH   2   3
ATOM      3  O   UNL A   1      47.481  19.488  39.000  1.00  0.00    -0.376 OA
BRANCH   3   4
ATOM      4  C   UNL A   1      47.092  18.501  39.931  1.00  0.00     0.202 C 
BRANCH   4   5
ATOM      5  C   UNL A   1      45.655  18.332  40.381  1.00  0.00     0.261 C 
BRANCH   5   6
ATOM      6  O   UNL A   1      44.833  17.338  39.735  1.00  0.00    -0.463 OA
BRANCH   6   7
ATOM      7  C   UNL A   1      43.608  16.872  40.042  1.00  0.00     0.307 C 
ATOM      8  O   UNL A   1      42.643  17.241  39.374  1.00  0.00    -0.252 OA
BRANCH   7   9
ATOM      9  C   UNL A   1      43.394  15.994  41.241  1.00  0.00     0.144 C 
BRANCH   9  10
ATOM     10  C   UNL A   1      42.154  15.118  41.151  1.00  0.00     0.127 C 
BRANCH  10  11
ATOM     11  N   UNL A   1      41.376  15.104  42.376  1.00  0.00    -0.355 N 
ATOM     12  C   UNL A   1      41.267  14.174  43.366  1.00  0.00     0.223 C 
ATOM     13  H   UNL A   1      40.830  15.911  42.517  1.00  0.00     0.163 HD
ATOM     14  O   UNL A   1      40.385  14.379  44.204  1.00  0.00    -0.275 OA
BRANCH  12  15
ATOM     15  C   UNL A   1      42.195  12.953  43.435  1.00  0.00     0.078 C 
ATOM     16  C   UNL A   1      42.777  12.841  44.859  1.00  0.00     0.013 C 
ATOM     17  C   UNL A   1      41.540  11.610  43.079  1.00  0.00     0.013 C 
ATOM     18  C   UNL A   1      43.781  11.699  44.982  1.00  0.00     0.001 C 
ATOM     19  C   UNL A   1      42.542  10.457  43.167  1.00  0.00     0.001 C 
ATOM     20  C   UNL A   1      43.183  10.366  44.546  1.00  0.00     0.000 C 
ENDBRANCH  12  15
ENDBRANCH  10  11
ENDBRANCH   9  10
ENDBRANCH   7   9
ENDBRANCH   6   7
ENDBRANCH   5   6
ENDBRANCH   4   5
ENDBRANCH   3   4
ENDBRANCH   2   3
ENDBRANCH   1   2
BRANCH   1  21
ATOM     21  O   UNL A   1      46.266  21.082  35.844  1.00  0.00    -0.377 OA
BRANCH  21  22
ATOM     22  C   UNL A   1      46.892  22.336  35.594  1.00  0.00     0.188 C 
BRANCH  22  23
ATOM     23  C   UNL A   1      48.375  22.216  35.187  1.00  0.00     0.188 C 
BRANCH  23  24
ATOM     24  O   UNL A   1      49.272  22.317  36.289  1.00  0.00    -0.376 OA
BRANCH  24  25
ATOM     25  C   UNL A   1      49.802  23.615  36.536  1.00  0.00     0.202 C 
BRANCH  25  26
ATOM     26  C   UNL A   1      48.864  24.593  37.262  1.00  0.00     0.261 C 
BRANCH  26  27
ATOM     27  O   UNL A   1      48.224  25.579  36.429  1.00  0.00    -0.460 OA
BRANCH  27  28
ATOM     28  C   UNL A   1      47.298  26.380  36.992  1.00  0.00     0.338 C 
ATOM     29  O   UNL A   1      47.334  26.888  38.099  1.00  0.00    -0.246 OA
BRANCH  28  30
ATOM     30  C   UNL A   1      46.311  26.737  35.946  1.00  0.00     0.060 A 
ATOM     31  C   UNL A   1      46.610  27.805  35.087  1.00  0.00     0.016 A 
ATOM     32  C   UNL A   1      45.128  26.009  35.780  1.00  0.00     0.016 A 
ATOM     33  C   UNL A   1      45.693  28.194  34.110  1.00  0.00     0.010 A 
ATOM     34  C   UNL A   1      44.200  26.411  34.816  1.00  0.00     0.010 A 
ATOM     35  C   UNL A   1      44.454  27.543  34.020  1.00  0.00    -0.014 A 
BRANCH  35  36
ATOM     36  C   UNL A   1      43.332  28.254  33.360  1.00  0.00     0.031 A 
ATOM     37  C   UNL A   1      43.065  27.914  31.916  1.00  0.00     0.074 A 
ATOM     38  C   UNL A   1      42.535  29.117  34.010  1.00  0.00     0.049 A 
ATOM     39  N   UNL A   1      42.123  28.341  31.114  1.00  0.00    -0.248 NA
ATOM     40  C   UNL A   1      43.994  26.955  31.292  1.00  0.00     0.031 C 
ATOM     41  C   UNL A   1      42.662  29.504  35.413  1.00  0.00     0.029 A 
ATOM     42  N   UNL A   1      41.445  29.823  33.563  1.00  0.00    -0.354 N 
ATOM     43  C   UNL A   1      42.348  27.703  29.901  1.00  0.00     0.074 A 
ATOM     44  C   UNL A   1      43.535  26.893  30.054  1.00  0.00     0.031 C 
ATOM     45  C   UNL A   1      41.684  30.378  35.713  1.00  0.00     0.029 A 
ATOM     46  C   UNL A   1      40.873  30.624  34.520  1.00  0.00     0.049 A 
ATOM     47  H   UNL A   1      41.104  29.761  32.641  1.00  0.00     0.167 HD
ATOM     48  C   UNL A   1      41.625  27.771  28.760  1.00  0.00     0.037 A 
ATOM     49  C   UNL A   1      39.816  31.456  34.435  1.00  0.00     0.037 A 
ATOM     50  C   UNL A   1      40.448  28.578  28.601  1.00  0.00     0.049 A 
ATOM     51  C   UNL A   1      39.060  31.564  33.131  1.00  0.00     0.074 A 
ATOM     52  C   UNL A   1      39.636  28.711  27.489  1.00  0.00     0.029 A 
ATOM     53  N   UNL A   1      39.920  29.399  29.586  1.00  0.00    -0.354 N 
ATOM     54  N   UNL A   1      39.253  30.925  32.002  1.00  0.00    -0.248 NA
ATOM     55  C   UNL A   1      37.929  32.501  33.099  1.00  0.00     0.031 C 
ATOM     56  C   UNL A   1      38.645  29.653  27.785  1.00  0.00     0.029 A 
ATOM     57  C   UNL A   1      38.804  30.059  29.101  1.00  0.00     0.049 A 
ATOM     58  H   UNL A   1      40.285  29.497  30.495  1.00  0.00     0.167 HD
ATOM     59  C   UNL A   1      38.243  31.347  31.144  1.00  0.00     0.074 A 
ATOM     60  C   UNL A   1      37.437  32.294  31.886  1.00  0.00     0.031 C 
ATOM     61  C   UNL A   1      37.999  30.979  29.861  1.00  0.00     0.037 A 
BRANCH  48  62
ATOM     62  C   UNL A   1      42.117  26.973  27.588  1.00  0.00     0.064 A 
ATOM     63  C   UNL A   1      41.701  25.651  27.366  1.00  0.00     0.173 A 
ATOM     64  C   UNL A   1      43.021  27.539  26.678  1.00  0.00     0.173 A 
ATOM     65  F   UNL A   1      40.856  25.056  28.222  1.00  0.00    -0.203 F 
ATOM     66  C   UNL A   1      42.197  24.915  26.293  1.00  0.00     0.198 A 
ATOM     67  C   UNL A   1      43.490  26.811  25.589  1.00  0.00     0.198 A 
ATOM     68  F   UNL A   1      43.453  28.797  26.848  1.00  0.00    -0.203 F 
ATOM     69  F   UNL A   1      41.831  23.636  26.134  1.00  0.00    -0.200 F 
ATOM     70  C   UNL A   1      43.085  25.499  25.402  1.00  0.00     0.200 A 
ATOM     71  F   UNL A   1      44.342  27.379  24.724  1.00  0.00    -0.200 F 
ATOM     72  F   UNL A   1      43.561  24.790  24.368  1.00  0.00    -0.200 F 
ENDBRANCH  48  62
BRANCH  49  73
ATOM     73  C   UNL A   1      39.385  32.247  35.618  1.00  0.00     0.064 A 
ATOM     74  C   UNL A   1      38.464  31.729  36.540  1.00  0.00     0.173 A 
ATOM     75  C   UNL A   1      39.850  33.554  35.829  1.00  0.00     0.173 A 
ATOM     76  F   UNL A   1      37.966  30.496  36.367  1.00  0.00    -0.203 F 
ATOM     77  C   UNL A   1      38.007  32.494  37.612  1.00  0.00     0.198 A 
ATOM     78  C   UNL A   1      39.413  34.308  36.917  1.00  0.00     0.198 A 
ATOM     79  F   UNL A   1      40.726  34.101  34.975  1.00  0.00    -0.203 F 
ATOM     80  F   UNL A   1      37.085  31.992  38.446  1.00  0.00    -0.200 F 
ATOM     81  C   UNL A   1      38.486  33.780  37.803  1.00  0.00     0.200 A 
ATOM     82  F   UNL A   1      39.884  35.549  37.102  1.00  0.00    -0.200 F 
ATOM     83  F   UNL A   1      38.044  34.517  38.831  1.00  0.00    -0.200 F 
ENDBRANCH  49  73
BRANCH  61  84
ATOM     84  C   UNL A   1      36.776  31.544  29.197  1.00  0.00     0.064 A 
ATOM     85  C   UNL A   1      35.647  30.758  28.923  1.00  0.00     0.173 A 
ATOM     86  C   UNL A   1      36.721  32.908  28.868  1.00  0.00     0.173 A 
ATOM     87  F   UNL A   1      35.651  29.448  29.209  1.00  0.00    -0.203 F 
ATOM     88  C   UNL A   1      34.523  31.308  28.311  1.00  0.00     0.198 A 
ATOM     89  C   UNL A   1      35.583  33.462  28.289  1.00  0.00     0.198 A 
ATOM     90  F   UNL A   1      37.768  33.708  29.121  1.00  0.00    -0.203 F 
ATOM     91  F   UNL A   1      33.477  30.527  28.009  1.00  0.00    -0.200 F 
ATOM     92  C   UNL A   1      34.489  32.661  28.001  1.00  0.00     0.200 A 
ATOM     93  F   UNL A   1      35.546  34.772  28.007  1.00  0.00    -0.200 F 
ATOM     94  F   UNL A   1      33.404  33.189  27.418  1.00  0.00    -0.200 F 
ENDBRANCH  61  84
ENDBRANCH  35  36
ENDBRANCH  28  30
ENDBRANCH  27  28
ENDBRANCH  26  27
ENDBRANCH  25  26
ENDBRANCH  24  25
ENDBRANCH  23  24
ENDBRANCH  22  23
ENDBRANCH  21  22
ENDBRANCH   1  21
TORSDOF 23
ENDMDL
