MODEL 1
REMARK VINA RESULT:     -10.8      0.000      0.000
REMARK SMILES CC(=O)Nc1ccc(/C(=C\c2ccc(S(C)(=O)=O)cc2)C(=O)OCCOCCOCCOCCOC(=O)c2ccc(-c3c4nc(c(-c5c(F)c(F)c(F)c(F)c5F)c5ccc([nH]5)c(-c5c(F)c(F)c(F)c(F)c5F)c5nc(c(-c6c(F)c(F)c(F)c(F)c6F)c6ccc3[nH]6)C=C5)C=C4)cc2)cc1
REMARK SMILES IDX 29 1 28 2 27 3 26 4 25 5 24 6 23 7 21 8 22 9 9 10 10 11 8 12
REMARK SMILES IDX 5 13 6 14 102 15 7 16 101 17 4 18 1 19 2 20 3 21 11 23 12 24
REMARK SMILES IDX 20 25 13 26 19 27 14 28 15 29 16 30 17 31 18 32 30 33 31 34
REMARK SMILES IDX 32 35 33 36 34 37 35 38 36 39 37 40 38 41 39 42 100 43 40 44
REMARK SMILES IDX 99 45 41 46 42 47 43 48 93 49 44 50 98 51 92 52 94 53 45 54
REMARK SMILES IDX 97 55 91 56 90 57 46 59 78 60 58 61 77 62 59 63 62 64 76 65
REMARK SMILES IDX 95 66 60 67 61 68 75 70 96 71 63 72 47 73 48 74 56 75 49 76
REMARK SMILES IDX 50 77 54 78 57 79 51 80 52 81 55 82 53 83 79 84 80 85 88 86
REMARK SMILES IDX 81 87 82 88 86 89 89 90 83 91 84 92 87 93 85 94 64 95 65 96
REMARK SMILES IDX 73 97 66 98 67 99 71 100 74 101 68 102 69 103 72 104 70 105
REMARK H PARENT 4 22 94 58 62 69
REMARK Flexibility Score: inf
ROOT
ATOM      1  O   UNL A   1      36.304  23.348  24.464  1.00  0.00    -0.377 OA
ENDROOT
BRANCH   1   2
ATOM      2  C   UNL A   1      35.510  24.085  23.547  1.00  0.00     0.188 C 
BRANCH   2   3
ATOM      3  C   UNL A   1      34.387  23.354  22.785  1.00  0.00     0.188 C 
BRANCH   3   4
ATOM      4  O   UNL A   1      33.536  24.199  22.029  1.00  0.00    -0.376 OA
BRANCH   4   5
ATOM      5  C   UNL A   1      32.243  24.459  22.546  1.00  0.00     0.202 C 
BRANCH   5   6
ATOM      6  C   UNL A   1      31.417  25.555  21.857  1.00  0.00     0.261 C 
BRANCH   6   7
ATOM      7  O   UNL A   1      31.789  26.903  22.183  1.00  0.00    -0.460 OA
BRANCH   7   8
ATOM      8  C   UNL A   1      30.907  27.665  22.880  1.00  0.00     0.338 C 
ATOM      9  O   UNL A   1      29.751  27.876  22.552  1.00  0.00    -0.246 OA
BRANCH   8  10
ATOM     10  C   UNL A   1      31.512  28.066  24.207  1.00  0.00     0.067 C 
ATOM     11  C   UNL A   1      31.524  29.406  24.435  1.00  0.00     0.024 C 
BRANCH  10  12
ATOM     12  C   UNL A   1      32.128  27.017  25.089  1.00  0.00    -0.011 A 
ATOM     13  C   UNL A   1      33.164  24.698  26.404  1.00  0.00     0.041 A 
ATOM     14  C   UNL A   1      34.013  25.612  25.778  1.00  0.00     0.027 A 
ATOM     15  C   UNL A   1      31.817  25.014  26.487  1.00  0.00     0.027 A 
ATOM     16  C   UNL A   1      33.503  26.759  25.145  1.00  0.00     0.011 A 
ATOM     17  C   UNL A   1      31.319  26.169  25.862  1.00  0.00     0.011 A 
BRANCH  13  18
ATOM     18  N   UNL A   1      33.746  23.560  26.983  1.00  0.00    -0.326 N 
ATOM     19  C   UNL A   1      32.762  21.714  25.617  1.00  0.00     0.114 C 
ATOM     20  C   UNL A   1      33.530  22.224  26.807  1.00  0.00     0.221 C 
ATOM     21  O   UNL A   1      34.038  21.433  27.605  1.00  0.00    -0.275 OA
ATOM     22  H   UNL A   1      34.446  23.765  27.645  1.00  0.00     0.169 HD
ENDBRANCH  13  18
ENDBRANCH  10  12
BRANCH  11  23
ATOM     23  C   UNL A   1      31.974  30.122  25.637  1.00  0.00    -0.025 A 
ATOM     24  C   UNL A   1      33.159  29.664  26.227  1.00  0.00     0.009 A 
ATOM     25  C   UNL A   1      31.370  31.293  26.113  1.00  0.00     0.009 A 
ATOM     26  C   UNL A   1      33.824  30.445  27.169  1.00  0.00     0.021 A 
ATOM     27  C   UNL A   1      32.038  32.089  27.050  1.00  0.00     0.021 A 
ATOM     28  C   UNL A   1      33.283  31.678  27.538  1.00  0.00     0.067 A 
BRANCH  28  29
ATOM     29  S   UNL A   1      34.305  32.804  28.462  1.00  0.00     0.175 S 
ATOM     30  C   UNL A   1      33.284  34.228  28.702  1.00  0.00     0.163 C 
ATOM     31  O   UNL A   1      34.534  32.187  29.755  1.00  0.00    -0.224 OA
ATOM     32  O   UNL A   1      35.419  33.183  27.615  1.00  0.00    -0.224 OA
ENDBRANCH  28  29
ENDBRANCH  11  23
ENDBRANCH   8  10
ENDBRANCH   7   8
ENDBRANCH   6   7
ENDBRANCH   5   6
ENDBRANCH   4   5
ENDBRANCH   3   4
ENDBRANCH   2   3
ENDBRANCH   1   2
BRANCH   1  33
ATOM     33  C   UNL A   1      36.604  21.983  24.182  1.00  0.00     0.188 C 
BRANCH  33  34
ATOM     34  C   UNL A   1      37.525  21.151  25.111  1.00  0.00     0.188 C 
BRANCH  34  35
ATOM     35  O   UNL A   1      37.872  19.869  24.617  1.00  0.00    -0.376 OA
BRANCH  35  36
ATOM     36  C   UNL A   1      38.595  18.999  25.467  1.00  0.00     0.202 C 
BRANCH  36  37
ATOM     37  C   UNL A   1      39.949  19.500  25.990  1.00  0.00     0.261 C 
BRANCH  37  38
ATOM     38  O   UNL A   1      41.111  18.830  25.482  1.00  0.00    -0.460 OA
BRANCH  38  39
ATOM     39  C   UNL A   1      42.259  18.970  26.185  1.00  0.00     0.338 C 
ATOM     40  O   UNL A   1      43.080  18.117  26.437  1.00  0.00    -0.246 OA
BRANCH  39  41
ATOM     41  C   UNL A   1      42.441  20.418  26.438  1.00  0.00     0.060 A 
ATOM     42  C   UNL A   1      42.683  21.275  25.356  1.00  0.00     0.016 A 
ATOM     43  C   UNL A   1      42.354  20.921  27.737  1.00  0.00     0.016 A 
ATOM     44  C   UNL A   1      42.878  22.639  25.578  1.00  0.00     0.010 A 
ATOM     45  C   UNL A   1      42.576  22.280  27.962  1.00  0.00     0.010 A 
ATOM     46  C   UNL A   1      42.877  23.136  26.887  1.00  0.00    -0.014 A 
BRANCH  46  47
ATOM     47  C   UNL A   1      43.420  24.489  27.157  1.00  0.00     0.031 A 
ATOM     48  C   UNL A   1      42.480  25.524  27.712  1.00  0.00     0.074 A 
ATOM     49  C   UNL A   1      44.710  24.792  26.935  1.00  0.00     0.049 A 
ATOM     50  N   UNL A   1      42.689  26.789  27.971  1.00  0.00    -0.248 NA
ATOM     51  C   UNL A   1      41.113  25.067  28.010  1.00  0.00     0.031 C 
ATOM     52  C   UNL A   1      45.725  23.864  26.445  1.00  0.00     0.029 A 
ATOM     53  N   UNL A   1      45.381  25.980  27.086  1.00  0.00    -0.354 N 
ATOM     54  C   UNL A   1      41.481  27.277  28.451  1.00  0.00     0.074 A 
ATOM     55  C   UNL A   1      40.534  26.185  28.416  1.00  0.00     0.031 C 
ATOM     56  C   UNL A   1      46.892  24.523  26.321  1.00  0.00     0.029 A 
ATOM     57  C   UNL A   1      46.693  25.924  26.689  1.00  0.00     0.049 A 
ATOM     58  H   UNL A   1      44.960  26.796  27.445  1.00  0.00     0.167 HD
ATOM     59  C   UNL A   1      41.189  28.523  28.891  1.00  0.00     0.037 A 
ATOM     60  C   UNL A   1      47.617  26.903  26.609  1.00  0.00     0.037 A 
ATOM     61  C   UNL A   1      42.134  29.608  28.919  1.00  0.00     0.049 A 
ATOM     62  C   UNL A   1      47.246  28.305  27.028  1.00  0.00     0.074 A 
ATOM     63  C   UNL A   1      41.943  30.906  29.356  1.00  0.00     0.029 A 
ATOM     64  N   UNL A   1      43.447  29.520  28.482  1.00  0.00    -0.354 N 
ATOM     65  N   UNL A   1      46.109  28.757  27.501  1.00  0.00    -0.248 NA
ATOM     66  C   UNL A   1      48.290  29.332  26.907  1.00  0.00     0.031 C 
ATOM     67  C   UNL A   1      43.122  31.622  29.124  1.00  0.00     0.029 A 
ATOM     68  C   UNL A   1      44.071  30.751  28.613  1.00  0.00     0.049 A 
ATOM     69  H   UNL A   1      43.874  28.706  28.131  1.00  0.00     0.167 HD
ATOM     70  C   UNL A   1      46.313  30.106  27.770  1.00  0.00     0.074 A 
ATOM     71  C   UNL A   1      47.686  30.396  27.416  1.00  0.00     0.031 C 
ATOM     72  C   UNL A   1      45.444  31.021  28.270  1.00  0.00     0.037 A 
BRANCH  59  73
ATOM     73  C   UNL A   1      39.781  28.787  29.341  1.00  0.00     0.064 A 
ATOM     74  C   UNL A   1      38.799  29.270  28.463  1.00  0.00     0.173 A 
ATOM     75  C   UNL A   1      39.403  28.531  30.668  1.00  0.00     0.173 A 
ATOM     76  F   UNL A   1      39.112  29.546  27.187  1.00  0.00    -0.203 F 
ATOM     77  C   UNL A   1      37.501  29.514  28.903  1.00  0.00     0.198 A 
ATOM     78  C   UNL A   1      38.096  28.744  31.096  1.00  0.00     0.198 A 
ATOM     79  F   UNL A   1      40.302  28.069  31.551  1.00  0.00    -0.203 F 
ATOM     80  F   UNL A   1      36.595  30.028  28.059  1.00  0.00    -0.200 F 
ATOM     81  C   UNL A   1      37.148  29.243  30.216  1.00  0.00     0.200 A 
ATOM     82  F   UNL A   1      37.755  28.468  32.362  1.00  0.00    -0.200 F 
ATOM     83  F   UNL A   1      35.896  29.472  30.636  1.00  0.00    -0.200 F 
ENDBRANCH  59  73
BRANCH  60  84
ATOM     84  C   UNL A   1      48.982  26.602  26.099  1.00  0.00     0.064 A 
ATOM     85  C   UNL A   1      49.327  26.848  24.762  1.00  0.00     0.173 A 
ATOM     86  C   UNL A   1      49.959  26.033  26.928  1.00  0.00     0.173 A 
ATOM     87  F   UNL A   1      48.420  27.367  23.921  1.00  0.00    -0.203 F 
ATOM     88  C   UNL A   1      50.588  26.514  24.270  1.00  0.00     0.198 A 
ATOM     89  C   UNL A   1      51.231  25.730  26.444  1.00  0.00     0.198 A 
ATOM     90  F   UNL A   1      49.682  25.773  28.215  1.00  0.00    -0.203 F 
ATOM     91  F   UNL A   1      50.872  26.708  22.975  1.00  0.00    -0.200 F 
ATOM     92  C   UNL A   1      51.540  25.962  25.112  1.00  0.00     0.200 A 
ATOM     93  F   UNL A   1      52.152  25.209  27.265  1.00  0.00    -0.200 F 
ATOM     94  F   UNL A   1      52.753  25.643  24.639  1.00  0.00    -0.200 F 
ENDBRANCH  60  84
BRANCH  72  95
ATOM     95  C   UNL A   1      45.965  32.409  28.523  1.00  0.00     0.064 A 
ATOM     96  C   UNL A   1      46.542  32.775  29.748  1.00  0.00     0.173 A 
ATOM     97  C   UNL A   1      45.926  33.374  27.504  1.00  0.00     0.173 A 
ATOM     98  F   UNL A   1      46.595  31.895  30.760  1.00  0.00    -0.203 F 
ATOM     99  C   UNL A   1      47.031  34.063  29.953  1.00  0.00     0.198 A 
ATOM    100  C   UNL A   1      46.450  34.648  27.699  1.00  0.00     0.198 A 
ATOM    101  F   UNL A   1      45.395  33.074  26.309  1.00  0.00    -0.203 F 
ATOM    102  F   UNL A   1      47.528  34.406  31.149  1.00  0.00    -0.200 F 
ATOM    103  C   UNL A   1      46.993  34.996  28.926  1.00  0.00     0.200 A 
ATOM    104  F   UNL A   1      46.429  35.540  26.699  1.00  0.00    -0.200 F 
ATOM    105  F   UNL A   1      47.473  36.231  29.122  1.00  0.00    -0.200 F 
ENDBRANCH  72  95
ENDBRANCH  46  47
ENDBRANCH  39  41
ENDBRANCH  38  39
ENDBRANCH  37  38
ENDBRANCH  36  37
ENDBRANCH  35  36
ENDBRANCH  34  35
ENDBRANCH  33  34
ENDBRANCH   1  33
TORSDOF 24
ENDMDL
MODEL 2
REMARK VINA RESULT:     -10.6      3.701      6.575
REMARK SMILES CC(=O)Nc1ccc(/C(=C\c2ccc(S(C)(=O)=O)cc2)C(=O)OCCOCCOCCOCCOC(=O)c2ccc(-c3c4nc(c(-c5c(F)c(F)c(F)c(F)c5F)c5ccc([nH]5)c(-c5c(F)c(F)c(F)c(F)c5F)c5nc(c(-c6c(F)c(F)c(F)c(F)c6F)c6ccc3[nH]6)C=C5)C=C4)cc2)cc1
REMARK SMILES IDX 29 1 28 2 27 3 26 4 25 5 24 6 23 7 21 8 22 9 9 10 10 11 8 12
REMARK SMILES IDX 5 13 6 14 102 15 7 16 101 17 4 18 1 19 2 20 3 21 11 23 12 24
REMARK SMILES IDX 20 25 13 26 19 27 14 28 15 29 16 30 17 31 18 32 30 33 31 34
REMARK SMILES IDX 32 35 33 36 34 37 35 38 36 39 37 40 38 41 39 42 100 43 40 44
REMARK SMILES IDX 99 45 41 46 42 47 43 48 93 49 44 50 98 51 92 52 94 53 45 54
REMARK SMILES IDX 97 55 91 56 90 57 46 59 78 60 58 61 77 62 59 63 62 64 76 65
REMARK SMILES IDX 95 66 60 67 61 68 75 70 96 71 63 72 47 73 48 74 56 75 49 76
REMARK SMILES IDX 50 77 54 78 57 79 51 80 52 81 55 82 53 83 79 84 80 85 88 86
REMARK SMILES IDX 81 87 82 88 86 89 89 90 83 91 84 92 87 93 85 94 64 95 65 96
REMARK SMILES IDX 73 97 66 98 67 99 71 100 74 101 68 102 69 103 72 104 70 105
REMARK H PARENT 4 22 94 58 62 69
REMARK Flexibility Score: inf
ROOT
ATOM      1  O   UNL A   1      38.167  21.415  25.112  1.00  0.00    -0.377 OA
ENDROOT
BRANCH   1   2
ATOM      2  C   UNL A   1      36.771  21.204  25.264  1.00  0.00     0.188 C 
BRANCH   2   3
ATOM      3  C   UNL A   1      35.832  22.425  25.256  1.00  0.00     0.188 C 
BRANCH   3   4
ATOM      4  O   UNL A   1      35.252  22.737  26.512  1.00  0.00    -0.376 OA
BRANCH   4   5
ATOM      5  C   UNL A   1      34.335  21.807  27.059  1.00  0.00     0.202 C 
BRANCH   5   6
ATOM      6  C   UNL A   1      33.013  22.362  27.610  1.00  0.00     0.261 C 
BRANCH   6   7
ATOM      7  O   UNL A   1      32.565  23.589  27.014  1.00  0.00    -0.460 OA
BRANCH   7   8
ATOM      8  C   UNL A   1      31.741  23.521  25.937  1.00  0.00     0.338 C 
ATOM      9  O   UNL A   1      31.231  22.499  25.509  1.00  0.00    -0.246 OA
BRANCH   8  10
ATOM     10  C   UNL A   1      31.409  24.916  25.456  1.00  0.00     0.067 C 
ATOM     11  C   UNL A   1      30.675  24.955  24.313  1.00  0.00     0.024 C 
BRANCH  10  12
ATOM     12  C   UNL A   1      31.978  26.105  26.179  1.00  0.00    -0.011 A 
ATOM     13  C   UNL A   1      32.970  28.616  27.122  1.00  0.00     0.041 A 
ATOM     14  C   UNL A   1      31.723  28.135  27.525  1.00  0.00     0.027 A 
ATOM     15  C   UNL A   1      33.772  27.782  26.358  1.00  0.00     0.027 A 
ATOM     16  C   UNL A   1      31.244  26.894  27.072  1.00  0.00     0.011 A 
ATOM     17  C   UNL A   1      33.288  26.539  25.921  1.00  0.00     0.011 A 
BRANCH  13  18
ATOM     18  N   UNL A   1      33.363  29.879  27.590  1.00  0.00    -0.326 N 
ATOM     19  C   UNL A   1      31.686  31.384  26.511  1.00  0.00     0.114 C 
ATOM     20  C   UNL A   1      32.960  31.145  27.274  1.00  0.00     0.221 C 
ATOM     21  O   UNL A   1      33.625  32.097  27.689  1.00  0.00    -0.275 OA
ATOM     22  H   UNL A   1      34.065  29.847  28.280  1.00  0.00     0.169 HD
ENDBRANCH  13  18
ENDBRANCH  10  12
BRANCH  11  23
ATOM     23  C   UNL A   1      30.132  26.130  23.618  1.00  0.00    -0.025 A 
ATOM     24  C   UNL A   1      28.781  26.420  23.848  1.00  0.00     0.009 A 
ATOM     25  C   UNL A   1      30.917  27.026  22.880  1.00  0.00     0.009 A 
ATOM     26  C   UNL A   1      28.256  27.659  23.490  1.00  0.00     0.021 A 
ATOM     27  C   UNL A   1      30.400  28.278  22.527  1.00  0.00     0.021 A 
ATOM     28  C   UNL A   1      29.084  28.600  22.875  1.00  0.00     0.067 A 
BRANCH  28  29
ATOM     29  S   UNL A   1      28.504  30.276  22.745  1.00  0.00     0.175 S 
ATOM     30  C   UNL A   1      29.428  31.158  23.968  1.00  0.00     0.163 C 
ATOM     31  O   UNL A   1      28.913  30.755  21.437  1.00  0.00    -0.224 OA
ATOM     32  O   UNL A   1      27.108  30.291  23.135  1.00  0.00    -0.224 OA
ENDBRANCH  28  29
ENDBRANCH  11  23
ENDBRANCH   8  10
ENDBRANCH   7   8
ENDBRANCH   6   7
ENDBRANCH   5   6
ENDBRANCH   4   5
ENDBRANCH   3   4
ENDBRANCH   2   3
ENDBRANCH   1   2
BRANCH   1  33
ATOM     33  C   UNL A   1      38.846  22.263  26.035  1.00  0.00     0.188 C 
BRANCH  33  34
ATOM     34  C   UNL A   1      40.043  21.748  26.874  1.00  0.00     0.188 C 
BRANCH  34  35
ATOM     35  O   UNL A   1      40.870  20.802  26.218  1.00  0.00    -0.376 OA
BRANCH  35  36
ATOM     36  C   UNL A   1      42.253  21.081  26.117  1.00  0.00     0.202 C 
BRANCH  36  37
ATOM     37  C   UNL A   1      42.711  22.494  26.506  1.00  0.00     0.261 C 
BRANCH  37  38
ATOM     38  O   UNL A   1      43.731  23.077  25.683  1.00  0.00    -0.460 OA
BRANCH  38  39
ATOM     39  C   UNL A   1      45.011  22.940  26.100  1.00  0.00     0.338 C 
ATOM     40  O   UNL A   1      45.638  21.914  26.235  1.00  0.00    -0.246 OA
BRANCH  39  41
ATOM     41  C   UNL A   1      45.590  24.300  26.184  1.00  0.00     0.060 A 
ATOM     42  C   UNL A   1      45.555  25.129  25.054  1.00  0.00     0.016 A 
ATOM     43  C   UNL A   1      46.148  24.754  27.380  1.00  0.00     0.016 A 
ATOM     44  C   UNL A   1      46.115  26.406  25.108  1.00  0.00     0.010 A 
ATOM     45  C   UNL A   1      46.731  26.021  27.427  1.00  0.00     0.010 A 
ATOM     46  C   UNL A   1      46.751  26.835  26.279  1.00  0.00    -0.014 A 
BRANCH  46  47
ATOM     47  C   UNL A   1      47.637  28.023  26.239  1.00  0.00     0.031 A 
ATOM     48  C   UNL A   1      47.019  29.369  26.501  1.00  0.00     0.074 A 
ATOM     49  C   UNL A   1      48.954  27.916  25.993  1.00  0.00     0.049 A 
ATOM     50  N   UNL A   1      47.559  30.559  26.459  1.00  0.00    -0.248 NA
ATOM     51  C   UNL A   1      45.590  29.369  26.854  1.00  0.00     0.031 C 
ATOM     52  C   UNL A   1      49.675  26.666  25.771  1.00  0.00     0.029 A 
ATOM     53  N   UNL A   1      49.917  28.888  25.880  1.00  0.00    -0.354 N 
ATOM     54  C   UNL A   1      46.537  31.445  26.770  1.00  0.00     0.074 A 
ATOM     55  C   UNL A   1      45.337  30.663  26.964  1.00  0.00     0.031 C 
ATOM     56  C   UNL A   1      50.969  26.948  25.533  1.00  0.00     0.029 A 
ATOM     57  C   UNL A   1      51.156  28.398  25.551  1.00  0.00     0.049 A 
ATOM     58  H   UNL A   1      49.736  29.846  26.022  1.00  0.00     0.167 HD
ATOM     59  C   UNL A   1      46.595  32.792  26.892  1.00  0.00     0.037 A 
ATOM     60  C   UNL A   1      52.300  29.053  25.271  1.00  0.00     0.037 A 
ATOM     61  C   UNL A   1      47.792  33.566  26.693  1.00  0.00     0.049 A 
ATOM     62  C   UNL A   1      52.322  30.562  25.334  1.00  0.00     0.074 A 
ATOM     63  C   UNL A   1      47.961  34.935  26.802  1.00  0.00     0.029 A 
ATOM     64  N   UNL A   1      49.022  33.037  26.332  1.00  0.00    -0.354 N 
ATOM     65  N   UNL A   1      51.359  31.395  25.648  1.00  0.00    -0.248 NA
ATOM     66  C   UNL A   1      53.595  31.220  25.006  1.00  0.00     0.031 C 
ATOM     67  C   UNL A   1      49.278  35.241  26.446  1.00  0.00     0.029 A 
ATOM     68  C   UNL A   1      49.950  34.057  26.188  1.00  0.00     0.049 A 
ATOM     69  H   UNL A   1      49.209  32.080  26.199  1.00  0.00     0.167 HD
ATOM     70  C   UNL A   1      51.917  32.666  25.596  1.00  0.00     0.074 A 
ATOM     71  C   UNL A   1      53.307  32.495  25.228  1.00  0.00     0.031 C 
ATOM     72  C   UNL A   1      51.334  33.868  25.836  1.00  0.00     0.037 A 
BRANCH  59  73
ATOM     73  C   UNL A   1      45.320  33.514  27.220  1.00  0.00     0.064 A 
ATOM     74  C   UNL A   1      44.890  33.695  28.544  1.00  0.00     0.173 A 
ATOM     75  C   UNL A   1      44.529  34.054  26.195  1.00  0.00     0.173 A 
ATOM     76  F   UNL A   1      45.601  33.184  29.561  1.00  0.00    -0.203 F 
ATOM     77  C   UNL A   1      43.701  34.362  28.826  1.00  0.00     0.198 A 
ATOM     78  C   UNL A   1      43.359  34.750  26.483  1.00  0.00     0.198 A 
ATOM     79  F   UNL A   1      44.894  33.911  24.912  1.00  0.00    -0.203 F 
ATOM     80  F   UNL A   1      43.281  34.473  30.094  1.00  0.00    -0.200 F 
ATOM     81  C   UNL A   1      42.941  34.896  27.797  1.00  0.00     0.200 A 
ATOM     82  F   UNL A   1      42.633  35.278  25.487  1.00  0.00    -0.200 F 
ATOM     83  F   UNL A   1      41.800  35.545  28.071  1.00  0.00    -0.200 F 
ENDBRANCH  59  73
BRANCH  60  84
ATOM     84  C   UNL A   1      53.522  28.294  24.893  1.00  0.00     0.064 A 
ATOM     85  C   UNL A   1      54.433  27.855  25.864  1.00  0.00     0.173 A 
ATOM     86  C   UNL A   1      53.822  28.020  23.550  1.00  0.00     0.173 A 
ATOM     87  F   UNL A   1      54.207  28.115  27.161  1.00  0.00    -0.203 F 
ATOM     88  C   UNL A   1      55.607  27.193  25.505  1.00  0.00     0.198 A 
ATOM     89  C   UNL A   1      54.979  27.328  23.195  1.00  0.00     0.198 A 
ATOM     90  F   UNL A   1      52.988  28.420  22.579  1.00  0.00    -0.203 F 
ATOM     91  F   UNL A   1      56.486  26.834  26.451  1.00  0.00    -0.200 F 
ATOM     92  C   UNL A   1      55.875  26.925  24.173  1.00  0.00     0.200 A 
ATOM     93  F   UNL A   1      55.228  27.060  21.906  1.00  0.00    -0.200 F 
ATOM     94  F   UNL A   1      57.003  26.287  23.829  1.00  0.00    -0.200 F 
ENDBRANCH  60  84
BRANCH  72  95
ATOM     95  C   UNL A   1      52.207  35.091  25.770  1.00  0.00     0.064 A 
ATOM     96  C   UNL A   1      52.369  35.827  24.586  1.00  0.00     0.173 A 
ATOM     97  C   UNL A   1      52.855  35.558  26.924  1.00  0.00     0.173 A 
ATOM     98  F   UNL A   1      51.781  35.419  23.451  1.00  0.00    -0.203 F 
ATOM     99  C   UNL A   1      53.171  36.966  24.555  1.00  0.00     0.198 A 
ATOM    100  C   UNL A   1      53.626  36.717  26.898  1.00  0.00     0.198 A 
ATOM    101  F   UNL A   1      52.727  34.899  28.086  1.00  0.00    -0.203 F 
ATOM    102  F   UNL A   1      53.355  37.620  23.400  1.00  0.00    -0.200 F 
ATOM    103  C   UNL A   1      53.792  37.414  25.711  1.00  0.00     0.200 A 
ATOM    104  F   UNL A   1      54.208  37.159  28.022  1.00  0.00    -0.200 F 
ATOM    105  F   UNL A   1      54.555  38.515  25.681  1.00  0.00    -0.200 F 
ENDBRANCH  72  95
ENDBRANCH  46  47
ENDBRANCH  39  41
ENDBRANCH  38  39
ENDBRANCH  37  38
ENDBRANCH  36  37
ENDBRANCH  35  36
ENDBRANCH  34  35
ENDBRANCH  33  34
ENDBRANCH   1  33
TORSDOF 24
ENDMDL
MODEL 3
REMARK VINA RESULT:     -10.5      4.902     10.506
REMARK SMILES CC(=O)Nc1ccc(/C(=C\c2ccc(S(C)(=O)=O)cc2)C(=O)OCCOCCOCCOCCOC(=O)c2ccc(-c3c4nc(c(-c5c(F)c(F)c(F)c(F)c5F)c5ccc([nH]5)c(-c5c(F)c(F)c(F)c(F)c5F)c5nc(c(-c6c(F)c(F)c(F)c(F)c6F)c6ccc3[nH]6)C=C5)C=C4)cc2)cc1
REMARK SMILES IDX 29 1 28 2 27 3 26 4 25 5 24 6 23 7 21 8 22 9 9 10 10 11 8 12
REMARK SMILES IDX 5 13 6 14 102 15 7 16 101 17 4 18 1 19 2 20 3 21 11 23 12 24
REMARK SMILES IDX 20 25 13 26 19 27 14 28 15 29 16 30 17 31 18 32 30 33 31 34
REMARK SMILES IDX 32 35 33 36 34 37 35 38 36 39 37 40 38 41 39 42 100 43 40 44
REMARK SMILES IDX 99 45 41 46 42 47 43 48 93 49 44 50 98 51 92 52 94 53 45 54
REMARK SMILES IDX 97 55 91 56 90 57 46 59 78 60 58 61 77 62 59 63 62 64 76 65
REMARK SMILES IDX 95 66 60 67 61 68 75 70 96 71 63 72 47 73 48 74 56 75 49 76
REMARK SMILES IDX 50 77 54 78 57 79 51 80 52 81 55 82 53 83 79 84 80 85 88 86
REMARK SMILES IDX 81 87 82 88 86 89 89 90 83 91 84 92 87 93 85 94 64 95 65 96
REMARK SMILES IDX 73 97 66 98 67 99 71 100 74 101 68 102 69 103 72 104 70 105
REMARK H PARENT 4 22 94 58 62 69
REMARK Flexibility Score: inf
ROOT
ATOM      1  O   UNL A   1      32.829  37.078  30.093  1.00  0.00    -0.377 OA
ENDROOT
BRANCH   1   2
ATOM      2  C   UNL A   1      33.442  37.104  31.373  1.00  0.00     0.188 C 
BRANCH   2   3
ATOM      3  C   UNL A   1      33.496  35.801  32.194  1.00  0.00     0.188 C 
BRANCH   3   4
ATOM      4  O   UNL A   1      34.687  35.621  32.943  1.00  0.00    -0.376 OA
BRANCH   4   5
ATOM      5  C   UNL A   1      35.770  34.969  32.304  1.00  0.00     0.202 C 
BRANCH   5   6
ATOM      6  C   UNL A   1      36.207  33.610  32.871  1.00  0.00     0.261 C 
BRANCH   6   7
ATOM      7  O   UNL A   1      37.141  33.669  33.960  1.00  0.00    -0.460 OA
BRANCH   7   8
ATOM      8  C   UNL A   1      38.330  34.293  33.758  1.00  0.00     0.338 C 
ATOM      9  O   UNL A   1      38.635  35.383  34.214  1.00  0.00    -0.246 OA
BRANCH   8  10
ATOM     10  C   UNL A   1      39.280  33.365  33.035  1.00  0.00     0.067 C 
ATOM     11  C   UNL A   1      39.596  32.238  33.726  1.00  0.00     0.024 C 
BRANCH  10  12
ATOM     12  C   UNL A   1      39.867  33.783  31.716  1.00  0.00    -0.011 A 
ATOM     13  C   UNL A   1      40.770  35.027  29.304  1.00  0.00     0.041 A 
ATOM     14  C   UNL A   1      41.643  34.800  30.370  1.00  0.00     0.027 A 
ATOM     15  C   UNL A   1      39.486  34.512  29.395  1.00  0.00     0.027 A 
ATOM     16  C   UNL A   1      41.200  34.175  31.548  1.00  0.00     0.011 A 
ATOM     17  C   UNL A   1      39.057  33.878  30.572  1.00  0.00     0.011 A 
BRANCH  13  18
ATOM     18  N   UNL A   1      41.279  35.687  28.176  1.00  0.00    -0.326 N 
ATOM     19  C   UNL A   1      42.638  37.513  29.205  1.00  0.00     0.114 C 
ATOM     20  C   UNL A   1      41.979  36.850  28.026  1.00  0.00     0.221 C 
ATOM     21  O   UNL A   1      42.122  37.312  26.891  1.00  0.00    -0.275 OA
ATOM     22  H   UNL A   1      41.096  35.222  27.327  1.00  0.00     0.169 HD
ENDBRANCH  13  18
ENDBRANCH  10  12
BRANCH  11  23
ATOM     23  C   UNL A   1      40.429  31.107  33.293  1.00  0.00    -0.025 A 
ATOM     24  C   UNL A   1      41.807  31.228  33.517  1.00  0.00     0.009 A 
ATOM     25  C   UNL A   1      39.908  29.896  32.820  1.00  0.00     0.009 A 
ATOM     26  C   UNL A   1      42.635  30.113  33.428  1.00  0.00     0.021 A 
ATOM     27  C   UNL A   1      40.732  28.767  32.740  1.00  0.00     0.021 A 
ATOM     28  C   UNL A   1      42.082  28.877  33.087  1.00  0.00     0.067 A 
BRANCH  28  29
ATOM     29  S   UNL A   1      43.073  27.418  33.317  1.00  0.00     0.175 S 
ATOM     30  C   UNL A   1      44.596  28.021  33.984  1.00  0.00     0.163 C 
ATOM     31  O   UNL A   1      42.413  26.627  34.339  1.00  0.00    -0.224 OA
ATOM     32  O   UNL A   1      43.343  26.858  32.007  1.00  0.00    -0.224 OA
ENDBRANCH  28  29
ENDBRANCH  11  23
ENDBRANCH   8  10
ENDBRANCH   7   8
ENDBRANCH   6   7
ENDBRANCH   5   6
ENDBRANCH   4   5
ENDBRANCH   3   4
ENDBRANCH   2   3
ENDBRANCH   1   2
BRANCH   1  33
ATOM     33  C   UNL A   1      33.650  36.980  28.932  1.00  0.00     0.188 C 
BRANCH  33  34
ATOM     34  C   UNL A   1      34.287  35.633  28.506  1.00  0.00     0.188 C 
BRANCH  34  35
ATOM     35  O   UNL A   1      33.456  34.498  28.678  1.00  0.00    -0.376 OA
BRANCH  35  36
ATOM     36  C   UNL A   1      33.988  33.378  29.361  1.00  0.00     0.202 C 
BRANCH  36  37
ATOM     37  C   UNL A   1      35.405  32.932  28.975  1.00  0.00     0.261 C 
BRANCH  37  38
ATOM     38  O   UNL A   1      35.829  31.660  29.484  1.00  0.00    -0.460 OA
BRANCH  38  39
ATOM     39  C   UNL A   1      35.687  30.591  28.666  1.00  0.00     0.338 C 
ATOM     40  O   UNL A   1      34.729  30.305  27.984  1.00  0.00    -0.246 OA
BRANCH  39  41
ATOM     41  C   UNL A   1      37.002  29.915  28.599  1.00  0.00     0.060 A 
ATOM     42  C   UNL A   1      37.482  29.240  29.730  1.00  0.00     0.016 A 
ATOM     43  C   UNL A   1      37.745  29.938  27.418  1.00  0.00     0.016 A 
ATOM     44  C   UNL A   1      38.730  28.616  29.692  1.00  0.00     0.010 A 
ATOM     45  C   UNL A   1      39.004  29.336  27.388  1.00  0.00     0.010 A 
ATOM     46  C   UNL A   1      39.516  28.708  28.537  1.00  0.00    -0.014 A 
BRANCH  46  47
ATOM     47  C   UNL A   1      40.956  28.359  28.601  1.00  0.00     0.031 A 
ATOM     48  C   UNL A   1      41.912  29.414  29.086  1.00  0.00     0.074 A 
ATOM     49  C   UNL A   1      41.406  27.141  28.257  1.00  0.00     0.049 A 
ATOM     50  N   UNL A   1      43.217  29.383  29.172  1.00  0.00    -0.248 NA
ATOM     51  C   UNL A   1      41.310  30.682  29.529  1.00  0.00     0.031 C 
ATOM     52  C   UNL A   1      40.573  26.024  27.819  1.00  0.00     0.029 A 
ATOM     53  N   UNL A   1      42.685  26.647  28.215  1.00  0.00    -0.354 N 
ATOM     54  C   UNL A   1      43.589  30.625  29.668  1.00  0.00     0.074 A 
ATOM     55  C   UNL A   1      42.379  31.400  29.832  1.00  0.00     0.031 C 
ATOM     56  C   UNL A   1      41.368  24.976  27.537  1.00  0.00     0.029 A 
ATOM     57  C   UNL A   1      42.763  25.362  27.741  1.00  0.00     0.049 A 
ATOM     58  H   UNL A   1      43.474  27.166  28.498  1.00  0.00     0.167 HD
ATOM     59  C   UNL A   1      44.829  31.077  29.970  1.00  0.00     0.037 A 
ATOM     60  C   UNL A   1      43.843  24.598  27.479  1.00  0.00     0.037 A 
ATOM     61  C   UNL A   1      46.030  30.303  29.800  1.00  0.00     0.049 A 
ATOM     62  C   UNL A   1      45.222  25.153  27.746  1.00  0.00     0.074 A 
ATOM     63  C   UNL A   1      47.335  30.663  30.085  1.00  0.00     0.029 A 
ATOM     64  N   UNL A   1      46.071  29.014  29.290  1.00  0.00    -0.354 N 
ATOM     65  N   UNL A   1      45.568  26.319  28.235  1.00  0.00    -0.248 NA
ATOM     66  C   UNL A   1      46.361  24.279  27.429  1.00  0.00     0.031 C 
ATOM     67  C   UNL A   1      48.172  29.616  29.688  1.00  0.00     0.029 A 
ATOM     68  C   UNL A   1      47.384  28.574  29.226  1.00  0.00     0.049 A 
ATOM     69  H   UNL A   1      45.285  28.489  29.015  1.00  0.00     0.167 HD
ATOM     70  C   UNL A   1      46.955  26.305  28.321  1.00  0.00     0.074 A 
ATOM     71  C   UNL A   1      47.387  25.009  27.842  1.00  0.00     0.031 C 
ATOM     72  C   UNL A   1      47.797  27.274  28.761  1.00  0.00     0.037 A 
BRANCH  59  73
ATOM     73  C   UNL A   1      44.949  32.485  30.478  1.00  0.00     0.064 A 
ATOM     74  C   UNL A   1      44.966  32.780  31.849  1.00  0.00     0.173 A 
ATOM     75  C   UNL A   1      45.072  33.554  29.576  1.00  0.00     0.173 A 
ATOM     76  F   UNL A   1      44.835  31.797  32.753  1.00  0.00    -0.203 F 
ATOM     77  C   UNL A   1      45.071  34.093  32.298  1.00  0.00     0.198 A 
ATOM     78  C   UNL A   1      45.212  34.862  30.030  1.00  0.00     0.198 A 
ATOM     79  F   UNL A   1      45.062  33.329  28.254  1.00  0.00    -0.203 F 
ATOM     80  F   UNL A   1      45.028  34.356  33.613  1.00  0.00    -0.200 F 
ATOM     81  C   UNL A   1      45.202  35.132  31.390  1.00  0.00     0.200 A 
ATOM     82  F   UNL A   1      45.353  35.863  29.149  1.00  0.00    -0.200 F 
ATOM     83  F   UNL A   1      45.312  36.396  31.824  1.00  0.00    -0.200 F 
ENDBRANCH  59  73
BRANCH  60  84
ATOM     84  C   UNL A   1      43.673  23.230  26.920  1.00  0.00     0.064 A 
ATOM     85  C   UNL A   1      44.108  22.917  25.624  1.00  0.00     0.173 A 
ATOM     86  C   UNL A   1      43.044  22.216  27.656  1.00  0.00     0.173 A 
ATOM     87  F   UNL A   1      44.693  23.859  24.868  1.00  0.00    -0.203 F 
ATOM     88  C   UNL A   1      43.898  21.651  25.079  1.00  0.00     0.198 A 
ATOM     89  C   UNL A   1      42.864  20.941  27.123  1.00  0.00     0.198 A 
ATOM     90  F   UNL A   1      42.604  22.461  28.900  1.00  0.00    -0.203 F 
ATOM     91  F   UNL A   1      44.274  21.397  23.817  1.00  0.00    -0.200 F 
ATOM     92  C   UNL A   1      43.283  20.663  25.830  1.00  0.00     0.200 A 
ATOM     93  F   UNL A   1      42.280  19.985  27.858  1.00  0.00    -0.200 F 
ATOM     94  F   UNL A   1      43.083  19.446  25.306  1.00  0.00    -0.200 F 
ENDBRANCH  60  84
BRANCH  72  95
ATOM     95  C   UNL A   1      49.265  26.954  28.805  1.00  0.00     0.064 A 
ATOM     96  C   UNL A   1      49.891  26.493  29.973  1.00  0.00     0.173 A 
ATOM     97  C   UNL A   1      50.047  27.065  27.645  1.00  0.00     0.173 A 
ATOM     98  F   UNL A   1      49.194  26.378  31.114  1.00  0.00    -0.203 F 
ATOM     99  C   UNL A   1      51.251  26.188  29.985  1.00  0.00     0.198 A 
ATOM    100  C   UNL A   1      51.396  26.724  27.650  1.00  0.00     0.198 A 
ATOM    101  F   UNL A   1      49.497  27.491  26.497  1.00  0.00    -0.203 F 
ATOM    102  F   UNL A   1      51.839  25.804  31.126  1.00  0.00    -0.200 F 
ATOM    103  C   UNL A   1      52.000  26.296  28.822  1.00  0.00     0.200 A 
ATOM    104  F   UNL A   1      52.113  26.810  26.520  1.00  0.00    -0.200 F 
ATOM    105  F   UNL A   1      53.305  25.992  28.833  1.00  0.00    -0.200 F 
ENDBRANCH  72  95
ENDBRANCH  46  47
ENDBRANCH  39  41
ENDBRANCH  38  39
ENDBRANCH  37  38
ENDBRANCH  36  37
ENDBRANCH  35  36
ENDBRANCH  34  35
ENDBRANCH  33  34
ENDBRANCH   1  33
TORSDOF 24
ENDMDL
