MODEL 1
REMARK VINA RESULT:     -11.1      0.000      0.000
REMARK SMILES C[C@@H](NC(=O)/C(=C/c1ccc(Cl)cc1)NC(=O)c1ccc(C(C)(C)C)cc1)C(=O)OCCOCCOCCOCCOC(=O)c1ccc(-c2c3nc(c(-c4c(F)c(F)c(F)c(F)c4F)c4ccc([nH]4)c(-c4c(F)c(F)c(F)c(F)c4F)c4nc(c(-c5c(F)c(F)c(F)c(F)c5F)c5ccc2[nH]5)C=C4)C=C3)cc1
REMARK SMILES IDX 34 1 33 2 32 3 31 4 30 5 28 6 29 7 2 8 1 9 3 10 4 11 5 13
REMARK SMILES IDX 6 14 7 15 15 16 16 17 17 19 18 20 19 21 27 22 20 23 26 24
REMARK SMILES IDX 21 25 22 26 23 27 24 28 25 29 8 30 9 31 14 32 10 33 13 34
REMARK SMILES IDX 11 35 12 36 35 37 36 38 37 39 38 40 39 41 40 42 41 43 42 44
REMARK SMILES IDX 43 45 44 46 45 47 46 48 107 49 47 50 106 51 48 52 49 53
REMARK SMILES IDX 50 54 100 55 51 56 105 57 99 58 101 59 52 60 104 61 98 62
REMARK SMILES IDX 97 63 53 65 85 66 65 67 84 68 66 69 69 70 83 71 102 72 67 73
REMARK SMILES IDX 68 74 82 76 103 77 70 78 54 79 55 80 63 81 56 82 57 83 61 84
REMARK SMILES IDX 64 85 58 86 59 87 62 88 60 89 86 90 87 91 95 92 88 93 89 94
REMARK SMILES IDX 93 95 96 96 90 97 91 98 94 99 92 100 71 101 72 102 80 103
REMARK SMILES IDX 73 104 74 105 78 106 81 107 75 108 76 109 79 110 77 111
REMARK H PARENT 3 12 15 18 101 64 69 75
REMARK Flexibility Score: inf
ROOT
ATOM      1  C   UNL A   1      32.189  29.500  25.946  1.00  0.00     0.188 C 
ENDROOT
BRANCH   1   2
ATOM      2  O   UNL A   1      31.015  29.921  25.297  1.00  0.00    -0.376 OA
BRANCH   2   3
ATOM      3  C   UNL A   1      30.694  29.751  23.942  1.00  0.00     0.202 C 
BRANCH   3   4
ATOM      4  C   UNL A   1      29.871  28.675  23.225  1.00  0.00     0.261 C 
BRANCH   4   5
ATOM      5  O   UNL A   1      30.379  27.866  22.179  1.00  0.00    -0.462 OA
BRANCH   5   6
ATOM      6  C   UNL A   1      31.549  27.227  22.355  1.00  0.00     0.328 C 
ATOM      7  O   UNL A   1      32.577  27.713  22.798  1.00  0.00    -0.250 OA
BRANCH   6   8
ATOM      8  C   UNL A   1      31.536  25.878  21.693  1.00  0.00     0.189 C 
ATOM      9  C   UNL A   1      32.904  25.555  21.076  1.00  0.00     0.043 C 
BRANCH   8  10
ATOM     10  N   UNL A   1      31.071  24.912  22.708  1.00  0.00    -0.338 N 
ATOM     11  C   UNL A   1      31.178  25.141  24.075  1.00  0.00     0.268 C 
ATOM     12  H   UNL A   1      30.666  24.068  22.402  1.00  0.00     0.164 HD
ATOM     13  O   UNL A   1      30.228  25.604  24.697  1.00  0.00    -0.268 OA
BRANCH  11  14
ATOM     14  C   UNL A   1      32.437  24.652  24.798  1.00  0.00     0.107 C 
ATOM     15  C   UNL A   1      33.610  24.722  24.124  1.00  0.00     0.040 C 
BRANCH  14  16
ATOM     16  N   UNL A   1      32.424  24.248  26.113  1.00  0.00    -0.317 N 
ATOM     17  C   UNL A   1      32.595  23.068  26.776  1.00  0.00     0.255 C 
ATOM     18  H   UNL A   1      32.247  24.996  26.728  1.00  0.00     0.170 HD
ATOM     19  O   UNL A   1      32.497  23.036  28.001  1.00  0.00    -0.269 OA
BRANCH  17  20
ATOM     20  C   UNL A   1      32.833  21.831  26.053  1.00  0.00     0.040 A 
ATOM     21  C   UNL A   1      33.966  21.093  26.373  1.00  0.00     0.014 A 
ATOM     22  C   UNL A   1      31.939  21.411  25.075  1.00  0.00     0.014 A 
ATOM     23  C   UNL A   1      34.160  19.864  25.756  1.00  0.00     0.005 A 
ATOM     24  C   UNL A   1      32.131  20.167  24.476  1.00  0.00     0.005 A 
ATOM     25  C   UNL A   1      33.225  19.353  24.830  1.00  0.00    -0.043 A 
BRANCH  25  26
ATOM     26  C   UNL A   1      33.444  17.958  24.228  1.00  0.00    -0.013 C 
ATOM     27  C   UNL A   1      32.934  17.979  22.775  1.00  0.00     0.016 C 
ATOM     28  C   UNL A   1      34.945  17.587  24.246  1.00  0.00     0.016 C 
ATOM     29  C   UNL A   1      32.704  16.839  24.991  1.00  0.00     0.016 C 
ENDBRANCH  25  26
ENDBRANCH  17  20
ENDBRANCH  14  16
BRANCH  15  30
ATOM     30  C   UNL A   1      34.969  24.126  24.370  1.00  0.00    -0.023 A 
ATOM     31  C   UNL A   1      35.760  24.323  25.521  1.00  0.00     0.010 A 
ATOM     32  C   UNL A   1      35.368  23.077  23.509  1.00  0.00     0.010 A 
ATOM     33  C   UNL A   1      36.878  23.518  25.803  1.00  0.00     0.021 A 
ATOM     34  C   UNL A   1      36.466  22.249  23.806  1.00  0.00     0.021 A 
ATOM     35  C   UNL A   1      37.214  22.470  24.956  1.00  0.00     0.041 A 
ATOM     36  Cl  UNL A   1      38.486  21.397  25.389  1.00  0.00    -0.084 Cl
ENDBRANCH  15  30
ENDBRANCH  11  14
ENDBRANCH   8  10
ENDBRANCH   6   8
ENDBRANCH   5   6
ENDBRANCH   4   5
ENDBRANCH   3   4
ENDBRANCH   2   3
ENDBRANCH   1   2
BRANCH   1  37
ATOM     37  C   UNL A   1      32.868  30.494  26.893  1.00  0.00     0.188 C 
BRANCH  37  38
ATOM     38  O   UNL A   1      34.245  30.289  27.154  1.00  0.00    -0.377 OA
BRANCH  38  39
ATOM     39  C   UNL A   1      35.002  31.277  27.849  1.00  0.00     0.188 C 
BRANCH  39  40
ATOM     40  C   UNL A   1      34.315  32.337  28.731  1.00  0.00     0.188 C 
BRANCH  40  41
ATOM     41  O   UNL A   1      33.780  33.425  28.005  1.00  0.00    -0.376 OA
BRANCH  41  42
ATOM     42  C   UNL A   1      33.115  34.453  28.710  1.00  0.00     0.202 C 
BRANCH  42  43
ATOM     43  C   UNL A   1      33.960  35.559  29.364  1.00  0.00     0.261 C 
BRANCH  43  44
ATOM     44  O   UNL A   1      33.364  36.335  30.427  1.00  0.00    -0.460 OA
BRANCH  44  45
ATOM     45  C   UNL A   1      32.840  35.718  31.505  1.00  0.00     0.338 C 
ATOM     46  O   UNL A   1      31.655  35.599  31.774  1.00  0.00    -0.246 OA
BRANCH  45  47
ATOM     47  C   UNL A   1      33.933  34.974  32.196  1.00  0.00     0.060 A 
ATOM     48  C   UNL A   1      35.125  35.649  32.508  1.00  0.00     0.016 A 
ATOM     49  C   UNL A   1      33.782  33.634  32.562  1.00  0.00     0.016 A 
ATOM     50  C   UNL A   1      36.186  34.973  33.119  1.00  0.00     0.010 A 
ATOM     51  C   UNL A   1      34.859  32.947  33.144  1.00  0.00     0.010 A 
ATOM     52  C   UNL A   1      36.084  33.601  33.375  1.00  0.00    -0.014 A 
BRANCH  52  53
ATOM     53  C   UNL A   1      37.329  32.813  33.587  1.00  0.00     0.031 A 
ATOM     54  C   UNL A   1      38.106  33.066  34.855  1.00  0.00     0.074 A 
ATOM     55  C   UNL A   1      37.742  31.859  32.732  1.00  0.00     0.049 A 
ATOM     56  N   UNL A   1      39.233  32.542  35.269  1.00  0.00    -0.248 NA
ATOM     57  C   UNL A   1      37.527  34.050  35.785  1.00  0.00     0.031 C 
ATOM     58  C   UNL A   1      37.060  31.470  31.501  1.00  0.00     0.029 A 
ATOM     59  N   UNL A   1      38.848  31.043  32.778  1.00  0.00    -0.354 N 
ATOM     60  C   UNL A   1      39.491  33.129  36.502  1.00  0.00     0.074 A 
ATOM     61  C   UNL A   1      38.434  34.084  36.748  1.00  0.00     0.031 C 
ATOM     62  C   UNL A   1      37.773  30.501  30.898  1.00  0.00     0.029 A 
ATOM     63  C   UNL A   1      38.975  30.221  31.684  1.00  0.00     0.049 A 
ATOM     64  H   UNL A   1      39.490  31.048  33.524  1.00  0.00     0.167 HD
ATOM     65  C   UNL A   1      40.505  32.886  37.365  1.00  0.00     0.037 A 
ATOM     66  C   UNL A   1      39.962  29.364  31.348  1.00  0.00     0.037 A 
ATOM     67  C   UNL A   1      41.565  31.944  37.123  1.00  0.00     0.049 A 
ATOM     68  C   UNL A   1      41.137  29.180  32.282  1.00  0.00     0.074 A 
ATOM     69  C   UNL A   1      42.648  31.637  37.928  1.00  0.00     0.029 A 
ATOM     70  N   UNL A   1      41.677  31.159  35.984  1.00  0.00    -0.354 N 
ATOM     71  N   UNL A   1      41.368  29.732  33.449  1.00  0.00    -0.248 NA
ATOM     72  C   UNL A   1      42.186  28.243  31.852  1.00  0.00     0.031 C 
ATOM     73  C   UNL A   1      43.444  30.707  37.252  1.00  0.00     0.029 A 
ATOM     74  C   UNL A   1      42.822  30.384  36.057  1.00  0.00     0.049 A 
ATOM     75  H   UNL A   1      41.037  31.155  35.235  1.00  0.00     0.167 HD
ATOM     76  C   UNL A   1      42.562  29.183  33.905  1.00  0.00     0.074 A 
ATOM     77  C   UNL A   1      42.998  28.241  32.899  1.00  0.00     0.031 C 
ATOM     78  C   UNL A   1      43.238  29.438  35.054  1.00  0.00     0.037 A 
BRANCH  65  79
ATOM     79  C   UNL A   1      40.526  33.668  38.646  1.00  0.00     0.064 A 
ATOM     80  C   UNL A   1      41.287  34.840  38.782  1.00  0.00     0.173 A 
ATOM     81  C   UNL A   1      39.755  33.259  39.744  1.00  0.00     0.173 A 
ATOM     82  F   UNL A   1      42.057  35.266  37.769  1.00  0.00    -0.203 F 
ATOM     83  C   UNL A   1      41.297  35.555  39.977  1.00  0.00     0.198 A 
ATOM     84  C   UNL A   1      39.740  33.995  40.926  1.00  0.00     0.198 A 
ATOM     85  F   UNL A   1      39.008  32.146  39.669  1.00  0.00    -0.203 F 
ATOM     86  F   UNL A   1      42.074  36.641  40.100  1.00  0.00    -0.200 F 
ATOM     87  C   UNL A   1      40.517  35.137  41.044  1.00  0.00     0.200 A 
ATOM     88  F   UNL A   1      38.974  33.597  41.951  1.00  0.00    -0.200 F 
ATOM     89  F   UNL A   1      40.519  35.832  42.190  1.00  0.00    -0.200 F 
ENDBRANCH  65  79
BRANCH  66  90
ATOM     90  C   UNL A   1      39.912  28.625  30.055  1.00  0.00     0.064 A 
ATOM     91  C   UNL A   1      39.344  27.345  29.965  1.00  0.00     0.173 A 
ATOM     92  C   UNL A   1      40.490  29.159  28.893  1.00  0.00     0.173 A 
ATOM     93  F   UNL A   1      38.806  26.775  31.053  1.00  0.00    -0.203 F 
ATOM     94  C   UNL A   1      39.387  26.618  28.776  1.00  0.00     0.198 A 
ATOM     95  C   UNL A   1      40.500  28.446  27.696  1.00  0.00     0.198 A 
ATOM     96  F   UNL A   1      41.054  30.376  28.921  1.00  0.00    -0.203 F 
ATOM     97  F   UNL A   1      38.901  25.369  28.741  1.00  0.00    -0.200 F 
ATOM     98  C   UNL A   1      39.961  27.170  27.642  1.00  0.00     0.200 A 
ATOM     99  F   UNL A   1      41.048  28.988  26.601  1.00  0.00    -0.200 F 
ATOM    100  F   UNL A   1      40.010  26.467  26.502  1.00  0.00    -0.200 F 
ENDBRANCH  66  90
BRANCH  78 101
ATOM    101  C   UNL A   1      44.493  28.649  35.311  1.00  0.00     0.064 A 
ATOM    102  C   UNL A   1      44.479  27.441  36.026  1.00  0.00     0.173 A 
ATOM    103  C   UNL A   1      45.727  29.096  34.809  1.00  0.00     0.173 A 
ATOM    104  F   UNL A   1      43.331  26.971  36.536  1.00  0.00    -0.203 F 
ATOM    105  C   UNL A   1      45.656  26.734  36.262  1.00  0.00     0.198 A 
ATOM    106  C   UNL A   1      46.894  28.366  35.014  1.00  0.00     0.198 A 
ATOM    107  F   UNL A   1      45.798  30.237  34.107  1.00  0.00    -0.203 F 
ATOM    108  F   UNL A   1      45.626  25.616  37.001  1.00  0.00    -0.200 F 
ATOM    109  C   UNL A   1      46.860  27.192  35.751  1.00  0.00     0.200 A 
ATOM    110  F   UNL A   1      48.054  28.802  34.501  1.00  0.00    -0.200 F 
ATOM    111  F   UNL A   1      47.990  26.507  35.976  1.00  0.00    -0.200 F 
ENDBRANCH  78 101
ENDBRANCH  52  53
ENDBRANCH  45  47
ENDBRANCH  44  45
ENDBRANCH  43  44
ENDBRANCH  42  43
ENDBRANCH  41  42
ENDBRANCH  40  41
ENDBRANCH  39  40
ENDBRANCH  38  39
ENDBRANCH  37  38
ENDBRANCH   1  37
TORSDOF 26
ENDMDL
MODEL 2
REMARK VINA RESULT:     -10.7      0.664      6.783
REMARK SMILES C[C@@H](NC(=O)/C(=C/c1ccc(Cl)cc1)NC(=O)c1ccc(C(C)(C)C)cc1)C(=O)OCCOCCOCCOCCOC(=O)c1ccc(-c2c3nc(c(-c4c(F)c(F)c(F)c(F)c4F)c4ccc([nH]4)c(-c4c(F)c(F)c(F)c(F)c4F)c4nc(c(-c5c(F)c(F)c(F)c(F)c5F)c5ccc2[nH]5)C=C4)C=C3)cc1
REMARK SMILES IDX 34 1 33 2 32 3 31 4 30 5 28 6 29 7 2 8 1 9 3 10 4 11 5 13
REMARK SMILES IDX 6 14 7 15 15 16 16 17 17 19 18 20 19 21 27 22 20 23 26 24
REMARK SMILES IDX 21 25 22 26 23 27 24 28 25 29 8 30 9 31 14 32 10 33 13 34
REMARK SMILES IDX 11 35 12 36 35 37 36 38 37 39 38 40 39 41 40 42 41 43 42 44
REMARK SMILES IDX 43 45 44 46 45 47 46 48 107 49 47 50 106 51 48 52 49 53
REMARK SMILES IDX 50 54 100 55 51 56 105 57 99 58 101 59 52 60 104 61 98 62
REMARK SMILES IDX 97 63 53 65 85 66 65 67 84 68 66 69 69 70 83 71 102 72 67 73
REMARK SMILES IDX 68 74 82 76 103 77 70 78 54 79 55 80 63 81 56 82 57 83 61 84
REMARK SMILES IDX 64 85 58 86 59 87 62 88 60 89 86 90 87 91 95 92 88 93 89 94
REMARK SMILES IDX 93 95 96 96 90 97 91 98 94 99 92 100 71 101 72 102 80 103
REMARK SMILES IDX 73 104 74 105 78 106 81 107 75 108 76 109 79 110 77 111
REMARK H PARENT 3 12 15 18 101 64 69 75
REMARK Flexibility Score: inf
ROOT
ATOM      1  C   UNL A   1      32.792  28.514  25.711  1.00  0.00     0.188 C 
ENDROOT
BRANCH   1   2
ATOM      2  O   UNL A   1      31.449  28.818  25.425  1.00  0.00    -0.376 OA
BRANCH   2   3
ATOM      3  C   UNL A   1      30.936  29.317  24.218  1.00  0.00     0.202 C 
BRANCH   3   4
ATOM      4  C   UNL A   1      29.989  28.691  23.187  1.00  0.00     0.261 C 
BRANCH   4   5
ATOM      5  O   UNL A   1      30.429  27.888  22.105  1.00  0.00    -0.462 OA
BRANCH   5   6
ATOM      6  C   UNL A   1      31.597  27.231  22.211  1.00  0.00     0.328 C 
ATOM      7  O   UNL A   1      32.666  27.710  22.548  1.00  0.00    -0.250 OA
BRANCH   6   8
ATOM      8  C   UNL A   1      31.504  25.858  21.606  1.00  0.00     0.189 C 
ATOM      9  C   UNL A   1      32.841  25.441  20.979  1.00  0.00     0.043 C 
BRANCH   8  10
ATOM     10  N   UNL A   1      31.010  24.959  22.667  1.00  0.00    -0.338 N 
ATOM     11  C   UNL A   1      31.134  25.249  24.022  1.00  0.00     0.268 C 
ATOM     12  H   UNL A   1      30.573  24.117  22.404  1.00  0.00     0.164 HD
ATOM     13  O   UNL A   1      30.205  25.776  24.625  1.00  0.00    -0.268 OA
BRANCH  11  14
ATOM     14  C   UNL A   1      32.379  24.750  24.762  1.00  0.00     0.107 C 
ATOM     15  C   UNL A   1      33.561  24.809  24.103  1.00  0.00     0.040 C 
BRANCH  14  16
ATOM     16  N   UNL A   1      32.345  24.347  26.076  1.00  0.00    -0.317 N 
ATOM     17  C   UNL A   1      32.502  23.167  26.744  1.00  0.00     0.255 C 
ATOM     18  H   UNL A   1      32.161  25.096  26.688  1.00  0.00     0.170 HD
ATOM     19  O   UNL A   1      32.385  23.137  27.967  1.00  0.00    -0.269 OA
BRANCH  17  20
ATOM     20  C   UNL A   1      32.747  21.929  26.025  1.00  0.00     0.040 A 
ATOM     21  C   UNL A   1      33.810  21.133  26.436  1.00  0.00     0.014 A 
ATOM     22  C   UNL A   1      31.929  21.564  24.962  1.00  0.00     0.014 A 
ATOM     23  C   UNL A   1      34.001  19.903  25.819  1.00  0.00     0.005 A 
ATOM     24  C   UNL A   1      32.116  20.319  24.363  1.00  0.00     0.005 A 
ATOM     25  C   UNL A   1      33.133  19.450  24.803  1.00  0.00    -0.043 A 
BRANCH  25  26
ATOM     26  C   UNL A   1      33.341  18.053  24.201  1.00  0.00    -0.013 C 
ATOM     27  C   UNL A   1      34.850  17.750  24.203  1.00  0.00     0.016 C 
ATOM     28  C   UNL A   1      32.594  16.985  25.033  1.00  0.00     0.016 C 
ATOM     29  C   UNL A   1      32.819  17.927  22.753  1.00  0.00     0.016 C 
ENDBRANCH  25  26
ENDBRANCH  17  20
ENDBRANCH  14  16
BRANCH  15  30
ATOM     30  C   UNL A   1      34.911  24.202  24.368  1.00  0.00    -0.023 A 
ATOM     31  C   UNL A   1      35.717  24.443  25.500  1.00  0.00     0.010 A 
ATOM     32  C   UNL A   1      35.283  23.102  23.559  1.00  0.00     0.010 A 
ATOM     33  C   UNL A   1      36.823  23.632  25.814  1.00  0.00     0.021 A 
ATOM     34  C   UNL A   1      36.369  22.270  23.889  1.00  0.00     0.021 A 
ATOM     35  C   UNL A   1      37.132  22.536  25.019  1.00  0.00     0.041 A 
ATOM     36  Cl  UNL A   1      38.388  21.464  25.495  1.00  0.00    -0.084 Cl
ENDBRANCH  15  30
ENDBRANCH  11  14
ENDBRANCH   8  10
ENDBRANCH   6   8
ENDBRANCH   5   6
ENDBRANCH   4   5
ENDBRANCH   3   4
ENDBRANCH   2   3
ENDBRANCH   1   2
BRANCH   1  37
ATOM     37  C   UNL A   1      33.461  29.280  26.854  1.00  0.00     0.188 C 
BRANCH  37  38
ATOM     38  O   UNL A   1      34.877  29.332  26.847  1.00  0.00    -0.377 OA
BRANCH  38  39
ATOM     39  C   UNL A   1      35.579  30.015  27.881  1.00  0.00     0.188 C 
BRANCH  39  40
ATOM     40  C   UNL A   1      35.015  31.299  28.520  1.00  0.00     0.188 C 
BRANCH  40  41
ATOM     41  O   UNL A   1      34.851  32.365  27.608  1.00  0.00    -0.376 OA
BRANCH  41  42
ATOM     42  C   UNL A   1      34.069  33.477  27.994  1.00  0.00     0.202 C 
BRANCH  42  43
ATOM     43  C   UNL A   1      34.788  34.764  28.430  1.00  0.00     0.261 C 
BRANCH  43  44
ATOM     44  O   UNL A   1      34.110  35.646  29.352  1.00  0.00    -0.460 OA
BRANCH  44  45
ATOM     45  C   UNL A   1      33.452  35.141  30.415  1.00  0.00     0.338 C 
ATOM     46  O   UNL A   1      32.245  35.003  30.529  1.00  0.00    -0.246 OA
BRANCH  45  47
ATOM     47  C   UNL A   1      34.454  34.534  31.339  1.00  0.00     0.060 A 
ATOM     48  C   UNL A   1      35.456  35.350  31.889  1.00  0.00     0.016 A 
ATOM     49  C   UNL A   1      34.396  33.182  31.689  1.00  0.00     0.016 A 
ATOM     50  C   UNL A   1      36.436  34.808  32.727  1.00  0.00     0.010 A 
ATOM     51  C   UNL A   1      35.398  32.631  32.502  1.00  0.00     0.010 A 
ATOM     52  C   UNL A   1      36.453  33.431  32.980  1.00  0.00    -0.014 A 
BRANCH  52  53
ATOM     53  C   UNL A   1      37.711  32.805  33.471  1.00  0.00     0.031 A 
ATOM     54  C   UNL A   1      38.376  31.788  32.578  1.00  0.00     0.074 A 
ATOM     55  C   UNL A   1      38.295  33.155  34.632  1.00  0.00     0.049 A 
ATOM     56  N   UNL A   1      39.457  31.075  32.775  1.00  0.00    -0.248 NA
ATOM     57  C   UNL A   1      37.728  31.543  31.278  1.00  0.00     0.031 C 
ATOM     58  C   UNL A   1      37.795  34.161  35.564  1.00  0.00     0.029 A 
ATOM     59  N   UNL A   1      39.445  32.688  35.223  1.00  0.00    -0.354 N 
ATOM     60  C   UNL A   1      39.615  30.305  31.629  1.00  0.00     0.074 A 
ATOM     61  C   UNL A   1      38.497  30.598  30.761  1.00  0.00     0.031 C 
ATOM     62  C   UNL A   1      38.625  34.225  36.621  1.00  0.00     0.029 A 
ATOM     63  C   UNL A   1      39.699  33.245  36.454  1.00  0.00     0.049 A 
ATOM     64  H   UNL A   1      40.032  32.018  34.805  1.00  0.00     0.167 HD
ATOM     65  C   UNL A   1      40.611  29.444  31.313  1.00  0.00     0.037 A 
ATOM     66  C   UNL A   1      40.672  32.973  37.350  1.00  0.00     0.037 A 
ATOM     67  C   UNL A   1      41.722  29.140  32.175  1.00  0.00     0.049 A 
ATOM     68  C   UNL A   1      41.719  31.935  37.017  1.00  0.00     0.074 A 
ATOM     69  C   UNL A   1      42.774  28.269  31.953  1.00  0.00     0.029 A 
ATOM     70  N   UNL A   1      41.921  29.698  33.429  1.00  0.00    -0.354 N 
ATOM     71  N   UNL A   1      41.867  31.219  35.928  1.00  0.00    -0.248 NA
ATOM     72  C   UNL A   1      42.743  31.674  38.040  1.00  0.00     0.031 C 
ATOM     73  C   UNL A   1      43.580  28.257  33.096  1.00  0.00     0.029 A 
ATOM     74  C   UNL A   1      43.068  29.172  34.001  1.00  0.00     0.049 A 
ATOM     75  H   UNL A   1      41.334  30.367  33.851  1.00  0.00     0.167 HD
ATOM     76  C   UNL A   1      43.014  30.457  36.120  1.00  0.00     0.074 A 
ATOM     77  C   UNL A   1      43.535  30.810  37.422  1.00  0.00     0.031 C 
ATOM     78  C   UNL A   1      43.585  29.544  35.294  1.00  0.00     0.037 A 
BRANCH  65  79
ATOM     79  C   UNL A   1      40.531  28.752  29.983  1.00  0.00     0.064 A 
ATOM     80  C   UNL A   1      39.783  27.577  29.807  1.00  0.00     0.173 A 
ATOM     81  C   UNL A   1      41.188  29.282  28.863  1.00  0.00     0.173 A 
ATOM     82  F   UNL A   1      39.151  27.016  30.849  1.00  0.00    -0.203 F 
ATOM     83  C   UNL A   1      39.719  26.946  28.567  1.00  0.00     0.198 A 
ATOM     84  C   UNL A   1      41.092  28.668  27.617  1.00  0.00     0.198 A 
ATOM     85  F   UNL A   1      41.917  30.404  28.974  1.00  0.00    -0.203 F 
ATOM     86  F   UNL A   1      39.042  25.796  28.437  1.00  0.00    -0.200 F 
ATOM     87  C   UNL A   1      40.365  27.497  27.472  1.00  0.00     0.200 A 
ATOM     88  F   UNL A   1      41.707  29.210  26.556  1.00  0.00    -0.200 F 
ATOM     89  F   UNL A   1      40.294  26.894  26.276  1.00  0.00    -0.200 F 
ENDBRANCH  65  79
BRANCH  66  90
ATOM     90  C   UNL A   1      40.699  33.668  38.668  1.00  0.00     0.064 A 
ATOM     91  C   UNL A   1      41.561  34.748  38.908  1.00  0.00     0.173 A 
ATOM     92  C   UNL A   1      39.907  33.222  39.737  1.00  0.00     0.173 A 
ATOM     93  F   UNL A   1      42.363  35.194  37.929  1.00  0.00    -0.203 F 
ATOM     94  C   UNL A   1      41.654  35.332  40.171  1.00  0.00     0.198 A 
ATOM     95  C   UNL A   1      39.975  33.830  40.990  1.00  0.00     0.198 A 
ATOM     96  F   UNL A   1      39.070  32.189  39.568  1.00  0.00    -0.203 F 
ATOM     97  F   UNL A   1      42.540  36.314  40.388  1.00  0.00    -0.200 F 
ATOM     98  C   UNL A   1      40.859  34.875  41.209  1.00  0.00     0.200 A 
ATOM     99  F   UNL A   1      39.196  33.390  41.987  1.00  0.00    -0.200 F 
ATOM    100  F   UNL A   1      40.954  35.430  42.425  1.00  0.00    -0.200 F 
ENDBRANCH  66  90
BRANCH  78 101
ATOM    101  C   UNL A   1      44.867  28.901  35.748  1.00  0.00     0.064 A 
ATOM    102  C   UNL A   1      44.883  27.688  36.453  1.00  0.00     0.173 A 
ATOM    103  C   UNL A   1      46.104  29.498  35.447  1.00  0.00     0.173 A 
ATOM    104  F   UNL A   1      43.732  27.080  36.776  1.00  0.00    -0.203 F 
ATOM    105  C   UNL A   1      46.083  27.119  36.873  1.00  0.00     0.198 A 
ATOM    106  C   UNL A   1      47.302  28.906  35.834  1.00  0.00     0.198 A 
ATOM    107  F   UNL A   1      46.149  30.651  34.763  1.00  0.00    -0.203 F 
ATOM    108  F   UNL A   1      46.069  25.993  37.600  1.00  0.00    -0.200 F 
ATOM    109  C   UNL A   1      47.290  27.723  36.559  1.00  0.00     0.200 A 
ATOM    110  F   UNL A   1      48.468  29.482  35.511  1.00  0.00    -0.200 F 
ATOM    111  F   UNL A   1      48.444  27.171  36.961  1.00  0.00    -0.200 F 
ENDBRANCH  78 101
ENDBRANCH  52  53
ENDBRANCH  45  47
ENDBRANCH  44  45
ENDBRANCH  43  44
ENDBRANCH  42  43
ENDBRANCH  41  42
ENDBRANCH  40  41
ENDBRANCH  39  40
ENDBRANCH  38  39
ENDBRANCH  37  38
ENDBRANCH   1  37
TORSDOF 26
ENDMDL
MODEL 3
REMARK VINA RESULT:     -10.6      2.065      3.493
REMARK SMILES C[C@@H](NC(=O)/C(=C/c1ccc(Cl)cc1)NC(=O)c1ccc(C(C)(C)C)cc1)C(=O)OCCOCCOCCOCCOC(=O)c1ccc(-c2c3nc(c(-c4c(F)c(F)c(F)c(F)c4F)c4ccc([nH]4)c(-c4c(F)c(F)c(F)c(F)c4F)c4nc(c(-c5c(F)c(F)c(F)c(F)c5F)c5ccc2[nH]5)C=C4)C=C3)cc1
REMARK SMILES IDX 34 1 33 2 32 3 31 4 30 5 28 6 29 7 2 8 1 9 3 10 4 11 5 13
REMARK SMILES IDX 6 14 7 15 15 16 16 17 17 19 18 20 19 21 27 22 20 23 26 24
REMARK SMILES IDX 21 25 22 26 23 27 24 28 25 29 8 30 9 31 14 32 10 33 13 34
REMARK SMILES IDX 11 35 12 36 35 37 36 38 37 39 38 40 39 41 40 42 41 43 42 44
REMARK SMILES IDX 43 45 44 46 45 47 46 48 107 49 47 50 106 51 48 52 49 53
REMARK SMILES IDX 50 54 100 55 51 56 105 57 99 58 101 59 52 60 104 61 98 62
REMARK SMILES IDX 97 63 53 65 85 66 65 67 84 68 66 69 69 70 83 71 102 72 67 73
REMARK SMILES IDX 68 74 82 76 103 77 70 78 54 79 55 80 63 81 56 82 57 83 61 84
REMARK SMILES IDX 64 85 58 86 59 87 62 88 60 89 86 90 87 91 95 92 88 93 89 94
REMARK SMILES IDX 93 95 96 96 90 97 91 98 94 99 92 100 71 101 72 102 80 103
REMARK SMILES IDX 73 104 74 105 78 106 81 107 75 108 76 109 79 110 77 111
REMARK H PARENT 3 12 15 18 101 64 69 75
REMARK Flexibility Score: inf
ROOT
ATOM      1  C   UNL A   1      33.636  29.505  26.114  1.00  0.00     0.188 C 
ENDROOT
BRANCH   1   2
ATOM      2  O   UNL A   1      32.958  29.252  24.909  1.00  0.00    -0.376 OA
BRANCH   2   3
ATOM      3  C   UNL A   1      33.532  28.922  23.671  1.00  0.00     0.202 C 
BRANCH   3   4
ATOM      4  C   UNL A   1      32.908  28.380  22.381  1.00  0.00     0.261 C 
BRANCH   4   5
ATOM      5  O   UNL A   1      33.510  27.378  21.580  1.00  0.00    -0.462 OA
BRANCH   5   6
ATOM      6  C   UNL A   1      33.743  26.166  22.114  1.00  0.00     0.328 C 
ATOM      7  O   UNL A   1      34.826  25.728  22.465  1.00  0.00    -0.250 OA
BRANCH   6   8
ATOM      8  C   UNL A   1      32.536  25.279  21.996  1.00  0.00     0.189 C 
ATOM      9  C   UNL A   1      32.877  23.980  21.253  1.00  0.00     0.043 C 
BRANCH   8  10
ATOM     10  N   UNL A   1      32.012  25.091  23.363  1.00  0.00    -0.338 N 
ATOM     11  C   UNL A   1      30.669  25.247  23.687  1.00  0.00     0.268 C 
ATOM     12  H   UNL A   1      32.642  24.844  24.078  1.00  0.00     0.164 HD
ATOM     13  O   UNL A   1      29.929  24.269  23.726  1.00  0.00    -0.268 OA
BRANCH  11  14
ATOM     14  C   UNL A   1      30.185  26.626  24.144  1.00  0.00     0.107 C 
ATOM     15  C   UNL A   1      29.480  27.366  23.254  1.00  0.00     0.040 C 
BRANCH  14  16
ATOM     16  N   UNL A   1      30.358  27.082  25.430  1.00  0.00    -0.317 N 
ATOM     17  C   UNL A   1      31.176  26.772  26.477  1.00  0.00     0.255 C 
ATOM     18  H   UNL A   1      29.737  27.813  25.650  1.00  0.00     0.170 HD
ATOM     19  O   UNL A   1      31.060  27.375  27.542  1.00  0.00    -0.269 OA
BRANCH  17  20
ATOM     20  C   UNL A   1      32.145  25.695  26.376  1.00  0.00     0.040 A 
ATOM     21  C   UNL A   1      31.724  24.404  26.669  1.00  0.00     0.014 A 
ATOM     22  C   UNL A   1      33.453  25.967  25.990  1.00  0.00     0.014 A 
ATOM     23  C   UNL A   1      32.614  23.353  26.489  1.00  0.00     0.005 A 
ATOM     24  C   UNL A   1      34.332  24.904  25.792  1.00  0.00     0.005 A 
ATOM     25  C   UNL A   1      33.920  23.574  26.003  1.00  0.00    -0.043 A 
BRANCH  25  26
ATOM     26  C   UNL A   1      34.844  22.374  25.751  1.00  0.00    -0.013 C 
ATOM     27  C   UNL A   1      34.673  21.384  26.917  1.00  0.00     0.016 C 
ATOM     28  C   UNL A   1      34.481  21.678  24.419  1.00  0.00     0.016 C 
ATOM     29  C   UNL A   1      36.335  22.761  25.653  1.00  0.00     0.016 C 
ENDBRANCH  25  26
ENDBRANCH  17  20
ENDBRANCH  14  16
BRANCH  15  30
ATOM     30  C   UNL A   1      29.071  28.813  23.223  1.00  0.00    -0.023 A 
ATOM     31  C   UNL A   1      29.833  29.897  23.707  1.00  0.00     0.010 A 
ATOM     32  C   UNL A   1      27.964  29.143  22.406  1.00  0.00     0.010 A 
ATOM     33  C   UNL A   1      29.518  31.230  23.389  1.00  0.00     0.021 A 
ATOM     34  C   UNL A   1      27.666  30.474  22.060  1.00  0.00     0.021 A 
ATOM     35  C   UNL A   1      28.448  31.512  22.549  1.00  0.00     0.041 A 
ATOM     36  Cl  UNL A   1      28.165  33.131  22.044  1.00  0.00    -0.084 Cl
ENDBRANCH  15  30
ENDBRANCH  11  14
ENDBRANCH   8  10
ENDBRANCH   6   8
ENDBRANCH   5   6
ENDBRANCH   4   5
ENDBRANCH   3   4
ENDBRANCH   2   3
ENDBRANCH   1   2
BRANCH   1  37
ATOM     37  C   UNL A   1      32.889  30.293  27.193  1.00  0.00     0.188 C 
BRANCH  37  38
ATOM     38  O   UNL A   1      33.452  31.532  27.586  1.00  0.00    -0.377 OA
BRANCH  38  39
ATOM     39  C   UNL A   1      34.831  31.619  27.932  1.00  0.00     0.188 C 
BRANCH  39  40
ATOM     40  C   UNL A   1      35.540  32.981  28.060  1.00  0.00     0.188 C 
BRANCH  40  41
ATOM     41  O   UNL A   1      34.782  34.068  27.571  1.00  0.00    -0.376 OA
BRANCH  41  42
ATOM     42  C   UNL A   1      34.479  35.136  28.446  1.00  0.00     0.202 C 
BRANCH  42  43
ATOM     43  C   UNL A   1      33.348  34.946  29.471  1.00  0.00     0.261 C 
BRANCH  43  44
ATOM     44  O   UNL A   1      33.208  35.927  30.522  1.00  0.00    -0.460 OA
BRANCH  44  45
ATOM     45  C   UNL A   1      32.834  35.547  31.760  1.00  0.00     0.338 C 
ATOM     46  O   UNL A   1      31.698  35.527  32.207  1.00  0.00    -0.246 OA
BRANCH  45  47
ATOM     47  C   UNL A   1      34.006  34.908  32.426  1.00  0.00     0.060 A 
ATOM     48  C   UNL A   1      35.250  35.559  32.390  1.00  0.00     0.016 A 
ATOM     49  C   UNL A   1      33.883  33.693  33.106  1.00  0.00     0.016 A 
ATOM     50  C   UNL A   1      36.378  34.970  32.969  1.00  0.00     0.010 A 
ATOM     51  C   UNL A   1      35.022  33.086  33.657  1.00  0.00     0.010 A 
ATOM     52  C   UNL A   1      36.285  33.697  33.543  1.00  0.00    -0.014 A 
BRANCH  52  53
ATOM     53  C   UNL A   1      37.527  32.900  33.735  1.00  0.00     0.031 A 
ATOM     54  C   UNL A   1      38.322  33.142  34.994  1.00  0.00     0.074 A 
ATOM     55  C   UNL A   1      37.922  31.947  32.871  1.00  0.00     0.049 A 
ATOM     56  N   UNL A   1      39.451  32.608  35.391  1.00  0.00    -0.248 NA
ATOM     57  C   UNL A   1      37.762  34.126  35.936  1.00  0.00     0.031 C 
ATOM     58  C   UNL A   1      37.222  31.568  31.647  1.00  0.00     0.029 A 
ATOM     59  N   UNL A   1      39.023  31.124  32.899  1.00  0.00    -0.354 N 
ATOM     60  C   UNL A   1      39.728  33.188  36.623  1.00  0.00     0.074 A 
ATOM     61  C   UNL A   1      38.681  34.149  36.888  1.00  0.00     0.031 C 
ATOM     62  C   UNL A   1      37.920  30.597  31.030  1.00  0.00     0.029 A 
ATOM     63  C   UNL A   1      39.130  30.306  31.799  1.00  0.00     0.049 A 
ATOM     64  H   UNL A   1      39.674  31.120  33.636  1.00  0.00     0.167 HD
ATOM     65  C   UNL A   1      40.752  32.934  37.472  1.00  0.00     0.037 A 
ATOM     66  C   UNL A   1      40.107  29.444  31.446  1.00  0.00     0.037 A 
ATOM     67  C   UNL A   1      41.802  31.986  37.211  1.00  0.00     0.049 A 
ATOM     68  C   UNL A   1      41.292  29.247  32.364  1.00  0.00     0.074 A 
ATOM     69  C   UNL A   1      42.894  31.668  38.001  1.00  0.00     0.029 A 
ATOM     70  N   UNL A   1      41.894  31.206  36.068  1.00  0.00    -0.354 N 
ATOM     71  N   UNL A   1      41.542  29.792  33.531  1.00  0.00    -0.248 NA
ATOM     72  C   UNL A   1      42.329  28.305  31.916  1.00  0.00     0.031 C 
ATOM     73  C   UNL A   1      43.675  30.735  37.311  1.00  0.00     0.029 A 
ATOM     74  C   UNL A   1      43.035  30.423  36.123  1.00  0.00     0.049 A 
ATOM     75  H   UNL A   1      41.245  31.209  35.327  1.00  0.00     0.167 HD
ATOM     76  C   UNL A   1      42.738  29.233  33.969  1.00  0.00     0.074 A 
ATOM     77  C   UNL A   1      43.155  28.293  32.952  1.00  0.00     0.031 C 
ATOM     78  C   UNL A   1      43.431  29.478  35.110  1.00  0.00     0.037 A 
BRANCH  65  79
ATOM     79  C   UNL A   1      40.795  33.710  38.756  1.00  0.00     0.064 A 
ATOM     80  C   UNL A   1      41.599  34.851  38.901  1.00  0.00     0.173 A 
ATOM     81  C   UNL A   1      40.003  33.326  39.848  1.00  0.00     0.173 A 
ATOM     82  F   UNL A   1      42.390  35.253  37.894  1.00  0.00    -0.203 F 
ATOM     83  C   UNL A   1      41.629  35.561  40.099  1.00  0.00     0.198 A 
ATOM     84  C   UNL A   1      40.009  34.058  41.032  1.00  0.00     0.198 A 
ATOM     85  F   UNL A   1      39.215  32.242  39.765  1.00  0.00    -0.203 F 
ATOM     86  F   UNL A   1      42.445  36.616  40.230  1.00  0.00    -0.200 F 
ATOM     87  C   UNL A   1      40.827  35.170  41.159  1.00  0.00     0.200 A 
ATOM     88  F   UNL A   1      39.223  33.685  42.052  1.00  0.00    -0.200 F 
ATOM     89  F   UNL A   1      40.849  35.860  42.309  1.00  0.00    -0.200 F 
ENDBRANCH  65  79
BRANCH  66  90
ATOM     90  C   UNL A   1      40.035  28.711  30.150  1.00  0.00     0.064 A 
ATOM     91  C   UNL A   1      39.435  27.446  30.057  1.00  0.00     0.173 A 
ATOM     92  C   UNL A   1      40.623  29.235  28.989  1.00  0.00     0.173 A 
ATOM     93  F   UNL A   1      38.886  26.885  31.145  1.00  0.00    -0.203 F 
ATOM     94  C   UNL A   1      39.457  26.722  28.866  1.00  0.00     0.198 A 
ATOM     95  C   UNL A   1      40.612  28.526  27.789  1.00  0.00     0.198 A 
ATOM     96  F   UNL A   1      41.217  30.437  29.020  1.00  0.00    -0.203 F 
ATOM     97  F   UNL A   1      38.940  25.486  28.828  1.00  0.00    -0.200 F 
ATOM     98  C   UNL A   1      40.041  27.264  27.732  1.00  0.00     0.200 A 
ATOM     99  F   UNL A   1      41.169  29.060  26.694  1.00  0.00    -0.200 F 
ATOM    100  F   UNL A   1      40.069  26.565  26.589  1.00  0.00    -0.200 F 
ENDBRANCH  66  90
BRANCH  78 101
ATOM    101  C   UNL A   1      44.684  28.679  35.347  1.00  0.00     0.064 A 
ATOM    102  C   UNL A   1      44.664  27.445  36.014  1.00  0.00     0.173 A 
ATOM    103  C   UNL A   1      45.922  29.145  34.873  1.00  0.00     0.173 A 
ATOM    104  F   UNL A   1      43.511  26.956  36.496  1.00  0.00    -0.203 F 
ATOM    105  C   UNL A   1      45.839  26.729  36.233  1.00  0.00     0.198 A 
ATOM    106  C   UNL A   1      47.087  28.407  35.059  1.00  0.00     0.198 A 
ATOM    107  F   UNL A   1      45.999  30.312  34.216  1.00  0.00    -0.203 F 
ATOM    108  F   UNL A   1      45.802  25.583  36.928  1.00  0.00    -0.200 F 
ATOM    109  C   UNL A   1      47.047  27.206  35.751  1.00  0.00     0.200 A 
ATOM    110  F   UNL A   1      48.251  28.862  34.574  1.00  0.00    -0.200 F 
ATOM    111  F   UNL A   1      48.175  26.513  35.958  1.00  0.00    -0.200 F 
ENDBRANCH  78 101
ENDBRANCH  52  53
ENDBRANCH  45  47
ENDBRANCH  44  45
ENDBRANCH  43  44
ENDBRANCH  42  43
ENDBRANCH  41  42
ENDBRANCH  40  41
ENDBRANCH  39  40
ENDBRANCH  38  39
ENDBRANCH  37  38
ENDBRANCH   1  37
TORSDOF 26
ENDMDL
