MODEL 1
REMARK VINA RESULT:     -10.3      0.000      0.000
REMARK SMILES NC(=O)[C@H]1CCCN1S(=O)(=O)Cc1ccc(C(=O)OCCOCCOCCOCCOC(=O)c2ccc(-c3c4nc(c(-c5c(F)c(F)c(F)c(F)c5F)c5ccc([nH]5)c(-c5c(F)c(F)c(F)c(F)c5F)c5nc(c(-c6c(F)c(F)c(F)c(F)c6F)c6ccc3[nH]6)C=C5)C=C4)cc2)cc1
REMARK SMILES IDX 24 1 23 2 22 3 21 4 20 5 19 6 17 7 18 8 16 9 13 10 14 11
REMARK SMILES IDX 98 12 15 13 97 14 12 15 9 16 10 17 11 18 8 19 4 20 5 21 6 22
REMARK SMILES IDX 7 23 2 24 1 25 3 28 25 29 26 30 27 31 28 32 29 33 30 34
REMARK SMILES IDX 31 35 32 36 33 37 34 38 35 39 96 40 36 41 95 42 37 43 38 44
REMARK SMILES IDX 39 45 89 46 40 47 94 48 88 49 90 50 41 51 93 52 87 53 86 54
REMARK SMILES IDX 42 56 74 57 54 58 73 59 55 60 58 61 72 62 91 63 56 64 57 65
REMARK SMILES IDX 71 67 92 68 59 69 43 70 44 71 52 72 45 73 46 74 50 75 53 76
REMARK SMILES IDX 47 77 48 78 51 79 49 80 75 81 76 82 84 83 77 84 78 85 82 86
REMARK SMILES IDX 85 87 79 88 80 89 83 90 81 91 60 92 61 93 69 94 62 95 63 96
REMARK SMILES IDX 67 97 70 98 64 99 65 100 68 101 66 102
REMARK H PARENT 1 26 1 27 90 55 58 66
REMARK Flexibility Score: inf
ROOT
ATOM      1  C   UNL A   1      33.644  31.559  27.730  1.00  0.00     0.188 C 
ENDROOT
BRANCH   1   2
ATOM      2  C   UNL A   1      32.746  30.635  26.881  1.00  0.00     0.188 C 
BRANCH   2   3
ATOM      3  O   UNL A   1      33.469  29.766  26.025  1.00  0.00    -0.376 OA
BRANCH   3   4
ATOM      4  C   UNL A   1      32.850  29.311  24.837  1.00  0.00     0.202 C 
BRANCH   4   5
ATOM      5  C   UNL A   1      31.342  29.012  24.863  1.00  0.00     0.261 C 
BRANCH   5   6
ATOM      6  O   UNL A   1      30.693  28.942  23.587  1.00  0.00    -0.460 OA
BRANCH   6   7
ATOM      7  C   UNL A   1      29.886  27.877  23.391  1.00  0.00     0.338 C 
ATOM      8  O   UNL A   1      28.674  27.895  23.286  1.00  0.00    -0.246 OA
BRANCH   7   9
ATOM      9  C   UNL A   1      30.730  26.694  23.108  1.00  0.00     0.060 A 
ATOM     10  C   UNL A   1      32.337  24.422  22.723  1.00  0.00    -0.032 A 
ATOM     11  C   UNL A   1      31.379  24.456  23.746  1.00  0.00     0.006 A 
ATOM     12  C   UNL A   1      32.379  25.494  21.813  1.00  0.00     0.006 A 
ATOM     13  C   UNL A   1      30.611  25.597  23.963  1.00  0.00     0.016 A 
ATOM     14  C   UNL A   1      31.576  26.624  21.999  1.00  0.00     0.016 A 
BRANCH  10  15
ATOM     15  C   UNL A   1      33.273  23.252  22.537  1.00  0.00     0.189 C 
BRANCH  15  16
ATOM     16  S   UNL A   1      34.740  23.345  23.591  1.00  0.00     0.219 S 
ATOM     17  O   UNL A   1      34.623  24.535  24.409  1.00  0.00    -0.212 OA
ATOM     18  O   UNL A   1      35.911  23.164  22.755  1.00  0.00    -0.212 OA
BRANCH  16  19
ATOM     19  N   UNL A   1      34.628  21.999  24.629  1.00  0.00    -0.189 NA
ATOM     20  C   UNL A   1      33.260  21.435  24.853  1.00  0.00     0.161 C 
ATOM     21  C   UNL A   1      32.756  22.170  26.089  1.00  0.00     0.032 C 
ATOM     22  C   UNL A   1      33.998  22.374  26.944  1.00  0.00     0.019 C 
ATOM     23  C   UNL A   1      35.189  22.239  25.999  1.00  0.00     0.103 C 
BRANCH  20  24
ATOM     24  C   UNL A   1      33.341  19.923  25.133  1.00  0.00     0.235 C 
ATOM     25  N   UNL A   1      34.570  19.345  25.000  1.00  0.00    -0.368 N 
ATOM     26  H   UNL A   1      34.680  18.381  25.166  1.00  0.00     0.159 HD
ATOM     27  H   UNL A   1      35.345  19.891  24.737  1.00  0.00     0.159 HD
ATOM     28  O   UNL A   1      32.382  19.226  25.458  1.00  0.00    -0.273 OA
ENDBRANCH  20  24
ENDBRANCH  16  19
ENDBRANCH  15  16
ENDBRANCH  10  15
ENDBRANCH   7   9
ENDBRANCH   6   7
ENDBRANCH   5   6
ENDBRANCH   4   5
ENDBRANCH   3   4
ENDBRANCH   2   3
ENDBRANCH   1   2
BRANCH   1  29
ATOM     29  O   UNL A   1      33.856  32.889  27.279  1.00  0.00    -0.377 OA
BRANCH  29  30
ATOM     30  C   UNL A   1      34.693  33.770  28.027  1.00  0.00     0.188 C 
BRANCH  30  31
ATOM     31  C   UNL A   1      34.208  34.491  29.310  1.00  0.00     0.188 C 
BRANCH  31  32
ATOM     32  O   UNL A   1      34.863  34.089  30.499  1.00  0.00    -0.376 OA
BRANCH  32  33
ATOM     33  C   UNL A   1      34.370  34.584  31.729  1.00  0.00     0.202 C 
BRANCH  33  34
ATOM     34  C   UNL A   1      35.269  34.390  32.957  1.00  0.00     0.261 C 
BRANCH  34  35
ATOM     35  O   UNL A   1      36.581  33.867  32.705  1.00  0.00    -0.460 OA
BRANCH  35  36
ATOM     36  C   UNL A   1      36.967  32.790  33.428  1.00  0.00     0.338 C 
ATOM     37  O   UNL A   1      36.556  32.442  34.513  1.00  0.00    -0.246 OA
BRANCH  36  38
ATOM     38  C   UNL A   1      37.870  31.991  32.571  1.00  0.00     0.060 A 
ATOM     39  C   UNL A   1      38.710  31.035  33.159  1.00  0.00     0.016 A 
ATOM     40  C   UNL A   1      37.873  32.183  31.189  1.00  0.00     0.016 A 
ATOM     41  C   UNL A   1      39.585  30.293  32.365  1.00  0.00     0.010 A 
ATOM     42  C   UNL A   1      38.765  31.457  30.398  1.00  0.00     0.010 A 
ATOM     43  C   UNL A   1      39.650  30.536  30.987  1.00  0.00    -0.014 A 
BRANCH  43  44
ATOM     44  C   UNL A   1      40.783  30.006  30.192  1.00  0.00     0.031 A 
ATOM     45  C   UNL A   1      41.933  30.932  29.903  1.00  0.00     0.074 A 
ATOM     46  C   UNL A   1      40.797  28.744  29.732  1.00  0.00     0.049 A 
ATOM     47  N   UNL A   1      42.991  30.744  29.158  1.00  0.00    -0.248 NA
ATOM     48  C   UNL A   1      41.873  32.257  30.540  1.00  0.00     0.031 C 
ATOM     49  C   UNL A   1      39.768  27.740  29.985  1.00  0.00     0.029 A 
ATOM     50  N   UNL A   1      41.715  28.099  28.940  1.00  0.00    -0.354 N 
ATOM     51  C   UNL A   1      43.713  31.928  29.227  1.00  0.00     0.074 A 
ATOM     52  C   UNL A   1      42.959  32.840  30.057  1.00  0.00     0.031 C 
ATOM     53  C   UNL A   1      40.103  26.605  29.345  1.00  0.00     0.029 A 
ATOM     54  C   UNL A   1      41.348  26.818  28.608  1.00  0.00     0.049 A 
ATOM     55  H   UNL A   1      42.555  28.513  28.640  1.00  0.00     0.167 HD
ATOM     56  C   UNL A   1      44.903  32.225  28.655  1.00  0.00     0.037 A 
ATOM     57  C   UNL A   1      41.938  25.935  27.779  1.00  0.00     0.037 A 
ATOM     58  C   UNL A   1      45.647  31.315  27.825  1.00  0.00     0.049 A 
ATOM     59  C   UNL A   1      43.222  26.318  27.083  1.00  0.00     0.074 A 
ATOM     60  C   UNL A   1      46.869  31.513  27.208  1.00  0.00     0.029 A 
ATOM     61  N   UNL A   1      45.229  30.037  27.487  1.00  0.00    -0.354 N 
ATOM     62  N   UNL A   1      43.912  27.431  27.166  1.00  0.00    -0.248 NA
ATOM     63  C   UNL A   1      43.809  25.321  26.176  1.00  0.00     0.031 C 
ATOM     64  C   UNL A   1      47.159  30.379  26.443  1.00  0.00     0.029 A 
ATOM     65  C   UNL A   1      46.156  29.444  26.644  1.00  0.00     0.049 A 
ATOM     66  H   UNL A   1      44.397  29.612  27.799  1.00  0.00     0.167 HD
ATOM     67  C   UNL A   1      45.029  27.253  26.359  1.00  0.00     0.074 A 
ATOM     68  C   UNL A   1      44.929  25.921  25.800  1.00  0.00     0.031 C 
ATOM     69  C   UNL A   1      46.049  28.111  26.107  1.00  0.00     0.037 A 
BRANCH  56  70
ATOM     70  C   UNL A   1      45.453  33.605  28.878  1.00  0.00     0.064 A 
ATOM     71  C   UNL A   1      46.315  33.897  29.946  1.00  0.00     0.173 A 
ATOM     72  C   UNL A   1      45.123  34.649  28.000  1.00  0.00     0.173 A 
ATOM     73  F   UNL A   1      46.650  32.940  30.826  1.00  0.00    -0.203 F 
ATOM     74  C   UNL A   1      46.798  35.188  30.146  1.00  0.00     0.198 A 
ATOM     75  C   UNL A   1      45.637  35.930  28.181  1.00  0.00     0.198 A 
ATOM     76  F   UNL A   1      44.305  34.426  26.961  1.00  0.00    -0.203 F 
ATOM     77  F   UNL A   1      47.572  35.455  31.207  1.00  0.00    -0.200 F 
ATOM     78  C   UNL A   1      46.466  36.201  29.260  1.00  0.00     0.200 A 
ATOM     79  F   UNL A   1      45.325  36.904  27.315  1.00  0.00    -0.200 F 
ATOM     80  F   UNL A   1      46.936  37.442  29.449  1.00  0.00    -0.200 F 
ENDBRANCH  56  70
BRANCH  57  81
ATOM     81  C   UNL A   1      41.320  24.602  27.545  1.00  0.00     0.064 A 
ATOM     82  C   UNL A   1      41.864  23.443  28.115  1.00  0.00     0.173 A 
ATOM     83  C   UNL A   1      40.188  24.456  26.730  1.00  0.00     0.173 A 
ATOM     84  F   UNL A   1      42.962  23.525  28.880  1.00  0.00    -0.203 F 
ATOM     85  C   UNL A   1      41.314  22.187  27.861  1.00  0.00     0.198 A 
ATOM     86  C   UNL A   1      39.618  23.204  26.504  1.00  0.00     0.198 A 
ATOM     87  F   UNL A   1      39.628  25.532  26.156  1.00  0.00    -0.203 F 
ATOM     88  F   UNL A   1      41.885  21.091  28.376  1.00  0.00    -0.200 F 
ATOM     89  C   UNL A   1      40.187  22.070  27.061  1.00  0.00     0.200 A 
ATOM     90  F   UNL A   1      38.522  23.098  25.740  1.00  0.00    -0.200 F 
ATOM     91  F   UNL A   1      39.655  20.864  26.822  1.00  0.00    -0.200 F 
ENDBRANCH  57  81
BRANCH  69  92
ATOM     92  C   UNL A   1      47.171  27.624  25.232  1.00  0.00     0.064 A 
ATOM     93  C   UNL A   1      47.213  27.891  23.856  1.00  0.00     0.173 A 
ATOM     94  C   UNL A   1      48.249  26.920  25.794  1.00  0.00     0.173 A 
ATOM     95  F   UNL A   1      46.204  28.549  23.264  1.00  0.00    -0.203 F 
ATOM     96  C   UNL A   1      48.276  27.448  23.072  1.00  0.00     0.198 A 
ATOM     97  C   UNL A   1      49.327  26.512  25.015  1.00  0.00     0.198 A 
ATOM     98  F   UNL A   1      48.266  26.645  27.108  1.00  0.00    -0.203 F 
ATOM     99  F   UNL A   1      48.269  27.671  21.750  1.00  0.00    -0.200 F 
ATOM    100  C   UNL A   1      49.335  26.769  23.653  1.00  0.00     0.200 A 
ATOM    101  F   UNL A   1      50.358  25.872  25.583  1.00  0.00    -0.200 F 
ATOM    102  F   UNL A   1      50.363  26.355  22.898  1.00  0.00    -0.200 F 
ENDBRANCH  69  92
ENDBRANCH  43  44
ENDBRANCH  36  38
ENDBRANCH  35  36
ENDBRANCH  34  35
ENDBRANCH  33  34
ENDBRANCH  32  33
ENDBRANCH  31  32
ENDBRANCH  30  31
ENDBRANCH  29  30
ENDBRANCH   1  29
TORSDOF 24
ENDMDL
MODEL 2
REMARK VINA RESULT:     -10.1      1.392      2.496
REMARK SMILES NC(=O)[C@H]1CCCN1S(=O)(=O)Cc1ccc(C(=O)OCCOCCOCCOCCOC(=O)c2ccc(-c3c4nc(c(-c5c(F)c(F)c(F)c(F)c5F)c5ccc([nH]5)c(-c5c(F)c(F)c(F)c(F)c5F)c5nc(c(-c6c(F)c(F)c(F)c(F)c6F)c6ccc3[nH]6)C=C5)C=C4)cc2)cc1
REMARK SMILES IDX 24 1 23 2 22 3 21 4 20 5 19 6 17 7 18 8 16 9 13 10 14 11
REMARK SMILES IDX 98 12 15 13 97 14 12 15 9 16 10 17 11 18 8 19 4 20 5 21 6 22
REMARK SMILES IDX 7 23 2 24 1 25 3 28 25 29 26 30 27 31 28 32 29 33 30 34
REMARK SMILES IDX 31 35 32 36 33 37 34 38 35 39 96 40 36 41 95 42 37 43 38 44
REMARK SMILES IDX 39 45 89 46 40 47 94 48 88 49 90 50 41 51 93 52 87 53 86 54
REMARK SMILES IDX 42 56 74 57 54 58 73 59 55 60 58 61 72 62 91 63 56 64 57 65
REMARK SMILES IDX 71 67 92 68 59 69 43 70 44 71 52 72 45 73 46 74 50 75 53 76
REMARK SMILES IDX 47 77 48 78 51 79 49 80 75 81 76 82 84 83 77 84 78 85 82 86
REMARK SMILES IDX 85 87 79 88 80 89 83 90 81 91 60 92 61 93 69 94 62 95 63 96
REMARK SMILES IDX 67 97 70 98 64 99 65 100 68 101 66 102
REMARK H PARENT 1 26 1 27 90 55 58 66
REMARK Flexibility Score: inf
ROOT
ATOM      1  C   UNL A   1      34.085  33.132  28.000  1.00  0.00     0.188 C 
ENDROOT
BRANCH   1   2
ATOM      2  C   UNL A   1      34.017  31.590  27.977  1.00  0.00     0.188 C 
BRANCH   2   3
ATOM      3  O   UNL A   1      32.965  31.078  27.175  1.00  0.00    -0.376 OA
BRANCH   3   4
ATOM      4  C   UNL A   1      33.164  29.855  26.492  1.00  0.00     0.202 C 
BRANCH   4   5
ATOM      5  C   UNL A   1      32.472  29.653  25.134  1.00  0.00     0.261 C 
BRANCH   5   6
ATOM      6  O   UNL A   1      31.062  29.908  25.103  1.00  0.00    -0.460 OA
BRANCH   6   7
ATOM      7  C   UNL A   1      30.420  29.550  23.971  1.00  0.00     0.338 C 
ATOM      8  O   UNL A   1      29.722  30.264  23.274  1.00  0.00    -0.246 OA
BRANCH   7   9
ATOM      9  C   UNL A   1      30.869  28.194  23.585  1.00  0.00     0.060 A 
ATOM     10  C   UNL A   1      31.722  25.581  23.001  1.00  0.00    -0.032 A 
ATOM     11  C   UNL A   1      30.818  25.822  24.044  1.00  0.00     0.006 A 
ATOM     12  C   UNL A   1      32.085  26.657  22.170  1.00  0.00     0.006 A 
ATOM     13  C   UNL A   1      30.427  27.120  24.361  1.00  0.00     0.016 A 
ATOM     14  C   UNL A   1      31.657  27.958  22.456  1.00  0.00     0.016 A 
BRANCH  10  15
ATOM     15  C   UNL A   1      32.265  24.202  22.711  1.00  0.00     0.189 C 
BRANCH  15  16
ATOM     16  S   UNL A   1      33.822  23.860  23.564  1.00  0.00     0.219 S 
ATOM     17  O   UNL A   1      34.256  25.087  24.201  1.00  0.00    -0.212 OA
ATOM     18  O   UNL A   1      34.707  23.182  22.638  1.00  0.00    -0.212 OA
BRANCH  16  19
ATOM     19  N   UNL A   1      33.420  22.759  24.800  1.00  0.00    -0.189 NA
ATOM     20  C   UNL A   1      33.644  23.216  26.207  1.00  0.00     0.161 C 
ATOM     21  C   UNL A   1      35.056  22.741  26.528  1.00  0.00     0.032 C 
ATOM     22  C   UNL A   1      35.194  21.423  25.781  1.00  0.00     0.019 C 
ATOM     23  C   UNL A   1      34.124  21.440  24.692  1.00  0.00     0.103 C 
BRANCH  20  24
ATOM     24  C   UNL A   1      32.633  22.548  27.157  1.00  0.00     0.235 C 
ATOM     25  N   UNL A   1      31.375  22.351  26.666  1.00  0.00    -0.368 N 
ATOM     26  H   UNL A   1      30.688  21.928  27.230  1.00  0.00     0.159 HD
ATOM     27  H   UNL A   1      31.156  22.631  25.748  1.00  0.00     0.159 HD
ATOM     28  O   UNL A   1      32.890  22.196  28.307  1.00  0.00    -0.273 OA
ENDBRANCH  20  24
ENDBRANCH  16  19
ENDBRANCH  15  16
ENDBRANCH  10  15
ENDBRANCH   7   9
ENDBRANCH   6   7
ENDBRANCH   5   6
ENDBRANCH   4   5
ENDBRANCH   3   4
ENDBRANCH   2   3
ENDBRANCH   1   2
BRANCH   1  29
ATOM     29  O   UNL A   1      33.729  33.802  29.201  1.00  0.00    -0.377 OA
BRANCH  29  30
ATOM     30  C   UNL A   1      32.930  34.982  29.147  1.00  0.00     0.188 C 
BRANCH  30  31
ATOM     31  C   UNL A   1      33.417  36.344  29.700  1.00  0.00     0.188 C 
BRANCH  31  32
ATOM     32  O   UNL A   1      33.213  36.527  31.089  1.00  0.00    -0.376 OA
BRANCH  32  33
ATOM     33  C   UNL A   1      34.342  36.469  31.941  1.00  0.00     0.202 C 
BRANCH  33  34
ATOM     34  C   UNL A   1      34.552  35.163  32.715  1.00  0.00     0.261 C 
BRANCH  34  35
ATOM     35  O   UNL A   1      35.440  34.207  32.117  1.00  0.00    -0.460 OA
BRANCH  35  36
ATOM     36  C   UNL A   1      35.146  32.898  32.289  1.00  0.00     0.338 C 
ATOM     37  O   UNL A   1      34.120  32.420  32.722  1.00  0.00    -0.246 OA
BRANCH  36  38
ATOM     38  C   UNL A   1      36.248  32.120  31.681  1.00  0.00     0.060 A 
ATOM     39  C   UNL A   1      36.961  31.205  32.467  1.00  0.00     0.016 A 
ATOM     40  C   UNL A   1      36.562  32.293  30.332  1.00  0.00     0.016 A 
ATOM     41  C   UNL A   1      38.020  30.484  31.911  1.00  0.00     0.010 A 
ATOM     42  C   UNL A   1      37.635  31.589  29.783  1.00  0.00     0.010 A 
ATOM     43  C   UNL A   1      38.391  30.710  30.580  1.00  0.00    -0.014 A 
BRANCH  43  44
ATOM     44  C   UNL A   1      39.693  30.211  30.077  1.00  0.00     0.031 A 
ATOM     45  C   UNL A   1      40.853  31.170  30.056  1.00  0.00     0.074 A 
ATOM     46  C   UNL A   1      39.851  28.948  29.648  1.00  0.00     0.049 A 
ATOM     47  N   UNL A   1      42.060  31.011  29.580  1.00  0.00    -0.248 NA
ATOM     48  C   UNL A   1      40.607  32.496  30.646  1.00  0.00     0.031 C 
ATOM     49  C   UNL A   1      38.820  27.914  29.664  1.00  0.00     0.029 A 
ATOM     50  N   UNL A   1      40.947  28.327  29.100  1.00  0.00    -0.354 N 
ATOM     51  C   UNL A   1      42.712  32.217  29.803  1.00  0.00     0.074 A 
ATOM     52  C   UNL A   1      41.759  33.109  30.424  1.00  0.00     0.031 C 
ATOM     53  C   UNL A   1      39.327  26.788  29.134  1.00  0.00     0.029 A 
ATOM     54  C   UNL A   1      40.704  27.035  28.705  1.00  0.00     0.049 A 
ATOM     55  H   UNL A   1      41.821  28.766  29.000  1.00  0.00     0.167 HD
ATOM     56  C   UNL A   1      43.995  32.547  29.522  1.00  0.00     0.037 A 
ATOM     57  C   UNL A   1      41.497  26.166  28.047  1.00  0.00     0.037 A 
ATOM     58  C   UNL A   1      44.937  31.657  28.899  1.00  0.00     0.049 A 
ATOM     59  C   UNL A   1      42.896  26.586  27.666  1.00  0.00     0.074 A 
ATOM     60  C   UNL A   1      46.263  31.888  28.583  1.00  0.00     0.029 A 
ATOM     61  N   UNL A   1      44.647  30.365  28.487  1.00  0.00    -0.354 N 
ATOM     62  N   UNL A   1      43.516  27.719  27.896  1.00  0.00    -0.248 NA
ATOM     63  C   UNL A   1      43.707  25.602  26.934  1.00  0.00     0.031 C 
ATOM     64  C   UNL A   1      46.757  30.761  27.920  1.00  0.00     0.029 A 
ATOM     65  C   UNL A   1      45.762  29.797  27.891  1.00  0.00     0.049 A 
ATOM     66  H   UNL A   1      43.777  29.917  28.601  1.00  0.00     0.167 HD
ATOM     67  C   UNL A   1      44.796  27.571  27.375  1.00  0.00     0.074 A 
ATOM     68  C   UNL A   1      44.867  26.234  26.823  1.00  0.00     0.031 C 
ATOM     69  C   UNL A   1      45.822  28.458  27.359  1.00  0.00     0.037 A 
BRANCH  56  70
ATOM     70  C   UNL A   1      44.437  33.944  29.852  1.00  0.00     0.064 A 
ATOM     71  C   UNL A   1      44.218  35.018  28.977  1.00  0.00     0.173 A 
ATOM     72  C   UNL A   1      45.078  34.214  31.071  1.00  0.00     0.173 A 
ATOM     73  F   UNL A   1      43.625  34.813  27.790  1.00  0.00    -0.203 F 
ATOM     74  C   UNL A   1      44.654  36.303  29.294  1.00  0.00     0.198 A 
ATOM     75  C   UNL A   1      45.479  35.505  31.402  1.00  0.00     0.198 A 
ATOM     76  F   UNL A   1      45.311  33.225  31.947  1.00  0.00    -0.203 F 
ATOM     77  F   UNL A   1      44.486  37.301  28.415  1.00  0.00    -0.200 F 
ATOM     78  C   UNL A   1      45.276  36.547  30.509  1.00  0.00     0.200 A 
ATOM     79  F   UNL A   1      46.068  35.741  32.582  1.00  0.00    -0.200 F 
ATOM     80  F   UNL A   1      45.690  37.784  30.816  1.00  0.00    -0.200 F 
ENDBRANCH  56  70
BRANCH  57  81
ATOM     81  C   UNL A   1      40.988  24.815  27.690  1.00  0.00     0.064 A 
ATOM     82  C   UNL A   1      39.972  24.653  26.737  1.00  0.00     0.173 A 
ATOM     83  C   UNL A   1      41.489  23.660  28.309  1.00  0.00     0.173 A 
ATOM     84  F   UNL A   1      39.441  25.728  26.137  1.00  0.00    -0.203 F 
ATOM     85  C   UNL A   1      39.462  23.392  26.433  1.00  0.00     0.198 A 
ATOM     86  C   UNL A   1      41.002  22.396  27.980  1.00  0.00     0.198 A 
ATOM     87  F   UNL A   1      42.459  23.756  29.230  1.00  0.00    -0.203 F 
ATOM     88  F   UNL A   1      38.456  23.272  25.558  1.00  0.00    -0.200 F 
ATOM     89  C   UNL A   1      39.982  22.264  27.050  1.00  0.00     0.200 A 
ATOM     90  F   UNL A   1      41.516  21.308  28.568  1.00  0.00    -0.200 F 
ATOM     91  F   UNL A   1      39.496  21.051  26.754  1.00  0.00    -0.200 F 
ENDBRANCH  57  81
BRANCH  69  92
ATOM     92  C   UNL A   1      47.130  28.002  26.776  1.00  0.00     0.064 A 
ATOM     93  C   UNL A   1      48.200  27.587  27.582  1.00  0.00     0.173 A 
ATOM     94  C   UNL A   1      47.295  27.930  25.384  1.00  0.00     0.173 A 
ATOM     95  F   UNL A   1      48.101  27.646  28.919  1.00  0.00    -0.203 F 
ATOM     96  C   UNL A   1      49.394  27.146  27.017  1.00  0.00     0.198 A 
ATOM     97  C   UNL A   1      48.476  27.454  24.822  1.00  0.00     0.198 A 
ATOM     98  F   UNL A   1      46.301  28.305  24.564  1.00  0.00    -0.203 F 
ATOM     99  F   UNL A   1      50.421  26.803  27.809  1.00  0.00    -0.200 F 
ATOM    100  C   UNL A   1      49.528  27.070  25.639  1.00  0.00     0.200 A 
ATOM    101  F   UNL A   1      48.595  27.364  23.490  1.00  0.00    -0.200 F 
ATOM    102  F   UNL A   1      50.673  26.633  25.098  1.00  0.00    -0.200 F 
ENDBRANCH  69  92
ENDBRANCH  43  44
ENDBRANCH  36  38
ENDBRANCH  35  36
ENDBRANCH  34  35
ENDBRANCH  33  34
ENDBRANCH  32  33
ENDBRANCH  31  32
ENDBRANCH  30  31
ENDBRANCH  29  30
ENDBRANCH   1  29
TORSDOF 24
ENDMDL
MODEL 3
REMARK VINA RESULT:      -9.4      3.391      5.073
REMARK SMILES NC(=O)[C@H]1CCCN1S(=O)(=O)Cc1ccc(C(=O)OCCOCCOCCOCCOC(=O)c2ccc(-c3c4nc(c(-c5c(F)c(F)c(F)c(F)c5F)c5ccc([nH]5)c(-c5c(F)c(F)c(F)c(F)c5F)c5nc(c(-c6c(F)c(F)c(F)c(F)c6F)c6ccc3[nH]6)C=C5)C=C4)cc2)cc1
REMARK SMILES IDX 24 1 23 2 22 3 21 4 20 5 19 6 17 7 18 8 16 9 13 10 14 11
REMARK SMILES IDX 98 12 15 13 97 14 12 15 9 16 10 17 11 18 8 19 4 20 5 21 6 22
REMARK SMILES IDX 7 23 2 24 1 25 3 28 25 29 26 30 27 31 28 32 29 33 30 34
REMARK SMILES IDX 31 35 32 36 33 37 34 38 35 39 96 40 36 41 95 42 37 43 38 44
REMARK SMILES IDX 39 45 89 46 40 47 94 48 88 49 90 50 41 51 93 52 87 53 86 54
REMARK SMILES IDX 42 56 74 57 54 58 73 59 55 60 58 61 72 62 91 63 56 64 57 65
REMARK SMILES IDX 71 67 92 68 59 69 43 70 44 71 52 72 45 73 46 74 50 75 53 76
REMARK SMILES IDX 47 77 48 78 51 79 49 80 75 81 76 82 84 83 77 84 78 85 82 86
REMARK SMILES IDX 85 87 79 88 80 89 83 90 81 91 60 92 61 93 69 94 62 95 63 96
REMARK SMILES IDX 67 97 70 98 64 99 65 100 68 101 66 102
REMARK H PARENT 1 26 1 27 90 55 58 66
REMARK Flexibility Score: inf
ROOT
ATOM      1  C   UNL A   1      34.420  33.132  28.014  1.00  0.00     0.188 C 
ENDROOT
BRANCH   1   2
ATOM      2  C   UNL A   1      34.343  31.593  28.102  1.00  0.00     0.188 C 
BRANCH   2   3
ATOM      3  O   UNL A   1      33.265  31.034  27.369  1.00  0.00    -0.376 OA
BRANCH   3   4
ATOM      4  C   UNL A   1      33.509  29.899  26.560  1.00  0.00     0.202 C 
BRANCH   4   5
ATOM      5  C   UNL A   1      32.708  29.741  25.257  1.00  0.00     0.261 C 
BRANCH   5   6
ATOM      6  O   UNL A   1      31.285  29.873  25.374  1.00  0.00    -0.460 OA
BRANCH   6   7
ATOM      7  C   UNL A   1      30.568  29.543  24.280  1.00  0.00     0.338 C 
ATOM      8  O   UNL A   1      29.804  30.267  23.667  1.00  0.00    -0.246 OA
BRANCH   7   9
ATOM      9  C   UNL A   1      31.016  28.214  23.806  1.00  0.00     0.060 A 
ATOM     10  C   UNL A   1      31.879  25.648  23.054  1.00  0.00    -0.032 A 
ATOM     11  C   UNL A   1      31.048  25.826  24.169  1.00  0.00     0.006 A 
ATOM     12  C   UNL A   1      32.158  26.765  22.245  1.00  0.00     0.006 A 
ATOM     13  C   UNL A   1      30.654  27.101  24.566  1.00  0.00     0.016 A 
ATOM     14  C   UNL A   1      31.725  28.044  22.614  1.00  0.00     0.016 A 
BRANCH  10  15
ATOM     15  C   UNL A   1      32.428  24.296  22.668  1.00  0.00     0.189 C 
BRANCH  15  16
ATOM     16  S   UNL A   1      33.949  23.872  23.549  1.00  0.00     0.219 S 
ATOM     17  O   UNL A   1      34.450  25.079  24.174  1.00  0.00    -0.212 OA
ATOM     18  O   UNL A   1      34.803  23.126  22.645  1.00  0.00    -0.212 OA
BRANCH  16  19
ATOM     19  N   UNL A   1      33.463  22.817  24.795  1.00  0.00    -0.189 NA
ATOM     20  C   UNL A   1      33.580  23.332  26.195  1.00  0.00     0.161 C 
ATOM     21  C   UNL A   1      34.968  22.881  26.638  1.00  0.00     0.032 C 
ATOM     22  C   UNL A   1      35.167  21.535  25.957  1.00  0.00     0.019 C 
ATOM     23  C   UNL A   1      34.180  21.500  24.792  1.00  0.00     0.103 C 
BRANCH  20  24
ATOM     24  C   UNL A   1      32.506  22.693  27.095  1.00  0.00     0.235 C 
ATOM     25  N   UNL A   1      31.305  22.420  26.508  1.00  0.00    -0.368 N 
ATOM     26  H   UNL A   1      30.580  22.013  27.035  1.00  0.00     0.159 HD
ATOM     27  H   UNL A   1      31.162  22.632  25.557  1.00  0.00     0.159 HD
ATOM     28  O   UNL A   1      32.666  22.427  28.284  1.00  0.00    -0.273 OA
ENDBRANCH  20  24
ENDBRANCH  16  19
ENDBRANCH  15  16
ENDBRANCH  10  15
ENDBRANCH   7   9
ENDBRANCH   6   7
ENDBRANCH   5   6
ENDBRANCH   4   5
ENDBRANCH   3   4
ENDBRANCH   2   3
ENDBRANCH   1   2
BRANCH   1  29
ATOM     29  O   UNL A   1      33.946  33.892  29.116  1.00  0.00    -0.377 OA
BRANCH  29  30
ATOM     30  C   UNL A   1      33.069  34.995  28.895  1.00  0.00     0.188 C 
BRANCH  30  31
ATOM     31  C   UNL A   1      33.424  36.441  29.322  1.00  0.00     0.188 C 
BRANCH  31  32
ATOM     32  O   UNL A   1      32.598  36.978  30.338  1.00  0.00    -0.376 OA
BRANCH  32  33
ATOM     33  C   UNL A   1      33.141  37.105  31.638  1.00  0.00     0.202 C 
BRANCH  33  34
ATOM     34  C   UNL A   1      33.093  35.855  32.527  1.00  0.00     0.261 C 
BRANCH  34  35
ATOM     35  O   UNL A   1      34.344  35.186  32.746  1.00  0.00    -0.460 OA
BRANCH  35  36
ATOM     36  C   UNL A   1      34.312  33.838  32.859  1.00  0.00     0.338 C 
ATOM     37  O   UNL A   1      33.347  33.136  33.070  1.00  0.00    -0.246 OA
BRANCH  36  38
ATOM     38  C   UNL A   1      35.657  33.338  32.497  1.00  0.00     0.060 A 
ATOM     39  C   UNL A   1      36.217  32.280  33.226  1.00  0.00     0.016 A 
ATOM     40  C   UNL A   1      36.351  33.912  31.431  1.00  0.00     0.016 A 
ATOM     41  C   UNL A   1      37.496  31.818  32.910  1.00  0.00     0.010 A 
ATOM     42  C   UNL A   1      37.638  33.464  31.131  1.00  0.00     0.010 A 
ATOM     43  C   UNL A   1      38.230  32.440  31.893  1.00  0.00    -0.014 A 
BRANCH  43  44
ATOM     44  C   UNL A   1      39.685  32.189  31.767  1.00  0.00     0.031 A 
ATOM     45  C   UNL A   1      40.620  33.047  32.574  1.00  0.00     0.074 A 
ATOM     46  C   UNL A   1      40.171  31.232  30.959  1.00  0.00     0.049 A 
ATOM     47  N   UNL A   1      41.927  33.092  32.572  1.00  0.00    -0.248 NA
ATOM     48  C   UNL A   1      39.987  33.992  33.509  1.00  0.00     0.031 C 
ATOM     49  C   UNL A   1      39.369  30.306  30.165  1.00  0.00     0.029 A 
ATOM     50  N   UNL A   1      41.469  30.892  30.667  1.00  0.00    -0.354 N 
ATOM     51  C   UNL A   1      42.270  34.075  33.491  1.00  0.00     0.074 A 
ATOM     52  C   UNL A   1      41.037  34.625  34.007  1.00  0.00     0.031 C 
ATOM     53  C   UNL A   1      40.192  29.511  29.460  1.00  0.00     0.029 A 
ATOM     54  C   UNL A   1      41.578  29.899  29.724  1.00  0.00     0.049 A 
ATOM     55  H   UNL A   1      42.247  31.319  31.092  1.00  0.00     0.167 HD
ATOM     56  C   UNL A   1      43.504  34.476  33.876  1.00  0.00     0.037 A 
ATOM     57  C   UNL A   1      42.672  29.388  29.126  1.00  0.00     0.037 A 
ATOM     58  C   UNL A   1      44.728  33.927  33.354  1.00  0.00     0.049 A 
ATOM     59  C   UNL A   1      44.035  29.911  29.508  1.00  0.00     0.074 A 
ATOM     60  C   UNL A   1      46.030  34.254  33.687  1.00  0.00     0.029 A 
ATOM     61  N   UNL A   1      44.798  32.943  32.380  1.00  0.00    -0.354 N 
ATOM     62  N   UNL A   1      44.357  30.826  30.392  1.00  0.00    -0.248 NA
ATOM     63  C   UNL A   1      45.189  29.328  28.808  1.00  0.00     0.031 C 
ATOM     64  C   UNL A   1      46.888  33.515  32.867  1.00  0.00     0.029 A 
ATOM     65  C   UNL A   1      46.123  32.672  32.076  1.00  0.00     0.049 A 
ATOM     66  H   UNL A   1      44.022  32.502  31.964  1.00  0.00     0.167 HD
ATOM     67  C   UNL A   1      45.745  30.900  30.382  1.00  0.00     0.074 A 
ATOM     68  C   UNL A   1      46.206  29.930  29.410  1.00  0.00     0.031 C 
ATOM     69  C   UNL A   1      46.566  31.693  31.116  1.00  0.00     0.037 A 
BRANCH  56  70
ATOM     70  C   UNL A   1      43.587  35.588  34.882  1.00  0.00     0.064 A 
ATOM     71  C   UNL A   1      43.654  35.338  36.261  1.00  0.00     0.173 A 
ATOM     72  C   UNL A   1      43.616  36.925  34.458  1.00  0.00     0.173 A 
ATOM     73  F   UNL A   1      43.613  34.077  36.722  1.00  0.00    -0.203 F 
ATOM     74  C   UNL A   1      43.711  36.384  37.178  1.00  0.00     0.198 A 
ATOM     75  C   UNL A   1      43.711  37.968  35.375  1.00  0.00     0.198 A 
ATOM     76  F   UNL A   1      43.557  37.222  33.151  1.00  0.00    -0.203 F 
ATOM     77  F   UNL A   1      43.714  36.122  38.492  1.00  0.00    -0.200 F 
ATOM     78  C   UNL A   1      43.748  37.698  36.735  1.00  0.00     0.200 A 
ATOM     79  F   UNL A   1      43.760  39.236  34.943  1.00  0.00    -0.200 F 
ATOM     80  F   UNL A   1      43.810  38.704  37.618  1.00  0.00    -0.200 F 
ENDBRANCH  56  70
BRANCH  57  81
ATOM     81  C   UNL A   1      42.530  28.330  28.091  1.00  0.00     0.064 A 
ATOM     82  C   UNL A   1      42.554  28.647  26.725  1.00  0.00     0.173 A 
ATOM     83  C   UNL A   1      42.345  26.985  28.443  1.00  0.00     0.173 A 
ATOM     84  F   UNL A   1      42.701  29.922  26.336  1.00  0.00    -0.203 F 
ATOM     85  C   UNL A   1      42.377  27.663  25.753  1.00  0.00     0.198 A 
ATOM     86  C   UNL A   1      42.201  25.997  27.470  1.00  0.00     0.198 A 
ATOM     87  F   UNL A   1      42.311  26.626  29.735  1.00  0.00    -0.203 F 
ATOM     88  F   UNL A   1      42.351  28.002  24.457  1.00  0.00    -0.200 F 
ATOM     89  C   UNL A   1      42.207  26.339  26.126  1.00  0.00     0.200 A 
ATOM     90  F   UNL A   1      42.050  24.717  27.835  1.00  0.00    -0.200 F 
ATOM     91  F   UNL A   1      42.041  25.393  25.192  1.00  0.00    -0.200 F 
ENDBRANCH  57  81
BRANCH  69  92
ATOM     92  C   UNL A   1      48.048  31.514  30.942  1.00  0.00     0.064 A 
ATOM     93  C   UNL A   1      48.778  30.578  31.689  1.00  0.00     0.173 A 
ATOM     94  C   UNL A   1      48.739  32.258  29.972  1.00  0.00     0.173 A 
ATOM     95  F   UNL A   1      48.171  29.848  32.637  1.00  0.00    -0.203 F 
ATOM     96  C   UNL A   1      50.147  30.414  31.491  1.00  0.00     0.198 A 
ATOM     97  C   UNL A   1      50.100  32.066  29.751  1.00  0.00     0.198 A 
ATOM     98  F   UNL A   1      48.090  33.161  29.221  1.00  0.00    -0.203 F 
ATOM     99  F   UNL A   1      50.834  29.550  32.253  1.00  0.00    -0.200 F 
ATOM    100  C   UNL A   1      50.805  31.150  30.518  1.00  0.00     0.200 A 
ATOM    101  F   UNL A   1      50.729  32.766  28.797  1.00  0.00    -0.200 F 
ATOM    102  F   UNL A   1      52.120  30.982  30.322  1.00  0.00    -0.200 F 
ENDBRANCH  69  92
ENDBRANCH  43  44
ENDBRANCH  36  38
ENDBRANCH  35  36
ENDBRANCH  34  35
ENDBRANCH  33  34
ENDBRANCH  32  33
ENDBRANCH  31  32
ENDBRANCH  30  31
ENDBRANCH  29  30
ENDBRANCH   1  29
TORSDOF 24
ENDMDL
