MODEL 1
REMARK VINA RESULT:     -10.2      0.000      0.000
REMARK SMILES O=C(Nc1ccccc1C(=O)OCCOCCOCCOCCOC(=O)c1ccc(-c2c3nc(c(-c4c(F)c(F)c(F)c(F)c4F)c4ccc([nH]4)c(-c4c(F)c(F)c(F)c(F)c4F)c4nc(c(-c5c(F)c(F)c(F)c(F)c5F)c5ccc2[nH]5)C=C4)C=C3)cc1)c1ccncc1
REMARK SMILES IDX 18 1 17 2 16 3 15 4 14 5 13 6 12 7 10 8 11 9 9 10 4 11 5 12
REMARK SMILES IDX 6 13 8 14 7 15 3 16 1 17 2 18 90 20 91 21 95 22 92 23 94 24
REMARK SMILES IDX 93 25 19 26 20 27 21 28 22 29 23 30 24 31 25 32 26 33 27 34
REMARK SMILES IDX 28 35 89 36 29 37 88 38 30 39 31 40 32 41 82 42 33 43 87 44
REMARK SMILES IDX 81 45 83 46 34 47 86 48 80 49 79 50 35 52 67 53 47 54 66 55
REMARK SMILES IDX 48 56 51 57 65 58 84 59 49 60 50 61 64 63 85 64 52 65 36 66
REMARK SMILES IDX 37 67 45 68 38 69 39 70 43 71 46 72 40 73 41 74 44 75 42 76
REMARK SMILES IDX 68 77 69 78 77 79 70 80 71 81 75 82 78 83 72 84 73 85 76 86
REMARK SMILES IDX 74 87 53 88 54 89 62 90 55 91 56 92 60 93 63 94 57 95 58 96
REMARK SMILES IDX 61 97 59 98
REMARK H PARENT 3 19 83 51 51 62
REMARK Flexibility Score: inf
ROOT
ATOM      1  O   UNL A   1      34.770  21.888  25.352  1.00  0.00    -0.377 OA
ENDROOT
BRANCH   1   2
ATOM      2  C   UNL A   1      33.583  22.431  24.784  1.00  0.00     0.188 C 
BRANCH   2   3
ATOM      3  C   UNL A   1      32.530  23.260  25.566  1.00  0.00     0.188 C 
BRANCH   3   4
ATOM      4  O   UNL A   1      31.722  24.116  24.794  1.00  0.00    -0.376 OA
BRANCH   4   5
ATOM      5  C   UNL A   1      31.619  23.988  23.398  1.00  0.00     0.202 C 
BRANCH   5   6
ATOM      6  C   UNL A   1      32.275  24.995  22.456  1.00  0.00     0.261 C 
BRANCH   6   7
ATOM      7  O   UNL A   1      33.515  25.571  22.869  1.00  0.00    -0.460 OA
BRANCH   7   8
ATOM      8  C   UNL A   1      33.611  26.914  22.750  1.00  0.00     0.340 C 
ATOM      9  O   UNL A   1      33.908  27.523  21.735  1.00  0.00    -0.246 OA
BRANCH   8  10
ATOM     10  C   UNL A   1      33.121  27.577  23.984  1.00  0.00     0.083 A 
ATOM     11  C   UNL A   1      32.326  28.740  24.050  1.00  0.00     0.056 A 
ATOM     12  C   UNL A   1      32.140  29.341  25.310  1.00  0.00     0.027 A 
ATOM     13  C   UNL A   1      32.663  28.776  26.477  1.00  0.00     0.002 A 
ATOM     14  C   UNL A   1      33.639  27.014  25.171  1.00  0.00     0.018 A 
ATOM     15  C   UNL A   1      33.407  27.606  26.408  1.00  0.00     0.001 A 
BRANCH  11  16
ATOM     16  N   UNL A   1      31.672  29.410  22.990  1.00  0.00    -0.321 N 
ATOM     17  O   UNL A   1      30.226  29.796  21.303  1.00  0.00    -0.269 OA
ATOM     18  C   UNL A   1      30.450  29.246  22.381  1.00  0.00     0.255 C 
ATOM     19  H   UNL A   1      32.202  30.147  22.608  1.00  0.00     0.170 HD
BRANCH  18  20
ATOM     20  C   UNL A   1      29.358  28.479  23.022  1.00  0.00     0.043 A 
ATOM     21  C   UNL A   1      28.089  29.055  23.055  1.00  0.00     0.034 A 
ATOM     22  C   UNL A   1      29.556  27.198  23.530  1.00  0.00     0.034 A 
ATOM     23  C   UNL A   1      27.037  28.265  23.475  1.00  0.00     0.112 A 
ATOM     24  C   UNL A   1      28.436  26.489  23.921  1.00  0.00     0.112 A 
ATOM     25  N   UNL A   1      27.183  26.992  23.896  1.00  0.00    -0.265 NA
ENDBRANCH  18  20
ENDBRANCH  11  16
ENDBRANCH   8  10
ENDBRANCH   7   8
ENDBRANCH   6   7
ENDBRANCH   5   6
ENDBRANCH   4   5
ENDBRANCH   3   4
ENDBRANCH   2   3
ENDBRANCH   1   2
BRANCH   1  26
ATOM     26  C   UNL A   1      35.710  22.719  26.015  1.00  0.00     0.188 C 
BRANCH  26  27
ATOM     27  C   UNL A   1      37.109  22.890  25.390  1.00  0.00     0.188 C 
BRANCH  27  28
ATOM     28  O   UNL A   1      38.029  21.886  25.766  1.00  0.00    -0.376 OA
BRANCH  28  29
ATOM     29  C   UNL A   1      38.094  20.676  25.040  1.00  0.00     0.202 C 
BRANCH  29  30
ATOM     30  C   UNL A   1      39.096  19.564  25.385  1.00  0.00     0.261 C 
BRANCH  30  31
ATOM     31  O   UNL A   1      40.007  19.791  26.466  1.00  0.00    -0.460 OA
BRANCH  31  32
ATOM     32  C   UNL A   1      41.323  19.644  26.220  1.00  0.00     0.338 C 
ATOM     33  O   UNL A   1      41.887  18.673  25.740  1.00  0.00    -0.246 OA
BRANCH  32  34
ATOM     34  C   UNL A   1      41.957  20.953  26.469  1.00  0.00     0.060 A 
ATOM     35  C   UNL A   1      42.246  21.342  27.785  1.00  0.00     0.016 A 
ATOM     36  C   UNL A   1      42.271  21.789  25.396  1.00  0.00     0.016 A 
ATOM     37  C   UNL A   1      42.819  22.587  28.033  1.00  0.00     0.010 A 
ATOM     38  C   UNL A   1      42.819  23.048  25.647  1.00  0.00     0.010 A 
ATOM     39  C   UNL A   1      43.057  23.465  26.968  1.00  0.00    -0.014 A 
BRANCH  39  40
ATOM     40  C   UNL A   1      43.333  24.892  27.247  1.00  0.00     0.031 A 
ATOM     41  C   UNL A   1      44.730  25.396  27.014  1.00  0.00     0.074 A 
ATOM     42  C   UNL A   1      42.374  25.722  27.687  1.00  0.00     0.049 A 
ATOM     43  N   UNL A   1      45.247  26.573  27.256  1.00  0.00    -0.248 NA
ATOM     44  C   UNL A   1      45.677  24.430  26.433  1.00  0.00     0.031 C 
ATOM     45  C   UNL A   1      40.979  25.357  27.911  1.00  0.00     0.029 A 
ATOM     46  N   UNL A   1      42.443  27.046  28.042  1.00  0.00    -0.354 N 
ATOM     47  C   UNL A   1      46.578  26.484  26.871  1.00  0.00     0.074 A 
ATOM     48  C   UNL A   1      46.800  25.130  26.413  1.00  0.00     0.031 C 
ATOM     49  C   UNL A   1      40.325  26.427  28.395  1.00  0.00     0.029 A 
ATOM     50  C   UNL A   1      41.265  27.536  28.547  1.00  0.00     0.049 A 
ATOM     51  H   UNL A   1      43.258  27.591  27.945  1.00  0.00     0.167 HD
ATOM     52  C   UNL A   1      47.528  27.448  26.891  1.00  0.00     0.037 A 
ATOM     53  C   UNL A   1      40.994  28.734  29.101  1.00  0.00     0.037 A 
ATOM     54  C   UNL A   1      47.298  28.789  27.360  1.00  0.00     0.049 A 
ATOM     55  C   UNL A   1      42.083  29.773  29.183  1.00  0.00     0.074 A 
ATOM     56  C   UNL A   1      48.184  29.850  27.408  1.00  0.00     0.029 A 
ATOM     57  N   UNL A   1      46.096  29.247  27.880  1.00  0.00    -0.354 N 
ATOM     58  N   UNL A   1      43.334  29.698  28.792  1.00  0.00    -0.248 NA
ATOM     59  C   UNL A   1      41.723  31.067  29.779  1.00  0.00     0.031 C 
ATOM     60  C   UNL A   1      47.538  30.931  28.018  1.00  0.00     0.029 A 
ATOM     61  C   UNL A   1      46.226  30.567  28.282  1.00  0.00     0.049 A 
ATOM     62  H   UNL A   1      45.271  28.715  27.952  1.00  0.00     0.167 HD
ATOM     63  C   UNL A   1      43.900  30.937  29.069  1.00  0.00     0.074 A 
ATOM     64  C   UNL A   1      42.851  31.751  29.648  1.00  0.00     0.031 C 
ATOM     65  C   UNL A   1      45.172  31.364  28.860  1.00  0.00     0.037 A 
BRANCH  52  66
ATOM     66  C   UNL A   1      48.907  27.065  26.436  1.00  0.00     0.064 A 
ATOM     67  C   UNL A   1      49.316  27.206  25.101  1.00  0.00     0.173 A 
ATOM     68  C   UNL A   1      49.833  26.541  27.351  1.00  0.00     0.173 A 
ATOM     69  F   UNL A   1      48.465  27.687  24.181  1.00  0.00    -0.203 F 
ATOM     70  C   UNL A   1      50.583  26.799  24.691  1.00  0.00     0.198 A 
ATOM     71  C   UNL A   1      51.113  26.170  26.945  1.00  0.00     0.198 A 
ATOM     72  F   UNL A   1      49.498  26.385  28.641  1.00  0.00    -0.203 F 
ATOM     73  F   UNL A   1      50.925  26.878  23.398  1.00  0.00    -0.200 F 
ATOM     74  C   UNL A   1      51.482  26.286  25.614  1.00  0.00     0.200 A 
ATOM     75  F   UNL A   1      51.984  25.689  27.842  1.00  0.00    -0.200 F 
ATOM     76  F   UNL A   1      52.701  25.894  25.219  1.00  0.00    -0.200 F 
ENDBRANCH  52  66
BRANCH  53  77
ATOM     77  C   UNL A   1      39.637  29.002  29.645  1.00  0.00     0.064 A 
ATOM     78  C   UNL A   1      38.624  29.546  28.843  1.00  0.00     0.173 A 
ATOM     79  C   UNL A   1      39.326  28.717  30.984  1.00  0.00     0.173 A 
ATOM     80  F   UNL A   1      38.880  29.862  27.565  1.00  0.00    -0.203 F 
ATOM     81  C   UNL A   1      37.357  29.807  29.363  1.00  0.00     0.198 A 
ATOM     82  C   UNL A   1      38.050  28.949  31.493  1.00  0.00     0.198 A 
ATOM     83  F   UNL A   1      40.260  28.200  31.795  1.00  0.00    -0.203 F 
ATOM     84  F   UNL A   1      36.422  30.371  28.586  1.00  0.00    -0.200 F 
ATOM     85  C   UNL A   1      37.068  29.500  30.684  1.00  0.00     0.200 A 
ATOM     86  F   UNL A   1      37.773  28.642  32.767  1.00  0.00    -0.200 F 
ATOM     87  F   UNL A   1      35.848  29.745  31.179  1.00  0.00    -0.200 F 
ENDBRANCH  53  77
BRANCH  65  88
ATOM     88  C   UNL A   1      45.494  32.787  29.224  1.00  0.00     0.064 A 
ATOM     89  C   UNL A   1      46.016  33.132  30.479  1.00  0.00     0.173 A 
ATOM     90  C   UNL A   1      45.322  33.814  28.282  1.00  0.00     0.173 A 
ATOM     91  F   UNL A   1      46.189  32.192  31.419  1.00  0.00    -0.203 F 
ATOM     92  C   UNL A   1      46.326  34.455  30.787  1.00  0.00     0.198 A 
ATOM     93  C   UNL A   1      45.666  35.129  28.581  1.00  0.00     0.198 A 
ATOM     94  F   UNL A   1      44.835  33.540  27.062  1.00  0.00    -0.203 F 
ATOM     95  F   UNL A   1      46.774  34.768  32.011  1.00  0.00    -0.200 F 
ATOM     96  C   UNL A   1      46.160  35.450  29.836  1.00  0.00     0.200 A 
ATOM     97  F   UNL A   1      45.522  36.086  27.653  1.00  0.00    -0.200 F 
ATOM     98  F   UNL A   1      46.467  36.720  30.131  1.00  0.00    -0.200 F 
ENDBRANCH  65  88
ENDBRANCH  39  40
ENDBRANCH  32  34
ENDBRANCH  31  32
ENDBRANCH  30  31
ENDBRANCH  29  30
ENDBRANCH  28  29
ENDBRANCH  27  28
ENDBRANCH  26  27
ENDBRANCH   1  26
TORSDOF 22
ENDMDL
MODEL 2
REMARK VINA RESULT:     -10.2      4.501      9.211
REMARK SMILES O=C(Nc1ccccc1C(=O)OCCOCCOCCOCCOC(=O)c1ccc(-c2c3nc(c(-c4c(F)c(F)c(F)c(F)c4F)c4ccc([nH]4)c(-c4c(F)c(F)c(F)c(F)c4F)c4nc(c(-c5c(F)c(F)c(F)c(F)c5F)c5ccc2[nH]5)C=C4)C=C3)cc1)c1ccncc1
REMARK SMILES IDX 18 1 17 2 16 3 15 4 14 5 13 6 12 7 10 8 11 9 9 10 4 11 5 12
REMARK SMILES IDX 6 13 8 14 7 15 3 16 1 17 2 18 90 20 91 21 95 22 92 23 94 24
REMARK SMILES IDX 93 25 19 26 20 27 21 28 22 29 23 30 24 31 25 32 26 33 27 34
REMARK SMILES IDX 28 35 89 36 29 37 88 38 30 39 31 40 32 41 82 42 33 43 87 44
REMARK SMILES IDX 81 45 83 46 34 47 86 48 80 49 79 50 35 52 67 53 47 54 66 55
REMARK SMILES IDX 48 56 51 57 65 58 84 59 49 60 50 61 64 63 85 64 52 65 36 66
REMARK SMILES IDX 37 67 45 68 38 69 39 70 43 71 46 72 40 73 41 74 44 75 42 76
REMARK SMILES IDX 68 77 69 78 77 79 70 80 71 81 75 82 78 83 72 84 73 85 76 86
REMARK SMILES IDX 74 87 53 88 54 89 62 90 55 91 56 92 60 93 63 94 57 95 58 96
REMARK SMILES IDX 61 97 59 98
REMARK H PARENT 3 19 83 51 51 62
REMARK Flexibility Score: inf
ROOT
ATOM      1  O   UNL A   1      40.167  22.032  26.154  1.00  0.00    -0.377 OA
ENDROOT
BRANCH   1   2
ATOM      2  C   UNL A   1      38.778  21.807  25.936  1.00  0.00     0.188 C 
BRANCH   2   3
ATOM      3  C   UNL A   1      37.784  22.876  25.409  1.00  0.00     0.188 C 
BRANCH   3   4
ATOM      4  O   UNL A   1      36.712  22.393  24.636  1.00  0.00    -0.376 OA
BRANCH   4   5
ATOM      5  C   UNL A   1      36.211  23.098  23.528  1.00  0.00     0.202 C 
BRANCH   5   6
ATOM      6  C   UNL A   1      35.131  24.166  23.687  1.00  0.00     0.261 C 
BRANCH   6   7
ATOM      7  O   UNL A   1      34.135  24.250  22.667  1.00  0.00    -0.460 OA
BRANCH   7   8
ATOM      8  C   UNL A   1      33.592  25.473  22.472  1.00  0.00     0.340 C 
ATOM      9  O   UNL A   1      34.002  26.322  21.697  1.00  0.00    -0.246 OA
BRANCH   8  10
ATOM     10  C   UNL A   1      32.301  25.584  23.196  1.00  0.00     0.083 A 
ATOM     11  C   UNL A   1      31.301  24.593  23.280  1.00  0.00     0.056 A 
ATOM     12  C   UNL A   1      30.056  24.958  23.829  1.00  0.00     0.027 A 
ATOM     13  C   UNL A   1      29.828  26.238  24.342  1.00  0.00     0.002 A 
ATOM     14  C   UNL A   1      32.059  26.870  23.723  1.00  0.00     0.018 A 
ATOM     15  C   UNL A   1      30.833  27.194  24.297  1.00  0.00     0.001 A 
BRANCH  11  16
ATOM     16  N   UNL A   1      31.376  23.242  22.870  1.00  0.00    -0.321 N 
ATOM     17  O   UNL A   1      32.091  21.106  22.742  1.00  0.00    -0.269 OA
ATOM     18  C   UNL A   1      31.937  22.116  23.428  1.00  0.00     0.255 C 
ATOM     19  H   UNL A   1      30.937  23.070  22.005  1.00  0.00     0.170 HD
BRANCH  18  20
ATOM     20  C   UNL A   1      32.298  22.057  24.862  1.00  0.00     0.043 A 
ATOM     21  C   UNL A   1      33.406  21.292  25.224  1.00  0.00     0.034 A 
ATOM     22  C   UNL A   1      31.605  22.782  25.828  1.00  0.00     0.034 A 
ATOM     23  C   UNL A   1      33.857  21.393  26.526  1.00  0.00     0.112 A 
ATOM     24  C   UNL A   1      32.143  22.821  27.101  1.00  0.00     0.112 A 
ATOM     25  N   UNL A   1      33.256  22.150  27.466  1.00  0.00    -0.265 NA
ENDBRANCH  18  20
ENDBRANCH  11  16
ENDBRANCH   8  10
ENDBRANCH   7   8
ENDBRANCH   6   7
ENDBRANCH   5   6
ENDBRANCH   4   5
ENDBRANCH   3   4
ENDBRANCH   2   3
ENDBRANCH   1   2
BRANCH   1  26
ATOM     26  C   UNL A   1      40.888  21.277  27.114  1.00  0.00     0.188 C 
BRANCH  26  27
ATOM     27  C   UNL A   1      42.414  21.133  26.941  1.00  0.00     0.188 C 
BRANCH  27  28
ATOM     28  O   UNL A   1      42.830  21.035  25.594  1.00  0.00    -0.376 OA
BRANCH  28  29
ATOM     29  C   UNL A   1      44.061  21.597  25.192  1.00  0.00     0.202 C 
BRANCH  29  30
ATOM     30  C   UNL A   1      44.142  22.837  24.289  1.00  0.00     0.261 C 
BRANCH  30  31
ATOM     31  O   UNL A   1      43.508  24.039  24.739  1.00  0.00    -0.460 OA
BRANCH  31  32
ATOM     32  C   UNL A   1      44.297  25.045  25.161  1.00  0.00     0.338 C 
ATOM     33  O   UNL A   1      45.377  25.387  24.705  1.00  0.00    -0.246 OA
BRANCH  32  34
ATOM     34  C   UNL A   1      43.534  25.792  26.180  1.00  0.00     0.060 A 
ATOM     35  C   UNL A   1      43.796  27.156  26.375  1.00  0.00     0.016 A 
ATOM     36  C   UNL A   1      42.556  25.142  26.933  1.00  0.00     0.016 A 
ATOM     37  C   UNL A   1      43.101  27.865  27.354  1.00  0.00     0.010 A 
ATOM     38  C   UNL A   1      41.880  25.845  27.932  1.00  0.00     0.010 A 
ATOM     39  C   UNL A   1      42.180  27.198  28.171  1.00  0.00    -0.014 A 
BRANCH  39  40
ATOM     40  C   UNL A   1      41.704  27.844  29.414  1.00  0.00     0.031 A 
ATOM     41  C   UNL A   1      40.441  28.656  29.345  1.00  0.00     0.074 A 
ATOM     42  C   UNL A   1      42.367  27.711  30.574  1.00  0.00     0.049 A 
ATOM     43  N   UNL A   1      39.863  29.383  30.265  1.00  0.00    -0.248 NA
ATOM     44  C   UNL A   1      39.740  28.651  28.051  1.00  0.00     0.031 C 
ATOM     45  C   UNL A   1      43.577  26.920  30.770  1.00  0.00     0.029 A 
ATOM     46  N   UNL A   1      42.116  28.264  31.806  1.00  0.00    -0.354 N 
ATOM     47  C   UNL A   1      38.740  29.930  29.658  1.00  0.00     0.074 A 
ATOM     48  C   UNL A   1      38.737  29.482  28.283  1.00  0.00     0.031 C 
ATOM     49  C   UNL A   1      43.983  27.059  32.044  1.00  0.00     0.029 A 
ATOM     50  C   UNL A   1      43.081  27.978  32.738  1.00  0.00     0.049 A 
ATOM     51  H   UNL A   1      41.321  28.812  32.001  1.00  0.00     0.167 HD
ATOM     52  C   UNL A   1      37.793  30.730  30.202  1.00  0.00     0.037 A 
ATOM     53  C   UNL A   1      43.232  28.438  33.994  1.00  0.00     0.037 A 
ATOM     54  C   UNL A   1      37.812  31.180  31.569  1.00  0.00     0.049 A 
ATOM     55  C   UNL A   1      42.207  29.386  34.562  1.00  0.00     0.074 A 
ATOM     56  C   UNL A   1      36.894  31.977  32.229  1.00  0.00     0.029 A 
ATOM     57  N   UNL A   1      38.815  30.884  32.482  1.00  0.00    -0.354 N 
ATOM     58  N   UNL A   1      41.130  29.880  33.997  1.00  0.00    -0.248 NA
ATOM     59  C   UNL A   1      42.414  29.839  35.945  1.00  0.00     0.031 C 
ATOM     60  C   UNL A   1      37.375  32.218  33.521  1.00  0.00     0.029 A 
ATOM     61  C   UNL A   1      38.555  31.509  33.691  1.00  0.00     0.049 A 
ATOM     62  H   UNL A   1      39.595  30.311  32.299  1.00  0.00     0.167 HD
ATOM     63  C   UNL A   1      40.521  30.677  34.959  1.00  0.00     0.074 A 
ATOM     64  C   UNL A   1      41.340  30.588  36.150  1.00  0.00     0.031 C 
ATOM     65  C   UNL A   1      39.383  31.412  34.868  1.00  0.00     0.037 A 
BRANCH  52  66
ATOM     66  C   UNL A   1      36.690  31.202  29.299  1.00  0.00     0.064 A 
ATOM     67  C   UNL A   1      36.625  32.523  28.830  1.00  0.00     0.173 A 
ATOM     68  C   UNL A   1      35.675  30.317  28.902  1.00  0.00     0.173 A 
ATOM     69  F   UNL A   1      37.560  33.415  29.192  1.00  0.00    -0.203 F 
ATOM     70  C   UNL A   1      35.565  32.952  28.034  1.00  0.00     0.198 A 
ATOM     71  C   UNL A   1      34.637  30.739  28.074  1.00  0.00     0.198 A 
ATOM     72  F   UNL A   1      35.686  29.042  29.317  1.00  0.00    -0.203 F 
ATOM     73  F   UNL A   1      35.489  34.235  27.657  1.00  0.00    -0.200 F 
ATOM     74  C   UNL A   1      34.576  32.058  27.652  1.00  0.00     0.200 A 
ATOM     75  F   UNL A   1      33.690  29.870  27.694  1.00  0.00    -0.200 F 
ATOM     76  F   UNL A   1      33.557  32.472  26.887  1.00  0.00    -0.200 F 
ENDBRANCH  52  66
BRANCH  53  77
ATOM     77  C   UNL A   1      44.418  28.025  34.790  1.00  0.00     0.064 A 
ATOM     78  C   UNL A   1      44.405  26.858  35.567  1.00  0.00     0.173 A 
ATOM     79  C   UNL A   1      45.593  28.794  34.789  1.00  0.00     0.173 A 
ATOM     80  F   UNL A   1      43.297  26.105  35.624  1.00  0.00    -0.203 F 
ATOM     81  C   UNL A   1      45.515  26.484  36.322  1.00  0.00     0.198 A 
ATOM     82  C   UNL A   1      46.712  28.401  35.519  1.00  0.00     0.198 A 
ATOM     83  F   UNL A   1      45.656  29.922  34.067  1.00  0.00    -0.203 F 
ATOM     84  F   UNL A   1      45.459  25.389  37.092  1.00  0.00    -0.200 F 
ATOM     85  C   UNL A   1      46.671  27.250  36.290  1.00  0.00     0.200 A 
ATOM     86  F   UNL A   1      47.829  29.140  35.478  1.00  0.00    -0.200 F 
ATOM     87  F   UNL A   1      47.740  26.884  37.011  1.00  0.00    -0.200 F 
ENDBRANCH  53  77
BRANCH  65  88
ATOM     88  C   UNL A   1      38.934  32.151  36.098  1.00  0.00     0.064 A 
ATOM     89  C   UNL A   1      38.165  31.534  37.095  1.00  0.00     0.173 A 
ATOM     90  C   UNL A   1      39.322  33.485  36.303  1.00  0.00     0.173 A 
ATOM     91  F   UNL A   1      37.757  30.265  36.944  1.00  0.00    -0.203 F 
ATOM     92  C   UNL A   1      37.777  32.232  38.236  1.00  0.00     0.198 A 
ATOM     93  C   UNL A   1      38.963  34.168  37.462  1.00  0.00     0.198 A 
ATOM     94  F   UNL A   1      40.067  34.122  35.387  1.00  0.00    -0.203 F 
ATOM     95  F   UNL A   1      36.997  31.638  39.151  1.00  0.00    -0.200 F 
ATOM     96  C   UNL A   1      38.184  33.545  38.423  1.00  0.00     0.200 A 
ATOM     97  F   UNL A   1      39.374  35.431  37.648  1.00  0.00    -0.200 F 
ATOM     98  F   UNL A   1      37.818  34.212  39.526  1.00  0.00    -0.200 F 
ENDBRANCH  65  88
ENDBRANCH  39  40
ENDBRANCH  32  34
ENDBRANCH  31  32
ENDBRANCH  30  31
ENDBRANCH  29  30
ENDBRANCH  28  29
ENDBRANCH  27  28
ENDBRANCH  26  27
ENDBRANCH   1  26
TORSDOF 22
ENDMDL
MODEL 3
REMARK VINA RESULT:      -9.9      5.392     10.880
REMARK SMILES O=C(Nc1ccccc1C(=O)OCCOCCOCCOCCOC(=O)c1ccc(-c2c3nc(c(-c4c(F)c(F)c(F)c(F)c4F)c4ccc([nH]4)c(-c4c(F)c(F)c(F)c(F)c4F)c4nc(c(-c5c(F)c(F)c(F)c(F)c5F)c5ccc2[nH]5)C=C4)C=C3)cc1)c1ccncc1
REMARK SMILES IDX 18 1 17 2 16 3 15 4 14 5 13 6 12 7 10 8 11 9 9 10 4 11 5 12
REMARK SMILES IDX 6 13 8 14 7 15 3 16 1 17 2 18 90 20 91 21 95 22 92 23 94 24
REMARK SMILES IDX 93 25 19 26 20 27 21 28 22 29 23 30 24 31 25 32 26 33 27 34
REMARK SMILES IDX 28 35 89 36 29 37 88 38 30 39 31 40 32 41 82 42 33 43 87 44
REMARK SMILES IDX 81 45 83 46 34 47 86 48 80 49 79 50 35 52 67 53 47 54 66 55
REMARK SMILES IDX 48 56 51 57 65 58 84 59 49 60 50 61 64 63 85 64 52 65 36 66
REMARK SMILES IDX 37 67 45 68 38 69 39 70 43 71 46 72 40 73 41 74 44 75 42 76
REMARK SMILES IDX 68 77 69 78 77 79 70 80 71 81 75 82 78 83 72 84 73 85 76 86
REMARK SMILES IDX 74 87 53 88 54 89 62 90 55 91 56 92 60 93 63 94 57 95 58 96
REMARK SMILES IDX 61 97 59 98
REMARK H PARENT 3 19 83 51 51 62
REMARK Flexibility Score: inf
ROOT
ATOM      1  O   UNL A   1      32.173  28.229  25.345  1.00  0.00    -0.377 OA
ENDROOT
BRANCH   1   2
ATOM      2  C   UNL A   1      33.034  27.172  24.933  1.00  0.00     0.188 C 
BRANCH   2   3
ATOM      3  C   UNL A   1      32.713  26.166  23.795  1.00  0.00     0.188 C 
BRANCH   3   4
ATOM      4  O   UNL A   1      31.351  26.007  23.480  1.00  0.00    -0.376 OA
BRANCH   4   5
ATOM      5  C   UNL A   1      30.530  25.088  24.155  1.00  0.00     0.202 C 
BRANCH   5   6
ATOM      6  C   UNL A   1      30.380  25.121  25.674  1.00  0.00     0.261 C 
BRANCH   6   7
ATOM      7  O   UNL A   1      31.387  24.469  26.448  1.00  0.00    -0.460 OA
BRANCH   7   8
ATOM      8  C   UNL A   1      31.618  23.172  26.144  1.00  0.00     0.340 C 
ATOM      9  O   UNL A   1      30.785  22.281  26.129  1.00  0.00    -0.246 OA
BRANCH   8  10
ATOM     10  C   UNL A   1      33.004  23.001  25.641  1.00  0.00     0.083 A 
ATOM     11  C   UNL A   1      33.388  22.338  24.457  1.00  0.00     0.056 A 
ATOM     12  C   UNL A   1      34.760  22.091  24.255  1.00  0.00     0.027 A 
ATOM     13  C   UNL A   1      35.728  22.544  25.157  1.00  0.00     0.002 A 
ATOM     14  C   UNL A   1      33.992  23.458  26.540  1.00  0.00     0.018 A 
ATOM     15  C   UNL A   1      35.344  23.236  26.297  1.00  0.00     0.001 A 
BRANCH  11  16
ATOM     16  N   UNL A   1      32.558  21.866  23.414  1.00  0.00    -0.321 N 
ATOM     17  O   UNL A   1      31.738  20.505  21.813  1.00  0.00    -0.269 OA
ATOM     18  C   UNL A   1      32.309  20.615  22.898  1.00  0.00     0.255 C 
ATOM     19  H   UNL A   1      32.054  22.582  22.962  1.00  0.00     0.170 HD
BRANCH  18  20
ATOM     20  C   UNL A   1      32.644  19.384  23.648  1.00  0.00     0.043 A 
ATOM     21  C   UNL A   1      32.493  19.403  25.034  1.00  0.00     0.034 A 
ATOM     22  C   UNL A   1      33.041  18.214  23.006  1.00  0.00     0.034 A 
ATOM     23  C   UNL A   1      32.618  18.205  25.708  1.00  0.00     0.112 A 
ATOM     24  C   UNL A   1      33.133  17.068  23.772  1.00  0.00     0.112 A 
ATOM     25  N   UNL A   1      32.921  17.037  25.105  1.00  0.00    -0.265 NA
ENDBRANCH  18  20
ENDBRANCH  11  16
ENDBRANCH   8  10
ENDBRANCH   7   8
ENDBRANCH   6   7
ENDBRANCH   5   6
ENDBRANCH   4   5
ENDBRANCH   3   4
ENDBRANCH   2   3
ENDBRANCH   1   2
BRANCH   1  26
ATOM     26  C   UNL A   1      32.580  29.584  25.249  1.00  0.00     0.188 C 
BRANCH  26  27
ATOM     27  C   UNL A   1      32.363  30.505  26.466  1.00  0.00     0.188 C 
BRANCH  27  28
ATOM     28  O   UNL A   1      33.556  30.851  27.141  1.00  0.00    -0.376 OA
BRANCH  28  29
ATOM     29  C   UNL A   1      33.614  32.029  27.917  1.00  0.00     0.202 C 
BRANCH  29  30
ATOM     30  C   UNL A   1      32.917  33.330  27.487  1.00  0.00     0.261 C 
BRANCH  30  31
ATOM     31  O   UNL A   1      32.414  34.194  28.512  1.00  0.00    -0.460 OA
BRANCH  31  32
ATOM     32  C   UNL A   1      33.180  35.236  28.885  1.00  0.00     0.338 C 
ATOM     33  O   UNL A   1      32.927  36.426  28.773  1.00  0.00    -0.246 OA
BRANCH  32  34
ATOM     34  C   UNL A   1      34.326  34.683  29.633  1.00  0.00     0.060 A 
ATOM     35  C   UNL A   1      35.609  34.734  29.068  1.00  0.00     0.016 A 
ATOM     36  C   UNL A   1      34.128  34.124  30.896  1.00  0.00     0.016 A 
ATOM     37  C   UNL A   1      36.694  34.190  29.753  1.00  0.00     0.010 A 
ATOM     38  C   UNL A   1      35.210  33.553  31.570  1.00  0.00     0.010 A 
ATOM     39  C   UNL A   1      36.487  33.550  30.982  1.00  0.00    -0.014 A 
BRANCH  39  40
ATOM     40  C   UNL A   1      37.547  32.682  31.540  1.00  0.00     0.031 A 
ATOM     41  C   UNL A   1      38.093  33.024  32.898  1.00  0.00     0.074 A 
ATOM     42  C   UNL A   1      38.010  31.615  30.868  1.00  0.00     0.049 A 
ATOM     43  N   UNL A   1      39.074  32.476  33.568  1.00  0.00    -0.248 NA
ATOM     44  C   UNL A   1      37.445  34.149  33.590  1.00  0.00     0.031 C 
ATOM     45  C   UNL A   1      37.530  31.165  29.566  1.00  0.00     0.029 A 
ATOM     46  N   UNL A   1      39.007  30.729  31.191  1.00  0.00    -0.354 N 
ATOM     47  C   UNL A   1      39.167  33.197  34.751  1.00  0.00     0.074 A 
ATOM     48  C   UNL A   1      38.170  34.243  34.693  1.00  0.00     0.031 C 
ATOM     49  C   UNL A   1      38.255  30.099  29.184  1.00  0.00     0.029 A 
ATOM     50  C   UNL A   1      39.270  29.820  30.199  1.00  0.00     0.049 A 
ATOM     51  H   UNL A   1      39.488  30.746  32.051  1.00  0.00     0.167 HD
ATOM     52  C   UNL A   1      40.006  32.999  35.795  1.00  0.00     0.037 A 
ATOM     53  C   UNL A   1      40.243  28.893  30.111  1.00  0.00     0.037 A 
ATOM     54  C   UNL A   1      41.002  31.961  35.837  1.00  0.00     0.049 A 
ATOM     55  C   UNL A   1      41.216  28.733  31.252  1.00  0.00     0.074 A 
ATOM     56  C   UNL A   1      41.892  31.659  36.852  1.00  0.00     0.029 A 
ATOM     57  N   UNL A   1      41.251  31.066  34.806  1.00  0.00    -0.354 N 
ATOM     58  N   UNL A   1      41.285  29.395  32.383  1.00  0.00    -0.248 NA
ATOM     59  C   UNL A   1      42.244  27.692  31.108  1.00  0.00     0.031 C 
ATOM     60  C   UNL A   1      42.723  30.625  36.409  1.00  0.00     0.029 A 
ATOM     61  C   UNL A   1      42.304  30.231  35.148  1.00  0.00     0.049 A 
ATOM     62  H   UNL A   1      40.753  31.027  33.958  1.00  0.00     0.167 HD
ATOM     63  C   UNL A   1      42.342  28.837  33.093  1.00  0.00     0.074 A 
ATOM     64  C   UNL A   1      42.875  27.771  32.271  1.00  0.00     0.031 C 
ATOM     65  C   UNL A   1      42.825  29.174  34.316  1.00  0.00     0.037 A 
BRANCH  52  66
ATOM     66  C   UNL A   1      39.906  33.955  36.949  1.00  0.00     0.064 A 
ATOM     67  C   UNL A   1      39.086  33.699  38.059  1.00  0.00     0.173 A 
ATOM     68  C   UNL A   1      40.639  35.152  36.941  1.00  0.00     0.173 A 
ATOM     69  F   UNL A   1      38.350  32.577  38.111  1.00  0.00    -0.203 F 
ATOM     70  C   UNL A   1      38.970  34.622  39.095  1.00  0.00     0.198 A 
ATOM     71  C   UNL A   1      40.550  36.056  37.996  1.00  0.00     0.198 A 
ATOM     72  F   UNL A   1      41.441  35.448  35.907  1.00  0.00    -0.203 F 
ATOM     73  F   UNL A   1      38.127  34.387  40.109  1.00  0.00    -0.200 F 
ATOM     74  C   UNL A   1      39.706  35.797  39.065  1.00  0.00     0.200 A 
ATOM     75  F   UNL A   1      41.274  37.183  37.973  1.00  0.00    -0.200 F 
ATOM     76  F   UNL A   1      39.594  36.685  40.063  1.00  0.00    -0.200 F 
ENDBRANCH  52  66
BRANCH  53  77
ATOM     77  C   UNL A   1      40.359  28.063  28.883  1.00  0.00     0.064 A 
ATOM     78  C   UNL A   1      41.119  28.488  27.785  1.00  0.00     0.173 A 
ATOM     79  C   UNL A   1      39.710  26.822  28.785  1.00  0.00     0.173 A 
ATOM     80  F   UNL A   1      41.735  29.679  27.818  1.00  0.00    -0.203 F 
ATOM     81  C   UNL A   1      41.213  27.711  26.631  1.00  0.00     0.198 A 
ATOM     82  C   UNL A   1      39.831  26.033  27.644  1.00  0.00     0.198 A 
ATOM     83  F   UNL A   1      38.966  26.371  29.806  1.00  0.00    -0.203 F 
ATOM     84  F   UNL A   1      41.907  28.164  25.578  1.00  0.00    -0.200 F 
ATOM     85  C   UNL A   1      40.577  26.481  26.564  1.00  0.00     0.200 A 
ATOM     86  F   UNL A   1      39.222  24.841  27.589  1.00  0.00    -0.200 F 
ATOM     87  F   UNL A   1      40.675  25.733  25.457  1.00  0.00    -0.200 F 
ENDBRANCH  53  77
BRANCH  65  88
ATOM     88  C   UNL A   1      43.965  28.358  34.860  1.00  0.00     0.064 A 
ATOM     89  C   UNL A   1      43.752  27.189  35.604  1.00  0.00     0.173 A 
ATOM     90  C   UNL A   1      45.292  28.729  34.588  1.00  0.00     0.173 A 
ATOM     91  F   UNL A   1      42.505  26.796  35.902  1.00  0.00    -0.203 F 
ATOM     92  C   UNL A   1      44.824  26.438  36.081  1.00  0.00     0.198 A 
ATOM     93  C   UNL A   1      46.360  27.956  35.036  1.00  0.00     0.198 A 
ATOM     94  F   UNL A   1      45.554  29.833  33.872  1.00  0.00    -0.203 F 
ATOM     95  F   UNL A   1      44.597  25.353  36.836  1.00  0.00    -0.200 F 
ATOM     96  C   UNL A   1      46.126  26.816  35.789  1.00  0.00     0.200 A 
ATOM     97  F   UNL A   1      47.617  28.315  34.736  1.00  0.00    -0.200 F 
ATOM     98  F   UNL A   1      47.156  26.088  36.241  1.00  0.00    -0.200 F 
ENDBRANCH  65  88
ENDBRANCH  39  40
ENDBRANCH  32  34
ENDBRANCH  31  32
ENDBRANCH  30  31
ENDBRANCH  29  30
ENDBRANCH  28  29
ENDBRANCH  27  28
ENDBRANCH  26  27
ENDBRANCH   1  26
TORSDOF 22
ENDMDL
