MODEL 1
REMARK VINA RESULT:     -11.2      0.000      0.000
REMARK SMILES CCN1C(OCCOCCOCCOCCOC(=O)c2ccc(-c3c4nc(c(-c5c(F)c(F)c(F)c(F)c5F)c5ccc([nH]5)c(-c5c(F)c(F)c(F)c(F)c5F)c5nc(c(-c6c(F)c(F)c(F)c(F)c6F)c6ccc3[nH]6)C=C5)C=C4)cc2)=[NH+]C(O)=C2C1=[NH+]C1=C(C(=O)c3ccccc31)[C@H]2c1ccc(C(=O)[O-])cc1
REMARK SMILES IDX 12 1 11 2 10 3 9 4 8 5 7 6 6 7 5 8 4 9 3 10 87 11 83 12
REMARK SMILES IDX 86 13 88 14 84 15 99 17 89 18 90 20 98 21 91 22 93 23 97 24
REMARK SMILES IDX 92 25 94 26 96 27 95 28 2 29 1 30 85 31 100 33 101 34 108 35
REMARK SMILES IDX 102 36 107 37 103 38 104 39 105 40 106 41 13 42 14 43 15 44
REMARK SMILES IDX 16 45 17 46 18 47 19 48 20 49 21 50 82 51 22 52 81 53 23 54
REMARK SMILES IDX 24 55 25 56 75 57 26 58 80 59 74 60 76 61 27 62 79 63 73 64
REMARK SMILES IDX 72 65 28 67 60 68 40 69 59 70 41 71 44 72 58 73 77 74 42 75
REMARK SMILES IDX 43 76 57 78 78 79 45 80 29 81 30 82 38 83 31 84 32 85 36 86
REMARK SMILES IDX 39 87 33 88 34 89 37 90 35 91 61 92 62 93 70 94 63 95 64 96
REMARK SMILES IDX 68 97 71 98 65 99 66 100 69 101 67 102 46 103 47 104 55 105
REMARK SMILES IDX 48 106 49 107 53 108 56 109 50 110 51 111 54 112 52 113
REMARK H PARENT 83 16 88 19 85 32 76 66 44 77
REMARK Flexibility Score: inf
ROOT
ATOM      1  C   UNL A   1      38.747  20.214  25.223  1.00  0.00     0.188 C 
ENDROOT
BRANCH   1   2
ATOM      2  O   UNL A   1      37.403  19.762  25.351  1.00  0.00    -0.377 OA
BRANCH   2   3
ATOM      3  C   UNL A   1      37.092  18.443  24.917  1.00  0.00     0.188 C 
BRANCH   3   4
ATOM      4  C   UNL A   1      35.619  18.107  24.629  1.00  0.00     0.188 C 
BRANCH   4   5
ATOM      5  O   UNL A   1      35.263  16.790  25.003  1.00  0.00    -0.376 OA
BRANCH   5   6
ATOM      6  C   UNL A   1      33.890  16.405  24.982  1.00  0.00     0.202 C 
BRANCH   6   7
ATOM      7  C   UNL A   1      32.847  17.305  24.265  1.00  0.00     0.266 C 
BRANCH   7   8
ATOM      8  O   UNL A   1      32.405  18.441  25.049  1.00  0.00    -0.428 OA
BRANCH   8   9
ATOM      9  C   UNL A   1      32.188  19.638  24.442  1.00  0.00     0.460 C 
ATOM     10  N   UNL A   1      32.510  20.769  25.205  1.00  0.00    -0.159 N 
ATOM     11  C   UNL A   1      32.277  21.957  24.470  1.00  0.00     0.297 C 
ATOM     12  N   UNL A   1      31.816  19.717  23.190  1.00  0.00    -0.176 N 
ATOM     13  C   UNL A   1      32.947  21.829  23.146  1.00  0.00     0.139 C 
ATOM     14  N   UNL A   1      31.531  23.038  24.671  1.00  0.00    -0.239 N 
ATOM     15  C   UNL A   1      32.127  20.927  22.573  1.00  0.00     0.295 C 
ATOM     16  H   UNL A   1      31.357  18.983  22.722  1.00  0.00     0.319 HD
ATOM     17  C   UNL A   1      33.737  23.059  22.841  1.00  0.00     0.104 C 
ATOM     18  C   UNL A   1      31.668  24.064  23.695  1.00  0.00     0.141 C 
ATOM     19  H   UNL A   1      30.925  23.122  25.443  1.00  0.00     0.312 HD
ATOM     20  C   UNL A   1      32.762  24.141  22.911  1.00  0.00     0.060 C 
ATOM     21  C   UNL A   1      31.039  25.391  23.591  1.00  0.00     0.033 A 
ATOM     22  C   UNL A   1      33.062  25.506  22.495  1.00  0.00     0.195 C 
ATOM     23  C   UNL A   1      31.946  26.280  22.996  1.00  0.00     0.034 A 
ATOM     24  C   UNL A   1      29.759  25.862  23.805  1.00  0.00     0.013 A 
ATOM     25  O   UNL A   1      34.033  25.895  21.907  1.00  0.00    -0.289 OA
ATOM     26  C   UNL A   1      31.747  27.627  22.773  1.00  0.00     0.013 A 
ATOM     27  C   UNL A   1      29.479  27.214  23.497  1.00  0.00     0.001 A 
ATOM     28  C   UNL A   1      30.475  28.100  23.036  1.00  0.00     0.001 A 
BRANCH  10  29
ATOM     29  C   UNL A   1      33.838  20.773  25.904  1.00  0.00     0.247 C 
ATOM     30  C   UNL A   1      33.987  21.467  27.244  1.00  0.00     0.055 C 
ENDBRANCH  10  29
BRANCH  15  31
ATOM     31  O   UNL A   1      31.669  21.081  21.296  1.00  0.00    -0.477 OA
ATOM     32  H   UNL A   1      31.644  21.933  20.907  1.00  0.00     0.297 HD
ENDBRANCH  15  31
BRANCH  17  33
ATOM     33  C   UNL A   1      34.853  23.326  23.903  1.00  0.00    -0.035 A 
ATOM     34  C   UNL A   1      36.144  22.744  23.766  1.00  0.00     0.005 A 
ATOM     35  C   UNL A   1      34.654  24.180  24.991  1.00  0.00     0.005 A 
ATOM     36  C   UNL A   1      37.201  23.045  24.613  1.00  0.00     0.010 A 
ATOM     37  C   UNL A   1      35.718  24.466  25.871  1.00  0.00     0.010 A 
ATOM     38  C   UNL A   1      36.996  23.918  25.668  1.00  0.00    -0.003 A 
BRANCH  38  39
ATOM     39  C   UNL A   1      38.175  24.225  26.504  1.00  0.00     0.071 C 
ATOM     40  O   UNL A   1      38.538  25.340  26.835  1.00  0.00    -0.545 OA
ATOM     41  O   UNL A   1      38.845  23.131  26.892  1.00  0.00    -0.545 OA
ENDBRANCH  38  39
ENDBRANCH  17  33
ENDBRANCH   8   9
ENDBRANCH   7   8
ENDBRANCH   6   7
ENDBRANCH   5   6
ENDBRANCH   4   5
ENDBRANCH   3   4
ENDBRANCH   2   3
ENDBRANCH   1   2
BRANCH   1  42
ATOM     42  C   UNL A   1      39.891  19.464  25.938  1.00  0.00     0.188 C 
BRANCH  42  43
ATOM     43  O   UNL A   1      40.751  20.287  26.701  1.00  0.00    -0.376 OA
BRANCH  43  44
ATOM     44  C   UNL A   1      41.325  21.408  26.047  1.00  0.00     0.202 C 
BRANCH  44  45
ATOM     45  C   UNL A   1      42.839  21.432  25.761  1.00  0.00     0.261 C 
BRANCH  45  46
ATOM     46  O   UNL A   1      43.615  22.492  26.346  1.00  0.00    -0.460 OA
BRANCH  46  47
ATOM     47  C   UNL A   1      43.564  23.726  25.800  1.00  0.00     0.338 C 
ATOM     48  O   UNL A   1      43.541  24.004  24.616  1.00  0.00    -0.246 OA
BRANCH  47  49
ATOM     49  C   UNL A   1      43.306  24.685  26.909  1.00  0.00     0.060 A 
ATOM     50  C   UNL A   1      43.886  25.957  26.905  1.00  0.00     0.016 A 
ATOM     51  C   UNL A   1      42.550  24.268  28.016  1.00  0.00     0.016 A 
ATOM     52  C   UNL A   1      43.671  26.823  27.985  1.00  0.00     0.010 A 
ATOM     53  C   UNL A   1      42.351  25.128  29.103  1.00  0.00     0.010 A 
ATOM     54  C   UNL A   1      42.880  26.427  29.081  1.00  0.00    -0.014 A 
BRANCH  54  55
ATOM     55  C   UNL A   1      42.416  27.443  30.064  1.00  0.00     0.031 A 
ATOM     56  C   UNL A   1      41.186  28.278  29.869  1.00  0.00     0.074 A 
ATOM     57  C   UNL A   1      43.168  27.613  31.169  1.00  0.00     0.049 A 
ATOM     58  N   UNL A   1      40.639  29.136  30.696  1.00  0.00    -0.248 NA
ATOM     59  C   UNL A   1      40.485  28.147  28.587  1.00  0.00     0.031 C 
ATOM     60  C   UNL A   1      44.410  26.892  31.446  1.00  0.00     0.029 A 
ATOM     61  N   UNL A   1      43.003  28.426  32.261  1.00  0.00    -0.354 N 
ATOM     62  C   UNL A   1      39.515  29.630  30.050  1.00  0.00     0.074 A 
ATOM     63  C   UNL A   1      39.489  29.015  28.737  1.00  0.00     0.031 C 
ATOM     64  C   UNL A   1      44.874  27.263  32.647  1.00  0.00     0.029 A 
ATOM     65  C   UNL A   1      43.982  28.271  33.212  1.00  0.00     0.049 A 
ATOM     66  H   UNL A   1      42.255  29.060  32.355  1.00  0.00     0.167 HD
ATOM     67  C   UNL A   1      38.584  30.500  30.521  1.00  0.00     0.037 A 
ATOM     68  C   UNL A   1      44.145  28.863  34.409  1.00  0.00     0.037 A 
ATOM     69  C   UNL A   1      38.631  31.125  31.824  1.00  0.00     0.049 A 
ATOM     70  C   UNL A   1      43.124  29.854  34.887  1.00  0.00     0.074 A 
ATOM     71  C   UNL A   1      37.711  31.986  32.401  1.00  0.00     0.029 A 
ATOM     72  N   UNL A   1      39.659  30.974  32.745  1.00  0.00    -0.354 N 
ATOM     73  N   UNL A   1      42.017  30.244  34.305  1.00  0.00    -0.248 NA
ATOM     74  C   UNL A   1      43.370  30.482  36.193  1.00  0.00     0.031 C 
ATOM     75  C   UNL A   1      38.209  32.403  33.638  1.00  0.00     0.029 A 
ATOM     76  C   UNL A   1      39.410  31.753  33.867  1.00  0.00     0.049 A 
ATOM     77  H   UNL A   1      40.448  30.399  32.621  1.00  0.00     0.167 HD
ATOM     78  C   UNL A   1      41.423  31.145  35.178  1.00  0.00     0.074 A 
ATOM     79  C   UNL A   1      42.283  31.229  36.341  1.00  0.00     0.031 C 
ATOM     80  C   UNL A   1      40.269  31.839  35.024  1.00  0.00     0.037 A 
BRANCH  67  81
ATOM     81  C   UNL A   1      37.412  30.829  29.638  1.00  0.00     0.064 A 
ATOM     82  C   UNL A   1      37.339  32.049  28.950  1.00  0.00     0.173 A 
ATOM     83  C   UNL A   1      36.404  29.882  29.394  1.00  0.00     0.173 A 
ATOM     84  F   UNL A   1      38.276  32.989  29.141  1.00  0.00    -0.203 F 
ATOM     85  C   UNL A   1      36.292  32.317  28.069  1.00  0.00     0.198 A 
ATOM     86  C   UNL A   1      35.377  30.140  28.489  1.00  0.00     0.198 A 
ATOM     87  F   UNL A   1      36.432  28.689  30.010  1.00  0.00    -0.203 F 
ATOM     88  F   UNL A   1      36.228  33.502  27.447  1.00  0.00    -0.200 F 
ATOM     89  C   UNL A   1      35.318  31.359  27.831  1.00  0.00     0.200 A 
ATOM     90  F   UNL A   1      34.449  29.204  28.245  1.00  0.00    -0.200 F 
ATOM     91  F   UNL A   1      34.324  31.611  26.969  1.00  0.00    -0.200 F 
ENDBRANCH  67  81
BRANCH  68  92
ATOM     92  C   UNL A   1      45.307  28.483  35.253  1.00  0.00     0.064 A 
ATOM     93  C   UNL A   1      46.494  29.227  35.215  1.00  0.00     0.173 A 
ATOM     94  C   UNL A   1      45.240  27.403  36.146  1.00  0.00     0.173 A 
ATOM     95  F   UNL A   1      46.611  30.259  34.366  1.00  0.00    -0.203 F 
ATOM     96  C   UNL A   1      47.573  28.902  36.035  1.00  0.00     0.198 A 
ATOM     97  C   UNL A   1      46.307  27.099  36.987  1.00  0.00     0.198 A 
ATOM     98  F   UNL A   1      44.123  26.666  36.225  1.00  0.00    -0.203 F 
ATOM     99  F   UNL A   1      48.707  29.611  35.957  1.00  0.00    -0.200 F 
ATOM    100  C   UNL A   1      47.475  27.846  36.927  1.00  0.00     0.200 A 
ATOM    101  F   UNL A   1      46.200  26.091  37.862  1.00  0.00    -0.200 F 
ATOM    102  F   UNL A   1      48.505  27.546  37.729  1.00  0.00    -0.200 F 
ENDBRANCH  68  92
BRANCH  80 103
ATOM    103  C   UNL A   1      39.850  32.753  36.141  1.00  0.00     0.064 A 
ATOM    104  C   UNL A   1      40.374  34.049  36.267  1.00  0.00     0.173 A 
ATOM    105  C   UNL A   1      38.862  32.356  37.057  1.00  0.00     0.173 A 
ATOM    106  F   UNL A   1      41.332  34.475  35.429  1.00  0.00    -0.203 F 
ATOM    107  C   UNL A   1      39.937  34.906  37.274  1.00  0.00     0.198 A 
ATOM    108  C   UNL A   1      38.404  33.227  38.042  1.00  0.00     0.198 A 
ATOM    109  F   UNL A   1      38.323  31.131  36.981  1.00  0.00    -0.203 F 
ATOM    110  F   UNL A   1      40.480  36.125  37.397  1.00  0.00    -0.200 F 
ATOM    111  C   UNL A   1      38.943  34.500  38.153  1.00  0.00     0.200 A 
ATOM    112  F   UNL A   1      37.432  32.838  38.879  1.00  0.00    -0.200 F 
ATOM    113  F   UNL A   1      38.509  35.333  39.108  1.00  0.00    -0.200 F 
ENDBRANCH  80 103
ENDBRANCH  54  55
ENDBRANCH  47  49
ENDBRANCH  46  47
ENDBRANCH  45  46
ENDBRANCH  44  45
ENDBRANCH  43  44
ENDBRANCH  42  43
ENDBRANCH   1  42
TORSDOF 23
ENDMDL
MODEL 2
REMARK VINA RESULT:     -10.5      6.506      8.863
REMARK SMILES CCN1C(OCCOCCOCCOCCOC(=O)c2ccc(-c3c4nc(c(-c5c(F)c(F)c(F)c(F)c5F)c5ccc([nH]5)c(-c5c(F)c(F)c(F)c(F)c5F)c5nc(c(-c6c(F)c(F)c(F)c(F)c6F)c6ccc3[nH]6)C=C5)C=C4)cc2)=[NH+]C(O)=C2C1=[NH+]C1=C(C(=O)c3ccccc31)[C@H]2c1ccc(C(=O)[O-])cc1
REMARK SMILES IDX 12 1 11 2 10 3 9 4 8 5 7 6 6 7 5 8 4 9 3 10 87 11 83 12
REMARK SMILES IDX 86 13 88 14 84 15 99 17 89 18 90 20 98 21 91 22 93 23 97 24
REMARK SMILES IDX 92 25 94 26 96 27 95 28 2 29 1 30 85 31 100 33 101 34 108 35
REMARK SMILES IDX 102 36 107 37 103 38 104 39 105 40 106 41 13 42 14 43 15 44
REMARK SMILES IDX 16 45 17 46 18 47 19 48 20 49 21 50 82 51 22 52 81 53 23 54
REMARK SMILES IDX 24 55 25 56 75 57 26 58 80 59 74 60 76 61 27 62 79 63 73 64
REMARK SMILES IDX 72 65 28 67 60 68 40 69 59 70 41 71 44 72 58 73 77 74 42 75
REMARK SMILES IDX 43 76 57 78 78 79 45 80 29 81 30 82 38 83 31 84 32 85 36 86
REMARK SMILES IDX 39 87 33 88 34 89 37 90 35 91 61 92 62 93 70 94 63 95 64 96
REMARK SMILES IDX 68 97 71 98 65 99 66 100 69 101 67 102 46 103 47 104 55 105
REMARK SMILES IDX 48 106 49 107 53 108 56 109 50 110 51 111 54 112 52 113
REMARK H PARENT 83 16 88 19 85 32 76 66 44 77
REMARK Flexibility Score: inf
ROOT
ATOM      1  C   UNL A   1      38.833  19.989  25.029  1.00  0.00     0.188 C 
ENDROOT
BRANCH   1   2
ATOM      2  O   UNL A   1      37.443  19.686  25.085  1.00  0.00    -0.377 OA
BRANCH   2   3
ATOM      3  C   UNL A   1      37.048  18.321  25.016  1.00  0.00     0.188 C 
BRANCH   3   4
ATOM      4  C   UNL A   1      35.602  18.009  24.597  1.00  0.00     0.188 C 
BRANCH   4   5
ATOM      5  O   UNL A   1      35.173  16.718  24.988  1.00  0.00    -0.376 OA
BRANCH   5   6
ATOM      6  C   UNL A   1      33.858  16.286  24.649  1.00  0.00     0.202 C 
BRANCH   6   7
ATOM      7  C   UNL A   1      32.903  17.246  23.888  1.00  0.00     0.266 C 
BRANCH   7   8
ATOM      8  O   UNL A   1      32.371  18.321  24.702  1.00  0.00    -0.428 OA
BRANCH   8   9
ATOM      9  C   UNL A   1      32.130  19.536  24.143  1.00  0.00     0.460 C 
ATOM     10  N   UNL A   1      32.445  20.643  24.945  1.00  0.00    -0.159 N 
ATOM     11  C   UNL A   1      32.188  21.854  24.258  1.00  0.00     0.297 C 
ATOM     12  N   UNL A   1      31.743  19.658  22.898  1.00  0.00    -0.176 N 
ATOM     13  C   UNL A   1      32.845  21.786  22.923  1.00  0.00     0.139 C 
ATOM     14  N   UNL A   1      31.429  22.915  24.508  1.00  0.00    -0.239 N 
ATOM     15  C   UNL A   1      32.030  20.894  22.325  1.00  0.00     0.295 C 
ATOM     16  H   UNL A   1      31.289  18.936  22.409  1.00  0.00     0.319 HD
ATOM     17  C   UNL A   1      33.614  23.037  22.656  1.00  0.00     0.104 C 
ATOM     18  C   UNL A   1      31.541  23.979  23.570  1.00  0.00     0.141 C 
ATOM     19  H   UNL A   1      30.831  22.962  25.289  1.00  0.00     0.312 HD
ATOM     20  C   UNL A   1      32.625  24.102  22.778  1.00  0.00     0.060 C 
ATOM     21  C   UNL A   1      30.893  25.300  23.523  1.00  0.00     0.033 A 
ATOM     22  C   UNL A   1      32.901  25.485  22.411  1.00  0.00     0.195 C 
ATOM     23  C   UNL A   1      31.781  26.224  22.952  1.00  0.00     0.034 A 
ATOM     24  C   UNL A   1      29.610  25.745  23.769  1.00  0.00     0.013 A 
ATOM     25  O   UNL A   1      33.861  25.910  21.827  1.00  0.00    -0.289 OA
ATOM     26  C   UNL A   1      31.561  27.575  22.783  1.00  0.00     0.013 A 
ATOM     27  C   UNL A   1      29.307  27.104  23.516  1.00  0.00     0.001 A 
ATOM     28  C   UNL A   1      30.286  28.021  23.078  1.00  0.00     0.001 A 
BRANCH  10  29
ATOM     29  C   UNL A   1      33.780  20.639  25.629  1.00  0.00     0.247 C 
ATOM     30  C   UNL A   1      33.949  21.333  26.967  1.00  0.00     0.055 C 
ENDBRANCH  10  29
BRANCH  15  31
ATOM     31  O   UNL A   1      31.556  21.090  21.060  1.00  0.00    -0.477 OA
ATOM     32  H   UNL A   1      31.657  21.925  20.646  1.00  0.00     0.297 HD
ENDBRANCH  15  31
BRANCH  17  33
ATOM     33  C   UNL A   1      34.738  23.280  23.715  1.00  0.00    -0.035 A 
ATOM     34  C   UNL A   1      36.012  22.658  23.583  1.00  0.00     0.005 A 
ATOM     35  C   UNL A   1      34.565  24.148  24.797  1.00  0.00     0.005 A 
ATOM     36  C   UNL A   1      37.077  22.934  24.427  1.00  0.00     0.010 A 
ATOM     37  C   UNL A   1      35.638  24.410  25.674  1.00  0.00     0.010 A 
ATOM     38  C   UNL A   1      36.898  23.822  25.475  1.00  0.00    -0.003 A 
BRANCH  38  39
ATOM     39  C   UNL A   1      38.087  24.101  26.308  1.00  0.00     0.071 C 
ATOM     40  O   UNL A   1      38.526  25.207  26.568  1.00  0.00    -0.545 OA
ATOM     41  O   UNL A   1      38.671  22.991  26.781  1.00  0.00    -0.545 OA
ENDBRANCH  38  39
ENDBRANCH  17  33
ENDBRANCH   8   9
ENDBRANCH   7   8
ENDBRANCH   6   7
ENDBRANCH   5   6
ENDBRANCH   4   5
ENDBRANCH   3   4
ENDBRANCH   2   3
ENDBRANCH   1   2
BRANCH   1  42
ATOM     42  C   UNL A   1      39.821  19.286  25.983  1.00  0.00     0.188 C 
BRANCH  42  43
ATOM     43  O   UNL A   1      40.487  20.148  26.884  1.00  0.00    -0.376 OA
BRANCH  43  44
ATOM     44  C   UNL A   1      41.205  21.239  26.328  1.00  0.00     0.202 C 
BRANCH  44  45
ATOM     45  C   UNL A   1      42.591  21.606  26.890  1.00  0.00     0.261 C 
BRANCH  45  46
ATOM     46  O   UNL A   1      42.640  22.380  28.101  1.00  0.00    -0.460 OA
BRANCH  46  47
ATOM     47  C   UNL A   1      42.095  23.616  28.117  1.00  0.00     0.338 C 
ATOM     48  O   UNL A   1      40.966  23.915  28.456  1.00  0.00    -0.246 OA
BRANCH  47  49
ATOM     49  C   UNL A   1      43.197  24.584  27.863  1.00  0.00     0.060 A 
ATOM     50  C   UNL A   1      43.635  24.844  26.561  1.00  0.00     0.016 A 
ATOM     51  C   UNL A   1      43.864  25.167  28.952  1.00  0.00     0.016 A 
ATOM     52  C   UNL A   1      44.708  25.720  26.350  1.00  0.00     0.010 A 
ATOM     53  C   UNL A   1      44.948  26.027  28.740  1.00  0.00     0.010 A 
ATOM     54  C   UNL A   1      45.357  26.340  27.436  1.00  0.00    -0.014 A 
BRANCH  54  55
ATOM     55  C   UNL A   1      46.281  27.481  27.191  1.00  0.00     0.031 A 
ATOM     56  C   UNL A   1      45.826  28.907  27.103  1.00  0.00     0.074 A 
ATOM     57  C   UNL A   1      47.586  27.188  27.029  1.00  0.00     0.049 A 
ATOM     58  N   UNL A   1      46.550  29.992  26.976  1.00  0.00    -0.248 NA
ATOM     59  C   UNL A   1      44.379  29.151  27.151  1.00  0.00     0.031 C 
ATOM     60  C   UNL A   1      48.140  25.834  27.048  1.00  0.00     0.029 A 
ATOM     61  N   UNL A   1      48.678  27.993  26.826  1.00  0.00    -0.354 N 
ATOM     62  C   UNL A   1      45.656  31.053  26.956  1.00  0.00     0.074 A 
ATOM     63  C   UNL A   1      44.328  30.474  27.028  1.00  0.00     0.031 C 
ATOM     64  C   UNL A   1      49.471  25.903  26.906  1.00  0.00     0.029 A 
ATOM     65  C   UNL A   1      49.861  27.301  26.753  1.00  0.00     0.049 A 
ATOM     66  H   UNL A   1      48.618  28.973  26.743  1.00  0.00     0.167 HD
ATOM     67  C   UNL A   1      45.924  32.382  26.902  1.00  0.00     0.037 A 
ATOM     68  C   UNL A   1      51.124  27.737  26.590  1.00  0.00     0.037 A 
ATOM     69  C   UNL A   1      47.251  32.948  26.807  1.00  0.00     0.049 A 
ATOM     70  C   UNL A   1      51.389  29.212  26.490  1.00  0.00     0.074 A 
ATOM     71  C   UNL A   1      47.620  34.284  26.790  1.00  0.00     0.029 A 
ATOM     72  N   UNL A   1      48.425  32.215  26.696  1.00  0.00    -0.354 N 
ATOM     73  N   UNL A   1      50.542  30.209  26.563  1.00  0.00    -0.248 NA
ATOM     74  C   UNL A   1      52.786  29.623  26.291  1.00  0.00     0.031 C 
ATOM     75  C   UNL A   1      49.004  34.360  26.606  1.00  0.00     0.029 A 
ATOM     76  C   UNL A   1      49.511  33.072  26.574  1.00  0.00     0.049 A 
ATOM     77  H   UNL A   1      48.480  31.232  26.703  1.00  0.00     0.167 HD
ATOM     78  C   UNL A   1      51.301  31.364  26.442  1.00  0.00     0.074 A 
ATOM     79  C   UNL A   1      52.682  30.945  26.311  1.00  0.00     0.031 C 
ATOM     80  C   UNL A   1      50.886  32.654  26.439  1.00  0.00     0.037 A 
BRANCH  67  81
ATOM     81  C   UNL A   1      44.766  33.341  26.960  1.00  0.00     0.064 A 
ATOM     82  C   UNL A   1      44.375  33.937  28.169  1.00  0.00     0.173 A 
ATOM     83  C   UNL A   1      44.108  33.748  25.789  1.00  0.00     0.173 A 
ATOM     84  F   UNL A   1      44.973  33.590  29.318  1.00  0.00    -0.203 F 
ATOM     85  C   UNL A   1      43.356  34.887  28.205  1.00  0.00     0.198 A 
ATOM     86  C   UNL A   1      43.111  34.721  25.825  1.00  0.00     0.198 A 
ATOM     87  F   UNL A   1      44.453  33.226  24.602  1.00  0.00    -0.203 F 
ATOM     88  F   UNL A   1      42.979  35.419  29.376  1.00  0.00    -0.200 F 
ATOM     89  C   UNL A   1      42.731  35.286  27.033  1.00  0.00     0.200 A 
ATOM     90  F   UNL A   1      42.524  35.120  24.687  1.00  0.00    -0.200 F 
ATOM     91  F   UNL A   1      41.765  36.213  27.067  1.00  0.00    -0.200 F 
ENDBRANCH  67  81
BRANCH  68  92
ATOM     92  C   UNL A   1      52.234  26.749  26.565  1.00  0.00     0.064 A 
ATOM     93  C   UNL A   1      52.486  25.983  25.419  1.00  0.00     0.173 A 
ATOM     94  C   UNL A   1      53.091  26.586  27.664  1.00  0.00     0.173 A 
ATOM     95  F   UNL A   1      51.684  26.094  24.350  1.00  0.00    -0.203 F 
ATOM     96  C   UNL A   1      53.551  25.086  25.375  1.00  0.00     0.198 A 
ATOM     97  C   UNL A   1      54.174  25.713  27.606  1.00  0.00     0.198 A 
ATOM     98  F   UNL A   1      52.896  27.303  28.780  1.00  0.00    -0.203 F 
ATOM     99  F   UNL A   1      53.752  24.344  24.278  1.00  0.00    -0.200 F 
ATOM    100  C   UNL A   1      54.400  24.960  26.463  1.00  0.00     0.200 A 
ATOM    101  F   UNL A   1      55.004  25.608  28.652  1.00  0.00    -0.200 F 
ATOM    102  F   UNL A   1      55.436  24.111  26.412  1.00  0.00    -0.200 F 
ENDBRANCH  68  92
BRANCH  80 103
ATOM    103  C   UNL A   1      51.932  33.724  26.296  1.00  0.00     0.064 A 
ATOM    104  C   UNL A   1      52.269  34.260  25.044  1.00  0.00     0.173 A 
ATOM    105  C   UNL A   1      52.557  34.269  27.430  1.00  0.00     0.173 A 
ATOM    106  F   UNL A   1      51.715  33.766  23.926  1.00  0.00    -0.203 F 
ATOM    107  C   UNL A   1      53.201  35.290  24.930  1.00  0.00     0.198 A 
ATOM    108  C   UNL A   1      53.463  35.320  27.316  1.00  0.00     0.198 A 
ATOM    109  F   UNL A   1      52.270  33.798  28.652  1.00  0.00    -0.203 F 
ATOM    110  F   UNL A   1      53.534  35.759  23.720  1.00  0.00    -0.200 F 
ATOM    111  C   UNL A   1      53.787  35.827  26.067  1.00  0.00     0.200 A 
ATOM    112  F   UNL A   1      54.015  35.849  28.416  1.00  0.00    -0.200 F 
ATOM    113  F   UNL A   1      54.668  36.831  25.958  1.00  0.00    -0.200 F 
ENDBRANCH  80 103
ENDBRANCH  54  55
ENDBRANCH  47  49
ENDBRANCH  46  47
ENDBRANCH  45  46
ENDBRANCH  44  45
ENDBRANCH  43  44
ENDBRANCH  42  43
ENDBRANCH   1  42
TORSDOF 23
ENDMDL
MODEL 3
REMARK VINA RESULT:     -10.3      6.779     10.354
REMARK SMILES CCN1C(OCCOCCOCCOCCOC(=O)c2ccc(-c3c4nc(c(-c5c(F)c(F)c(F)c(F)c5F)c5ccc([nH]5)c(-c5c(F)c(F)c(F)c(F)c5F)c5nc(c(-c6c(F)c(F)c(F)c(F)c6F)c6ccc3[nH]6)C=C5)C=C4)cc2)=[NH+]C(O)=C2C1=[NH+]C1=C(C(=O)c3ccccc31)[C@H]2c1ccc(C(=O)[O-])cc1
REMARK SMILES IDX 12 1 11 2 10 3 9 4 8 5 7 6 6 7 5 8 4 9 3 10 87 11 83 12
REMARK SMILES IDX 86 13 88 14 84 15 99 17 89 18 90 20 98 21 91 22 93 23 97 24
REMARK SMILES IDX 92 25 94 26 96 27 95 28 2 29 1 30 85 31 100 33 101 34 108 35
REMARK SMILES IDX 102 36 107 37 103 38 104 39 105 40 106 41 13 42 14 43 15 44
REMARK SMILES IDX 16 45 17 46 18 47 19 48 20 49 21 50 82 51 22 52 81 53 23 54
REMARK SMILES IDX 24 55 25 56 75 57 26 58 80 59 74 60 76 61 27 62 79 63 73 64
REMARK SMILES IDX 72 65 28 67 60 68 40 69 59 70 41 71 44 72 58 73 77 74 42 75
REMARK SMILES IDX 43 76 57 78 78 79 45 80 29 81 30 82 38 83 31 84 32 85 36 86
REMARK SMILES IDX 39 87 33 88 34 89 37 90 35 91 61 92 62 93 70 94 63 95 64 96
REMARK SMILES IDX 68 97 71 98 65 99 66 100 69 101 67 102 46 103 47 104 55 105
REMARK SMILES IDX 48 106 49 107 53 108 56 109 50 110 51 111 54 112 52 113
REMARK H PARENT 83 16 88 19 85 32 76 66 44 77
REMARK Flexibility Score: inf
ROOT
ATOM      1  C   UNL A   1      40.124  19.645  25.639  1.00  0.00     0.188 C 
ENDROOT
BRANCH   1   2
ATOM      2  O   UNL A   1      38.727  19.861  25.473  1.00  0.00    -0.377 OA
BRANCH   2   3
ATOM      3  C   UNL A   1      37.896  18.733  25.224  1.00  0.00     0.188 C 
BRANCH   3   4
ATOM      4  C   UNL A   1      36.506  18.981  24.616  1.00  0.00     0.188 C 
BRANCH   4   5
ATOM      5  O   UNL A   1      35.639  17.868  24.731  1.00  0.00    -0.376 OA
BRANCH   5   6
ATOM      6  C   UNL A   1      34.552  17.732  23.819  1.00  0.00     0.202 C 
BRANCH   6   7
ATOM      7  C   UNL A   1      33.127  17.431  24.356  1.00  0.00     0.266 C 
BRANCH   7   8
ATOM      8  O   UNL A   1      32.531  18.521  25.101  1.00  0.00    -0.428 OA
BRANCH   8   9
ATOM      9  C   UNL A   1      32.252  19.696  24.476  1.00  0.00     0.460 C 
ATOM     10  N   UNL A   1      32.665  20.853  25.151  1.00  0.00    -0.159 N 
ATOM     11  C   UNL A   1      32.356  22.013  24.400  1.00  0.00     0.297 C 
ATOM     12  N   UNL A   1      31.740  19.729  23.272  1.00  0.00    -0.176 N 
ATOM     13  C   UNL A   1      32.870  21.826  23.014  1.00  0.00     0.139 C 
ATOM     14  N   UNL A   1      31.644  23.108  24.641  1.00  0.00    -0.239 N 
ATOM     15  C   UNL A   1      31.984  20.910  22.575  1.00  0.00     0.295 C 
ATOM     16  H   UNL A   1      31.226  18.982  22.890  1.00  0.00     0.319 HD
ATOM     17  C   UNL A   1      33.626  23.035  22.571  1.00  0.00     0.104 C 
ATOM     18  C   UNL A   1      31.674  24.093  23.615  1.00  0.00     0.141 C 
ATOM     19  H   UNL A   1      31.131  23.229  25.473  1.00  0.00     0.312 HD
ATOM     20  C   UNL A   1      32.671  24.128  22.708  1.00  0.00     0.060 C 
ATOM     21  C   UNL A   1      31.044  25.421  23.529  1.00  0.00     0.033 A 
ATOM     22  C   UNL A   1      32.929  25.473  22.206  1.00  0.00     0.195 C 
ATOM     23  C   UNL A   1      31.882  26.277  22.800  1.00  0.00     0.034 A 
ATOM     24  C   UNL A   1      29.800  25.914  23.869  1.00  0.00     0.013 A 
ATOM     25  O   UNL A   1      33.828  25.829  21.496  1.00  0.00    -0.289 OA
ATOM     26  C   UNL A   1      31.666  27.616  22.546  1.00  0.00     0.013 A 
ATOM     27  C   UNL A   1      29.493  27.256  23.541  1.00  0.00     0.001 A 
ATOM     28  C   UNL A   1      30.435  28.113  22.934  1.00  0.00     0.001 A 
BRANCH  10  29
ATOM     29  C   UNL A   1      34.064  20.871  25.692  1.00  0.00     0.247 C 
ATOM     30  C   UNL A   1      34.353  21.535  27.025  1.00  0.00     0.055 C 
ENDBRANCH  10  29
BRANCH  15  31
ATOM     31  O   UNL A   1      31.384  21.019  21.354  1.00  0.00    -0.477 OA
ATOM     32  H   UNL A   1      30.633  21.569  21.248  1.00  0.00     0.297 HD
ENDBRANCH  15  31
BRANCH  17  33
ATOM     33  C   UNL A   1      34.858  23.333  23.487  1.00  0.00    -0.035 A 
ATOM     34  C   UNL A   1      34.767  24.278  24.547  1.00  0.00     0.005 A 
ATOM     35  C   UNL A   1      36.072  22.655  23.343  1.00  0.00     0.005 A 
ATOM     36  C   UNL A   1      35.791  24.489  25.458  1.00  0.00     0.010 A 
ATOM     37  C   UNL A   1      37.125  22.887  24.251  1.00  0.00     0.010 A 
ATOM     38  C   UNL A   1      36.976  23.786  25.321  1.00  0.00    -0.003 A 
BRANCH  38  39
ATOM     39  C   UNL A   1      38.007  24.030  26.352  1.00  0.00     0.071 C 
ATOM     40  O   UNL A   1      38.048  24.992  27.098  1.00  0.00    -0.545 OA
ATOM     41  O   UNL A   1      38.934  23.064  26.408  1.00  0.00    -0.545 OA
ENDBRANCH  38  39
ENDBRANCH  17  33
ENDBRANCH   8   9
ENDBRANCH   7   8
ENDBRANCH   6   7
ENDBRANCH   5   6
ENDBRANCH   4   5
ENDBRANCH   3   4
ENDBRANCH   2   3
ENDBRANCH   1   2
BRANCH   1  42
ATOM     42  C   UNL A   1      40.747  19.636  27.051  1.00  0.00     0.188 C 
BRANCH  42  43
ATOM     43  O   UNL A   1      40.861  20.909  27.655  1.00  0.00    -0.376 OA
BRANCH  43  44
ATOM     44  C   UNL A   1      42.170  21.419  27.852  1.00  0.00     0.202 C 
BRANCH  44  45
ATOM     45  C   UNL A   1      42.365  22.759  28.585  1.00  0.00     0.261 C 
BRANCH  45  46
ATOM     46  O   UNL A   1      42.036  23.966  27.876  1.00  0.00    -0.460 OA
BRANCH  46  47
ATOM     47  C   UNL A   1      42.532  24.158  26.634  1.00  0.00     0.338 C 
ATOM     48  O   UNL A   1      42.193  23.591  25.613  1.00  0.00    -0.246 OA
BRANCH  47  49
ATOM     49  C   UNL A   1      43.413  25.356  26.695  1.00  0.00     0.060 A 
ATOM     50  C   UNL A   1      43.800  25.898  27.925  1.00  0.00     0.016 A 
ATOM     51  C   UNL A   1      43.778  26.002  25.503  1.00  0.00     0.016 A 
ATOM     52  C   UNL A   1      44.587  27.057  27.957  1.00  0.00     0.010 A 
ATOM     53  C   UNL A   1      44.549  27.170  25.538  1.00  0.00     0.010 A 
ATOM     54  C   UNL A   1      44.991  27.688  26.764  1.00  0.00    -0.014 A 
BRANCH  54  55
ATOM     55  C   UNL A   1      46.059  28.724  26.801  1.00  0.00     0.031 A 
ATOM     56  C   UNL A   1      47.510  28.421  26.577  1.00  0.00     0.074 A 
ATOM     57  C   UNL A   1      45.676  29.988  27.068  1.00  0.00     0.049 A 
ATOM     58  N   UNL A   1      48.519  29.255  26.503  1.00  0.00    -0.248 NA
ATOM     59  C   UNL A   1      47.884  27.010  26.427  1.00  0.00     0.031 C 
ATOM     60  C   UNL A   1      44.299  30.396  27.349  1.00  0.00     0.029 A 
ATOM     61  N   UNL A   1      46.392  31.156  27.139  1.00  0.00    -0.354 N 
ATOM     62  C   UNL A   1      49.645  28.478  26.271  1.00  0.00     0.074 A 
ATOM     63  C   UNL A   1      49.201  27.098  26.272  1.00  0.00     0.031 C 
ATOM     64  C   UNL A   1      44.262  31.724  27.522  1.00  0.00     0.029 A 
ATOM     65  C   UNL A   1      45.615  32.259  27.396  1.00  0.00     0.049 A 
ATOM     66  H   UNL A   1      47.368  31.200  27.016  1.00  0.00     0.167 HD
ATOM     67  C   UNL A   1      50.923  28.886  26.059  1.00  0.00     0.037 A 
ATOM     68  C   UNL A   1      45.945  33.558  27.511  1.00  0.00     0.037 A 
ATOM     69  C   UNL A   1      51.359  30.263  26.083  1.00  0.00     0.049 A 
ATOM     70  C   UNL A   1      47.374  33.976  27.315  1.00  0.00     0.074 A 
ATOM     71  C   UNL A   1      52.625  30.772  25.837  1.00  0.00     0.029 A 
ATOM     72  N   UNL A   1      50.552  31.351  26.386  1.00  0.00    -0.354 N 
ATOM     73  N   UNL A   1      48.414  33.241  27.006  1.00  0.00    -0.248 NA
ATOM     74  C   UNL A   1      47.675  35.406  27.475  1.00  0.00     0.031 C 
ATOM     75  C   UNL A   1      52.598  32.153  26.052  1.00  0.00     0.029 A 
ATOM     76  C   UNL A   1      51.300  32.520  26.367  1.00  0.00     0.049 A 
ATOM     77  H   UNL A   1      49.589  31.301  26.584  1.00  0.00     0.167 HD
ATOM     78  C   UNL A   1      49.486  34.117  26.914  1.00  0.00     0.074 A 
ATOM     79  C   UNL A   1      48.967  35.443  27.179  1.00  0.00     0.031 C 
ATOM     80  C   UNL A   1      50.784  33.841  26.636  1.00  0.00     0.037 A 
BRANCH  67  81
ATOM     81  C   UNL A   1      51.960  27.837  25.762  1.00  0.00     0.064 A 
ATOM     82  C   UNL A   1      52.217  27.418  24.448  1.00  0.00     0.173 A 
ATOM     83  C   UNL A   1      52.775  27.320  26.782  1.00  0.00     0.173 A 
ATOM     84  F   UNL A   1      51.472  27.883  23.433  1.00  0.00    -0.203 F 
ATOM     85  C   UNL A   1      53.234  26.508  24.169  1.00  0.00     0.198 A 
ATOM     86  C   UNL A   1      53.812  26.434  26.495  1.00  0.00     0.198 A 
ATOM     87  F   UNL A   1      52.588  27.699  28.056  1.00  0.00    -0.203 F 
ATOM     88  F   UNL A   1      53.439  26.100  22.909  1.00  0.00    -0.200 F 
ATOM     89  C   UNL A   1      54.037  26.024  25.190  1.00  0.00     0.200 A 
ATOM     90  F   UNL A   1      54.600  25.985  27.482  1.00  0.00    -0.200 F 
ATOM     91  F   UNL A   1      55.028  25.164  24.917  1.00  0.00    -0.200 F 
ENDBRANCH  67  81
BRANCH  68  92
ATOM     92  C   UNL A   1      44.878  34.556  27.780  1.00  0.00     0.064 A 
ATOM     93  C   UNL A   1      44.639  35.018  29.081  1.00  0.00     0.173 A 
ATOM     94  C   UNL A   1      44.111  35.103  26.740  1.00  0.00     0.173 A 
ATOM     95  F   UNL A   1      45.337  34.512  30.109  1.00  0.00    -0.203 F 
ATOM     96  C   UNL A   1      43.669  35.984  29.334  1.00  0.00     0.198 A 
ATOM     97  C   UNL A   1      43.164  36.092  26.990  1.00  0.00     0.198 A 
ATOM     98  F   UNL A   1      44.308  34.700  25.477  1.00  0.00    -0.203 F 
ATOM     99  F   UNL A   1      43.440  36.387  30.591  1.00  0.00    -0.200 F 
ATOM    100  C   UNL A   1      42.940  36.529  28.288  1.00  0.00     0.200 A 
ATOM    101  F   UNL A   1      42.476  36.630  25.974  1.00  0.00    -0.200 F 
ATOM    102  F   UNL A   1      42.020  37.473  28.529  1.00  0.00    -0.200 F 
ENDBRANCH  68  92
BRANCH  80 103
ATOM    103  C   UNL A   1      51.749  34.993  26.592  1.00  0.00     0.064 A 
ATOM    104  C   UNL A   1      52.520  35.348  27.709  1.00  0.00     0.173 A 
ATOM    105  C   UNL A   1      51.956  35.707  25.401  1.00  0.00     0.173 A 
ATOM    106  F   UNL A   1      52.351  34.710  28.877  1.00  0.00    -0.203 F 
ATOM    107  C   UNL A   1      53.451  36.383  27.640  1.00  0.00     0.198 A 
ATOM    108  C   UNL A   1      52.911  36.718  25.326  1.00  0.00     0.198 A 
ATOM    109  F   UNL A   1      51.250  35.407  24.301  1.00  0.00    -0.203 F 
ATOM    110  F   UNL A   1      54.148  36.728  28.731  1.00  0.00    -0.200 F 
ATOM    111  C   UNL A   1      53.654  37.058  26.445  1.00  0.00     0.200 A 
ATOM    112  F   UNL A   1      53.117  37.357  24.166  1.00  0.00    -0.200 F 
ATOM    113  F   UNL A   1      54.564  38.039  26.375  1.00  0.00    -0.200 F 
ENDBRANCH  80 103
ENDBRANCH  54  55
ENDBRANCH  47  49
ENDBRANCH  46  47
ENDBRANCH  45  46
ENDBRANCH  44  45
ENDBRANCH  43  44
ENDBRANCH  42  43
ENDBRANCH   1  42
TORSDOF 23
ENDMDL
