MODEL 1
REMARK VINA RESULT:      -7.9      0.000      0.000
REMARK SMILES CC(=O)N[C@@H](C)C(=O)N1CCC[C@H]1C(=O)OCCOCCOCCOCCOC(=O)c1ccc(-c2c3nc(c(-c4c(F)c(F)c(F)c(F)c4F)c4ccc([nH]4)c(-c4c(F)c(F)c(F)c(F)c4F)c4nc(c(-c5c(F)c(F)c(F)c(F)c5F)c5ccc2[nH]5)C=C4)C=C3)cc1
REMARK SMILES IDX 21 1 20 2 19 3 18 4 17 5 16 6 14 7 15 8 13 9 9 10 10 11
REMARK SMILES IDX 11 12 12 13 7 14 8 15 5 16 6 17 4 18 1 19 2 20 3 21 22 23
REMARK SMILES IDX 23 24 24 25 25 26 26 27 27 28 28 29 29 30 30 31 31 32 32 33
REMARK SMILES IDX 93 34 33 35 92 36 34 37 35 38 36 39 86 40 37 41 91 42 85 43
REMARK SMILES IDX 87 44 38 45 90 46 84 47 83 48 39 50 71 51 51 52 70 53 52 54
REMARK SMILES IDX 55 55 69 56 88 57 53 58 54 59 68 61 89 62 56 63 40 64 41 65
REMARK SMILES IDX 49 66 42 67 43 68 47 69 50 70 44 71 45 72 48 73 46 74 72 75
REMARK SMILES IDX 73 76 81 77 74 78 75 79 79 80 82 81 76 82 77 83 80 84 78 85
REMARK SMILES IDX 57 86 58 87 66 88 59 89 60 90 64 91 67 92 61 93 62 94 65 95
REMARK SMILES IDX 63 96
REMARK H PARENT 4 22 87 49 55 60
REMARK Flexibility Score: inf
ROOT
ATOM      1  C   UNL A   1      47.143  41.554  23.299  1.00  0.00     0.188 C 
ENDROOT
BRANCH   1   2
ATOM      2  C   UNL A   1      46.576  41.946  21.916  1.00  0.00     0.188 C 
BRANCH   2   3
ATOM      3  O   UNL A   1      47.312  42.919  21.205  1.00  0.00    -0.376 OA
BRANCH   3   4
ATOM      4  C   UNL A   1      47.157  43.076  19.803  1.00  0.00     0.202 C 
BRANCH   4   5
ATOM      5  C   UNL A   1      46.874  44.399  19.051  1.00  0.00     0.261 C 
BRANCH   5   6
ATOM      6  O   UNL A   1      45.532  44.765  18.723  1.00  0.00    -0.462 OA
BRANCH   6   7
ATOM      7  C   UNL A   1      44.591  44.608  19.687  1.00  0.00     0.328 C 
ATOM      8  O   UNL A   1      44.618  45.171  20.775  1.00  0.00    -0.250 OA
BRANCH   7   9
ATOM      9  C   UNL A   1      43.456  43.703  19.161  1.00  0.00     0.195 C 
ATOM     10  N   UNL A   1      42.534  43.448  20.257  1.00  0.00    -0.327 N 
ATOM     11  C   UNL A   1      41.317  44.215  20.062  1.00  0.00     0.120 C 
ATOM     12  C   UNL A   1      41.117  44.118  18.566  1.00  0.00     0.024 C 
ATOM     13  C   UNL A   1      42.543  44.251  18.044  1.00  0.00     0.039 C 
BRANCH  10  14
ATOM     14  C   UNL A   1      42.907  42.518  21.198  1.00  0.00     0.245 C 
ATOM     15  O   UNL A   1      43.029  41.329  20.876  1.00  0.00    -0.272 OA
BRANCH  14  16
ATOM     16  C   UNL A   1      42.792  42.870  22.687  1.00  0.00     0.168 C 
ATOM     17  C   UNL A   1      41.301  42.828  23.019  1.00  0.00     0.041 C 
BRANCH  16  18
ATOM     18  N   UNL A   1      43.377  44.132  23.110  1.00  0.00    -0.345 N 
ATOM     19  C   UNL A   1      44.414  43.248  25.157  1.00  0.00     0.114 C 
ATOM     20  C   UNL A   1      44.208  44.354  24.163  1.00  0.00     0.217 C 
ATOM     21  O   UNL A   1      44.737  45.458  24.285  1.00  0.00    -0.275 OA
ATOM     22  H   UNL A   1      43.142  44.921  22.569  1.00  0.00     0.164 HD
ENDBRANCH  16  18
ENDBRANCH  14  16
ENDBRANCH  10  14
ENDBRANCH   7   9
ENDBRANCH   6   7
ENDBRANCH   5   6
ENDBRANCH   4   5
ENDBRANCH   3   4
ENDBRANCH   2   3
ENDBRANCH   1   2
BRANCH   1  23
ATOM     23  O   UNL A   1      46.677  40.280  23.721  1.00  0.00    -0.377 OA
BRANCH  23  24
ATOM     24  C   UNL A   1      47.112  39.880  25.011  1.00  0.00     0.188 C 
BRANCH  24  25
ATOM     25  C   UNL A   1      47.120  38.374  25.354  1.00  0.00     0.188 C 
BRANCH  25  26
ATOM     26  O   UNL A   1      46.209  38.028  26.388  1.00  0.00    -0.376 OA
BRANCH  26  27
ATOM     27  C   UNL A   1      45.503  39.023  27.097  1.00  0.00     0.202 C 
BRANCH  27  28
ATOM     28  C   UNL A   1      43.986  39.074  26.880  1.00  0.00     0.261 C 
BRANCH  28  29
ATOM     29  O   UNL A   1      43.210  38.201  27.709  1.00  0.00    -0.460 OA
BRANCH  29  30
ATOM     30  C   UNL A   1      42.436  37.289  27.072  1.00  0.00     0.338 C 
ATOM     31  O   UNL A   1      41.389  37.484  26.503  1.00  0.00    -0.246 OA
BRANCH  30  32
ATOM     32  C   UNL A   1      43.211  36.028  27.021  1.00  0.00     0.060 A 
ATOM     33  C   UNL A   1      43.702  35.495  28.220  1.00  0.00     0.016 A 
ATOM     34  C   UNL A   1      43.397  35.353  25.813  1.00  0.00     0.016 A 
ATOM     35  C   UNL A   1      44.403  34.292  28.210  1.00  0.00     0.010 A 
ATOM     36  C   UNL A   1      44.130  34.165  25.798  1.00  0.00     0.010 A 
ATOM     37  C   UNL A   1      44.664  33.651  26.993  1.00  0.00    -0.014 A 
BRANCH  37  38
ATOM     38  C   UNL A   1      45.696  32.592  26.941  1.00  0.00     0.031 A 
ATOM     39  C   UNL A   1      47.126  33.020  26.773  1.00  0.00     0.074 A 
ATOM     40  C   UNL A   1      45.383  31.292  27.063  1.00  0.00     0.049 A 
ATOM     41  N   UNL A   1      48.208  32.296  26.658  1.00  0.00    -0.248 NA
ATOM     42  C   UNL A   1      47.364  34.473  26.723  1.00  0.00     0.031 C 
ATOM     43  C   UNL A   1      44.040  30.762  27.282  1.00  0.00     0.029 A 
ATOM     44  N   UNL A   1      46.185  30.180  27.015  1.00  0.00    -0.354 N 
ATOM     45  C   UNL A   1      49.251  33.203  26.518  1.00  0.00     0.074 A 
ATOM     46  C   UNL A   1      48.670  34.526  26.524  1.00  0.00     0.031 C 
ATOM     47  C   UNL A   1      44.108  29.420  27.337  1.00  0.00     0.029 A 
ATOM     48  C   UNL A   1      45.494  28.999  27.124  1.00  0.00     0.049 A 
ATOM     49  H   UNL A   1      47.163  30.224  26.912  1.00  0.00     0.167 HD
ATOM     50  C   UNL A   1      50.575  32.952  26.401  1.00  0.00     0.037 A 
ATOM     51  C   UNL A   1      45.933  27.728  27.038  1.00  0.00     0.037 A 
ATOM     52  C   UNL A   1      51.143  31.630  26.382  1.00  0.00     0.049 A 
ATOM     53  C   UNL A   1      47.403  27.471  26.814  1.00  0.00     0.074 A 
ATOM     54  C   UNL A   1      52.472  31.264  26.282  1.00  0.00     0.029 A 
ATOM     55  N   UNL A   1      50.406  30.456  26.448  1.00  0.00    -0.354 N 
ATOM     56  N   UNL A   1      48.391  28.329  26.709  1.00  0.00    -0.248 NA
ATOM     57  C   UNL A   1      47.819  26.066  26.700  1.00  0.00     0.031 C 
ATOM     58  C   UNL A   1      52.535  29.868  26.219  1.00  0.00     0.029 A 
ATOM     59  C   UNL A   1      51.252  29.362  26.355  1.00  0.00     0.049 A 
ATOM     60  H   UNL A   1      49.428  30.408  26.548  1.00  0.00     0.167 HD
ATOM     61  C   UNL A   1      49.544  27.570  26.550  1.00  0.00     0.074 A 
ATOM     62  C   UNL A   1      49.135  26.181  26.585  1.00  0.00     0.031 C 
ATOM     63  C   UNL A   1      50.827  27.984  26.395  1.00  0.00     0.037 A 
BRANCH  50  64
ATOM     64  C   UNL A   1      51.487  34.133  26.235  1.00  0.00     0.064 A 
ATOM     65  C   UNL A   1      52.031  34.812  27.337  1.00  0.00     0.173 A 
ATOM     66  C   UNL A   1      51.819  34.596  24.954  1.00  0.00     0.173 A 
ATOM     67  F   UNL A   1      51.732  34.424  28.587  1.00  0.00    -0.203 F 
ATOM     68  C   UNL A   1      52.841  35.932  27.161  1.00  0.00     0.198 A 
ATOM     69  C   UNL A   1      52.658  35.693  24.781  1.00  0.00     0.198 A 
ATOM     70  F   UNL A   1      51.326  33.986  23.865  1.00  0.00    -0.203 F 
ATOM     71  F   UNL A   1      53.294  36.604  28.229  1.00  0.00    -0.200 F 
ATOM     72  C   UNL A   1      53.159  36.367  25.884  1.00  0.00     0.200 A 
ATOM     73  F   UNL A   1      52.973  36.104  23.544  1.00  0.00    -0.200 F 
ATOM     74  F   UNL A   1      53.938  37.444  25.715  1.00  0.00    -0.200 F 
ENDBRANCH  50  64
BRANCH  51  75
ATOM     75  C   UNL A   1      44.971  26.601  27.156  1.00  0.00     0.064 A 
ATOM     76  C   UNL A   1      44.317  26.087  26.028  1.00  0.00     0.173 A 
ATOM     77  C   UNL A   1      44.676  26.022  28.399  1.00  0.00     0.173 A 
ATOM     78  F   UNL A   1      44.544  26.625  24.820  1.00  0.00    -0.203 F 
ATOM     79  C   UNL A   1      43.394  25.049  26.140  1.00  0.00     0.198 A 
ATOM     80  C   UNL A   1      43.774  24.965  28.507  1.00  0.00     0.198 A 
ATOM     81  F   UNL A   1      45.269  26.481  29.512  1.00  0.00    -0.203 F 
ATOM     82  F   UNL A   1      42.748  24.610  25.052  1.00  0.00    -0.200 F 
ATOM     83  C   UNL A   1      43.129  24.484  27.378  1.00  0.00     0.200 A 
ATOM     84  F   UNL A   1      43.530  24.414  29.704  1.00  0.00    -0.200 F 
ATOM     85  F   UNL A   1      42.245  23.483  27.485  1.00  0.00    -0.200 F 
ENDBRANCH  51  75
BRANCH  63  86
ATOM     86  C   UNL A   1      51.891  26.927  26.294  1.00  0.00     0.064 A 
ATOM     87  C   UNL A   1      52.150  26.246  25.095  1.00  0.00     0.173 A 
ATOM     88  C   UNL A   1      52.697  26.625  27.403  1.00  0.00     0.173 A 
ATOM     89  F   UNL A   1      51.402  26.486  24.007  1.00  0.00    -0.203 F 
ATOM     90  C   UNL A   1      53.154  25.283  25.019  1.00  0.00     0.198 A 
ATOM     91  C   UNL A   1      53.723  25.689  27.314  1.00  0.00     0.198 A 
ATOM     92  F   UNL A   1      52.501  27.254  28.572  1.00  0.00    -0.203 F 
ATOM     93  F   UNL A   1      53.346  24.608  23.877  1.00  0.00    -0.200 F 
ATOM     94  C   UNL A   1      53.944  25.013  26.125  1.00  0.00     0.200 A 
ATOM     95  F   UNL A   1      54.499  25.445  28.379  1.00  0.00    -0.200 F 
ATOM     96  F   UNL A   1      54.917  24.094  26.047  1.00  0.00    -0.200 F 
ENDBRANCH  63  86
ENDBRANCH  37  38
ENDBRANCH  30  32
ENDBRANCH  29  30
ENDBRANCH  28  29
ENDBRANCH  27  28
ENDBRANCH  26  27
ENDBRANCH  25  26
ENDBRANCH  24  25
ENDBRANCH  23  24
ENDBRANCH   1  23
TORSDOF 23
ENDMDL
MODEL 2
REMARK VINA RESULT:      -7.9      0.472      7.241
REMARK SMILES CC(=O)N[C@@H](C)C(=O)N1CCC[C@H]1C(=O)OCCOCCOCCOCCOC(=O)c1ccc(-c2c3nc(c(-c4c(F)c(F)c(F)c(F)c4F)c4ccc([nH]4)c(-c4c(F)c(F)c(F)c(F)c4F)c4nc(c(-c5c(F)c(F)c(F)c(F)c5F)c5ccc2[nH]5)C=C4)C=C3)cc1
REMARK SMILES IDX 21 1 20 2 19 3 18 4 17 5 16 6 14 7 15 8 13 9 9 10 10 11
REMARK SMILES IDX 11 12 12 13 7 14 8 15 5 16 6 17 4 18 1 19 2 20 3 21 22 23
REMARK SMILES IDX 23 24 24 25 25 26 26 27 27 28 28 29 29 30 30 31 31 32 32 33
REMARK SMILES IDX 93 34 33 35 92 36 34 37 35 38 36 39 86 40 37 41 91 42 85 43
REMARK SMILES IDX 87 44 38 45 90 46 84 47 83 48 39 50 71 51 51 52 70 53 52 54
REMARK SMILES IDX 55 55 69 56 88 57 53 58 54 59 68 61 89 62 56 63 40 64 41 65
REMARK SMILES IDX 49 66 42 67 43 68 47 69 50 70 44 71 45 72 48 73 46 74 72 75
REMARK SMILES IDX 73 76 81 77 74 78 75 79 79 80 82 81 76 82 77 83 80 84 78 85
REMARK SMILES IDX 57 86 58 87 66 88 59 89 60 90 64 91 67 92 61 93 62 94 65 95
REMARK SMILES IDX 63 96
REMARK H PARENT 4 22 87 49 55 60
REMARK Flexibility Score: inf
ROOT
ATOM      1  C   UNL A   1      47.111  41.775  23.475  1.00  0.00     0.188 C 
ENDROOT
BRANCH   1   2
ATOM      2  C   UNL A   1      46.533  42.249  22.122  1.00  0.00     0.188 C 
BRANCH   2   3
ATOM      3  O   UNL A   1      47.318  43.185  21.414  1.00  0.00    -0.376 OA
BRANCH   3   4
ATOM      4  C   UNL A   1      47.310  43.225  19.995  1.00  0.00     0.202 C 
BRANCH   4   5
ATOM      5  C   UNL A   1      46.983  44.453  19.111  1.00  0.00     0.261 C 
BRANCH   5   6
ATOM      6  O   UNL A   1      45.656  44.651  18.620  1.00  0.00    -0.462 OA
BRANCH   6   7
ATOM      7  C   UNL A   1      44.647  44.628  19.527  1.00  0.00     0.328 C 
ATOM      8  O   UNL A   1      44.613  45.318  20.538  1.00  0.00    -0.250 OA
BRANCH   7   9
ATOM      9  C   UNL A   1      43.529  43.683  19.034  1.00  0.00     0.195 C 
ATOM     10  N   UNL A   1      42.613  43.449  20.140  1.00  0.00    -0.327 N 
ATOM     11  C   UNL A   1      41.382  44.185  19.919  1.00  0.00     0.120 C 
ATOM     12  C   UNL A   1      41.182  44.032  18.428  1.00  0.00     0.024 C 
ATOM     13  C   UNL A   1      42.605  44.174  17.899  1.00  0.00     0.039 C 
BRANCH  10  14
ATOM     14  C   UNL A   1      43.004  42.561  21.112  1.00  0.00     0.245 C 
ATOM     15  O   UNL A   1      43.153  41.365  20.831  1.00  0.00    -0.272 OA
BRANCH  14  16
ATOM     16  C   UNL A   1      42.877  42.960  22.588  1.00  0.00     0.168 C 
ATOM     17  C   UNL A   1      41.385  42.922  22.912  1.00  0.00     0.041 C 
BRANCH  16  18
ATOM     18  N   UNL A   1      43.454  44.238  22.973  1.00  0.00    -0.345 N 
ATOM     19  C   UNL A   1      44.351  43.463  25.128  1.00  0.00     0.114 C 
ATOM     20  C   UNL A   1      44.223  44.512  24.061  1.00  0.00     0.217 C 
ATOM     21  O   UNL A   1      44.759  45.615  24.152  1.00  0.00    -0.275 OA
ATOM     22  H   UNL A   1      43.265  44.996  22.375  1.00  0.00     0.164 HD
ENDBRANCH  16  18
ENDBRANCH  14  16
ENDBRANCH  10  14
ENDBRANCH   7   9
ENDBRANCH   6   7
ENDBRANCH   5   6
ENDBRANCH   4   5
ENDBRANCH   3   4
ENDBRANCH   2   3
ENDBRANCH   1   2
BRANCH   1  23
ATOM     23  O   UNL A   1      46.564  40.528  23.877  1.00  0.00    -0.377 OA
BRANCH  23  24
ATOM     24  C   UNL A   1      47.055  40.028  25.111  1.00  0.00     0.188 C 
BRANCH  24  25
ATOM     25  C   UNL A   1      46.934  38.515  25.397  1.00  0.00     0.188 C 
BRANCH  25  26
ATOM     26  O   UNL A   1      46.024  38.211  26.444  1.00  0.00    -0.376 OA
BRANCH  26  27
ATOM     27  C   UNL A   1      45.331  39.236  27.124  1.00  0.00     0.202 C 
BRANCH  27  28
ATOM     28  C   UNL A   1      43.812  39.286  26.921  1.00  0.00     0.261 C 
BRANCH  28  29
ATOM     29  O   UNL A   1      43.038  38.477  27.814  1.00  0.00    -0.460 OA
BRANCH  29  30
ATOM     30  C   UNL A   1      42.286  37.501  27.250  1.00  0.00     0.338 C 
ATOM     31  O   UNL A   1      41.179  37.606  26.779  1.00  0.00    -0.246 OA
BRANCH  30  32
ATOM     32  C   UNL A   1      43.152  36.306  27.129  1.00  0.00     0.060 A 
ATOM     33  C   UNL A   1      43.828  35.850  28.269  1.00  0.00     0.016 A 
ATOM     34  C   UNL A   1      43.248  35.613  25.920  1.00  0.00     0.016 A 
ATOM     35  C   UNL A   1      44.622  34.708  28.196  1.00  0.00     0.010 A 
ATOM     36  C   UNL A   1      44.072  34.489  25.839  1.00  0.00     0.010 A 
ATOM     37  C   UNL A   1      44.787  34.055  26.969  1.00  0.00    -0.014 A 
BRANCH  37  38
ATOM     38  C   UNL A   1      45.891  33.082  26.811  1.00  0.00     0.031 A 
ATOM     39  C   UNL A   1      45.551  31.622  26.903  1.00  0.00     0.074 A 
ATOM     40  C   UNL A   1      47.152  33.476  26.569  1.00  0.00     0.049 A 
ATOM     41  N   UNL A   1      46.332  30.576  26.841  1.00  0.00    -0.248 NA
ATOM     42  C   UNL A   1      44.126  31.301  27.096  1.00  0.00     0.031 C 
ATOM     43  C   UNL A   1      47.590  34.859  26.408  1.00  0.00     0.029 A 
ATOM     44  N   UNL A   1      48.297  32.735  26.422  1.00  0.00    -0.354 N 
ATOM     45  C   UNL A   1      45.497  29.477  26.993  1.00  0.00     0.074 A 
ATOM     46  C   UNL A   1      44.157  29.981  27.187  1.00  0.00     0.031 C 
ATOM     47  C   UNL A   1      48.918  34.870  26.196  1.00  0.00     0.029 A 
ATOM     48  C   UNL A   1      49.424  33.497  26.240  1.00  0.00     0.049 A 
ATOM     49  H   UNL A   1      48.310  31.752  26.445  1.00  0.00     0.167 HD
ATOM     50  C   UNL A   1      45.820  28.163  26.967  1.00  0.00     0.037 A 
ATOM     51  C   UNL A   1      50.715  33.123  26.143  1.00  0.00     0.037 A 
ATOM     52  C   UNL A   1      47.159  27.670  26.786  1.00  0.00     0.049 A 
ATOM     53  C   UNL A   1      51.063  31.656  26.209  1.00  0.00     0.074 A 
ATOM     54  C   UNL A   1      47.595  26.359  26.729  1.00  0.00     0.029 A 
ATOM     55  N   UNL A   1      48.283  28.474  26.651  1.00  0.00    -0.354 N 
ATOM     56  N   UNL A   1      50.270  30.618  26.325  1.00  0.00    -0.248 NA
ATOM     57  C   UNL A   1      52.490  31.311  26.127  1.00  0.00     0.031 C 
ATOM     58  C   UNL A   1      48.990  26.369  26.628  1.00  0.00     0.029 A 
ATOM     59  C   UNL A   1      49.417  27.685  26.546  1.00  0.00     0.049 A 
ATOM     60  H   UNL A   1      48.274  29.458  26.631  1.00  0.00     0.167 HD
ATOM     61  C   UNL A   1      51.094  29.499  26.297  1.00  0.00     0.074 A 
ATOM     62  C   UNL A   1      52.449  29.987  26.140  1.00  0.00     0.031 C 
ATOM     63  C   UNL A   1      50.761  28.187  26.387  1.00  0.00     0.037 A 
BRANCH  50  64
ATOM     64  C   UNL A   1      44.709  27.177  27.186  1.00  0.00     0.064 A 
ATOM     65  C   UNL A   1      43.879  26.749  26.138  1.00  0.00     0.173 A 
ATOM     66  C   UNL A   1      44.470  26.655  28.465  1.00  0.00     0.173 A 
ATOM     67  F   UNL A   1      44.051  27.230  24.898  1.00  0.00    -0.203 F 
ATOM     68  C   UNL A   1      42.827  25.865  26.372  1.00  0.00     0.198 A 
ATOM     69  C   UNL A   1      43.441  25.744  28.689  1.00  0.00     0.198 A 
ATOM     70  F   UNL A   1      45.232  27.032  29.503  1.00  0.00    -0.203 F 
ATOM     71  F   UNL A   1      42.005  25.522  25.370  1.00  0.00    -0.200 F 
ATOM     72  C   UNL A   1      42.614  25.359  27.645  1.00  0.00     0.200 A 
ATOM     73  F   UNL A   1      43.245  25.248  29.918  1.00  0.00    -0.200 F 
ATOM     74  F   UNL A   1      41.603  24.509  27.870  1.00  0.00    -0.200 F 
ENDBRANCH  50  64
BRANCH  51  75
ATOM     75  C   UNL A   1      51.776  34.152  25.981  1.00  0.00     0.064 A 
ATOM     76  C   UNL A   1      52.259  34.499  24.713  1.00  0.00     0.173 A 
ATOM     77  C   UNL A   1      52.338  34.800  27.091  1.00  0.00     0.173 A 
ATOM     78  F   UNL A   1      51.773  33.888  23.621  1.00  0.00    -0.203 F 
ATOM     79  C   UNL A   1      53.274  35.443  24.561  1.00  0.00     0.198 A 
ATOM     80  C   UNL A   1      53.332  35.764  26.937  1.00  0.00     0.198 A 
ATOM     81  F   UNL A   1      51.917  34.500  28.329  1.00  0.00    -0.203 F 
ATOM     82  F   UNL A   1      53.750  35.720  23.339  1.00  0.00    -0.200 F 
ATOM     83  C   UNL A   1      53.804  36.080  25.672  1.00  0.00     0.200 A 
ATOM     84  F   UNL A   1      53.834  36.385  28.014  1.00  0.00    -0.200 F 
ATOM     85  F   UNL A   1      54.776  36.990  25.526  1.00  0.00    -0.200 F 
ENDBRANCH  51  75
BRANCH  63  86
ATOM     86  C   UNL A   1      51.869  27.179  26.276  1.00  0.00     0.064 A 
ATOM     87  C   UNL A   1      52.656  26.815  27.379  1.00  0.00     0.173 A 
ATOM     88  C   UNL A   1      52.117  26.531  25.055  1.00  0.00     0.173 A 
ATOM     89  F   UNL A   1      52.470  27.411  28.567  1.00  0.00    -0.203 F 
ATOM     90  C   UNL A   1      53.666  25.864  27.257  1.00  0.00     0.198 A 
ATOM     91  C   UNL A   1      53.103  25.554  24.946  1.00  0.00     0.198 A 
ATOM     92  F   UNL A   1      51.388  26.831  23.969  1.00  0.00    -0.203 F 
ATOM     93  F   UNL A   1      54.439  25.572  28.313  1.00  0.00    -0.200 F 
ATOM     94  C   UNL A   1      53.882  25.229  26.044  1.00  0.00     0.200 A 
ATOM     95  F   UNL A   1      53.296  24.927  23.777  1.00  0.00    -0.200 F 
ATOM     96  F   UNL A   1      54.848  24.306  25.932  1.00  0.00    -0.200 F 
ENDBRANCH  63  86
ENDBRANCH  37  38
ENDBRANCH  30  32
ENDBRANCH  29  30
ENDBRANCH  28  29
ENDBRANCH  27  28
ENDBRANCH  26  27
ENDBRANCH  25  26
ENDBRANCH  24  25
ENDBRANCH  23  24
ENDBRANCH   1  23
TORSDOF 23
ENDMDL
MODEL 3
REMARK VINA RESULT:      -7.8      1.406      7.635
REMARK SMILES CC(=O)N[C@@H](C)C(=O)N1CCC[C@H]1C(=O)OCCOCCOCCOCCOC(=O)c1ccc(-c2c3nc(c(-c4c(F)c(F)c(F)c(F)c4F)c4ccc([nH]4)c(-c4c(F)c(F)c(F)c(F)c4F)c4nc(c(-c5c(F)c(F)c(F)c(F)c5F)c5ccc2[nH]5)C=C4)C=C3)cc1
REMARK SMILES IDX 21 1 20 2 19 3 18 4 17 5 16 6 14 7 15 8 13 9 9 10 10 11
REMARK SMILES IDX 11 12 12 13 7 14 8 15 5 16 6 17 4 18 1 19 2 20 3 21 22 23
REMARK SMILES IDX 23 24 24 25 25 26 26 27 27 28 28 29 29 30 30 31 31 32 32 33
REMARK SMILES IDX 93 34 33 35 92 36 34 37 35 38 36 39 86 40 37 41 91 42 85 43
REMARK SMILES IDX 87 44 38 45 90 46 84 47 83 48 39 50 71 51 51 52 70 53 52 54
REMARK SMILES IDX 55 55 69 56 88 57 53 58 54 59 68 61 89 62 56 63 40 64 41 65
REMARK SMILES IDX 49 66 42 67 43 68 47 69 50 70 44 71 45 72 48 73 46 74 72 75
REMARK SMILES IDX 73 76 81 77 74 78 75 79 79 80 82 81 76 82 77 83 80 84 78 85
REMARK SMILES IDX 57 86 58 87 66 88 59 89 60 90 64 91 67 92 61 93 62 94 65 95
REMARK SMILES IDX 63 96
REMARK H PARENT 4 22 87 49 55 60
REMARK Flexibility Score: inf
ROOT
ATOM      1  C   UNL A   1      46.301  42.391  23.787  1.00  0.00     0.188 C 
ENDROOT
BRANCH   1   2
ATOM      2  C   UNL A   1      45.240  43.000  22.842  1.00  0.00     0.188 C 
BRANCH   2   3
ATOM      3  O   UNL A   1      43.998  42.331  22.803  1.00  0.00    -0.376 OA
BRANCH   3   4
ATOM      4  C   UNL A   1      42.776  43.052  22.786  1.00  0.00     0.202 C 
BRANCH   4   5
ATOM      5  C   UNL A   1      41.573  42.805  21.844  1.00  0.00     0.261 C 
BRANCH   5   6
ATOM      6  O   UNL A   1      41.325  43.690  20.750  1.00  0.00    -0.462 OA
BRANCH   6   7
ATOM      7  C   UNL A   1      42.020  43.474  19.605  1.00  0.00     0.328 C 
ATOM      8  O   UNL A   1      42.486  42.390  19.274  1.00  0.00    -0.250 OA
BRANCH   7   9
ATOM      9  C   UNL A   1      42.042  44.767  18.761  1.00  0.00     0.195 C 
ATOM     10  N   UNL A   1      43.385  44.941  18.230  1.00  0.00    -0.327 N 
ATOM     11  C   UNL A   1      43.396  44.626  16.813  1.00  0.00     0.120 C 
ATOM     12  C   UNL A   1      42.075  45.197  16.350  1.00  0.00     0.024 C 
ATOM     13  C   UNL A   1      41.148  44.833  17.503  1.00  0.00     0.039 C 
BRANCH  10  14
ATOM     14  C   UNL A   1      44.348  45.422  19.084  1.00  0.00     0.245 C 
ATOM     15  O   UNL A   1      44.457  44.947  20.222  1.00  0.00    -0.272 OA
BRANCH  14  16
ATOM     16  C   UNL A   1      45.008  46.775  18.784  1.00  0.00     0.168 C 
ATOM     17  C   UNL A   1      46.092  46.962  19.843  1.00  0.00     0.041 C 
BRANCH  16  18
ATOM     18  N   UNL A   1      44.133  47.935  18.734  1.00  0.00    -0.345 N 
ATOM     19  C   UNL A   1      45.293  49.037  16.867  1.00  0.00     0.114 C 
ATOM     20  C   UNL A   1      44.142  48.947  17.825  1.00  0.00     0.217 C 
ATOM     21  O   UNL A   1      43.228  49.770  17.839  1.00  0.00    -0.275 OA
ATOM     22  H   UNL A   1      43.453  47.994  19.443  1.00  0.00     0.164 HD
ENDBRANCH  16  18
ENDBRANCH  14  16
ENDBRANCH  10  14
ENDBRANCH   7   9
ENDBRANCH   6   7
ENDBRANCH   5   6
ENDBRANCH   4   5
ENDBRANCH   3   4
ENDBRANCH   2   3
ENDBRANCH   1   2
BRANCH   1  23
ATOM     23  O   UNL A   1      46.025  41.031  24.087  1.00  0.00    -0.377 OA
BRANCH  23  24
ATOM     24  C   UNL A   1      46.895  40.439  25.039  1.00  0.00     0.188 C 
BRANCH  24  25
ATOM     25  C   UNL A   1      46.916  38.900  25.165  1.00  0.00     0.188 C 
BRANCH  25  26
ATOM     26  O   UNL A   1      46.170  38.414  26.271  1.00  0.00    -0.376 OA
BRANCH  26  27
ATOM     27  C   UNL A   1      45.429  39.295  27.089  1.00  0.00     0.202 C 
BRANCH  27  28
ATOM     28  C   UNL A   1      43.909  39.303  26.885  1.00  0.00     0.261 C 
BRANCH  28  29
ATOM     29  O   UNL A   1      43.156  38.475  27.779  1.00  0.00    -0.460 OA
BRANCH  29  30
ATOM     30  C   UNL A   1      42.405  37.500  27.214  1.00  0.00     0.338 C 
ATOM     31  O   UNL A   1      41.304  37.608  26.729  1.00  0.00    -0.246 OA
BRANCH  30  32
ATOM     32  C   UNL A   1      43.265  36.299  27.110  1.00  0.00     0.060 A 
ATOM     33  C   UNL A   1      43.948  35.864  28.254  1.00  0.00     0.016 A 
ATOM     34  C   UNL A   1      43.348  35.580  25.916  1.00  0.00     0.016 A 
ATOM     35  C   UNL A   1      44.737  34.717  28.199  1.00  0.00     0.010 A 
ATOM     36  C   UNL A   1      44.166  34.451  25.852  1.00  0.00     0.010 A 
ATOM     37  C   UNL A   1      44.889  34.038  26.985  1.00  0.00    -0.014 A 
BRANCH  37  38
ATOM     38  C   UNL A   1      45.988  33.057  26.838  1.00  0.00     0.031 A 
ATOM     39  C   UNL A   1      45.638  31.599  26.939  1.00  0.00     0.074 A 
ATOM     40  C   UNL A   1      47.252  33.441  26.599  1.00  0.00     0.049 A 
ATOM     41  N   UNL A   1      46.413  30.548  26.887  1.00  0.00    -0.248 NA
ATOM     42  C   UNL A   1      44.211  31.289  27.128  1.00  0.00     0.031 C 
ATOM     43  C   UNL A   1      47.700  34.820  26.430  1.00  0.00     0.029 A 
ATOM     44  N   UNL A   1      48.393  32.692  26.462  1.00  0.00    -0.354 N 
ATOM     45  C   UNL A   1      45.570  29.455  27.044  1.00  0.00     0.074 A 
ATOM     46  C   UNL A   1      44.233  29.970  27.229  1.00  0.00     0.031 C 
ATOM     47  C   UNL A   1      49.029  34.822  26.224  1.00  0.00     0.029 A 
ATOM     48  C   UNL A   1      49.526  33.446  26.279  1.00  0.00     0.049 A 
ATOM     49  H   UNL A   1      48.400  31.709  26.492  1.00  0.00     0.167 HD
ATOM     50  C   UNL A   1      45.886  28.139  27.028  1.00  0.00     0.037 A 
ATOM     51  C   UNL A   1      50.814  33.064  26.191  1.00  0.00     0.037 A 
ATOM     52  C   UNL A   1      47.222  27.637  26.856  1.00  0.00     0.049 A 
ATOM     53  C   UNL A   1      51.154  31.595  26.268  1.00  0.00     0.074 A 
ATOM     54  C   UNL A   1      47.650  26.323  26.810  1.00  0.00     0.029 A 
ATOM     55  N   UNL A   1      48.352  28.433  26.720  1.00  0.00    -0.354 N 
ATOM     56  N   UNL A   1      50.353  30.562  26.388  1.00  0.00    -0.248 NA
ATOM     57  C   UNL A   1      52.578  31.241  26.194  1.00  0.00     0.031 C 
ATOM     58  C   UNL A   1      49.046  26.324  26.715  1.00  0.00     0.029 A 
ATOM     59  C   UNL A   1      49.481  27.636  26.626  1.00  0.00     0.049 A 
ATOM     60  H   UNL A   1      48.349  29.417  26.694  1.00  0.00     0.167 HD
ATOM     61  C   UNL A   1      51.171  29.438  26.371  1.00  0.00     0.074 A 
ATOM     62  C   UNL A   1      52.529  29.916  26.217  1.00  0.00     0.031 C 
ATOM     63  C   UNL A   1      50.829  28.129  26.469  1.00  0.00     0.037 A 
BRANCH  50  64
ATOM     64  C   UNL A   1      44.768  27.162  27.249  1.00  0.00     0.064 A 
ATOM     65  C   UNL A   1      44.490  26.625  28.516  1.00  0.00     0.173 A 
ATOM     66  C   UNL A   1      43.964  26.752  26.175  1.00  0.00     0.173 A 
ATOM     67  F   UNL A   1      45.239  26.967  29.575  1.00  0.00    -0.203 F 
ATOM     68  C   UNL A   1      43.475  25.686  28.691  1.00  0.00     0.198 A 
ATOM     69  C   UNL A   1      42.927  25.842  26.360  1.00  0.00     0.198 A 
ATOM     70  F   UNL A   1      44.187  27.232  24.942  1.00  0.00    -0.203 F 
ATOM     71  F   UNL A   1      43.272  25.137  29.896  1.00  0.00    -0.200 F 
ATOM     72  C   UNL A   1      42.691  25.302  27.614  1.00  0.00     0.200 A 
ATOM     73  F   UNL A   1      42.163  25.481  25.319  1.00  0.00    -0.200 F 
ATOM     74  F   UNL A   1      41.714  24.400  27.783  1.00  0.00    -0.200 F 
ENDBRANCH  50  64
BRANCH  51  75
ATOM     75  C   UNL A   1      51.882  34.085  26.026  1.00  0.00     0.064 A 
ATOM     76  C   UNL A   1      52.477  34.695  27.138  1.00  0.00     0.173 A 
ATOM     77  C   UNL A   1      52.320  34.483  24.754  1.00  0.00     0.173 A 
ATOM     78  F   UNL A   1      52.073  34.370  28.376  1.00  0.00    -0.203 F 
ATOM     79  C   UNL A   1      53.458  35.673  26.985  1.00  0.00     0.198 A 
ATOM     80  C   UNL A   1      53.322  35.440  24.602  1.00  0.00     0.198 A 
ATOM     81  F   UNL A   1      51.779  33.935  23.655  1.00  0.00    -0.203 F 
ATOM     82  F   UNL A   1      53.976  36.274  28.066  1.00  0.00    -0.200 F 
ATOM     83  C   UNL A   1      53.885  36.040  25.718  1.00  0.00     0.200 A 
ATOM     84  F   UNL A   1      53.739  35.782  23.375  1.00  0.00    -0.200 F 
ATOM     85  F   UNL A   1      54.831  36.976  25.572  1.00  0.00    -0.200 F 
ENDBRANCH  51  75
BRANCH  63  86
ATOM     86  C   UNL A   1      51.932  27.113  26.369  1.00  0.00     0.064 A 
ATOM     87  C   UNL A   1      52.730  26.774  27.472  1.00  0.00     0.173 A 
ATOM     88  C   UNL A   1      52.161  26.433  25.162  1.00  0.00     0.173 A 
ATOM     89  F   UNL A   1      52.562  27.400  28.646  1.00  0.00    -0.203 F 
ATOM     90  C   UNL A   1      53.735  25.815  27.361  1.00  0.00     0.198 A 
ATOM     91  C   UNL A   1      53.141  25.450  25.065  1.00  0.00     0.198 A 
ATOM     92  F   UNL A   1      51.420  26.710  24.079  1.00  0.00    -0.203 F 
ATOM     93  F   UNL A   1      54.520  25.546  28.414  1.00  0.00    -0.200 F 
ATOM     94  C   UNL A   1      53.933  25.148  26.162  1.00  0.00     0.200 A 
ATOM     95  F   UNL A   1      53.317  24.793  23.911  1.00  0.00    -0.200 F 
ATOM     96  F   UNL A   1      54.893  24.218  26.061  1.00  0.00    -0.200 F 
ENDBRANCH  63  86
ENDBRANCH  37  38
ENDBRANCH  30  32
ENDBRANCH  29  30
ENDBRANCH  28  29
ENDBRANCH  27  28
ENDBRANCH  26  27
ENDBRANCH  25  26
ENDBRANCH  24  25
ENDBRANCH  23  24
ENDBRANCH   1  23
TORSDOF 23
ENDMDL
