MODEL 1
REMARK VINA RESULT:     -11.3      0.000      0.000
REMARK SMILES CCOc1cccc(C(=O)Nc2ccc(Cl)c(C(=O)OCCOCCOCCOCCOC(=O)c3ccc(-c4c5nc(c(-c6c(F)c(F)c(F)c(F)c6F)c6ccc([nH]6)c(-c6c(F)c(F)c(F)c(F)c6F)c6nc(c(-c7c(F)c(F)c(F)c(F)c7F)c7ccc4[nH]7)C=C6)C=C5)cc3)c2)c1
REMARK SMILES IDX 25 1 24 2 23 3 22 4 21 5 20 6 18 7 19 8 17 9 12 10 13 11
REMARK SMILES IDX 98 12 14 13 15 14 16 15 11 16 9 17 10 18 8 20 4 21 5 22
REMARK SMILES IDX 99 23 6 24 7 25 3 26 2 27 1 28 26 29 27 30 28 31 29 32 30 33
REMARK SMILES IDX 31 34 32 35 33 36 34 37 35 38 36 39 97 40 37 41 96 42 38 43
REMARK SMILES IDX 39 44 40 45 90 46 41 47 95 48 89 49 91 50 42 51 94 52 88 53
REMARK SMILES IDX 87 54 43 56 75 57 55 58 74 59 56 60 59 61 73 62 92 63 57 64
REMARK SMILES IDX 58 65 72 67 93 68 60 69 44 70 45 71 53 72 46 73 47 74 51 75
REMARK SMILES IDX 54 76 48 77 49 78 52 79 50 80 76 81 77 82 85 83 78 84 79 85
REMARK SMILES IDX 83 86 86 87 80 88 81 89 84 90 82 91 61 92 62 93 70 94 63 95
REMARK SMILES IDX 64 96 68 97 71 98 65 99 66 100 69 101 67 102
REMARK H PARENT 11 19 91 55 59 66
REMARK Flexibility Score: inf
ROOT
ATOM      1  C   UNL A   1      41.316  20.112  26.871  1.00  0.00     0.188 C 
ENDROOT
BRANCH   1   2
ATOM      2  C   UNL A   1      40.311  21.250  26.605  1.00  0.00     0.188 C 
BRANCH   2   3
ATOM      3  O   UNL A   1      39.115  20.797  25.987  1.00  0.00    -0.376 OA
BRANCH   3   4
ATOM      4  C   UNL A   1      38.169  21.748  25.537  1.00  0.00     0.202 C 
BRANCH   4   5
ATOM      5  C   UNL A   1      37.065  21.334  24.549  1.00  0.00     0.261 C 
BRANCH   5   6
ATOM      6  O   UNL A   1      36.003  20.524  25.060  1.00  0.00    -0.460 OA
BRANCH   6   7
ATOM      7  C   UNL A   1      34.969  21.168  25.644  1.00  0.00     0.339 C 
ATOM      8  O   UNL A   1      34.927  21.516  26.811  1.00  0.00    -0.246 OA
BRANCH   7   9
ATOM      9  C   UNL A   1      33.948  21.475  24.600  1.00  0.00     0.080 A 
ATOM     10  C   UNL A   1      33.239  22.981  22.827  1.00  0.00     0.042 A 
ATOM     11  C   UNL A   1      32.240  22.079  22.459  1.00  0.00     0.028 A 
ATOM     12  C   UNL A   1      33.981  22.736  23.982  1.00  0.00     0.043 A 
ATOM     13  C   UNL A   1      32.111  20.868  23.142  1.00  0.00     0.023 A 
ATOM     14  C   UNL A   1      32.992  20.541  24.181  1.00  0.00     0.055 A 
ATOM     15  Cl  UNL A   1      32.775  18.994  24.918  1.00  0.00    -0.083 Cl
BRANCH  10  16
ATOM     16  N   UNL A   1      33.524  24.036  21.944  1.00  0.00    -0.322 N 
ATOM     17  C   UNL A   1      33.217  25.389  22.010  1.00  0.00     0.255 C 
ATOM     18  O   UNL A   1      33.456  26.097  21.032  1.00  0.00    -0.269 OA
ATOM     19  H   UNL A   1      34.028  23.771  21.141  1.00  0.00     0.170 HD
BRANCH  17  20
ATOM     20  C   UNL A   1      32.652  26.030  23.236  1.00  0.00     0.043 A 
ATOM     21  C   UNL A   1      30.898  27.301  24.305  1.00  0.00     0.120 A 
ATOM     22  C   UNL A   1      31.790  27.689  25.303  1.00  0.00     0.046 A 
ATOM     23  C   UNL A   1      31.298  26.379  23.344  1.00  0.00     0.060 A 
ATOM     24  C   UNL A   1      33.086  27.170  25.324  1.00  0.00     0.005 A 
ATOM     25  C   UNL A   1      33.530  26.369  24.271  1.00  0.00     0.014 A 
BRANCH  21  26
ATOM     26  O   UNL A   1      29.786  28.081  24.130  1.00  0.00    -0.494 OA
BRANCH  26  27
ATOM     27  C   UNL A   1      29.379  28.354  22.791  1.00  0.00     0.226 C 
ATOM     28  C   UNL A   1      30.003  29.608  22.196  1.00  0.00     0.049 C 
ENDBRANCH  26  27
ENDBRANCH  21  26
ENDBRANCH  17  20
ENDBRANCH  10  16
ENDBRANCH   7   9
ENDBRANCH   6   7
ENDBRANCH   5   6
ENDBRANCH   4   5
ENDBRANCH   3   4
ENDBRANCH   2   3
ENDBRANCH   1   2
BRANCH   1  29
ATOM     29  O   UNL A   1      42.635  20.312  26.391  1.00  0.00    -0.377 OA
BRANCH  29  30
ATOM     30  C   UNL A   1      43.247  19.280  25.621  1.00  0.00     0.188 C 
BRANCH  30  31
ATOM     31  C   UNL A   1      44.257  19.581  24.483  1.00  0.00     0.188 C 
BRANCH  31  32
ATOM     32  O   UNL A   1      45.609  19.727  24.883  1.00  0.00    -0.376 OA
BRANCH  32  33
ATOM     33  C   UNL A   1      46.000  20.899  25.572  1.00  0.00     0.202 C 
BRANCH  33  34
ATOM     34  C   UNL A   1      45.610  22.250  24.956  1.00  0.00     0.261 C 
BRANCH  34  35
ATOM     35  O   UNL A   1      44.707  23.057  25.725  1.00  0.00    -0.460 OA
BRANCH  35  36
ATOM     36  C   UNL A   1      43.562  23.454  25.133  1.00  0.00     0.338 C 
ATOM     37  O   UNL A   1      43.014  22.954  24.166  1.00  0.00    -0.246 OA
BRANCH  36  38
ATOM     38  C   UNL A   1      42.965  24.497  25.991  1.00  0.00     0.060 A 
ATOM     39  C   UNL A   1      43.402  25.823  25.864  1.00  0.00     0.016 A 
ATOM     40  C   UNL A   1      41.950  24.165  26.889  1.00  0.00     0.016 A 
ATOM     41  C   UNL A   1      42.842  26.822  26.662  1.00  0.00     0.010 A 
ATOM     42  C   UNL A   1      41.416  25.157  27.711  1.00  0.00     0.010 A 
ATOM     43  C   UNL A   1      41.886  26.480  27.626  1.00  0.00    -0.014 A 
BRANCH  43  44
ATOM     44  C   UNL A   1      41.558  27.435  28.708  1.00  0.00     0.031 A 
ATOM     45  C   UNL A   1      42.376  27.359  29.969  1.00  0.00     0.074 A 
ATOM     46  C   UNL A   1      40.562  28.329  28.591  1.00  0.00     0.049 A 
ATOM     47  N   UNL A   1      42.218  27.988  31.104  1.00  0.00    -0.248 NA
ATOM     48  C   UNL A   1      43.524  26.437  29.946  1.00  0.00     0.031 C 
ATOM     49  C   UNL A   1      39.739  28.531  27.401  1.00  0.00     0.029 A 
ATOM     50  N   UNL A   1      40.062  29.224  29.505  1.00  0.00    -0.354 N 
ATOM     51  C   UNL A   1      43.227  27.519  31.934  1.00  0.00     0.074 A 
ATOM     52  C   UNL A   1      43.989  26.548  31.181  1.00  0.00     0.031 C 
ATOM     53  C   UNL A   1      38.816  29.473  27.667  1.00  0.00     0.029 A 
ATOM     54  C   UNL A   1      38.957  29.907  29.056  1.00  0.00     0.049 A 
ATOM     55  H   UNL A   1      40.457  29.363  30.396  1.00  0.00     0.167 HD
ATOM     56  C   UNL A   1      43.492  27.869  33.213  1.00  0.00     0.037 A 
ATOM     57  C   UNL A   1      38.138  30.753  29.713  1.00  0.00     0.037 A 
ATOM     58  C   UNL A   1      42.740  28.848  33.950  1.00  0.00     0.049 A 
ATOM     59  C   UNL A   1      38.416  31.068  31.165  1.00  0.00     0.074 A 
ATOM     60  C   UNL A   1      42.956  29.306  35.237  1.00  0.00     0.029 A 
ATOM     61  N   UNL A   1      41.620  29.508  33.468  1.00  0.00    -0.354 N 
ATOM     62  N   UNL A   1      39.397  30.658  31.932  1.00  0.00    -0.248 NA
ATOM     63  C   UNL A   1      37.470  31.967  31.843  1.00  0.00     0.031 C 
ATOM     64  C   UNL A   1      41.925  30.193  35.559  1.00  0.00     0.029 A 
ATOM     65  C   UNL A   1      41.111  30.342  34.447  1.00  0.00     0.049 A 
ATOM     66  H   UNL A   1      41.244  29.398  32.565  1.00  0.00     0.167 HD
ATOM     67  C   UNL A   1      39.209  31.279  33.162  1.00  0.00     0.074 A 
ATOM     68  C   UNL A   1      38.026  32.102  33.038  1.00  0.00     0.031 C 
ATOM     69  C   UNL A   1      39.949  31.178  34.294  1.00  0.00     0.037 A 
BRANCH  56  70
ATOM     70  C   UNL A   1      44.611  27.164  33.919  1.00  0.00     0.064 A 
ATOM     71  C   UNL A   1      45.914  27.680  33.947  1.00  0.00     0.173 A 
ATOM     72  C   UNL A   1      44.354  25.986  34.635  1.00  0.00     0.173 A 
ATOM     73  F   UNL A   1      46.215  28.794  33.262  1.00  0.00    -0.203 F 
ATOM     74  C   UNL A   1      46.922  27.035  34.660  1.00  0.00     0.198 A 
ATOM     75  C   UNL A   1      45.355  25.361  35.371  1.00  0.00     0.198 A 
ATOM     76  F   UNL A   1      43.123  25.451  34.639  1.00  0.00    -0.203 F 
ATOM     77  F   UNL A   1      48.169  27.526  34.647  1.00  0.00    -0.200 F 
ATOM     78  C   UNL A   1      46.639  25.885  35.381  1.00  0.00     0.200 A 
ATOM     79  F   UNL A   1      45.076  24.257  36.079  1.00  0.00    -0.200 F 
ATOM     80  F   UNL A   1      47.605  25.278  36.084  1.00  0.00    -0.200 F 
ENDBRANCH  56  70
BRANCH  57  81
ATOM     81  C   UNL A   1      36.950  31.339  29.034  1.00  0.00     0.064 A 
ATOM     82  C   UNL A   1      36.911  32.698  28.686  1.00  0.00     0.173 A 
ATOM     83  C   UNL A   1      35.801  30.573  28.784  1.00  0.00     0.173 A 
ATOM     84  F   UNL A   1      37.973  33.480  28.928  1.00  0.00    -0.203 F 
ATOM     85  C   UNL A   1      35.761  33.274  28.151  1.00  0.00     0.198 A 
ATOM     86  C   UNL A   1      34.663  31.143  28.215  1.00  0.00     0.198 A 
ATOM     87  F   UNL A   1      35.779  29.270  29.100  1.00  0.00    -0.203 F 
ATOM     88  F   UNL A   1      35.729  34.590  27.898  1.00  0.00    -0.200 F 
ATOM     89  C   UNL A   1      34.638  32.496  27.914  1.00  0.00     0.200 A 
ATOM     90  F   UNL A   1      33.586  30.384  27.975  1.00  0.00    -0.200 F 
ATOM     91  F   UNL A   1      33.528  33.051  27.409  1.00  0.00    -0.200 F 
ENDBRANCH  57  81
BRANCH  69  92
ATOM     92  C   UNL A   1      39.549  32.025  35.469  1.00  0.00     0.064 A 
ATOM     93  C   UNL A   1      40.071  33.309  35.673  1.00  0.00     0.173 A 
ATOM     94  C   UNL A   1      38.573  31.562  36.368  1.00  0.00     0.173 A 
ATOM     95  F   UNL A   1      41.014  33.793  34.849  1.00  0.00    -0.203 F 
ATOM     96  C   UNL A   1      39.650  34.091  36.745  1.00  0.00     0.198 A 
ATOM     97  C   UNL A   1      38.128  32.361  37.417  1.00  0.00     0.198 A 
ATOM     98  F   UNL A   1      38.031  30.345  36.212  1.00  0.00    -0.203 F 
ATOM     99  F   UNL A   1      40.196  35.298  36.947  1.00  0.00    -0.200 F 
ATOM    100  C   UNL A   1      38.672  33.621  37.610  1.00  0.00     0.200 A 
ATOM    101  F   UNL A   1      37.168  31.912  38.239  1.00  0.00    -0.200 F 
ATOM    102  F   UNL A   1      38.256  34.382  38.631  1.00  0.00    -0.200 F 
ENDBRANCH  69  92
ENDBRANCH  43  44
ENDBRANCH  36  38
ENDBRANCH  35  36
ENDBRANCH  34  35
ENDBRANCH  33  34
ENDBRANCH  32  33
ENDBRANCH  31  32
ENDBRANCH  30  31
ENDBRANCH  29  30
ENDBRANCH   1  29
TORSDOF 24
ENDMDL
MODEL 2
REMARK VINA RESULT:     -10.3      5.427     11.082
REMARK SMILES CCOc1cccc(C(=O)Nc2ccc(Cl)c(C(=O)OCCOCCOCCOCCOC(=O)c3ccc(-c4c5nc(c(-c6c(F)c(F)c(F)c(F)c6F)c6ccc([nH]6)c(-c6c(F)c(F)c(F)c(F)c6F)c6nc(c(-c7c(F)c(F)c(F)c(F)c7F)c7ccc4[nH]7)C=C6)C=C5)cc3)c2)c1
REMARK SMILES IDX 25 1 24 2 23 3 22 4 21 5 20 6 18 7 19 8 17 9 12 10 13 11
REMARK SMILES IDX 98 12 14 13 15 14 16 15 11 16 9 17 10 18 8 20 4 21 5 22
REMARK SMILES IDX 99 23 6 24 7 25 3 26 2 27 1 28 26 29 27 30 28 31 29 32 30 33
REMARK SMILES IDX 31 34 32 35 33 36 34 37 35 38 36 39 97 40 37 41 96 42 38 43
REMARK SMILES IDX 39 44 40 45 90 46 41 47 95 48 89 49 91 50 42 51 94 52 88 53
REMARK SMILES IDX 87 54 43 56 75 57 55 58 74 59 56 60 59 61 73 62 92 63 57 64
REMARK SMILES IDX 58 65 72 67 93 68 60 69 44 70 45 71 53 72 46 73 47 74 51 75
REMARK SMILES IDX 54 76 48 77 49 78 52 79 50 80 76 81 77 82 85 83 78 84 79 85
REMARK SMILES IDX 83 86 86 87 80 88 81 89 84 90 82 91 61 92 62 93 70 94 63 95
REMARK SMILES IDX 64 96 68 97 71 98 65 99 66 100 69 101 67 102
REMARK H PARENT 11 19 91 55 59 66
REMARK Flexibility Score: inf
ROOT
ATOM      1  C   UNL A   1      34.109  34.920  28.123  1.00  0.00     0.188 C 
ENDROOT
BRANCH   1   2
ATOM      2  C   UNL A   1      34.312  33.461  28.575  1.00  0.00     0.188 C 
BRANCH   2   3
ATOM      3  O   UNL A   1      34.180  32.529  27.512  1.00  0.00    -0.376 OA
BRANCH   3   4
ATOM      4  C   UNL A   1      34.442  31.160  27.758  1.00  0.00     0.202 C 
BRANCH   4   5
ATOM      5  C   UNL A   1      33.442  30.086  27.296  1.00  0.00     0.261 C 
BRANCH   5   6
ATOM      6  O   UNL A   1      33.942  29.051  26.447  1.00  0.00    -0.460 OA
BRANCH   6   7
ATOM      7  C   UNL A   1      33.357  28.915  25.238  1.00  0.00     0.339 C 
ATOM      8  O   UNL A   1      33.120  29.826  24.465  1.00  0.00    -0.246 OA
BRANCH   7   9
ATOM      9  C   UNL A   1      33.157  27.461  24.968  1.00  0.00     0.080 A 
ATOM     10  C   UNL A   1      32.243  25.350  25.759  1.00  0.00     0.042 A 
ATOM     11  C   UNL A   1      32.514  24.768  24.521  1.00  0.00     0.028 A 
ATOM     12  C   UNL A   1      32.702  26.643  26.015  1.00  0.00     0.043 A 
ATOM     13  C   UNL A   1      33.081  25.535  23.501  1.00  0.00     0.023 A 
ATOM     14  C   UNL A   1      33.361  26.892  23.704  1.00  0.00     0.055 A 
ATOM     15  Cl  UNL A   1      34.009  27.756  22.357  1.00  0.00    -0.083 Cl
BRANCH  10  16
ATOM     16  N   UNL A   1      31.415  24.643  26.648  1.00  0.00    -0.322 N 
ATOM     17  C   UNL A   1      31.290  23.281  26.889  1.00  0.00     0.255 C 
ATOM     18  O   UNL A   1      30.382  22.893  27.624  1.00  0.00    -0.269 OA
ATOM     19  H   UNL A   1      30.822  25.210  27.192  1.00  0.00     0.170 HD
BRANCH  17  20
ATOM     20  C   UNL A   1      32.240  22.271  26.331  1.00  0.00     0.043 A 
ATOM     21  C   UNL A   1      34.505  21.561  25.885  1.00  0.00     0.120 A 
ATOM     22  C   UNL A   1      34.042  20.731  24.866  1.00  0.00     0.046 A 
ATOM     23  C   UNL A   1      33.594  22.235  26.692  1.00  0.00     0.060 A 
ATOM     24  C   UNL A   1      32.671  20.594  24.643  1.00  0.00     0.005 A 
ATOM     25  C   UNL A   1      31.769  21.391  25.350  1.00  0.00     0.014 A 
BRANCH  21  26
ATOM     26  O   UNL A   1      35.825  21.923  25.838  1.00  0.00    -0.494 OA
BRANCH  26  27
ATOM     27  C   UNL A   1      36.572  21.534  24.688  1.00  0.00     0.226 C 
ATOM     28  C   UNL A   1      36.604  22.583  23.585  1.00  0.00     0.049 C 
ENDBRANCH  26  27
ENDBRANCH  21  26
ENDBRANCH  17  20
ENDBRANCH  10  16
ENDBRANCH   7   9
ENDBRANCH   6   7
ENDBRANCH   5   6
ENDBRANCH   4   5
ENDBRANCH   3   4
ENDBRANCH   2   3
ENDBRANCH   1   2
BRANCH   1  29
ATOM     29  O   UNL A   1      33.598  35.816  29.096  1.00  0.00    -0.377 OA
BRANCH  29  30
ATOM     30  C   UNL A   1      33.242  35.302  30.377  1.00  0.00     0.188 C 
BRANCH  30  31
ATOM     31  C   UNL A   1      33.052  36.218  31.615  1.00  0.00     0.188 C 
BRANCH  31  32
ATOM     32  O   UNL A   1      34.192  36.381  32.440  1.00  0.00    -0.376 OA
BRANCH  32  33
ATOM     33  C   UNL A   1      34.600  35.310  33.271  1.00  0.00     0.202 C 
BRANCH  33  34
ATOM     34  C   UNL A   1      35.915  34.601  32.920  1.00  0.00     0.261 C 
BRANCH  34  35
ATOM     35  O   UNL A   1      35.944  33.183  33.136  1.00  0.00    -0.460 OA
BRANCH  35  36
ATOM     36  C   UNL A   1      35.766  32.383  32.064  1.00  0.00     0.338 C 
ATOM     37  O   UNL A   1      34.716  32.098  31.516  1.00  0.00    -0.246 OA
BRANCH  36  38
ATOM     38  C   UNL A   1      37.106  32.059  31.534  1.00  0.00     0.060 A 
ATOM     39  C   UNL A   1      37.380  32.288  30.177  1.00  0.00     0.016 A 
ATOM     40  C   UNL A   1      38.094  31.567  32.386  1.00  0.00     0.016 A 
ATOM     41  C   UNL A   1      38.644  31.996  29.662  1.00  0.00     0.010 A 
ATOM     42  C   UNL A   1      39.346  31.242  31.863  1.00  0.00     0.010 A 
ATOM     43  C   UNL A   1      39.612  31.421  30.493  1.00  0.00    -0.014 A 
BRANCH  43  44
ATOM     44  C   UNL A   1      40.803  30.774  29.898  1.00  0.00     0.031 A 
ATOM     45  C   UNL A   1      42.029  31.627  29.705  1.00  0.00     0.074 A 
ATOM     46  C   UNL A   1      40.801  29.484  29.524  1.00  0.00     0.049 A 
ATOM     47  N   UNL A   1      43.152  31.345  29.100  1.00  0.00    -0.248 NA
ATOM     48  C   UNL A   1      41.971  32.987  30.267  1.00  0.00     0.031 C 
ATOM     49  C   UNL A   1      39.694  28.550  29.710  1.00  0.00     0.029 A 
ATOM     50  N   UNL A   1      41.766  28.744  28.887  1.00  0.00    -0.354 N 
ATOM     51  C   UNL A   1      43.921  32.499  29.185  1.00  0.00     0.074 A 
ATOM     52  C   UNL A   1      43.138  33.488  29.891  1.00  0.00     0.031 C 
ATOM     53  C   UNL A   1      40.033  27.363  29.173  1.00  0.00     0.029 A 
ATOM     54  C   UNL A   1      41.360  27.470  28.569  1.00  0.00     0.049 A 
ATOM     55  H   UNL A   1      42.663  29.092  28.679  1.00  0.00     0.167 HD
ATOM     56  C   UNL A   1      45.170  32.711  28.712  1.00  0.00     0.037 A 
ATOM     57  C   UNL A   1      41.982  26.522  27.840  1.00  0.00     0.037 A 
ATOM     58  C   UNL A   1      45.949  31.718  28.025  1.00  0.00     0.049 A 
ATOM     59  C   UNL A   1      43.348  26.815  27.261  1.00  0.00     0.074 A 
ATOM     60  C   UNL A   1      47.242  31.819  27.546  1.00  0.00     0.029 A 
ATOM     61  N   UNL A   1      45.499  30.444  27.709  1.00  0.00    -0.354 N 
ATOM     62  N   UNL A   1      44.088  27.890  27.381  1.00  0.00    -0.248 NA
ATOM     63  C   UNL A   1      43.963  25.759  26.442  1.00  0.00     0.031 C 
ATOM     64  C   UNL A   1      47.551  30.632  26.878  1.00  0.00     0.029 A 
ATOM     65  C   UNL A   1      46.478  29.764  27.006  1.00  0.00     0.049 A 
ATOM     66  H   UNL A   1      44.617  30.080  27.948  1.00  0.00     0.167 HD
ATOM     67  C   UNL A   1      45.268  27.623  26.694  1.00  0.00     0.074 A 
ATOM     68  C   UNL A   1      45.148  26.282  26.166  1.00  0.00     0.031 C 
ATOM     69  C   UNL A   1      46.352  28.416  26.515  1.00  0.00     0.037 A 
BRANCH  56  70
ATOM     70  C   UNL A   1      45.762  34.078  28.877  1.00  0.00     0.064 A 
ATOM     71  C   UNL A   1      46.441  34.458  30.044  1.00  0.00     0.173 A 
ATOM     72  C   UNL A   1      45.705  34.998  27.820  1.00  0.00     0.173 A 
ATOM     73  F   UNL A   1      46.508  33.621  31.091  1.00  0.00    -0.203 F 
ATOM     74  C   UNL A   1      47.034  35.714  30.148  1.00  0.00     0.198 A 
ATOM     75  C   UNL A   1      46.324  36.240  27.916  1.00  0.00     0.198 A 
ATOM     76  F   UNL A   1      45.065  34.683  26.684  1.00  0.00    -0.203 F 
ATOM     77  F   UNL A   1      47.649  36.070  31.284  1.00  0.00    -0.200 F 
ATOM     78  C   UNL A   1      46.985  36.598  29.081  1.00  0.00     0.200 A 
ATOM     79  F   UNL A   1      46.288  37.088  26.878  1.00  0.00    -0.200 F 
ATOM     80  F   UNL A   1      47.575  37.798  29.175  1.00  0.00    -0.200 F 
ENDBRANCH  56  70
BRANCH  57  81
ATOM     81  C   UNL A   1      41.319  25.216  27.570  1.00  0.00     0.064 A 
ATOM     82  C   UNL A   1      40.222  25.127  26.699  1.00  0.00     0.173 A 
ATOM     83  C   UNL A   1      41.721  24.044  28.228  1.00  0.00     0.173 A 
ATOM     84  F   UNL A   1      39.781  26.223  26.065  1.00  0.00    -0.203 F 
ATOM     85  C   UNL A   1      39.531  23.928  26.529  1.00  0.00     0.198 A 
ATOM     86  C   UNL A   1      41.052  22.838  28.029  1.00  0.00     0.198 A 
ATOM     87  F   UNL A   1      42.761  24.071  29.074  1.00  0.00    -0.203 F 
ATOM     88  F   UNL A   1      38.442  23.891  25.749  1.00  0.00    -0.200 F 
ATOM     89  C   UNL A   1      39.949  22.784  27.191  1.00  0.00     0.200 A 
ATOM     90  F   UNL A   1      41.467  21.732  28.660  1.00  0.00    -0.200 F 
ATOM     91  F   UNL A   1      39.279  21.634  27.035  1.00  0.00    -0.200 F 
ENDBRANCH  57  81
BRANCH  69  92
ATOM     92  C   UNL A   1      47.527  27.839  25.776  1.00  0.00     0.064 A 
ATOM     93  C   UNL A   1      47.588  27.819  24.376  1.00  0.00     0.173 A 
ATOM     94  C   UNL A   1      48.640  27.361  26.489  1.00  0.00     0.173 A 
ATOM     95  F   UNL A   1      46.547  28.254  23.649  1.00  0.00    -0.203 F 
ATOM     96  C   UNL A   1      48.707  27.321  23.716  1.00  0.00     0.198 A 
ATOM     97  C   UNL A   1      49.771  26.897  25.826  1.00  0.00     0.198 A 
ATOM     98  F   UNL A   1      48.639  27.369  27.831  1.00  0.00    -0.203 F 
ATOM     99  F   UNL A   1      48.725  27.268  22.377  1.00  0.00    -0.200 F 
ATOM    100  C   UNL A   1      49.801  26.870  24.440  1.00  0.00     0.200 A 
ATOM    101  F   UNL A   1      50.835  26.482  26.528  1.00  0.00    -0.200 F 
ATOM    102  F   UNL A   1      50.885  26.406  23.802  1.00  0.00    -0.200 F 
ENDBRANCH  69  92
ENDBRANCH  43  44
ENDBRANCH  36  38
ENDBRANCH  35  36
ENDBRANCH  34  35
ENDBRANCH  33  34
ENDBRANCH  32  33
ENDBRANCH  31  32
ENDBRANCH  30  31
ENDBRANCH  29  30
ENDBRANCH   1  29
TORSDOF 24
ENDMDL
MODEL 3
REMARK VINA RESULT:     -10.2      1.159      7.146
REMARK SMILES CCOc1cccc(C(=O)Nc2ccc(Cl)c(C(=O)OCCOCCOCCOCCOC(=O)c3ccc(-c4c5nc(c(-c6c(F)c(F)c(F)c(F)c6F)c6ccc([nH]6)c(-c6c(F)c(F)c(F)c(F)c6F)c6nc(c(-c7c(F)c(F)c(F)c(F)c7F)c7ccc4[nH]7)C=C6)C=C5)cc3)c2)c1
REMARK SMILES IDX 25 1 24 2 23 3 22 4 21 5 20 6 18 7 19 8 17 9 12 10 13 11
REMARK SMILES IDX 98 12 14 13 15 14 16 15 11 16 9 17 10 18 8 20 4 21 5 22
REMARK SMILES IDX 99 23 6 24 7 25 3 26 2 27 1 28 26 29 27 30 28 31 29 32 30 33
REMARK SMILES IDX 31 34 32 35 33 36 34 37 35 38 36 39 97 40 37 41 96 42 38 43
REMARK SMILES IDX 39 44 40 45 90 46 41 47 95 48 89 49 91 50 42 51 94 52 88 53
REMARK SMILES IDX 87 54 43 56 75 57 55 58 74 59 56 60 59 61 73 62 92 63 57 64
REMARK SMILES IDX 58 65 72 67 93 68 60 69 44 70 45 71 53 72 46 73 47 74 51 75
REMARK SMILES IDX 54 76 48 77 49 78 52 79 50 80 76 81 77 82 85 83 78 84 79 85
REMARK SMILES IDX 83 86 86 87 80 88 81 89 84 90 82 91 61 92 62 93 70 94 63 95
REMARK SMILES IDX 64 96 68 97 71 98 65 99 66 100 69 101 67 102
REMARK H PARENT 11 19 91 55 59 66
REMARK Flexibility Score: inf
ROOT
ATOM      1  C   UNL A   1      41.019  21.438  27.400  1.00  0.00     0.188 C 
ENDROOT
BRANCH   1   2
ATOM      2  C   UNL A   1      39.887  22.303  26.811  1.00  0.00     0.188 C 
BRANCH   2   3
ATOM      3  O   UNL A   1      38.852  21.530  26.221  1.00  0.00    -0.376 OA
BRANCH   3   4
ATOM      4  C   UNL A   1      37.923  22.163  25.361  1.00  0.00     0.202 C 
BRANCH   4   5
ATOM      5  C   UNL A   1      36.762  21.360  24.750  1.00  0.00     0.261 C 
BRANCH   5   6
ATOM      6  O   UNL A   1      35.705  20.970  25.629  1.00  0.00    -0.460 OA
BRANCH   6   7
ATOM      7  C   UNL A   1      34.872  21.944  26.055  1.00  0.00     0.339 C 
ATOM      8  O   UNL A   1      34.898  22.459  27.158  1.00  0.00    -0.246 OA
BRANCH   7   9
ATOM      9  C   UNL A   1      33.998  22.353  24.916  1.00  0.00     0.080 A 
ATOM     10  C   UNL A   1      33.550  24.000  23.183  1.00  0.00     0.042 A 
ATOM     11  C   UNL A   1      32.587  23.157  22.629  1.00  0.00     0.028 A 
ATOM     12  C   UNL A   1      34.135  23.654  24.401  1.00  0.00     0.043 A 
ATOM     13  C   UNL A   1      32.348  21.905  23.201  1.00  0.00     0.023 A 
ATOM     14  C   UNL A   1      33.083  21.480  24.315  1.00  0.00     0.055 A 
ATOM     15  Cl  UNL A   1      32.742  19.893  24.904  1.00  0.00    -0.083 Cl
BRANCH  10  16
ATOM     16  N   UNL A   1      33.967  25.106  22.422  1.00  0.00    -0.322 N 
ATOM     17  C   UNL A   1      33.604  26.444  22.483  1.00  0.00     0.255 C 
ATOM     18  O   UNL A   1      34.006  27.207  21.605  1.00  0.00    -0.269 OA
ATOM     19  H   UNL A   1      34.631  24.895  21.726  1.00  0.00     0.170 HD
BRANCH  17  20
ATOM     20  C   UNL A   1      32.782  27.008  23.597  1.00  0.00     0.043 A 
ATOM     21  C   UNL A   1      31.058  28.519  24.360  1.00  0.00     0.120 A 
ATOM     22  C   UNL A   1      31.596  28.482  25.645  1.00  0.00     0.046 A 
ATOM     23  C   UNL A   1      31.579  27.691  23.371  1.00  0.00     0.060 A 
ATOM     24  C   UNL A   1      32.667  27.632  25.931  1.00  0.00     0.005 A 
ATOM     25  C   UNL A   1      33.284  26.921  24.900  1.00  0.00     0.014 A 
BRANCH  21  26
ATOM     26  O   UNL A   1      30.264  29.591  24.052  1.00  0.00    -0.494 OA
BRANCH  26  27
ATOM     27  C   UNL A   1      29.311  29.424  23.004  1.00  0.00     0.226 C 
ATOM     28  C   UNL A   1      28.070  30.293  23.152  1.00  0.00     0.049 C 
ENDBRANCH  26  27
ENDBRANCH  21  26
ENDBRANCH  17  20
ENDBRANCH  10  16
ENDBRANCH   7   9
ENDBRANCH   6   7
ENDBRANCH   5   6
ENDBRANCH   4   5
ENDBRANCH   3   4
ENDBRANCH   2   3
ENDBRANCH   1   2
BRANCH   1  29
ATOM     29  O   UNL A   1      40.957  20.049  27.126  1.00  0.00    -0.377 OA
BRANCH  29  30
ATOM     30  C   UNL A   1      42.172  19.347  26.872  1.00  0.00     0.188 C 
BRANCH  30  31
ATOM     31  C   UNL A   1      42.860  19.355  25.481  1.00  0.00     0.188 C 
BRANCH  31  32
ATOM     32  O   UNL A   1      44.160  19.915  25.441  1.00  0.00    -0.376 OA
BRANCH  32  33
ATOM     33  C   UNL A   1      44.334  21.212  24.899  1.00  0.00     0.202 C 
BRANCH  33  34
ATOM     34  C   UNL A   1      45.265  22.175  25.649  1.00  0.00     0.261 C 
BRANCH  34  35
ATOM     35  O   UNL A   1      44.623  23.201  26.419  1.00  0.00    -0.460 OA
BRANCH  35  36
ATOM     36  C   UNL A   1      44.377  24.379  25.810  1.00  0.00     0.338 C 
ATOM     37  O   UNL A   1      44.560  24.663  24.639  1.00  0.00    -0.246 OA
BRANCH  36  38
ATOM     38  C   UNL A   1      43.646  25.226  26.775  1.00  0.00     0.060 A 
ATOM     39  C   UNL A   1      44.029  26.565  26.941  1.00  0.00     0.016 A 
ATOM     40  C   UNL A   1      42.564  24.703  27.484  1.00  0.00     0.016 A 
ATOM     41  C   UNL A   1      43.344  27.380  27.843  1.00  0.00     0.010 A 
ATOM     42  C   UNL A   1      41.903  25.508  28.411  1.00  0.00     0.010 A 
ATOM     43  C   UNL A   1      42.314  26.837  28.619  1.00  0.00    -0.014 A 
BRANCH  43  44
ATOM     44  C   UNL A   1      41.833  27.563  29.816  1.00  0.00     0.031 A 
ATOM     45  C   UNL A   1      40.581  28.384  29.670  1.00  0.00     0.074 A 
ATOM     46  C   UNL A   1      42.486  27.513  30.989  1.00  0.00     0.049 A 
ATOM     47  N   UNL A   1      40.020  29.207  30.517  1.00  0.00    -0.248 NA
ATOM     48  C   UNL A   1      39.870  28.267  28.385  1.00  0.00     0.031 C 
ATOM     49  C   UNL A   1      43.676  26.711  31.264  1.00  0.00     0.029 A 
ATOM     50  N   UNL A   1      42.245  28.176  32.167  1.00  0.00    -0.354 N 
ATOM     51  C   UNL A   1      38.911  29.722  29.859  1.00  0.00     0.074 A 
ATOM     52  C   UNL A   1      38.878  29.130  28.541  1.00  0.00     0.031 C 
ATOM     53  C   UNL A   1      44.078  26.950  32.525  1.00  0.00     0.029 A 
ATOM     54  C   UNL A   1      43.200  27.951  33.129  1.00  0.00     0.049 A 
ATOM     55  H   UNL A   1      41.462  28.756  32.309  1.00  0.00     0.167 HD
ATOM     56  C   UNL A   1      38.003  30.613  30.317  1.00  0.00     0.037 A 
ATOM     57  C   UNL A   1      43.360  28.524  34.339  1.00  0.00     0.037 A 
ATOM     58  C   UNL A   1      38.032  31.184  31.635  1.00  0.00     0.049 A 
ATOM     59  C   UNL A   1      42.369  29.572  34.794  1.00  0.00     0.074 A 
ATOM     60  C   UNL A   1      37.132  32.062  32.212  1.00  0.00     0.029 A 
ATOM     61  N   UNL A   1      39.022  30.945  32.576  1.00  0.00    -0.354 N 
ATOM     62  N   UNL A   1      41.298  30.023  34.188  1.00  0.00    -0.248 NA
ATOM     63  C   UNL A   1      42.612  30.191  36.106  1.00  0.00     0.031 C 
ATOM     64  C   UNL A   1      37.614  32.408  33.477  1.00  0.00     0.029 A 
ATOM     65  C   UNL A   1      38.775  31.689  33.716  1.00  0.00     0.049 A 
ATOM     66  H   UNL A   1      39.786  30.337  32.451  1.00  0.00     0.167 HD
ATOM     67  C   UNL A   1      40.720  30.941  35.058  1.00  0.00     0.074 A 
ATOM     68  C   UNL A   1      41.555  30.977  36.239  1.00  0.00     0.031 C 
ATOM     69  C   UNL A   1      39.601  31.687  34.896  1.00  0.00     0.037 A 
BRANCH  56  70
ATOM     70  C   UNL A   1      36.922  31.062  29.380  1.00  0.00     0.064 A 
ATOM     71  C   UNL A   1      35.844  30.234  29.036  1.00  0.00     0.173 A 
ATOM     72  C   UNL A   1      36.936  32.370  28.873  1.00  0.00     0.173 A 
ATOM     73  F   UNL A   1      35.795  28.969  29.480  1.00  0.00    -0.203 F 
ATOM     74  C   UNL A   1      34.823  30.698  28.210  1.00  0.00     0.198 A 
ATOM     75  C   UNL A   1      35.899  32.840  28.073  1.00  0.00     0.198 A 
ATOM     76  F   UNL A   1      37.946  33.201  29.171  1.00  0.00    -0.203 F 
ATOM     77  F   UNL A   1      33.819  29.880  27.866  1.00  0.00    -0.200 F 
ATOM     78  C   UNL A   1      34.845  32.002  27.740  1.00  0.00     0.200 A 
ATOM     79  F   UNL A   1      35.916  34.105  27.631  1.00  0.00    -0.200 F 
ATOM     80  F   UNL A   1      33.851  32.453  26.963  1.00  0.00    -0.200 F 
ENDBRANCH  56  70
BRANCH  57  81
ATOM     81  C   UNL A   1      44.518  28.165  35.202  1.00  0.00     0.064 A 
ATOM     82  C   UNL A   1      44.391  27.215  36.227  1.00  0.00     0.173 A 
ATOM     83  C   UNL A   1      45.756  28.812  35.069  1.00  0.00     0.173 A 
ATOM     84  F   UNL A   1      43.221  26.586  36.413  1.00  0.00    -0.203 F 
ATOM     85  C   UNL A   1      45.440  26.955  37.106  1.00  0.00     0.198 A 
ATOM     86  C   UNL A   1      46.817  28.526  35.927  1.00  0.00     0.198 A 
ATOM     87  F   UNL A   1      45.934  29.732  34.110  1.00  0.00    -0.203 F 
ATOM     88  F   UNL A   1      45.264  26.097  38.121  1.00  0.00    -0.200 F 
ATOM     89  C   UNL A   1      46.653  27.609  36.954  1.00  0.00     0.200 A 
ATOM     90  F   UNL A   1      47.991  29.150  35.767  1.00  0.00    -0.200 F 
ATOM     91  F   UNL A   1      47.659  27.368  37.806  1.00  0.00    -0.200 F 
ENDBRANCH  57  81
BRANCH  69  92
ATOM     92  C   UNL A   1      39.167  32.558  36.042  1.00  0.00     0.064 A 
ATOM     93  C   UNL A   1      38.375  32.068  37.089  1.00  0.00     0.173 A 
ATOM     94  C   UNL A   1      39.612  33.888  36.122  1.00  0.00     0.173 A 
ATOM     95  F   UNL A   1      37.915  30.807  37.055  1.00  0.00    -0.203 F 
ATOM     96  C   UNL A   1      38.025  32.882  38.163  1.00  0.00     0.198 A 
ATOM     97  C   UNL A   1      39.290  34.688  37.213  1.00  0.00     0.198 A 
ATOM     98  F   UNL A   1      40.383  34.403  35.152  1.00  0.00    -0.203 F 
ATOM     99  F   UNL A   1      37.229  32.407  39.130  1.00  0.00    -0.200 F 
ATOM    100  C   UNL A   1      38.490  34.187  38.229  1.00  0.00     0.200 A 
ATOM    101  F   UNL A   1      39.759  35.942  37.285  1.00  0.00    -0.200 F 
ATOM    102  F   UNL A   1      38.166  34.965  39.272  1.00  0.00    -0.200 F 
ENDBRANCH  69  92
ENDBRANCH  43  44
ENDBRANCH  36  38
ENDBRANCH  35  36
ENDBRANCH  34  35
ENDBRANCH  33  34
ENDBRANCH  32  33
ENDBRANCH  31  32
ENDBRANCH  30  31
ENDBRANCH  29  30
ENDBRANCH   1  29
TORSDOF 24
ENDMDL
