MODEL 1
REMARK VINA RESULT:     -11.1      0.000      0.000
REMARK SMILES Cn1cc(Cl)cc1C(=O)N[C@H]1C=C[C@H](C(=O)OCCOCCOCCOCCOC(=O)c2ccc(-c3c4nc(c(-c5c(F)c(F)c(F)c(F)c5F)c5ccc([nH]5)c(-c5c(F)c(F)c(F)c(F)c5F)c5nc(c(-c6c(F)c(F)c(F)c(F)c6F)c6ccc3[nH]6)C=C5)C=C4)cc2)C1
REMARK SMILES IDX 23 1 22 2 21 3 20 4 19 5 18 6 17 7 15 8 16 9 14 10 11 11
REMARK SMILES IDX 12 12 95 13 13 14 10 15 8 16 9 17 7 19 1 20 2 21 3 22 4 23
REMARK SMILES IDX 6 24 5 25 24 26 25 27 26 28 27 29 28 30 29 31 30 32 31 33
REMARK SMILES IDX 32 34 33 35 94 36 34 37 93 38 35 39 36 40 37 41 87 42 38 43
REMARK SMILES IDX 92 44 86 45 88 46 39 47 91 48 85 49 84 50 40 52 72 53 52 54
REMARK SMILES IDX 71 55 53 56 56 57 70 58 89 59 54 60 55 61 69 63 90 64 57 65
REMARK SMILES IDX 41 66 42 67 50 68 43 69 44 70 48 71 51 72 45 73 46 74 49 75
REMARK SMILES IDX 47 76 73 77 74 78 82 79 75 80 76 81 80 82 83 83 77 84 78 85
REMARK SMILES IDX 81 86 79 87 58 88 59 89 67 90 60 91 61 92 65 93 68 94 62 95
REMARK SMILES IDX 63 96 66 97 64 98
REMARK H PARENT 10 18 88 51 56 62
REMARK Flexibility Score: inf
ROOT
ATOM      1  O   UNL A   1      39.569  22.136  26.294  1.00  0.00    -0.377 OA
ENDROOT
BRANCH   1   2
ATOM      2  C   UNL A   1      38.438  21.483  25.741  1.00  0.00     0.188 C 
BRANCH   2   3
ATOM      3  C   UNL A   1      37.453  22.377  24.940  1.00  0.00     0.188 C 
BRANCH   3   4
ATOM      4  O   UNL A   1      36.089  22.498  25.324  1.00  0.00    -0.376 OA
BRANCH   4   5
ATOM      5  C   UNL A   1      35.440  21.414  25.962  1.00  0.00     0.202 C 
BRANCH   5   6
ATOM      6  C   UNL A   1      33.982  21.583  26.420  1.00  0.00     0.261 C 
BRANCH   6   7
ATOM      7  O   UNL A   1      33.374  22.874  26.186  1.00  0.00    -0.463 OA
BRANCH   7   8
ATOM      8  C   UNL A   1      32.084  22.861  25.761  1.00  0.00     0.312 C 
ATOM      9  O   UNL A   1      31.121  22.724  26.508  1.00  0.00    -0.252 OA
BRANCH   8  10
ATOM     10  C   UNL A   1      31.915  22.920  24.228  1.00  0.00     0.124 C 
ATOM     11  C   UNL A   1      32.541  25.113  23.500  1.00  0.00     0.106 C 
ATOM     12  C   UNL A   1      31.162  24.816  23.023  1.00  0.00    -0.006 C 
ATOM     13  C   UNL A   1      33.102  23.707  23.684  1.00  0.00     0.048 C 
ATOM     14  C   UNL A   1      30.783  23.625  23.516  1.00  0.00    -0.014 C 
BRANCH  11  15
ATOM     15  N   UNL A   1      33.296  25.935  22.614  1.00  0.00    -0.345 N 
ATOM     16  C   UNL A   1      33.224  27.295  22.438  1.00  0.00     0.268 C 
ATOM     17  O   UNL A   1      34.041  27.776  21.649  1.00  0.00    -0.268 OA
ATOM     18  H   UNL A   1      33.956  25.465  22.054  1.00  0.00     0.164 HD
BRANCH  16  19
ATOM     19  C   UNL A   1      32.339  28.146  23.227  1.00  0.00     0.108 A 
ATOM     20  C   UNL A   1      33.188  28.099  25.646  1.00  0.00     0.150 C 
ATOM     21  N   UNL A   1      32.358  28.550  24.553  1.00  0.00    -0.345 N 
ATOM     22  C   UNL A   1      31.344  29.454  24.791  1.00  0.00     0.106 A 
ATOM     23  C   UNL A   1      30.545  29.494  23.681  1.00  0.00     0.059 A 
ATOM     24  C   UNL A   1      31.150  28.673  22.712  1.00  0.00     0.054 A 
ATOM     25  Cl  UNL A   1      29.097  30.350  23.492  1.00  0.00    -0.083 Cl
ENDBRANCH  16  19
ENDBRANCH  11  15
ENDBRANCH   8  10
ENDBRANCH   7   8
ENDBRANCH   6   7
ENDBRANCH   5   6
ENDBRANCH   4   5
ENDBRANCH   3   4
ENDBRANCH   2   3
ENDBRANCH   1   2
BRANCH   1  26
ATOM     26  C   UNL A   1      40.439  21.325  27.075  1.00  0.00     0.188 C 
BRANCH  26  27
ATOM     27  C   UNL A   1      40.810  19.939  26.506  1.00  0.00     0.188 C 
BRANCH  27  28
ATOM     28  O   UNL A   1      42.116  19.499  26.842  1.00  0.00    -0.376 OA
BRANCH  28  29
ATOM     29  C   UNL A   1      42.742  18.406  26.197  1.00  0.00     0.202 C 
BRANCH  29  30
ATOM     30  C   UNL A   1      43.795  18.685  25.126  1.00  0.00     0.261 C 
BRANCH  30  31
ATOM     31  O   UNL A   1      43.886  20.031  24.698  1.00  0.00    -0.460 OA
BRANCH  31  32
ATOM     32  C   UNL A   1      45.147  20.465  24.514  1.00  0.00     0.338 C 
ATOM     33  O   UNL A   1      46.138  19.793  24.315  1.00  0.00    -0.246 OA
BRANCH  32  34
ATOM     34  C   UNL A   1      45.175  21.906  24.781  1.00  0.00     0.060 A 
ATOM     35  C   UNL A   1      45.854  22.291  25.930  1.00  0.00     0.016 A 
ATOM     36  C   UNL A   1      44.285  22.763  24.110  1.00  0.00     0.016 A 
ATOM     37  C   UNL A   1      45.461  23.456  26.541  1.00  0.00     0.010 A 
ATOM     38  C   UNL A   1      43.895  23.932  24.720  1.00  0.00     0.010 A 
ATOM     39  C   UNL A   1      44.426  24.219  25.971  1.00  0.00    -0.014 A 
BRANCH  39  40
ATOM     40  C   UNL A   1      44.065  25.438  26.662  1.00  0.00     0.031 A 
ATOM     41  C   UNL A   1      45.054  26.495  26.392  1.00  0.00     0.074 A 
ATOM     42  C   UNL A   1      42.993  25.579  27.463  1.00  0.00     0.049 A 
ATOM     43  N   UNL A   1      45.994  26.861  27.192  1.00  0.00    -0.248 NA
ATOM     44  C   UNL A   1      45.183  27.023  25.027  1.00  0.00     0.031 C 
ATOM     45  C   UNL A   1      41.856  24.673  27.617  1.00  0.00     0.029 A 
ATOM     46  N   UNL A   1      42.666  26.626  28.277  1.00  0.00    -0.354 N 
ATOM     47  C   UNL A   1      46.683  27.860  26.522  1.00  0.00     0.074 A 
ATOM     48  C   UNL A   1      46.285  27.770  25.143  1.00  0.00     0.031 C 
ATOM     49  C   UNL A   1      40.864  25.310  28.284  1.00  0.00     0.029 A 
ATOM     50  C   UNL A   1      41.351  26.605  28.730  1.00  0.00     0.049 A 
ATOM     51  H   UNL A   1      43.305  27.333  28.523  1.00  0.00     0.167 HD
ATOM     52  C   UNL A   1      47.214  28.879  27.248  1.00  0.00     0.037 A 
ATOM     53  C   UNL A   1      40.715  27.606  29.390  1.00  0.00     0.037 A 
ATOM     54  C   UNL A   1      47.324  28.495  28.638  1.00  0.00     0.049 A 
ATOM     55  C   UNL A   1      41.757  28.420  30.057  1.00  0.00     0.074 A 
ATOM     56  C   UNL A   1      48.092  27.632  29.389  1.00  0.00     0.029 A 
ATOM     57  N   UNL A   1      46.193  28.764  29.359  1.00  0.00    -0.354 N 
ATOM     58  N   UNL A   1      42.465  27.991  31.064  1.00  0.00    -0.248 NA
ATOM     59  C   UNL A   1      42.277  29.609  29.388  1.00  0.00     0.031 C 
ATOM     60  C   UNL A   1      47.301  27.283  30.527  1.00  0.00     0.029 A 
ATOM     61  C   UNL A   1      46.095  27.978  30.470  1.00  0.00     0.049 A 
ATOM     62  H   UNL A   1      45.527  29.445  29.107  1.00  0.00     0.167 HD
ATOM     63  C   UNL A   1      43.710  28.551  30.862  1.00  0.00     0.074 A 
ATOM     64  C   UNL A   1      43.485  29.669  29.953  1.00  0.00     0.031 C 
ATOM     65  C   UNL A   1      44.837  27.846  31.170  1.00  0.00     0.037 A 
BRANCH  52  66
ATOM     66  C   UNL A   1      47.033  30.339  26.872  1.00  0.00     0.064 A 
ATOM     67  C   UNL A   1      48.134  31.207  27.032  1.00  0.00     0.173 A 
ATOM     68  C   UNL A   1      45.780  30.976  26.727  1.00  0.00     0.173 A 
ATOM     69  F   UNL A   1      49.370  30.715  27.206  1.00  0.00    -0.203 F 
ATOM     70  C   UNL A   1      47.975  32.592  27.128  1.00  0.00     0.198 A 
ATOM     71  C   UNL A   1      45.632  32.359  26.776  1.00  0.00     0.198 A 
ATOM     72  F   UNL A   1      44.630  30.299  26.653  1.00  0.00    -0.203 F 
ATOM     73  F   UNL A   1      49.031  33.365  27.415  1.00  0.00    -0.200 F 
ATOM     74  C   UNL A   1      46.723  33.167  27.008  1.00  0.00     0.200 A 
ATOM     75  F   UNL A   1      44.405  32.891  26.689  1.00  0.00    -0.200 F 
ATOM     76  F   UNL A   1      46.557  34.486  27.167  1.00  0.00    -0.200 F 
ENDBRANCH  52  66
BRANCH  53  77
ATOM     77  C   UNL A   1      39.307  28.066  29.295  1.00  0.00     0.064 A 
ATOM     78  C   UNL A   1      38.507  28.176  30.449  1.00  0.00     0.173 A 
ATOM     79  C   UNL A   1      38.821  28.703  28.140  1.00  0.00     0.173 A 
ATOM     80  F   UNL A   1      38.906  27.623  31.605  1.00  0.00    -0.203 F 
ATOM     81  C   UNL A   1      37.330  28.931  30.461  1.00  0.00     0.198 A 
ATOM     82  C   UNL A   1      37.641  29.452  28.151  1.00  0.00     0.198 A 
ATOM     83  F   UNL A   1      39.530  28.702  27.003  1.00  0.00    -0.203 F 
ATOM     84  F   UNL A   1      36.643  29.081  31.602  1.00  0.00    -0.200 F 
ATOM     85  C   UNL A   1      36.908  29.583  29.316  1.00  0.00     0.200 A 
ATOM     86  F   UNL A   1      37.260  30.105  27.045  1.00  0.00    -0.200 F 
ATOM     87  F   UNL A   1      35.824  30.371  29.344  1.00  0.00    -0.200 F 
ENDBRANCH  53  77
BRANCH  65  88
ATOM     88  C   UNL A   1      44.716  26.778  32.210  1.00  0.00     0.064 A 
ATOM     89  C   UNL A   1      44.566  25.408  31.944  1.00  0.00     0.173 A 
ATOM     90  C   UNL A   1      44.826  27.174  33.551  1.00  0.00     0.173 A 
ATOM     91  F   UNL A   1      44.533  24.947  30.685  1.00  0.00    -0.203 F 
ATOM     92  C   UNL A   1      44.490  24.483  32.984  1.00  0.00     0.198 A 
ATOM     93  C   UNL A   1      44.791  26.245  34.583  1.00  0.00     0.198 A 
ATOM     94  F   UNL A   1      45.006  28.468  33.858  1.00  0.00    -0.203 F 
ATOM     95  F   UNL A   1      44.324  23.180  32.713  1.00  0.00    -0.200 F 
ATOM     96  C   UNL A   1      44.609  24.901  34.301  1.00  0.00     0.200 A 
ATOM     97  F   UNL A   1      44.950  26.651  35.849  1.00  0.00    -0.200 F 
ATOM     98  F   UNL A   1      44.572  24.007  35.298  1.00  0.00    -0.200 F 
ENDBRANCH  65  88
ENDBRANCH  39  40
ENDBRANCH  32  34
ENDBRANCH  31  32
ENDBRANCH  30  31
ENDBRANCH  29  30
ENDBRANCH  28  29
ENDBRANCH  27  28
ENDBRANCH  26  27
ENDBRANCH   1  26
TORSDOF 22
ENDMDL
MODEL 2
REMARK VINA RESULT:     -11.0      1.341      2.244
REMARK SMILES Cn1cc(Cl)cc1C(=O)N[C@H]1C=C[C@H](C(=O)OCCOCCOCCOCCOC(=O)c2ccc(-c3c4nc(c(-c5c(F)c(F)c(F)c(F)c5F)c5ccc([nH]5)c(-c5c(F)c(F)c(F)c(F)c5F)c5nc(c(-c6c(F)c(F)c(F)c(F)c6F)c6ccc3[nH]6)C=C5)C=C4)cc2)C1
REMARK SMILES IDX 23 1 22 2 21 3 20 4 19 5 18 6 17 7 15 8 16 9 14 10 11 11
REMARK SMILES IDX 12 12 95 13 13 14 10 15 8 16 9 17 7 19 1 20 2 21 3 22 4 23
REMARK SMILES IDX 6 24 5 25 24 26 25 27 26 28 27 29 28 30 29 31 30 32 31 33
REMARK SMILES IDX 32 34 33 35 94 36 34 37 93 38 35 39 36 40 37 41 87 42 38 43
REMARK SMILES IDX 92 44 86 45 88 46 39 47 91 48 85 49 84 50 40 52 72 53 52 54
REMARK SMILES IDX 71 55 53 56 56 57 70 58 89 59 54 60 55 61 69 63 90 64 57 65
REMARK SMILES IDX 41 66 42 67 50 68 43 69 44 70 48 71 51 72 45 73 46 74 49 75
REMARK SMILES IDX 47 76 73 77 74 78 82 79 75 80 76 81 80 82 83 83 77 84 78 85
REMARK SMILES IDX 81 86 79 87 58 88 59 89 67 90 60 91 61 92 65 93 68 94 62 95
REMARK SMILES IDX 63 96 66 97 64 98
REMARK H PARENT 10 18 88 51 56 62
REMARK Flexibility Score: inf
ROOT
ATOM      1  O   UNL A   1      41.586  20.001  26.130  1.00  0.00    -0.377 OA
ENDROOT
BRANCH   1   2
ATOM      2  C   UNL A   1      40.842  20.480  27.239  1.00  0.00     0.188 C 
BRANCH   2   3
ATOM      3  C   UNL A   1      40.285  21.924  27.119  1.00  0.00     0.188 C 
BRANCH   3   4
ATOM      4  O   UNL A   1      39.344  22.269  26.110  1.00  0.00    -0.376 OA
BRANCH   4   5
ATOM      5  C   UNL A   1      38.550  23.431  26.259  1.00  0.00     0.202 C 
BRANCH   5   6
ATOM      6  C   UNL A   1      37.030  23.326  26.052  1.00  0.00     0.261 C 
BRANCH   6   7
ATOM      7  O   UNL A   1      36.505  22.013  25.754  1.00  0.00    -0.463 OA
BRANCH   7   8
ATOM      8  C   UNL A   1      35.161  21.859  25.889  1.00  0.00     0.312 C 
ATOM      9  O   UNL A   1      34.580  21.867  26.968  1.00  0.00    -0.252 OA
BRANCH   8  10
ATOM     10  C   UNL A   1      34.417  21.555  24.572  1.00  0.00     0.124 C 
ATOM     11  C   UNL A   1      33.761  23.641  23.597  1.00  0.00     0.106 C 
ATOM     12  C   UNL A   1      32.557  22.778  23.758  1.00  0.00    -0.006 C 
ATOM     13  C   UNL A   1      34.873  22.598  23.557  1.00  0.00     0.048 C 
ATOM     14  C   UNL A   1      32.918  21.650  24.392  1.00  0.00    -0.014 C 
BRANCH  11  15
ATOM     15  N   UNL A   1      33.714  24.493  22.456  1.00  0.00    -0.345 N 
ATOM     16  C   UNL A   1      33.349  25.815  22.388  1.00  0.00     0.268 C 
ATOM     17  O   UNL A   1      33.459  26.345  21.281  1.00  0.00    -0.268 OA
ATOM     18  H   UNL A   1      33.978  24.078  21.602  1.00  0.00     0.164 HD
BRANCH  16  19
ATOM     19  C   UNL A   1      32.983  26.592  23.568  1.00  0.00     0.108 A 
ATOM     20  C   UNL A   1      30.510  26.122  24.058  1.00  0.00     0.150 C 
ATOM     21  N   UNL A   1      31.821  26.671  24.320  1.00  0.00    -0.345 N 
ATOM     22  C   UNL A   1      32.017  27.484  25.417  1.00  0.00     0.106 A 
ATOM     23  C   UNL A   1      33.235  28.090  25.281  1.00  0.00     0.059 A 
ATOM     24  C   UNL A   1      33.833  27.551  24.128  1.00  0.00     0.054 A 
ATOM     25  Cl  UNL A   1      33.908  29.272  26.288  1.00  0.00    -0.083 Cl
ENDBRANCH  16  19
ENDBRANCH  11  15
ENDBRANCH   8  10
ENDBRANCH   7   8
ENDBRANCH   6   7
ENDBRANCH   5   6
ENDBRANCH   4   5
ENDBRANCH   3   4
ENDBRANCH   2   3
ENDBRANCH   1   2
BRANCH   1  26
ATOM     26  C   UNL A   1      42.896  19.523  26.416  1.00  0.00     0.188 C 
BRANCH  26  27
ATOM     27  C   UNL A   1      43.322  18.198  25.747  1.00  0.00     0.188 C 
BRANCH  27  28
ATOM     28  O   UNL A   1      44.521  18.283  24.992  1.00  0.00    -0.376 OA
BRANCH  28  29
ATOM     29  C   UNL A   1      45.733  18.770  25.536  1.00  0.00     0.202 C 
BRANCH  29  30
ATOM     30  C   UNL A   1      46.592  19.714  24.699  1.00  0.00     0.261 C 
BRANCH  30  31
ATOM     31  O   UNL A   1      46.297  21.091  24.839  1.00  0.00    -0.460 OA
BRANCH  31  32
ATOM     32  C   UNL A   1      45.106  21.454  24.328  1.00  0.00     0.338 C 
ATOM     33  O   UNL A   1      44.684  21.233  23.211  1.00  0.00    -0.246 OA
BRANCH  32  34
ATOM     34  C   UNL A   1      44.449  22.341  25.291  1.00  0.00     0.060 A 
ATOM     35  C   UNL A   1      43.371  23.068  24.801  1.00  0.00     0.016 A 
ATOM     36  C   UNL A   1      45.094  22.671  26.496  1.00  0.00     0.016 A 
ATOM     37  C   UNL A   1      43.089  24.270  25.401  1.00  0.00     0.010 A 
ATOM     38  C   UNL A   1      44.807  23.874  27.099  1.00  0.00     0.010 A 
ATOM     39  C   UNL A   1      43.867  24.696  26.492  1.00  0.00    -0.014 A 
BRANCH  39  40
ATOM     40  C   UNL A   1      43.513  25.969  27.082  1.00  0.00     0.031 A 
ATOM     41  C   UNL A   1      44.488  27.004  26.698  1.00  0.00     0.074 A 
ATOM     42  C   UNL A   1      42.458  26.175  27.892  1.00  0.00     0.049 A 
ATOM     43  N   UNL A   1      45.443  27.443  27.442  1.00  0.00    -0.248 NA
ATOM     44  C   UNL A   1      44.583  27.410  25.289  1.00  0.00     0.031 C 
ATOM     45  C   UNL A   1      41.330  25.279  28.151  1.00  0.00     0.029 A 
ATOM     46  N   UNL A   1      42.142  27.287  28.618  1.00  0.00    -0.354 N 
ATOM     47  C   UNL A   1      46.109  28.383  26.670  1.00  0.00     0.074 A 
ATOM     48  C   UNL A   1      45.681  28.170  25.314  1.00  0.00     0.031 C 
ATOM     49  C   UNL A   1      40.349  25.968  28.781  1.00  0.00     0.029 A 
ATOM     50  C   UNL A   1      40.837  27.299  29.101  1.00  0.00     0.049 A 
ATOM     51  H   UNL A   1      42.781  28.017  28.786  1.00  0.00     0.167 HD
ATOM     52  C   UNL A   1      46.649  29.464  27.292  1.00  0.00     0.037 A 
ATOM     53  C   UNL A   1      40.209  28.351  29.685  1.00  0.00     0.037 A 
ATOM     54  C   UNL A   1      46.792  29.205  28.708  1.00  0.00     0.049 A 
ATOM     55  C   UNL A   1      41.260  29.226  30.254  1.00  0.00     0.074 A 
ATOM     56  C   UNL A   1      47.583  28.415  29.514  1.00  0.00     0.029 A 
ATOM     57  N   UNL A   1      45.676  29.530  29.428  1.00  0.00    -0.354 N 
ATOM     58  N   UNL A   1      41.993  28.890  31.278  1.00  0.00    -0.248 NA
ATOM     59  C   UNL A   1      41.755  30.354  29.472  1.00  0.00     0.031 C 
ATOM     60  C   UNL A   1      46.820  28.163  30.696  1.00  0.00     0.029 A 
ATOM     61  C   UNL A   1      45.608  28.844  30.605  1.00  0.00     0.049 A 
ATOM     62  H   UNL A   1      45.000  30.183  29.133  1.00  0.00     0.167 HD
ATOM     63  C   UNL A   1      43.228  29.437  31.000  1.00  0.00     0.074 A 
ATOM     64  C   UNL A   1      42.976  30.470  30.002  1.00  0.00     0.031 C 
ATOM     65  C   UNL A   1      44.367  28.768  31.343  1.00  0.00     0.037 A 
BRANCH  52  66
ATOM     66  C   UNL A   1      46.450  30.885  26.794  1.00  0.00     0.064 A 
ATOM     67  C   UNL A   1      47.545  31.771  26.859  1.00  0.00     0.173 A 
ATOM     68  C   UNL A   1      45.189  31.497  26.615  1.00  0.00     0.173 A 
ATOM     69  F   UNL A   1      48.788  31.305  27.054  1.00  0.00    -0.203 F 
ATOM     70  C   UNL A   1      47.376  33.159  26.837  1.00  0.00     0.198 A 
ATOM     71  C   UNL A   1      45.030  32.879  26.546  1.00  0.00     0.198 A 
ATOM     72  F   UNL A   1      44.043  30.809  26.620  1.00  0.00    -0.203 F 
ATOM     73  F   UNL A   1      48.430  33.961  27.038  1.00  0.00    -0.200 F 
ATOM     74  C   UNL A   1      46.117  33.711  26.689  1.00  0.00     0.200 A 
ATOM     75  F   UNL A   1      43.796  33.392  26.434  1.00  0.00    -0.200 F 
ATOM     76  F   UNL A   1      45.943  35.038  26.735  1.00  0.00    -0.200 F 
ENDBRANCH  52  66
BRANCH  53  77
ATOM     77  C   UNL A   1      38.796  28.793  29.582  1.00  0.00     0.064 A 
ATOM     78  C   UNL A   1      38.016  28.986  30.739  1.00  0.00     0.173 A 
ATOM     79  C   UNL A   1      38.284  29.339  28.391  1.00  0.00     0.173 A 
ATOM     80  F   UNL A   1      38.440  28.525  31.926  1.00  0.00    -0.203 F 
ATOM     81  C   UNL A   1      36.834  29.732  30.716  1.00  0.00     0.198 A 
ATOM     82  C   UNL A   1      37.098  30.078  28.368  1.00  0.00     0.198 A 
ATOM     83  F   UNL A   1      38.971  29.255  27.244  1.00  0.00    -0.203 F 
ATOM     84  F   UNL A   1      36.166  29.964  31.855  1.00  0.00    -0.200 F 
ATOM     85  C   UNL A   1      36.385  30.293  29.533  1.00  0.00     0.200 A 
ATOM     86  F   UNL A   1      36.692  30.644  27.222  1.00  0.00    -0.200 F 
ATOM     87  F   UNL A   1      35.296  31.074  29.522  1.00  0.00    -0.200 F 
ENDBRANCH  53  77
BRANCH  65  88
ATOM     88  C   UNL A   1      44.277  27.795  32.475  1.00  0.00     0.064 A 
ATOM     89  C   UNL A   1      44.229  28.141  33.834  1.00  0.00     0.173 A 
ATOM     90  C   UNL A   1      44.167  26.436  32.143  1.00  0.00     0.173 A 
ATOM     91  F   UNL A   1      44.249  29.424  34.223  1.00  0.00    -0.203 F 
ATOM     92  C   UNL A   1      44.116  27.159  34.817  1.00  0.00     0.198 A 
ATOM     93  C   UNL A   1      44.013  25.464  33.124  1.00  0.00     0.198 A 
ATOM     94  F   UNL A   1      44.172  26.055  30.856  1.00  0.00    -0.203 F 
ATOM     95  F   UNL A   1      44.094  27.505  36.113  1.00  0.00    -0.200 F 
ATOM     96  C   UNL A   1      44.001  25.824  34.461  1.00  0.00     0.200 A 
ATOM     97  F   UNL A   1      43.859  24.181  32.770  1.00  0.00    -0.200 F 
ATOM     98  F   UNL A   1      43.856  24.884  35.405  1.00  0.00    -0.200 F 
ENDBRANCH  65  88
ENDBRANCH  39  40
ENDBRANCH  32  34
ENDBRANCH  31  32
ENDBRANCH  30  31
ENDBRANCH  29  30
ENDBRANCH  28  29
ENDBRANCH  27  28
ENDBRANCH  26  27
ENDBRANCH   1  26
TORSDOF 22
ENDMDL
MODEL 3
REMARK VINA RESULT:     -10.9      4.901     10.401
REMARK SMILES Cn1cc(Cl)cc1C(=O)N[C@H]1C=C[C@H](C(=O)OCCOCCOCCOCCOC(=O)c2ccc(-c3c4nc(c(-c5c(F)c(F)c(F)c(F)c5F)c5ccc([nH]5)c(-c5c(F)c(F)c(F)c(F)c5F)c5nc(c(-c6c(F)c(F)c(F)c(F)c6F)c6ccc3[nH]6)C=C5)C=C4)cc2)C1
REMARK SMILES IDX 23 1 22 2 21 3 20 4 19 5 18 6 17 7 15 8 16 9 14 10 11 11
REMARK SMILES IDX 12 12 95 13 13 14 10 15 8 16 9 17 7 19 1 20 2 21 3 22 4 23
REMARK SMILES IDX 6 24 5 25 24 26 25 27 26 28 27 29 28 30 29 31 30 32 31 33
REMARK SMILES IDX 32 34 33 35 94 36 34 37 93 38 35 39 36 40 37 41 87 42 38 43
REMARK SMILES IDX 92 44 86 45 88 46 39 47 91 48 85 49 84 50 40 52 72 53 52 54
REMARK SMILES IDX 71 55 53 56 56 57 70 58 89 59 54 60 55 61 69 63 90 64 57 65
REMARK SMILES IDX 41 66 42 67 50 68 43 69 44 70 48 71 51 72 45 73 46 74 49 75
REMARK SMILES IDX 47 76 73 77 74 78 82 79 75 80 76 81 80 82 83 83 77 84 78 85
REMARK SMILES IDX 81 86 79 87 58 88 59 89 67 90 60 91 61 92 65 93 68 94 62 95
REMARK SMILES IDX 63 96 66 97 64 98
REMARK H PARENT 10 18 88 51 56 62
REMARK Flexibility Score: inf
ROOT
ATOM      1  O   UNL A   1      34.282  31.226  27.560  1.00  0.00    -0.377 OA
ENDROOT
BRANCH   1   2
ATOM      2  C   UNL A   1      32.968  30.799  27.237  1.00  0.00     0.188 C 
BRANCH   2   3
ATOM      3  C   UNL A   1      32.814  29.314  26.817  1.00  0.00     0.188 C 
BRANCH   3   4
ATOM      4  O   UNL A   1      33.835  28.644  26.087  1.00  0.00    -0.376 OA
BRANCH   4   5
ATOM      5  C   UNL A   1      33.761  28.580  24.675  1.00  0.00     0.202 C 
BRANCH   5   6
ATOM      6  C   UNL A   1      33.193  27.312  24.015  1.00  0.00     0.261 C 
BRANCH   6   7
ATOM      7  O   UNL A   1      31.987  27.472  23.233  1.00  0.00    -0.463 OA
BRANCH   7   8
ATOM      8  C   UNL A   1      30.834  27.629  23.935  1.00  0.00     0.312 C 
ATOM      9  O   UNL A   1      30.481  28.691  24.435  1.00  0.00    -0.252 OA
BRANCH   8  10
ATOM     10  C   UNL A   1      30.040  26.326  24.159  1.00  0.00     0.124 C 
ATOM     11  C   UNL A   1      31.342  24.902  25.577  1.00  0.00     0.106 C 
ATOM     12  C   UNL A   1      31.004  24.167  24.326  1.00  0.00    -0.006 C 
ATOM     13  C   UNL A   1      30.226  25.942  25.623  1.00  0.00     0.048 C 
ATOM     14  C   UNL A   1      30.356  25.003  23.497  1.00  0.00    -0.014 C 
BRANCH  11  15
ATOM     15  N   UNL A   1      31.419  24.072  26.732  1.00  0.00    -0.345 N 
ATOM     16  C   UNL A   1      32.354  23.114  27.038  1.00  0.00     0.268 C 
ATOM     17  O   UNL A   1      32.231  22.579  28.141  1.00  0.00    -0.268 OA
ATOM     18  H   UNL A   1      30.707  24.204  27.401  1.00  0.00     0.164 HD
BRANCH  16  19
ATOM     19  C   UNL A   1      33.502  22.833  26.182  1.00  0.00     0.108 A 
ATOM     20  C   UNL A   1      32.998  20.663  24.912  1.00  0.00     0.150 C 
ATOM     21  N   UNL A   1      33.752  21.853  25.234  1.00  0.00    -0.345 N 
ATOM     22  C   UNL A   1      34.962  22.085  24.614  1.00  0.00     0.106 A 
ATOM     23  C   UNL A   1      35.592  23.096  25.286  1.00  0.00     0.059 A 
ATOM     24  C   UNL A   1      34.697  23.555  26.269  1.00  0.00     0.054 A 
ATOM     25  Cl  UNL A   1      37.153  23.690  25.011  1.00  0.00    -0.083 Cl
ENDBRANCH  16  19
ENDBRANCH  11  15
ENDBRANCH   8  10
ENDBRANCH   7   8
ENDBRANCH   6   7
ENDBRANCH   5   6
ENDBRANCH   4   5
ENDBRANCH   3   4
ENDBRANCH   2   3
ENDBRANCH   1   2
BRANCH   1  26
ATOM     26  C   UNL A   1      34.379  32.304  28.485  1.00  0.00     0.188 C 
BRANCH  26  27
ATOM     27  C   UNL A   1      35.153  33.558  28.025  1.00  0.00     0.188 C 
BRANCH  27  28
ATOM     28  O   UNL A   1      34.619  34.783  28.503  1.00  0.00    -0.376 OA
BRANCH  28  29
ATOM     29  C   UNL A   1      33.280  34.913  28.941  1.00  0.00     0.202 C 
BRANCH  29  30
ATOM     30  C   UNL A   1      32.904  36.096  29.830  1.00  0.00     0.261 C 
BRANCH  30  31
ATOM     31  O   UNL A   1      33.596  36.175  31.063  1.00  0.00    -0.460 OA
BRANCH  31  32
ATOM     32  C   UNL A   1      33.129  35.341  32.011  1.00  0.00     0.338 C 
ATOM     33  O   UNL A   1      32.018  35.327  32.499  1.00  0.00    -0.246 OA
BRANCH  32  34
ATOM     34  C   UNL A   1      34.254  34.548  32.511  1.00  0.00     0.060 A 
ATOM     35  C   UNL A   1      35.449  35.238  32.680  1.00  0.00     0.016 A 
ATOM     36  C   UNL A   1      34.195  33.143  32.478  1.00  0.00     0.016 A 
ATOM     37  C   UNL A   1      36.616  34.523  32.579  1.00  0.00     0.010 A 
ATOM     38  C   UNL A   1      35.366  32.428  32.382  1.00  0.00     0.010 A 
ATOM     39  C   UNL A   1      36.559  33.137  32.347  1.00  0.00    -0.014 A 
BRANCH  39  40
ATOM     40  C   UNL A   1      37.825  32.444  32.256  1.00  0.00     0.031 A 
ATOM     41  C   UNL A   1      38.514  32.457  33.558  1.00  0.00     0.074 A 
ATOM     42  C   UNL A   1      38.321  31.889  31.134  1.00  0.00     0.049 A 
ATOM     43  N   UNL A   1      39.486  33.238  33.881  1.00  0.00    -0.248 NA
ATOM     44  C   UNL A   1      37.922  31.729  34.689  1.00  0.00     0.031 C 
ATOM     45  C   UNL A   1      37.628  31.637  29.870  1.00  0.00     0.029 A 
ATOM     46  N   UNL A   1      39.563  31.365  30.916  1.00  0.00    -0.354 N 
ATOM     47  C   UNL A   1      39.800  32.913  35.191  1.00  0.00     0.074 A 
ATOM     48  C   UNL A   1      38.692  32.149  35.696  1.00  0.00     0.031 C 
ATOM     49  C   UNL A   1      38.379  30.807  29.108  1.00  0.00     0.029 A 
ATOM     50  C   UNL A   1      39.660  30.593  29.762  1.00  0.00     0.049 A 
ATOM     51  H   UNL A   1      40.324  31.521  31.520  1.00  0.00     0.167 HD
ATOM     52  C   UNL A   1      41.099  32.997  35.584  1.00  0.00     0.037 A 
ATOM     53  C   UNL A   1      40.711  29.812  29.408  1.00  0.00     0.037 A 
ATOM     54  C   UNL A   1      41.846  33.826  34.664  1.00  0.00     0.049 A 
ATOM     55  C   UNL A   1      41.910  30.360  30.082  1.00  0.00     0.074 A 
ATOM     56  C   UNL A   1      41.915  35.163  34.340  1.00  0.00     0.029 A 
ATOM     57  N   UNL A   1      42.361  33.125  33.608  1.00  0.00    -0.354 N 
ATOM     58  N   UNL A   1      42.448  31.505  29.766  1.00  0.00    -0.248 NA
ATOM     59  C   UNL A   1      42.328  29.806  31.365  1.00  0.00     0.031 C 
ATOM     60  C   UNL A   1      42.361  35.222  32.983  1.00  0.00     0.029 A 
ATOM     61  C   UNL A   1      42.600  33.926  32.530  1.00  0.00     0.049 A 
ATOM     62  H   UNL A   1      42.540  32.157  33.624  1.00  0.00     0.167 HD
ATOM     63  C   UNL A   1      42.887  32.014  30.970  1.00  0.00     0.074 A 
ATOM     64  C   UNL A   1      42.967  30.866  31.866  1.00  0.00     0.031 C 
ATOM     65  C   UNL A   1      42.807  33.353  31.219  1.00  0.00     0.037 A 
BRANCH  52  66
ATOM     66  C   UNL A   1      41.799  31.889  36.352  1.00  0.00     0.064 A 
ATOM     67  C   UNL A   1      42.655  32.255  37.412  1.00  0.00     0.173 A 
ATOM     68  C   UNL A   1      41.958  30.567  35.878  1.00  0.00     0.173 A 
ATOM     69  F   UNL A   1      42.613  33.494  37.926  1.00  0.00    -0.203 F 
ATOM     70  C   UNL A   1      43.646  31.395  37.893  1.00  0.00     0.198 A 
ATOM     71  C   UNL A   1      42.916  29.697  36.392  1.00  0.00     0.198 A 
ATOM     72  F   UNL A   1      41.288  30.092  34.824  1.00  0.00    -0.203 F 
ATOM     73  F   UNL A   1      44.522  31.833  38.806  1.00  0.00    -0.200 F 
ATOM     74  C   UNL A   1      43.781  30.119  37.376  1.00  0.00     0.200 A 
ATOM     75  F   UNL A   1      43.049  28.477  35.853  1.00  0.00    -0.200 F 
ATOM     76  F   UNL A   1      44.772  29.317  37.785  1.00  0.00    -0.200 F 
ENDBRANCH  52  66
BRANCH  53  77
ATOM     77  C   UNL A   1      40.731  28.489  28.734  1.00  0.00     0.064 A 
ATOM     78  C   UNL A   1      39.986  27.410  29.247  1.00  0.00     0.173 A 
ATOM     79  C   UNL A   1      41.211  28.344  27.420  1.00  0.00     0.173 A 
ATOM     80  F   UNL A   1      39.464  27.473  30.482  1.00  0.00    -0.203 F 
ATOM     81  C   UNL A   1      39.686  26.286  28.471  1.00  0.00     0.198 A 
ATOM     82  C   UNL A   1      40.916  27.217  26.648  1.00  0.00     0.198 A 
ATOM     83  F   UNL A   1      41.887  29.333  26.820  1.00  0.00    -0.203 F 
ATOM     84  F   UNL A   1      38.902  25.319  28.968  1.00  0.00    -0.200 F 
ATOM     85  C   UNL A   1      40.137  26.199  27.165  1.00  0.00     0.200 A 
ATOM     86  F   UNL A   1      41.331  27.159  25.375  1.00  0.00    -0.200 F 
ATOM     87  F   UNL A   1      39.786  25.160  26.394  1.00  0.00    -0.200 F 
ENDBRANCH  53  77
BRANCH  65  88
ATOM     88  C   UNL A   1      42.799  34.271  30.038  1.00  0.00     0.064 A 
ATOM     89  C   UNL A   1      41.650  34.688  29.349  1.00  0.00     0.173 A 
ATOM     90  C   UNL A   1      44.032  34.804  29.632  1.00  0.00     0.173 A 
ATOM     91  F   UNL A   1      40.429  34.283  29.730  1.00  0.00    -0.203 F 
ATOM     92  C   UNL A   1      41.742  35.571  28.274  1.00  0.00     0.198 A 
ATOM     93  C   UNL A   1      44.116  35.715  28.587  1.00  0.00     0.198 A 
ATOM     94  F   UNL A   1      45.157  34.464  30.280  1.00  0.00    -0.203 F 
ATOM     95  F   UNL A   1      40.636  35.941  27.612  1.00  0.00    -0.200 F 
ATOM     96  C   UNL A   1      42.973  36.088  27.899  1.00  0.00     0.200 A 
ATOM     97  F   UNL A   1      45.302  36.243  28.259  1.00  0.00    -0.200 F 
ATOM     98  F   UNL A   1      43.057  36.964  26.889  1.00  0.00    -0.200 F 
ENDBRANCH  65  88
ENDBRANCH  39  40
ENDBRANCH  32  34
ENDBRANCH  31  32
ENDBRANCH  30  31
ENDBRANCH  29  30
ENDBRANCH  28  29
ENDBRANCH  27  28
ENDBRANCH  26  27
ENDBRANCH   1  26
TORSDOF 22
ENDMDL
