MODEL 1
REMARK VINA RESULT:     -11.1      0.000      0.000
REMARK SMILES CC(=O)c1c[nH]c(C(=O)N[C@H]2C=C[C@H](C(=O)OCCOCCOCCOCCOC(=O)c3ccc(-c4c5nc(c(-c6c(F)c(F)c(F)c(F)c6F)c6ccc([nH]6)c(-c6c(F)c(F)c(F)c(F)c6F)c6nc(c(-c7c(F)c(F)c(F)c(F)c7F)c7ccc4[nH]7)C=C6)C=C5)cc3)C2)c1
REMARK SMILES IDX 22 1 21 2 20 3 19 4 18 5 17 6 15 7 16 8 14 9 11 10 12 11
REMARK SMILES IDX 95 12 13 13 10 14 8 15 9 16 7 18 4 19 5 20 96 21 6 22 2 24
REMARK SMILES IDX 1 25 3 26 23 27 24 28 25 29 26 30 27 31 28 32 29 33 30 34
REMARK SMILES IDX 31 35 32 36 33 37 94 38 34 39 93 40 35 41 36 42 37 43 87 44
REMARK SMILES IDX 38 45 92 46 86 47 88 48 39 49 91 50 85 51 84 52 40 54 72 55
REMARK SMILES IDX 52 56 71 57 53 58 56 59 70 60 89 61 54 62 55 63 69 65 90 66
REMARK SMILES IDX 57 67 41 68 42 69 50 70 43 71 44 72 48 73 51 74 45 75 46 76
REMARK SMILES IDX 49 77 47 78 73 79 74 80 82 81 75 82 76 83 80 84 83 85 77 86
REMARK SMILES IDX 78 87 81 88 79 89 58 90 59 91 67 92 60 93 61 94 65 95 68 96
REMARK SMILES IDX 62 97 63 98 66 99 64 100
REMARK H PARENT 10 17 6 23 88 53 56 64
REMARK Flexibility Score: inf
ROOT
ATOM      1  C   UNL A   1      43.324  19.318  25.201  1.00  0.00     0.188 C 
ENDROOT
BRANCH   1   2
ATOM      2  C   UNL A   1      42.757  19.315  26.638  1.00  0.00     0.188 C 
BRANCH   2   3
ATOM      3  O   UNL A   1      41.360  19.420  26.886  1.00  0.00    -0.376 OA
BRANCH   3   4
ATOM      4  C   UNL A   1      40.757  20.668  27.191  1.00  0.00     0.202 C 
BRANCH   4   5
ATOM      5  C   UNL A   1      40.102  21.520  26.091  1.00  0.00     0.261 C 
BRANCH   5   6
ATOM      6  O   UNL A   1      38.728  21.846  26.333  1.00  0.00    -0.463 OA
BRANCH   6   7
ATOM      7  C   UNL A   1      37.892  21.729  25.272  1.00  0.00     0.312 C 
ATOM      8  O   UNL A   1      37.721  20.708  24.620  1.00  0.00    -0.252 OA
BRANCH   7   9
ATOM      9  C   UNL A   1      37.138  23.040  25.040  1.00  0.00     0.124 C 
ATOM     10  C   UNL A   1      34.911  22.280  24.581  1.00  0.00     0.106 C 
ATOM     11  C   UNL A   1      35.523  22.887  23.355  1.00  0.00    -0.006 C 
ATOM     12  C   UNL A   1      35.751  22.948  25.677  1.00  0.00     0.048 C 
ATOM     13  C   UNL A   1      36.785  23.265  23.602  1.00  0.00    -0.014 C 
BRANCH  10  14
ATOM     14  N   UNL A   1      33.517  22.576  24.697  1.00  0.00    -0.345 N 
ATOM     15  C   UNL A   1      32.472  21.700  24.848  1.00  0.00     0.268 C 
ATOM     16  O   UNL A   1      31.340  22.187  24.887  1.00  0.00    -0.268 OA
ATOM     17  H   UNL A   1      33.276  23.531  24.664  1.00  0.00     0.164 HD
BRANCH  15  18
ATOM     18  C   UNL A   1      32.664  20.261  24.956  1.00  0.00     0.105 A 
ATOM     19  C   UNL A   1      32.974  17.992  24.768  1.00  0.00     0.035 A 
ATOM     20  C   UNL A   1      32.931  18.318  26.106  1.00  0.00     0.094 A 
ATOM     21  C   UNL A   1      32.793  19.212  24.061  1.00  0.00     0.045 A 
ATOM     22  N   UNL A   1      32.770  19.676  26.207  1.00  0.00    -0.356 N 
ATOM     23  H   UNL A   1      32.734  20.170  27.057  1.00  0.00     0.166 HD
BRANCH  19  24
ATOM     24  C   UNL A   1      33.166  16.678  24.163  1.00  0.00     0.161 C 
ATOM     25  C   UNL A   1      32.873  15.461  24.998  1.00  0.00     0.093 C 
ATOM     26  O   UNL A   1      33.484  16.566  22.980  1.00  0.00    -0.294 OA
ENDBRANCH  19  24
ENDBRANCH  15  18
ENDBRANCH  10  14
ENDBRANCH   7   9
ENDBRANCH   6   7
ENDBRANCH   5   6
ENDBRANCH   4   5
ENDBRANCH   3   4
ENDBRANCH   2   3
ENDBRANCH   1   2
BRANCH   1  27
ATOM     27  O   UNL A   1      44.530  18.589  25.040  1.00  0.00    -0.377 OA
BRANCH  27  28
ATOM     28  C   UNL A   1      45.648  19.376  24.653  1.00  0.00     0.188 C 
BRANCH  28  29
ATOM     29  C   UNL A   1      45.463  20.909  24.694  1.00  0.00     0.188 C 
BRANCH  29  30
ATOM     30  O   UNL A   1      46.198  21.564  25.729  1.00  0.00    -0.376 OA
BRANCH  30  31
ATOM     31  C   UNL A   1      46.008  22.962  25.903  1.00  0.00     0.202 C 
BRANCH  31  32
ATOM     32  C   UNL A   1      45.320  23.628  24.703  1.00  0.00     0.261 C 
BRANCH  32  33
ATOM     33  O   UNL A   1      44.413  24.665  25.079  1.00  0.00    -0.460 OA
BRANCH  33  34
ATOM     34  C   UNL A   1      43.156  24.240  25.200  1.00  0.00     0.338 C 
ATOM     35  O   UNL A   1      42.738  23.073  25.118  1.00  0.00    -0.246 OA
BRANCH  34  36
ATOM     36  C   UNL A   1      42.238  25.343  25.402  1.00  0.00     0.060 A 
ATOM     37  C   UNL A   1      42.834  26.609  25.429  1.00  0.00     0.016 A 
ATOM     38  C   UNL A   1      41.064  25.026  26.087  1.00  0.00     0.016 A 
ATOM     39  C   UNL A   1      42.424  27.483  26.402  1.00  0.00     0.010 A 
ATOM     40  C   UNL A   1      40.675  25.889  27.081  1.00  0.00     0.010 A 
ATOM     41  C   UNL A   1      41.423  27.060  27.281  1.00  0.00    -0.014 A 
BRANCH  41  42
ATOM     42  C   UNL A   1      41.162  27.873  28.466  1.00  0.00     0.031 A 
ATOM     43  C   UNL A   1      42.092  27.513  29.606  1.00  0.00     0.074 A 
ATOM     44  C   UNL A   1      40.159  28.787  28.319  1.00  0.00     0.049 A 
ATOM     45  N   UNL A   1      42.063  27.879  30.848  1.00  0.00    -0.248 NA
ATOM     46  C   UNL A   1      43.226  26.586  29.329  1.00  0.00     0.031 C 
ATOM     47  C   UNL A   1      39.355  28.964  27.089  1.00  0.00     0.029 A 
ATOM     48  N   UNL A   1      39.603  29.735  29.147  1.00  0.00    -0.354 N 
ATOM     49  C   UNL A   1      43.246  27.406  31.433  1.00  0.00     0.074 A 
ATOM     50  C   UNL A   1      43.883  26.545  30.485  1.00  0.00     0.031 C 
ATOM     51  C   UNL A   1      38.388  29.883  27.275  1.00  0.00     0.029 A 
ATOM     52  C   UNL A   1      38.484  30.423  28.615  1.00  0.00     0.049 A 
ATOM     53  H   UNL A   1      39.958  29.922  30.047  1.00  0.00     0.167 HD
ATOM     54  C   UNL A   1      43.708  27.840  32.633  1.00  0.00     0.037 A 
ATOM     55  C   UNL A   1      37.672  31.337  29.231  1.00  0.00     0.037 A 
ATOM     56  C   UNL A   1      42.770  28.696  33.276  1.00  0.00     0.049 A 
ATOM     57  C   UNL A   1      38.310  31.591  30.537  1.00  0.00     0.074 A 
ATOM     58  C   UNL A   1      41.642  28.450  34.011  1.00  0.00     0.029 A 
ATOM     59  N   UNL A   1      42.791  30.026  32.943  1.00  0.00    -0.354 N 
ATOM     60  N   UNL A   1      39.406  32.273  30.706  1.00  0.00    -0.248 NA
ATOM     61  C   UNL A   1      37.760  30.942  31.729  1.00  0.00     0.031 C 
ATOM     62  C   UNL A   1      40.835  29.600  33.850  1.00  0.00     0.029 A 
ATOM     63  C   UNL A   1      41.505  30.512  33.033  1.00  0.00     0.049 A 
ATOM     64  H   UNL A   1      43.588  30.544  32.685  1.00  0.00     0.167 HD
ATOM     65  C   UNL A   1      39.832  31.867  31.952  1.00  0.00     0.074 A 
ATOM     66  C   UNL A   1      38.684  31.299  32.615  1.00  0.00     0.031 C 
ATOM     67  C   UNL A   1      41.148  31.621  32.176  1.00  0.00     0.037 A 
BRANCH  54  68
ATOM     68  C   UNL A   1      45.064  27.664  33.230  1.00  0.00     0.064 A 
ATOM     69  C   UNL A   1      46.110  28.503  32.794  1.00  0.00     0.173 A 
ATOM     70  C   UNL A   1      45.431  26.528  33.967  1.00  0.00     0.173 A 
ATOM     71  F   UNL A   1      45.845  29.629  32.114  1.00  0.00    -0.203 F 
ATOM     72  C   UNL A   1      47.447  28.172  32.999  1.00  0.00     0.198 A 
ATOM     73  C   UNL A   1      46.771  26.221  34.207  1.00  0.00     0.198 A 
ATOM     74  F   UNL A   1      44.508  25.652  34.389  1.00  0.00    -0.203 F 
ATOM     75  F   UNL A   1      48.411  28.940  32.474  1.00  0.00    -0.200 F 
ATOM     76  C   UNL A   1      47.777  27.024  33.694  1.00  0.00     0.200 A 
ATOM     77  F   UNL A   1      47.087  25.109  34.883  1.00  0.00    -0.200 F 
ATOM     78  F   UNL A   1      49.061  26.671  33.841  1.00  0.00    -0.200 F 
ENDBRANCH  54  68
BRANCH  55  79
ATOM     79  C   UNL A   1      36.348  32.017  28.950  1.00  0.00     0.064 A 
ATOM     80  C   UNL A   1      36.101  33.398  28.978  1.00  0.00     0.173 A 
ATOM     81  C   UNL A   1      35.227  31.243  28.539  1.00  0.00     0.173 A 
ATOM     82  F   UNL A   1      36.998  34.258  29.464  1.00  0.00    -0.203 F 
ATOM     83  C   UNL A   1      34.892  33.957  28.522  1.00  0.00     0.198 A 
ATOM     84  C   UNL A   1      34.038  31.797  28.058  1.00  0.00     0.198 A 
ATOM     85  F   UNL A   1      35.245  29.903  28.580  1.00  0.00    -0.203 F 
ATOM     86  F   UNL A   1      34.725  35.288  28.550  1.00  0.00    -0.200 F 
ATOM     87  C   UNL A   1      33.877  33.160  28.029  1.00  0.00     0.200 A 
ATOM     88  F   UNL A   1      33.065  30.991  27.605  1.00  0.00    -0.200 F 
ATOM     89  F   UNL A   1      32.750  33.700  27.546  1.00  0.00    -0.200 F 
ENDBRANCH  55  79
BRANCH  67  90
ATOM     90  C   UNL A   1      42.060  32.277  31.167  1.00  0.00     0.064 A 
ATOM     91  C   UNL A   1      42.298  33.656  31.228  1.00  0.00     0.173 A 
ATOM     92  C   UNL A   1      42.606  31.595  30.065  1.00  0.00     0.173 A 
ATOM     93  F   UNL A   1      41.807  34.374  32.248  1.00  0.00    -0.203 F 
ATOM     94  C   UNL A   1      43.043  34.309  30.243  1.00  0.00     0.198 A 
ATOM     95  C   UNL A   1      43.358  32.242  29.086  1.00  0.00     0.198 A 
ATOM     96  F   UNL A   1      42.427  30.282  29.926  1.00  0.00    -0.203 F 
ATOM     97  F   UNL A   1      43.255  35.630  30.334  1.00  0.00    -0.200 F 
ATOM     98  C   UNL A   1      43.574  33.602  29.175  1.00  0.00     0.200 A 
ATOM     99  F   UNL A   1      43.878  31.541  28.067  1.00  0.00    -0.200 F 
ATOM    100  F   UNL A   1      44.300  34.230  28.239  1.00  0.00    -0.200 F 
ENDBRANCH  67  90
ENDBRANCH  41  42
ENDBRANCH  34  36
ENDBRANCH  33  34
ENDBRANCH  32  33
ENDBRANCH  31  32
ENDBRANCH  30  31
ENDBRANCH  29  30
ENDBRANCH  28  29
ENDBRANCH  27  28
ENDBRANCH   1  27
TORSDOF 23
ENDMDL
MODEL 2
REMARK VINA RESULT:     -10.9      1.982      3.385
REMARK SMILES CC(=O)c1c[nH]c(C(=O)N[C@H]2C=C[C@H](C(=O)OCCOCCOCCOCCOC(=O)c3ccc(-c4c5nc(c(-c6c(F)c(F)c(F)c(F)c6F)c6ccc([nH]6)c(-c6c(F)c(F)c(F)c(F)c6F)c6nc(c(-c7c(F)c(F)c(F)c(F)c7F)c7ccc4[nH]7)C=C6)C=C5)cc3)C2)c1
REMARK SMILES IDX 22 1 21 2 20 3 19 4 18 5 17 6 15 7 16 8 14 9 11 10 12 11
REMARK SMILES IDX 95 12 13 13 10 14 8 15 9 16 7 18 4 19 5 20 96 21 6 22 2 24
REMARK SMILES IDX 1 25 3 26 23 27 24 28 25 29 26 30 27 31 28 32 29 33 30 34
REMARK SMILES IDX 31 35 32 36 33 37 94 38 34 39 93 40 35 41 36 42 37 43 87 44
REMARK SMILES IDX 38 45 92 46 86 47 88 48 39 49 91 50 85 51 84 52 40 54 72 55
REMARK SMILES IDX 52 56 71 57 53 58 56 59 70 60 89 61 54 62 55 63 69 65 90 66
REMARK SMILES IDX 57 67 41 68 42 69 50 70 43 71 44 72 48 73 51 74 45 75 46 76
REMARK SMILES IDX 49 77 47 78 73 79 74 80 82 81 75 82 76 83 80 84 83 85 77 86
REMARK SMILES IDX 78 87 81 88 79 89 58 90 59 91 67 92 60 93 61 94 65 95 68 96
REMARK SMILES IDX 62 97 63 98 66 99 64 100
REMARK H PARENT 10 17 6 23 88 53 56 64
REMARK Flexibility Score: inf
ROOT
ATOM      1  C   UNL A   1      43.880  18.867  25.041  1.00  0.00     0.188 C 
ENDROOT
BRANCH   1   2
ATOM      2  C   UNL A   1      42.724  19.188  26.014  1.00  0.00     0.188 C 
BRANCH   2   3
ATOM      3  O   UNL A   1      41.444  19.593  25.542  1.00  0.00    -0.376 OA
BRANCH   3   4
ATOM      4  C   UNL A   1      40.629  20.483  26.289  1.00  0.00     0.202 C 
BRANCH   4   5
ATOM      5  C   UNL A   1      39.308  21.018  25.712  1.00  0.00     0.261 C 
BRANCH   5   6
ATOM      6  O   UNL A   1      38.914  22.297  26.221  1.00  0.00    -0.463 OA
BRANCH   6   7
ATOM      7  C   UNL A   1      37.740  22.789  25.753  1.00  0.00     0.312 C 
ATOM      8  O   UNL A   1      37.241  23.856  26.087  1.00  0.00    -0.252 OA
BRANCH   7   9
ATOM      9  C   UNL A   1      37.153  21.853  24.695  1.00  0.00     0.124 C 
ATOM     10  C   UNL A   1      35.348  23.153  23.801  1.00  0.00     0.106 C 
ATOM     11  C   UNL A   1      34.821  21.969  24.556  1.00  0.00    -0.006 C 
ATOM     12  C   UNL A   1      36.760  22.665  23.460  1.00  0.00     0.048 C 
ATOM     13  C   UNL A   1      35.832  21.274  25.095  1.00  0.00    -0.014 C 
BRANCH  10  14
ATOM     14  N   UNL A   1      34.569  23.447  22.639  1.00  0.00    -0.345 N 
ATOM     15  C   UNL A   1      33.488  24.285  22.529  1.00  0.00     0.268 C 
ATOM     16  O   UNL A   1      32.946  24.353  21.423  1.00  0.00    -0.268 OA
ATOM     17  H   UNL A   1      34.843  22.990  21.811  1.00  0.00     0.164 HD
BRANCH  15  18
ATOM     18  C   UNL A   1      32.984  25.065  23.650  1.00  0.00     0.105 A 
ATOM     19  C   UNL A   1      32.339  26.579  25.255  1.00  0.00     0.035 A 
ATOM     20  C   UNL A   1      31.859  25.336  25.608  1.00  0.00     0.094 A 
ATOM     21  C   UNL A   1      33.050  26.394  24.037  1.00  0.00     0.045 A 
ATOM     22  N   UNL A   1      32.229  24.446  24.633  1.00  0.00    -0.356 N 
ATOM     23  H   UNL A   1      31.990  23.491  24.631  1.00  0.00     0.166 HD
BRANCH  19  24
ATOM     24  C   UNL A   1      32.171  27.846  25.958  1.00  0.00     0.161 C 
ATOM     25  C   UNL A   1      32.560  27.910  27.410  1.00  0.00     0.093 C 
ATOM     26  O   UNL A   1      31.795  28.856  25.364  1.00  0.00    -0.294 OA
ENDBRANCH  19  24
ENDBRANCH  15  18
ENDBRANCH  10  14
ENDBRANCH   7   9
ENDBRANCH   6   7
ENDBRANCH   5   6
ENDBRANCH   4   5
ENDBRANCH   3   4
ENDBRANCH   2   3
ENDBRANCH   1   2
BRANCH   1  27
ATOM     27  O   UNL A   1      44.895  18.037  25.582  1.00  0.00    -0.377 OA
BRANCH  27  28
ATOM     28  C   UNL A   1      46.178  18.645  25.652  1.00  0.00     0.188 C 
BRANCH  28  29
ATOM     29  C   UNL A   1      46.424  19.852  24.721  1.00  0.00     0.188 C 
BRANCH  29  30
ATOM     30  O   UNL A   1      46.271  21.124  25.351  1.00  0.00    -0.376 OA
BRANCH  30  31
ATOM     31  C   UNL A   1      45.881  22.228  24.544  1.00  0.00     0.202 C 
BRANCH  31  32
ATOM     32  C   UNL A   1      44.452  22.708  24.832  1.00  0.00     0.261 C 
BRANCH  32  33
ATOM     33  O   UNL A   1      44.395  24.054  25.306  1.00  0.00    -0.460 OA
BRANCH  33  34
ATOM     34  C   UNL A   1      43.846  24.159  26.515  1.00  0.00     0.338 C 
ATOM     35  O   UNL A   1      44.129  23.511  27.536  1.00  0.00    -0.246 OA
BRANCH  34  36
ATOM     36  C   UNL A   1      42.774  25.134  26.530  1.00  0.00     0.060 A 
ATOM     37  C   UNL A   1      43.181  26.462  26.354  1.00  0.00     0.016 A 
ATOM     38  C   UNL A   1      41.638  24.763  27.252  1.00  0.00     0.016 A 
ATOM     39  C   UNL A   1      42.622  27.410  27.171  1.00  0.00     0.010 A 
ATOM     40  C   UNL A   1      41.100  25.707  28.090  1.00  0.00     0.010 A 
ATOM     41  C   UNL A   1      41.668  26.991  28.102  1.00  0.00    -0.014 A 
BRANCH  41  42
ATOM     42  C   UNL A   1      41.258  27.937  29.137  1.00  0.00     0.031 A 
ATOM     43  C   UNL A   1      42.071  27.763  30.404  1.00  0.00     0.074 A 
ATOM     44  C   UNL A   1      40.251  28.782  28.771  1.00  0.00     0.049 A 
ATOM     45  N   UNL A   1      41.898  28.281  31.578  1.00  0.00    -0.248 NA
ATOM     46  C   UNL A   1      43.253  26.856  30.368  1.00  0.00     0.031 C 
ATOM     47  C   UNL A   1      39.579  28.768  27.452  1.00  0.00     0.029 A 
ATOM     48  N   UNL A   1      39.583  29.803  29.407  1.00  0.00    -0.354 N 
ATOM     49  C   UNL A   1      43.025  27.936  32.338  1.00  0.00     0.074 A 
ATOM     50  C   UNL A   1      43.783  26.989  31.580  1.00  0.00     0.031 C 
ATOM     51  C   UNL A   1      38.573  29.663  27.417  1.00  0.00     0.029 A 
ATOM     52  C   UNL A   1      38.509  30.371  28.678  1.00  0.00     0.049 A 
ATOM     53  H   UNL A   1      39.835  30.117  30.306  1.00  0.00     0.167 HD
ATOM     54  C   UNL A   1      43.343  28.537  33.512  1.00  0.00     0.037 A 
ATOM     55  C   UNL A   1      37.610  31.321  29.083  1.00  0.00     0.037 A 
ATOM     56  C   UNL A   1      42.318  29.428  33.938  1.00  0.00     0.049 A 
ATOM     57  C   UNL A   1      38.098  31.765  30.403  1.00  0.00     0.074 A 
ATOM     58  C   UNL A   1      41.125  29.230  34.580  1.00  0.00     0.029 A 
ATOM     59  N   UNL A   1      42.338  30.704  33.439  1.00  0.00    -0.354 N 
ATOM     60  N   UNL A   1      39.149  32.507  30.593  1.00  0.00    -0.248 NA
ATOM     61  C   UNL A   1      37.441  31.250  31.607  1.00  0.00     0.031 C 
ATOM     62  C   UNL A   1      40.308  30.315  34.188  1.00  0.00     0.029 A 
ATOM     63  C   UNL A   1      41.036  31.144  33.333  1.00  0.00     0.049 A 
ATOM     64  H   UNL A   1      43.142  31.218  33.199  1.00  0.00     0.167 HD
ATOM     65  C   UNL A   1      39.451  32.281  31.919  1.00  0.00     0.074 A 
ATOM     66  C   UNL A   1      38.255  31.754  32.529  1.00  0.00     0.031 C 
ATOM     67  C   UNL A   1      40.742  32.120  32.307  1.00  0.00     0.037 A 
BRANCH  54  68
ATOM     68  C   UNL A   1      44.632  28.495  34.263  1.00  0.00     0.064 A 
ATOM     69  C   UNL A   1      44.742  27.632  35.372  1.00  0.00     0.173 A 
ATOM     70  C   UNL A   1      45.628  29.472  34.121  1.00  0.00     0.173 A 
ATOM     71  F   UNL A   1      43.852  26.647  35.563  1.00  0.00    -0.203 F 
ATOM     72  C   UNL A   1      45.733  27.801  36.335  1.00  0.00     0.198 A 
ATOM     73  C   UNL A   1      46.647  29.612  35.066  1.00  0.00     0.198 A 
ATOM     74  F   UNL A   1      45.586  30.362  33.119  1.00  0.00    -0.203 F 
ATOM     75  F   UNL A   1      45.737  27.029  37.429  1.00  0.00    -0.200 F 
ATOM     76  C   UNL A   1      46.677  28.800  36.188  1.00  0.00     0.200 A 
ATOM     77  F   UNL A   1      47.561  30.580  34.919  1.00  0.00    -0.200 F 
ATOM     78  F   UNL A   1      47.596  29.004  37.142  1.00  0.00    -0.200 F 
ENDBRANCH  54  68
BRANCH  55  79
ATOM     79  C   UNL A   1      36.306  31.905  28.581  1.00  0.00     0.064 A 
ATOM     80  C   UNL A   1      35.162  31.183  28.206  1.00  0.00     0.173 A 
ATOM     81  C   UNL A   1      36.132  33.317  28.535  1.00  0.00     0.173 A 
ATOM     82  F   UNL A   1      35.188  29.856  28.067  1.00  0.00    -0.203 F 
ATOM     83  C   UNL A   1      33.932  31.810  27.932  1.00  0.00     0.198 A 
ATOM     84  C   UNL A   1      34.905  33.939  28.293  1.00  0.00     0.198 A 
ATOM     85  F   UNL A   1      37.157  34.157  28.735  1.00  0.00    -0.203 F 
ATOM     86  F   UNL A   1      32.867  31.063  27.603  1.00  0.00    -0.200 F 
ATOM     87  C   UNL A   1      33.795  33.182  28.010  1.00  0.00     0.200 A 
ATOM     88  F   UNL A   1      34.814  35.276  28.359  1.00  0.00    -0.200 F 
ATOM     89  F   UNL A   1      32.609  33.769  27.801  1.00  0.00    -0.200 F 
ENDBRANCH  55  79
BRANCH  67  90
ATOM     90  C   UNL A   1      41.738  32.680  31.319  1.00  0.00     0.064 A 
ATOM     91  C   UNL A   1      41.964  34.061  31.258  1.00  0.00     0.173 A 
ATOM     92  C   UNL A   1      42.383  31.896  30.347  1.00  0.00     0.173 A 
ATOM     93  F   UNL A   1      41.380  34.874  32.150  1.00  0.00    -0.203 F 
ATOM     94  C   UNL A   1      42.791  34.619  30.280  1.00  0.00     0.198 A 
ATOM     95  C   UNL A   1      43.217  32.448  29.377  1.00  0.00     0.198 A 
ATOM     96  F   UNL A   1      42.223  30.573  30.330  1.00  0.00    -0.203 F 
ATOM     97  F   UNL A   1      42.989  35.945  30.252  1.00  0.00    -0.200 F 
ATOM     98  C   UNL A   1      43.419  33.813  29.342  1.00  0.00     0.200 A 
ATOM     99  F   UNL A   1      43.829  31.652  28.486  1.00  0.00    -0.200 F 
ATOM    100  F   UNL A   1      44.224  34.350  28.415  1.00  0.00    -0.200 F 
ENDBRANCH  67  90
ENDBRANCH  41  42
ENDBRANCH  34  36
ENDBRANCH  33  34
ENDBRANCH  32  33
ENDBRANCH  31  32
ENDBRANCH  30  31
ENDBRANCH  29  30
ENDBRANCH  28  29
ENDBRANCH  27  28
ENDBRANCH   1  27
TORSDOF 23
ENDMDL
MODEL 3
REMARK VINA RESULT:     -10.3      1.742      3.104
REMARK SMILES CC(=O)c1c[nH]c(C(=O)N[C@H]2C=C[C@H](C(=O)OCCOCCOCCOCCOC(=O)c3ccc(-c4c5nc(c(-c6c(F)c(F)c(F)c(F)c6F)c6ccc([nH]6)c(-c6c(F)c(F)c(F)c(F)c6F)c6nc(c(-c7c(F)c(F)c(F)c(F)c7F)c7ccc4[nH]7)C=C6)C=C5)cc3)C2)c1
REMARK SMILES IDX 22 1 21 2 20 3 19 4 18 5 17 6 15 7 16 8 14 9 11 10 12 11
REMARK SMILES IDX 95 12 13 13 10 14 8 15 9 16 7 18 4 19 5 20 96 21 6 22 2 24
REMARK SMILES IDX 1 25 3 26 23 27 24 28 25 29 26 30 27 31 28 32 29 33 30 34
REMARK SMILES IDX 31 35 32 36 33 37 94 38 34 39 93 40 35 41 36 42 37 43 87 44
REMARK SMILES IDX 38 45 92 46 86 47 88 48 39 49 91 50 85 51 84 52 40 54 72 55
REMARK SMILES IDX 52 56 71 57 53 58 56 59 70 60 89 61 54 62 55 63 69 65 90 66
REMARK SMILES IDX 57 67 41 68 42 69 50 70 43 71 44 72 48 73 51 74 45 75 46 76
REMARK SMILES IDX 49 77 47 78 73 79 74 80 82 81 75 82 76 83 80 84 83 85 77 86
REMARK SMILES IDX 78 87 81 88 79 89 58 90 59 91 67 92 60 93 61 94 65 95 68 96
REMARK SMILES IDX 62 97 63 98 66 99 64 100
REMARK H PARENT 10 17 6 23 88 53 56 64
REMARK Flexibility Score: inf
ROOT
ATOM      1  C   UNL A   1      41.266  19.289  26.071  1.00  0.00     0.188 C 
ENDROOT
BRANCH   1   2
ATOM      2  C   UNL A   1      41.051  20.627  26.812  1.00  0.00     0.188 C 
BRANCH   2   3
ATOM      3  O   UNL A   1      39.757  21.204  26.945  1.00  0.00    -0.376 OA
BRANCH   3   4
ATOM      4  C   UNL A   1      39.135  21.876  25.861  1.00  0.00     0.202 C 
BRANCH   4   5
ATOM      5  C   UNL A   1      37.777  21.405  25.313  1.00  0.00     0.261 C 
BRANCH   5   6
ATOM      6  O   UNL A   1      36.891  22.464  24.934  1.00  0.00    -0.463 OA
BRANCH   6   7
ATOM      7  C   UNL A   1      35.582  22.132  24.813  1.00  0.00     0.312 C 
ATOM      8  O   UNL A   1      34.903  22.304  23.809  1.00  0.00    -0.252 OA
BRANCH   7   9
ATOM      9  C   UNL A   1      35.084  21.449  26.088  1.00  0.00     0.124 C 
ATOM     10  C   UNL A   1      33.018  22.589  26.510  1.00  0.00     0.106 C 
ATOM     11  C   UNL A   1      34.028  22.921  27.567  1.00  0.00    -0.006 C 
ATOM     12  C   UNL A   1      33.570  21.252  26.001  1.00  0.00     0.048 C 
ATOM     13  C   UNL A   1      35.196  22.322  27.300  1.00  0.00    -0.014 C 
BRANCH  10  14
ATOM     14  N   UNL A   1      31.694  22.474  27.039  1.00  0.00    -0.345 N 
ATOM     15  C   UNL A   1      30.622  23.304  26.836  1.00  0.00     0.268 C 
ATOM     16  O   UNL A   1      29.580  23.024  27.432  1.00  0.00    -0.268 OA
ATOM     17  H   UNL A   1      31.532  21.699  27.625  1.00  0.00     0.164 HD
BRANCH  15  18
ATOM     18  C   UNL A   1      30.687  24.469  25.963  1.00  0.00     0.105 A 
ATOM     19  C   UNL A   1      30.827  26.070  24.320  1.00  0.00     0.035 A 
ATOM     20  C   UNL A   1      30.641  26.701  25.531  1.00  0.00     0.094 A 
ATOM     21  C   UNL A   1      30.867  24.677  24.606  1.00  0.00     0.045 A 
ATOM     22  N   UNL A   1      30.534  25.737  26.500  1.00  0.00    -0.356 N 
ATOM     23  H   UNL A   1      30.372  25.922  27.453  1.00  0.00     0.166 HD
BRANCH  19  24
ATOM     24  C   UNL A   1      30.958  26.670  22.997  1.00  0.00     0.161 C 
ATOM     25  C   UNL A   1      31.792  25.952  21.971  1.00  0.00     0.093 C 
ATOM     26  O   UNL A   1      30.345  27.695  22.702  1.00  0.00    -0.294 OA
ENDBRANCH  19  24
ENDBRANCH  15  18
ENDBRANCH  10  14
ENDBRANCH   7   9
ENDBRANCH   6   7
ENDBRANCH   5   6
ENDBRANCH   4   5
ENDBRANCH   3   4
ENDBRANCH   2   3
ENDBRANCH   1   2
BRANCH   1  27
ATOM     27  O   UNL A   1      42.126  18.377  26.735  1.00  0.00    -0.377 OA
BRANCH  27  28
ATOM     28  C   UNL A   1      43.503  18.528  26.418  1.00  0.00     0.188 C 
BRANCH  28  29
ATOM     29  C   UNL A   1      43.836  19.018  24.992  1.00  0.00     0.188 C 
BRANCH  29  30
ATOM     30  O   UNL A   1      44.761  20.106  24.943  1.00  0.00    -0.376 OA
BRANCH  30  31
ATOM     31  C   UNL A   1      44.239  21.428  24.907  1.00  0.00     0.202 C 
BRANCH  31  32
ATOM     32  C   UNL A   1      44.899  22.362  25.930  1.00  0.00     0.261 C 
BRANCH  32  33
ATOM     33  O   UNL A   1      44.069  23.461  26.306  1.00  0.00    -0.460 OA
BRANCH  33  34
ATOM     34  C   UNL A   1      44.129  24.478  25.448  1.00  0.00     0.338 C 
ATOM     35  O   UNL A   1      45.029  24.727  24.628  1.00  0.00    -0.246 OA
BRANCH  34  36
ATOM     36  C   UNL A   1      42.995  25.367  25.594  1.00  0.00     0.060 A 
ATOM     37  C   UNL A   1      43.303  26.731  25.545  1.00  0.00     0.016 A 
ATOM     38  C   UNL A   1      41.912  24.845  26.305  1.00  0.00     0.016 A 
ATOM     39  C   UNL A   1      42.710  27.550  26.470  1.00  0.00     0.010 A 
ATOM     40  C   UNL A   1      41.342  25.658  27.251  1.00  0.00     0.010 A 
ATOM     41  C   UNL A   1      41.820  26.972  27.380  1.00  0.00    -0.014 A 
BRANCH  41  42
ATOM     42  C   UNL A   1      41.384  27.776  28.519  1.00  0.00     0.031 A 
ATOM     43  C   UNL A   1      42.204  27.479  29.758  1.00  0.00     0.074 A 
ATOM     44  C   UNL A   1      40.351  28.627  28.253  1.00  0.00     0.049 A 
ATOM     45  N   UNL A   1      42.018  27.850  30.984  1.00  0.00    -0.248 NA
ATOM     46  C   UNL A   1      43.414  26.619  29.617  1.00  0.00     0.031 C 
ATOM     47  C   UNL A   1      39.678  28.748  26.941  1.00  0.00     0.029 A 
ATOM     48  N   UNL A   1      39.654  29.546  29.003  1.00  0.00    -0.354 N 
ATOM     49  C   UNL A   1      43.156  27.452  31.700  1.00  0.00     0.074 A 
ATOM     50  C   UNL A   1      43.941  26.624  30.838  1.00  0.00     0.031 C 
ATOM     51  C   UNL A   1      38.644  29.610  27.009  1.00  0.00     0.029 A 
ATOM     52  C   UNL A   1      38.561  30.163  28.344  1.00  0.00     0.049 A 
ATOM     53  H   UNL A   1      39.897  29.759  29.934  1.00  0.00     0.167 HD
ATOM     54  C   UNL A   1      43.458  27.920  32.938  1.00  0.00     0.037 A 
ATOM     55  C   UNL A   1      37.635  31.031  28.857  1.00  0.00     0.037 A 
ATOM     56  C   UNL A   1      42.407  28.723  33.464  1.00  0.00     0.049 A 
ATOM     57  C   UNL A   1      38.111  31.331  30.221  1.00  0.00     0.074 A 
ATOM     58  C   UNL A   1      41.222  28.415  34.076  1.00  0.00     0.029 A 
ATOM     59  N   UNL A   1      42.387  30.049  33.119  1.00  0.00    -0.354 N 
ATOM     60  N   UNL A   1      39.140  32.077  30.499  1.00  0.00    -0.248 NA
ATOM     61  C   UNL A   1      37.473  30.658  31.355  1.00  0.00     0.031 C 
ATOM     62  C   UNL A   1      40.372  29.513  33.813  1.00  0.00     0.029 A 
ATOM     63  C   UNL A   1      41.072  30.459  33.062  1.00  0.00     0.049 A 
ATOM     64  H   UNL A   1      43.175  30.612  32.942  1.00  0.00     0.167 HD
ATOM     65  C   UNL A   1      39.451  31.705  31.789  1.00  0.00     0.074 A 
ATOM     66  C   UNL A   1      38.273  31.074  32.331  1.00  0.00     0.031 C 
ATOM     67  C   UNL A   1      40.747  31.540  32.158  1.00  0.00     0.037 A 
BRANCH  54  68
ATOM     68  C   UNL A   1      44.749  27.829  33.680  1.00  0.00     0.064 A 
ATOM     69  C   UNL A   1      45.867  28.531  33.185  1.00  0.00     0.173 A 
ATOM     70  C   UNL A   1      44.998  26.856  34.659  1.00  0.00     0.173 A 
ATOM     71  F   UNL A   1      45.714  29.503  32.273  1.00  0.00    -0.203 F 
ATOM     72  C   UNL A   1      47.164  28.209  33.574  1.00  0.00     0.198 A 
ATOM     73  C   UNL A   1      46.297  26.564  35.079  1.00  0.00     0.198 A 
ATOM     74  F   UNL A   1      44.002  26.110  35.161  1.00  0.00    -0.203 F 
ATOM     75  F   UNL A   1      48.204  28.827  32.999  1.00  0.00    -0.200 F 
ATOM     76  C   UNL A   1      47.379  27.216  34.511  1.00  0.00     0.200 A 
ATOM     77  F   UNL A   1      46.501  25.603  35.989  1.00  0.00    -0.200 F 
ATOM     78  F   UNL A   1      48.628  26.863  34.843  1.00  0.00    -0.200 F 
ENDBRANCH  54  68
BRANCH  55  79
ATOM     79  C   UNL A   1      36.313  31.630  28.425  1.00  0.00     0.064 A 
ATOM     80  C   UNL A   1      35.145  30.921  28.104  1.00  0.00     0.173 A 
ATOM     81  C   UNL A   1      36.150  33.044  28.397  1.00  0.00     0.173 A 
ATOM     82  F   UNL A   1      35.151  29.595  27.955  1.00  0.00    -0.203 F 
ATOM     83  C   UNL A   1      33.908  31.560  27.896  1.00  0.00     0.198 A 
ATOM     84  C   UNL A   1      34.918  33.678  28.220  1.00  0.00     0.198 A 
ATOM     85  F   UNL A   1      37.192  33.873  28.550  1.00  0.00    -0.203 F 
ATOM     86  F   UNL A   1      32.821  30.825  27.616  1.00  0.00    -0.200 F 
ATOM     87  C   UNL A   1      33.789  32.933  27.989  1.00  0.00     0.200 A 
ATOM     88  F   UNL A   1      34.843  35.015  28.299  1.00  0.00    -0.200 F 
ATOM     89  F   UNL A   1      32.599  33.533  27.844  1.00  0.00    -0.200 F 
ENDBRANCH  55  79
BRANCH  67  90
ATOM     90  C   UNL A   1      41.724  32.242  31.245  1.00  0.00     0.064 A 
ATOM     91  C   UNL A   1      41.888  33.630  31.329  1.00  0.00     0.173 A 
ATOM     92  C   UNL A   1      42.410  31.591  30.204  1.00  0.00     0.173 A 
ATOM     93  F   UNL A   1      41.263  34.320  32.294  1.00  0.00    -0.203 F 
ATOM     94  C   UNL A   1      42.697  34.322  30.424  1.00  0.00     0.198 A 
ATOM     95  C   UNL A   1      43.224  32.277  29.306  1.00  0.00     0.198 A 
ATOM     96  F   UNL A   1      42.309  30.272  30.049  1.00  0.00    -0.203 F 
ATOM     97  F   UNL A   1      42.835  35.651  30.535  1.00  0.00    -0.200 F 
ATOM     98  C   UNL A   1      43.366  33.646  29.415  1.00  0.00     0.200 A 
ATOM     99  F   UNL A   1      43.878  31.606  28.345  1.00  0.00    -0.200 F 
ATOM    100  F   UNL A   1      44.152  34.311  28.557  1.00  0.00    -0.200 F 
ENDBRANCH  67  90
ENDBRANCH  41  42
ENDBRANCH  34  36
ENDBRANCH  33  34
ENDBRANCH  32  33
ENDBRANCH  31  32
ENDBRANCH  30  31
ENDBRANCH  29  30
ENDBRANCH  28  29
ENDBRANCH  27  28
ENDBRANCH   1  27
TORSDOF 23
ENDMDL
