MODEL 1
REMARK VINA RESULT:      -9.9      0.000      0.000
REMARK SMILES O=C(OCCOCCOCCOCCOC(=O)[C@H]1CC[C@H]2CCCC[C@@H]2[N@H+]1C[C@H]1CCCCO1)c1ccc(-c2c3nc(c(-c4c(F)c(F)c(F)c(F)c4F)c4ccc([nH]4)c(-c4c(F)c(F)c(F)c(F)c4F)c4nc(c(-c5c(F)c(F)c(F)c(F)c5F)c5ccc2[nH]5)C=C4)C=C3)cc1
REMARK SMILES IDX 9 1 8 2 7 3 6 4 5 5 4 6 3 7 2 8 1 9 35 10 36 11 97 12 37 13
REMARK SMILES IDX 96 14 38 15 39 16 40 17 90 18 41 19 95 20 89 21 91 22 42 23
REMARK SMILES IDX 94 24 88 25 87 26 43 28 75 29 55 30 74 31 56 32 59 33 73 34
REMARK SMILES IDX 92 35 57 36 58 37 72 39 93 40 60 41 44 42 45 43 53 44 46 45
REMARK SMILES IDX 47 46 51 47 54 48 48 49 49 50 52 51 50 52 76 53 77 54 85 55
REMARK SMILES IDX 78 56 79 57 83 58 86 59 80 60 81 61 84 62 82 63 61 64 62 65
REMARK SMILES IDX 70 66 63 67 64 68 68 69 71 70 65 71 66 72 69 73 67 74 10 75
REMARK SMILES IDX 11 76 12 77 13 78 14 79 15 80 16 81 17 82 18 83 19 84 27 85
REMARK SMILES IDX 20 86 26 87 21 89 25 90 22 91 24 92 23 93 28 94 29 95 30 96
REMARK SMILES IDX 34 97 31 98 33 99 32 100
REMARK H PARENT 91 27 59 38 27 88
REMARK Flexibility Score: inf
ROOT
ATOM      1  O   UNL A   1      37.488  29.363  29.039  1.00  0.00    -0.377 OA
ENDROOT
BRANCH   1   2
ATOM      2  C   UNL A   1      38.433  28.509  28.425  1.00  0.00     0.188 C 
BRANCH   2   3
ATOM      3  C   UNL A   1      39.275  27.553  29.293  1.00  0.00     0.188 C 
BRANCH   3   4
ATOM      4  O   UNL A   1      40.007  26.536  28.632  1.00  0.00    -0.376 OA
BRANCH   4   5
ATOM      5  C   UNL A   1      39.595  25.683  27.568  1.00  0.00     0.202 C 
BRANCH   5   6
ATOM      6  C   UNL A   1      40.063  24.253  27.577  1.00  0.00     0.261 C 
BRANCH   6   7
ATOM      7  O   UNL A   1      40.821  23.815  26.443  1.00  0.00    -0.460 OA
BRANCH   7   8
ATOM      8  C   UNL A   1      42.144  23.823  26.177  1.00  0.00     0.338 C 
ATOM      9  O   UNL A   1      42.661  22.766  25.814  1.00  0.00    -0.246 OA
BRANCH   8  10
ATOM     10  C   UNL A   1      43.027  25.025  26.251  1.00  0.00     0.060 A 
ATOM     11  C   UNL A   1      43.306  25.914  25.222  1.00  0.00     0.016 A 
ATOM     12  C   UNL A   1      43.529  25.355  27.514  1.00  0.00     0.016 A 
ATOM     13  C   UNL A   1      44.175  26.959  25.330  1.00  0.00     0.010 A 
ATOM     14  C   UNL A   1      44.327  26.488  27.686  1.00  0.00     0.010 A 
ATOM     15  C   UNL A   1      44.680  27.251  26.571  1.00  0.00    -0.014 A 
BRANCH  15  16
ATOM     16  C   UNL A   1      45.758  28.223  26.549  1.00  0.00     0.031 A 
ATOM     17  C   UNL A   1      45.368  29.623  26.868  1.00  0.00     0.074 A 
ATOM     18  C   UNL A   1      47.029  27.791  26.522  1.00  0.00     0.049 A 
ATOM     19  N   UNL A   1      46.099  30.696  26.877  1.00  0.00    -0.248 NA
ATOM     20  C   UNL A   1      43.956  29.842  27.248  1.00  0.00     0.031 C 
ATOM     21  C   UNL A   1      47.453  26.384  26.466  1.00  0.00     0.029 A 
ATOM     22  N   UNL A   1      48.197  28.489  26.583  1.00  0.00    -0.354 N 
ATOM     23  C   UNL A   1      45.231  31.718  27.220  1.00  0.00     0.074 A 
ATOM     24  C   UNL A   1      43.915  31.154  27.390  1.00  0.00     0.031 C 
ATOM     25  C   UNL A   1      48.794  26.332  26.469  1.00  0.00     0.029 A 
ATOM     26  C   UNL A   1      49.308  27.695  26.451  1.00  0.00     0.049 A 
ATOM     27  H   UNL A   1      48.241  29.465  26.709  1.00  0.00     0.167 HD
ATOM     28  C   UNL A   1      45.535  33.020  27.374  1.00  0.00     0.037 A 
ATOM     29  C   UNL A   1      50.584  28.067  26.269  1.00  0.00     0.037 A 
ATOM     30  C   UNL A   1      46.863  33.520  27.182  1.00  0.00     0.049 A 
ATOM     31  C   UNL A   1      50.862  29.548  26.258  1.00  0.00     0.074 A 
ATOM     32  C   UNL A   1      47.308  34.824  27.202  1.00  0.00     0.029 A 
ATOM     33  N   UNL A   1      47.967  32.712  26.925  1.00  0.00    -0.354 N 
ATOM     34  N   UNL A   1      50.038  30.549  26.473  1.00  0.00    -0.248 NA
ATOM     35  C   UNL A   1      52.239  29.958  25.975  1.00  0.00     0.031 C 
ATOM     36  C   UNL A   1      48.670  34.811  26.886  1.00  0.00     0.029 A 
ATOM     37  C   UNL A   1      49.093  33.494  26.760  1.00  0.00     0.049 A 
ATOM     38  H   UNL A   1      47.948  31.729  26.869  1.00  0.00     0.167 HD
ATOM     39  C   UNL A   1      50.801  31.704  26.389  1.00  0.00     0.074 A 
ATOM     40  C   UNL A   1      52.160  31.271  26.126  1.00  0.00     0.031 C 
ATOM     41  C   UNL A   1      50.426  33.002  26.515  1.00  0.00     0.037 A 
BRANCH  28  42
ATOM     42  C   UNL A   1      44.403  33.951  27.665  1.00  0.00     0.064 A 
ATOM     43  C   UNL A   1      43.781  34.707  26.660  1.00  0.00     0.173 A 
ATOM     44  C   UNL A   1      43.973  34.131  28.986  1.00  0.00     0.173 A 
ATOM     45  F   UNL A   1      44.193  34.611  25.386  1.00  0.00    -0.203 F 
ATOM     46  C   UNL A   1      42.784  35.627  26.972  1.00  0.00     0.198 A 
ATOM     47  C   UNL A   1      42.948  35.021  29.290  1.00  0.00     0.198 A 
ATOM     48  F   UNL A   1      44.558  33.457  29.986  1.00  0.00    -0.203 F 
ATOM     49  F   UNL A   1      42.255  36.392  26.007  1.00  0.00    -0.200 F 
ATOM     50  C   UNL A   1      42.361  35.774  28.284  1.00  0.00     0.200 A 
ATOM     51  F   UNL A   1      42.542  35.162  30.558  1.00  0.00    -0.200 F 
ATOM     52  F   UNL A   1      41.397  36.655  28.583  1.00  0.00    -0.200 F 
ENDBRANCH  28  42
BRANCH  29  53
ATOM     53  C   UNL A   1      51.648  27.063  25.997  1.00  0.00     0.064 A 
ATOM     54  C   UNL A   1      52.429  26.530  27.031  1.00  0.00     0.173 A 
ATOM     55  C   UNL A   1      51.957  26.669  24.683  1.00  0.00     0.173 A 
ATOM     56  F   UNL A   1      52.185  26.880  28.302  1.00  0.00    -0.203 F 
ATOM     57  C   UNL A   1      53.507  25.689  26.760  1.00  0.00     0.198 A 
ATOM     58  C   UNL A   1      53.007  25.795  24.417  1.00  0.00     0.198 A 
ATOM     59  F   UNL A   1      51.244  27.143  23.651  1.00  0.00    -0.203 F 
ATOM     60  F   UNL A   1      54.290  25.266  27.762  1.00  0.00    -0.200 F 
ATOM     61  C   UNL A   1      53.796  25.321  25.455  1.00  0.00     0.200 A 
ATOM     62  F   UNL A   1      53.270  25.430  23.155  1.00  0.00    -0.200 F 
ATOM     63  F   UNL A   1      54.843  24.528  25.194  1.00  0.00    -0.200 F 
ENDBRANCH  29  53
BRANCH  41  64
ATOM     64  C   UNL A   1      51.517  34.028  26.437  1.00  0.00     0.064 A 
ATOM     65  C   UNL A   1      51.866  34.651  25.231  1.00  0.00     0.173 A 
ATOM     66  C   UNL A   1      52.188  34.422  27.604  1.00  0.00     0.173 A 
ATOM     67  F   UNL A   1      51.257  34.302  24.087  1.00  0.00    -0.203 F 
ATOM     68  C   UNL A   1      52.883  35.598  25.189  1.00  0.00     0.198 A 
ATOM     69  C   UNL A   1      53.166  35.408  27.567  1.00  0.00     0.198 A 
ATOM     70  F   UNL A   1      51.878  33.868  28.786  1.00  0.00    -0.203 F 
ATOM     71  F   UNL A   1      53.254  36.125  24.014  1.00  0.00    -0.200 F 
ATOM     72  C   UNL A   1      53.523  35.983  26.357  1.00  0.00     0.200 A 
ATOM     73  F   UNL A   1      53.761  35.800  28.701  1.00  0.00    -0.200 F 
ATOM     74  F   UNL A   1      54.494  36.905  26.316  1.00  0.00    -0.200 F 
ENDBRANCH  41  64
ENDBRANCH  15  16
ENDBRANCH   8  10
ENDBRANCH   7   8
ENDBRANCH   6   7
ENDBRANCH   5   6
ENDBRANCH   4   5
ENDBRANCH   3   4
ENDBRANCH   2   3
ENDBRANCH   1   2
BRANCH   1  75
ATOM     75  C   UNL A   1      36.727  30.129  28.130  1.00  0.00     0.188 C 
BRANCH  75  76
ATOM     76  C   UNL A   1      35.285  29.611  27.757  1.00  0.00     0.188 C 
BRANCH  76  77
ATOM     77  O   UNL A   1      34.361  30.651  27.417  1.00  0.00    -0.376 OA
BRANCH  77  78
ATOM     78  C   UNL A   1      33.004  30.288  27.182  1.00  0.00     0.202 C 
BRANCH  78  79
ATOM     79  C   UNL A   1      32.711  29.310  26.033  1.00  0.00     0.261 C 
BRANCH  79  80
ATOM     80  O   UNL A   1      33.202  29.707  24.748  1.00  0.00    -0.459 OA
BRANCH  80  81
ATOM     81  C   UNL A   1      33.444  28.742  23.817  1.00  0.00     0.364 C 
ATOM     82  O   UNL A   1      34.240  28.849  22.896  1.00  0.00    -0.245 OA
BRANCH  81  83
ATOM     83  C   UNL A   1      32.575  27.504  24.164  1.00  0.00     0.295 C 
ATOM     84  C   UNL A   1      31.849  26.902  22.355  1.00  0.00     0.078 C 
ATOM     85  N   UNL A   1      33.338  26.100  25.220  1.00  0.00    -0.318 N 
ATOM     86  C   UNL A   1      31.224  24.849  22.780  1.00  0.00     0.016 C 
ATOM     87  C   UNL A   1      32.384  24.778  25.508  1.00  0.00     0.187 C 
ATOM     88  H   UNL A   1      33.655  26.614  26.041  1.00  0.00     0.349 HD
ATOM     89  C   UNL A   1      31.237  24.265  24.522  1.00  0.00     0.048 C 
ATOM     90  C   UNL A   1      32.091  24.397  26.983  1.00  0.00     0.065 C 
ATOM     91  C   UNL A   1      30.927  22.769  24.660  1.00  0.00     0.010 C 
ATOM     92  C   UNL A   1      31.690  22.892  27.087  1.00  0.00     0.006 C 
ATOM     93  C   UNL A   1      30.573  22.473  26.129  1.00  0.00     0.001 C 
BRANCH  85  94
ATOM     94  C   UNL A   1      34.406  25.141  24.176  1.00  0.00     0.295 C 
BRANCH  94  95
ATOM     95  C   UNL A   1      35.759  24.426  25.196  1.00  0.00     0.173 C 
ATOM     96  C   UNL A   1      35.140  23.407  24.289  1.00  0.00     0.038 C 
ATOM     97  O   UNL A   1      37.326  23.536  24.955  1.00  0.00    -0.372 OA
ATOM     98  C   UNL A   1      34.509  21.360  24.597  1.00  0.00     0.005 C 
ATOM     99  C   UNL A   1      37.589  21.788  25.176  1.00  0.00     0.161 C 
ATOM    100  C   UNL A   1      36.207  20.439  25.058  1.00  0.00     0.029 C 
ENDBRANCH  94  95
ENDBRANCH  85  94
ENDBRANCH  81  83
ENDBRANCH  80  81
ENDBRANCH  79  80
ENDBRANCH  78  79
ENDBRANCH  77  78
ENDBRANCH  76  77
ENDBRANCH  75  76
ENDBRANCH   1  75
TORSDOF 22
ENDMDL
MODEL 2
REMARK VINA RESULT:      -9.9      5.229     10.119
REMARK SMILES O=C(OCCOCCOCCOCCOC(=O)[C@H]1CC[C@H]2CCCC[C@@H]2[N@H+]1C[C@H]1CCCCO1)c1ccc(-c2c3nc(c(-c4c(F)c(F)c(F)c(F)c4F)c4ccc([nH]4)c(-c4c(F)c(F)c(F)c(F)c4F)c4nc(c(-c5c(F)c(F)c(F)c(F)c5F)c5ccc2[nH]5)C=C4)C=C3)cc1
REMARK SMILES IDX 9 1 8 2 7 3 6 4 5 5 4 6 3 7 2 8 1 9 35 10 36 11 97 12 37 13
REMARK SMILES IDX 96 14 38 15 39 16 40 17 90 18 41 19 95 20 89 21 91 22 42 23
REMARK SMILES IDX 94 24 88 25 87 26 43 28 75 29 55 30 74 31 56 32 59 33 73 34
REMARK SMILES IDX 92 35 57 36 58 37 72 39 93 40 60 41 44 42 45 43 53 44 46 45
REMARK SMILES IDX 47 46 51 47 54 48 48 49 49 50 52 51 50 52 76 53 77 54 85 55
REMARK SMILES IDX 78 56 79 57 83 58 86 59 80 60 81 61 84 62 82 63 61 64 62 65
REMARK SMILES IDX 70 66 63 67 64 68 68 69 71 70 65 71 66 72 69 73 67 74 10 75
REMARK SMILES IDX 11 76 12 77 13 78 14 79 15 80 16 81 17 82 18 83 19 84 27 85
REMARK SMILES IDX 20 86 26 87 21 89 25 90 22 91 24 92 23 93 28 94 29 95 30 96
REMARK SMILES IDX 34 97 31 98 33 99 32 100
REMARK H PARENT 91 27 59 38 27 88
REMARK Flexibility Score: inf
ROOT
ATOM      1  O   UNL A   1      35.435  34.260  31.377  1.00  0.00    -0.377 OA
ENDROOT
BRANCH   1   2
ATOM      2  C   UNL A   1      34.358  35.075  31.796  1.00  0.00     0.188 C 
BRANCH   2   3
ATOM      3  C   UNL A   1      34.388  35.722  33.196  1.00  0.00     0.188 C 
BRANCH   3   4
ATOM      4  O   UNL A   1      35.396  35.298  34.096  1.00  0.00    -0.376 OA
BRANCH   4   5
ATOM      5  C   UNL A   1      35.500  34.068  34.808  1.00  0.00     0.202 C 
BRANCH   5   6
ATOM      6  C   UNL A   1      36.786  33.292  34.705  1.00  0.00     0.261 C 
BRANCH   6   7
ATOM      7  O   UNL A   1      37.168  32.522  35.851  1.00  0.00    -0.460 OA
BRANCH   7   8
ATOM      8  C   UNL A   1      38.059  31.522  36.017  1.00  0.00     0.338 C 
ATOM      9  O   UNL A   1      37.872  30.737  36.947  1.00  0.00    -0.246 OA
BRANCH   8  10
ATOM     10  C   UNL A   1      39.238  31.270  35.137  1.00  0.00     0.060 A 
ATOM     11  C   UNL A   1      39.266  30.482  33.993  1.00  0.00     0.016 A 
ATOM     12  C   UNL A   1      40.400  31.992  35.425  1.00  0.00     0.016 A 
ATOM     13  C   UNL A   1      40.391  30.233  33.265  1.00  0.00     0.010 A 
ATOM     14  C   UNL A   1      41.538  31.853  34.628  1.00  0.00     0.010 A 
ATOM     15  C   UNL A   1      41.530  30.930  33.580  1.00  0.00    -0.014 A 
BRANCH  15  16
ATOM     16  C   UNL A   1      42.720  30.439  32.908  1.00  0.00     0.031 A 
ATOM     17  C   UNL A   1      43.313  29.199  33.476  1.00  0.00     0.074 A 
ATOM     18  C   UNL A   1      43.046  30.939  31.705  1.00  0.00     0.049 A 
ATOM     19  N   UNL A   1      44.390  28.567  33.119  1.00  0.00    -0.248 NA
ATOM     20  C   UNL A   1      42.580  28.572  34.596  1.00  0.00     0.031 C 
ATOM     21  C   UNL A   1      42.319  32.000  30.994  1.00  0.00     0.029 A 
ATOM     22  N   UNL A   1      44.046  30.589  30.849  1.00  0.00    -0.354 N 
ATOM     23  C   UNL A   1      44.483  27.498  33.993  1.00  0.00     0.074 A 
ATOM     24  C   UNL A   1      43.377  27.569  34.914  1.00  0.00     0.031 C 
ATOM     25  C   UNL A   1      42.922  32.229  29.817  1.00  0.00     0.029 A 
ATOM     26  C   UNL A   1      44.107  31.387  29.735  1.00  0.00     0.049 A 
ATOM     27  H   UNL A   1      44.664  29.840  31.013  1.00  0.00     0.167 HD
ATOM     28  C   UNL A   1      45.432  26.543  34.004  1.00  0.00     0.037 A 
ATOM     29  C   UNL A   1      45.070  31.449  28.803  1.00  0.00     0.037 A 
ATOM     30  C   UNL A   1      46.514  26.533  33.065  1.00  0.00     0.049 A 
ATOM     31  C   UNL A   1      46.221  30.487  28.954  1.00  0.00     0.074 A 
ATOM     32  C   UNL A   1      47.605  25.693  33.012  1.00  0.00     0.029 A 
ATOM     33  N   UNL A   1      46.631  27.429  32.006  1.00  0.00    -0.354 N 
ATOM     34  N   UNL A   1      46.391  29.530  29.839  1.00  0.00    -0.248 NA
ATOM     35  C   UNL A   1      47.313  30.610  27.987  1.00  0.00     0.031 C 
ATOM     36  C   UNL A   1      48.420  26.127  31.961  1.00  0.00     0.029 A 
ATOM     37  C   UNL A   1      47.793  27.177  31.304  1.00  0.00     0.049 A 
ATOM     38  H   UNL A   1      45.981  28.137  31.790  1.00  0.00     0.167 HD
ATOM     39  C   UNL A   1      47.590  28.913  29.514  1.00  0.00     0.074 A 
ATOM     40  C   UNL A   1      48.089  29.595  28.334  1.00  0.00     0.031 C 
ATOM     41  C   UNL A   1      48.228  27.883  30.125  1.00  0.00     0.037 A 
BRANCH  28  42
ATOM     42  C   UNL A   1      45.367  25.535  35.105  1.00  0.00     0.064 A 
ATOM     43  C   UNL A   1      45.902  25.784  36.378  1.00  0.00     0.173 A 
ATOM     44  C   UNL A   1      44.809  24.273  34.860  1.00  0.00     0.173 A 
ATOM     45  F   UNL A   1      46.496  26.958  36.646  1.00  0.00    -0.203 F 
ATOM     46  C   UNL A   1      45.900  24.796  37.359  1.00  0.00     0.198 A 
ATOM     47  C   UNL A   1      44.772  23.302  35.855  1.00  0.00     0.198 A 
ATOM     48  F   UNL A   1      44.315  23.975  33.650  1.00  0.00    -0.203 F 
ATOM     49  F   UNL A   1      46.482  25.030  38.543  1.00  0.00    -0.200 F 
ATOM     50  C   UNL A   1      45.324  23.562  37.100  1.00  0.00     0.200 A 
ATOM     51  F   UNL A   1      44.216  22.110  35.602  1.00  0.00    -0.200 F 
ATOM     52  F   UNL A   1      45.318  22.613  38.047  1.00  0.00    -0.200 F 
ENDBRANCH  28  42
BRANCH  29  53
ATOM     53  C   UNL A   1      45.043  32.483  27.735  1.00  0.00     0.064 A 
ATOM     54  C   UNL A   1      44.322  32.288  26.549  1.00  0.00     0.173 A 
ATOM     55  C   UNL A   1      45.799  33.663  27.846  1.00  0.00     0.173 A 
ATOM     56  F   UNL A   1      43.593  31.175  26.385  1.00  0.00    -0.203 F 
ATOM     57  C   UNL A   1      44.402  33.200  25.498  1.00  0.00     0.198 A 
ATOM     58  C   UNL A   1      45.843  34.595  26.812  1.00  0.00     0.198 A 
ATOM     59  F   UNL A   1      46.508  33.909  28.957  1.00  0.00    -0.203 F 
ATOM     60  F   UNL A   1      43.773  32.942  24.343  1.00  0.00    -0.200 F 
ATOM     61  C   UNL A   1      45.161  34.353  25.629  1.00  0.00     0.200 A 
ATOM     62  F   UNL A   1      46.565  35.715  26.952  1.00  0.00    -0.200 F 
ATOM     63  F   UNL A   1      45.252  35.220  24.612  1.00  0.00    -0.200 F 
ENDBRANCH  29  53
BRANCH  41  64
ATOM     64  C   UNL A   1      49.492  27.397  29.481  1.00  0.00     0.064 A 
ATOM     65  C   UNL A   1      50.735  27.992  29.740  1.00  0.00     0.173 A 
ATOM     66  C   UNL A   1      49.456  26.286  28.624  1.00  0.00     0.173 A 
ATOM     67  F   UNL A   1      50.818  29.061  30.547  1.00  0.00    -0.203 F 
ATOM     68  C   UNL A   1      51.890  27.521  29.127  1.00  0.00     0.198 A 
ATOM     69  C   UNL A   1      50.621  25.785  28.056  1.00  0.00     0.198 A 
ATOM     70  F   UNL A   1      48.294  25.671  28.358  1.00  0.00    -0.203 F 
ATOM     71  F   UNL A   1      53.055  28.151  29.328  1.00  0.00    -0.200 F 
ATOM     72  C   UNL A   1      51.833  26.412  28.295  1.00  0.00     0.200 A 
ATOM     73  F   UNL A   1      50.568  24.696  27.278  1.00  0.00    -0.200 F 
ATOM     74  F   UNL A   1      52.950  25.952  27.716  1.00  0.00    -0.200 F 
ENDBRANCH  41  64
ENDBRANCH  15  16
ENDBRANCH   8  10
ENDBRANCH   7   8
ENDBRANCH   6   7
ENDBRANCH   5   6
ENDBRANCH   4   5
ENDBRANCH   3   4
ENDBRANCH   2   3
ENDBRANCH   1   2
BRANCH   1  75
ATOM     75  C   UNL A   1      35.044  32.996  30.886  1.00  0.00     0.188 C 
BRANCH  75  76
ATOM     76  C   UNL A   1      35.694  31.718  31.542  1.00  0.00     0.188 C 
BRANCH  76  77
ATOM     77  O   UNL A   1      36.465  30.924  30.633  1.00  0.00    -0.376 OA
BRANCH  77  78
ATOM     78  C   UNL A   1      36.957  31.550  29.451  1.00  0.00     0.202 C 
BRANCH  78  79
ATOM     79  C   UNL A   1      37.948  30.760  28.581  1.00  0.00     0.261 C 
BRANCH  79  80
ATOM     80  O   UNL A   1      38.805  29.858  29.289  1.00  0.00    -0.459 OA
BRANCH  80  81
ATOM     81  C   UNL A   1      39.061  28.638  28.741  1.00  0.00     0.364 C 
ATOM     82  O   UNL A   1      38.208  27.803  28.476  1.00  0.00    -0.245 OA
BRANCH  81  83
ATOM     83  C   UNL A   1      40.587  28.531  28.483  1.00  0.00     0.295 C 
ATOM     84  C   UNL A   1      41.370  28.222  30.341  1.00  0.00     0.078 C 
ATOM     85  N   UNL A   1      41.221  27.316  27.143  1.00  0.00    -0.318 N 
ATOM     86  C   UNL A   1      43.352  27.424  29.870  1.00  0.00     0.016 C 
ATOM     87  C   UNL A   1      42.861  27.201  26.954  1.00  0.00     0.187 C 
ATOM     88  H   UNL A   1      40.693  27.623  26.326  1.00  0.00     0.349 HD
ATOM     89  C   UNL A   1      43.921  27.449  28.123  1.00  0.00     0.048 C 
ATOM     90  C   UNL A   1      43.458  27.513  25.557  1.00  0.00     0.065 C 
ATOM     91  C   UNL A   1      45.255  26.722  27.912  1.00  0.00     0.010 C 
ATOM     92  C   UNL A   1      44.857  26.838  25.399  1.00  0.00     0.006 C 
ATOM     93  C   UNL A   1      45.828  27.133  26.543  1.00  0.00     0.001 C 
BRANCH  85  94
ATOM     94  C   UNL A   1      41.150  25.672  27.810  1.00  0.00     0.295 C 
BRANCH  94  95
ATOM     95  C   UNL A   1      40.278  24.577  26.617  1.00  0.00     0.173 C 
ATOM     96  C   UNL A   1      41.273  23.826  27.447  1.00  0.00     0.038 C 
ATOM     97  O   UNL A   1      39.272  23.064  26.637  1.00  0.00    -0.372 OA
ATOM     98  C   UNL A   1      42.758  22.330  26.959  1.00  0.00     0.005 C 
ATOM     99  C   UNL A   1      39.823  21.427  26.202  1.00  0.00     0.161 C 
ATOM    100  C   UNL A   1      41.661  20.825  26.271  1.00  0.00     0.029 C 
ENDBRANCH  94  95
ENDBRANCH  85  94
ENDBRANCH  81  83
ENDBRANCH  80  81
ENDBRANCH  79  80
ENDBRANCH  78  79
ENDBRANCH  77  78
ENDBRANCH  76  77
ENDBRANCH  75  76
ENDBRANCH   1  75
TORSDOF 22
ENDMDL
MODEL 3
REMARK VINA RESULT:      -9.5      0.681      1.985
REMARK SMILES O=C(OCCOCCOCCOCCOC(=O)[C@H]1CC[C@H]2CCCC[C@@H]2[N@H+]1C[C@H]1CCCCO1)c1ccc(-c2c3nc(c(-c4c(F)c(F)c(F)c(F)c4F)c4ccc([nH]4)c(-c4c(F)c(F)c(F)c(F)c4F)c4nc(c(-c5c(F)c(F)c(F)c(F)c5F)c5ccc2[nH]5)C=C4)C=C3)cc1
REMARK SMILES IDX 9 1 8 2 7 3 6 4 5 5 4 6 3 7 2 8 1 9 35 10 36 11 97 12 37 13
REMARK SMILES IDX 96 14 38 15 39 16 40 17 90 18 41 19 95 20 89 21 91 22 42 23
REMARK SMILES IDX 94 24 88 25 87 26 43 28 75 29 55 30 74 31 56 32 59 33 73 34
REMARK SMILES IDX 92 35 57 36 58 37 72 39 93 40 60 41 44 42 45 43 53 44 46 45
REMARK SMILES IDX 47 46 51 47 54 48 48 49 49 50 52 51 50 52 76 53 77 54 85 55
REMARK SMILES IDX 78 56 79 57 83 58 86 59 80 60 81 61 84 62 82 63 61 64 62 65
REMARK SMILES IDX 70 66 63 67 64 68 68 69 71 70 65 71 66 72 69 73 67 74 10 75
REMARK SMILES IDX 11 76 12 77 13 78 14 79 15 80 16 81 17 82 18 83 19 84 27 85
REMARK SMILES IDX 20 86 26 87 21 89 25 90 22 91 24 92 23 93 28 94 29 95 30 96
REMARK SMILES IDX 34 97 31 98 33 99 32 100
REMARK H PARENT 91 27 59 38 27 88
REMARK Flexibility Score: inf
ROOT
ATOM      1  O   UNL A   1      37.098  30.057  28.802  1.00  0.00    -0.377 OA
ENDROOT
BRANCH   1   2
ATOM      2  C   UNL A   1      38.053  29.117  28.349  1.00  0.00     0.188 C 
BRANCH   2   3
ATOM      3  C   UNL A   1      38.983  28.423  29.365  1.00  0.00     0.188 C 
BRANCH   3   4
ATOM      4  O   UNL A   1      39.773  27.342  28.904  1.00  0.00    -0.376 OA
BRANCH   4   5
ATOM      5  C   UNL A   1      39.474  26.383  27.894  1.00  0.00     0.202 C 
BRANCH   5   6
ATOM      6  C   UNL A   1      40.101  25.018  27.999  1.00  0.00     0.261 C 
BRANCH   6   7
ATOM      7  O   UNL A   1      40.988  24.632  26.943  1.00  0.00    -0.460 OA
BRANCH   7   8
ATOM      8  C   UNL A   1      42.334  24.564  26.866  1.00  0.00     0.338 C 
ATOM      9  O   UNL A   1      42.848  23.448  26.808  1.00  0.00    -0.246 OA
BRANCH   8  10
ATOM     10  C   UNL A   1      43.248  25.743  26.807  1.00  0.00     0.060 A 
ATOM     11  C   UNL A   1      43.548  26.506  25.686  1.00  0.00     0.016 A 
ATOM     12  C   UNL A   1      43.764  26.195  28.026  1.00  0.00     0.016 A 
ATOM     13  C   UNL A   1      44.446  27.531  25.678  1.00  0.00     0.010 A 
ATOM     14  C   UNL A   1      44.594  27.318  28.072  1.00  0.00     0.010 A 
ATOM     15  C   UNL A   1      44.963  27.944  26.880  1.00  0.00    -0.014 A 
BRANCH  15  16
ATOM     16  C   UNL A   1      46.067  28.878  26.751  1.00  0.00     0.031 A 
ATOM     17  C   UNL A   1      45.743  30.301  27.041  1.00  0.00     0.074 A 
ATOM     18  C   UNL A   1      47.319  28.403  26.657  1.00  0.00     0.049 A 
ATOM     19  N   UNL A   1      46.507  31.348  26.961  1.00  0.00    -0.248 NA
ATOM     20  C   UNL A   1      44.368  30.581  27.502  1.00  0.00     0.031 C 
ATOM     21  C   UNL A   1      47.695  26.981  26.627  1.00  0.00     0.029 A 
ATOM     22  N   UNL A   1      48.510  29.063  26.615  1.00  0.00    -0.354 N 
ATOM     23  C   UNL A   1      45.695  32.410  27.320  1.00  0.00     0.074 A 
ATOM     24  C   UNL A   1      44.377  31.898  27.597  1.00  0.00     0.031 C 
ATOM     25  C   UNL A   1      49.031  26.884  26.544  1.00  0.00     0.029 A 
ATOM     26  C   UNL A   1      49.584  28.227  26.441  1.00  0.00     0.049 A 
ATOM     27  H   UNL A   1      48.593  30.040  26.700  1.00  0.00     0.167 HD
ATOM     28  C   UNL A   1      46.050  33.706  27.404  1.00  0.00     0.037 A 
ATOM     29  C   UNL A   1      50.857  28.550  26.162  1.00  0.00     0.037 A 
ATOM     30  C   UNL A   1      47.377  34.154  27.106  1.00  0.00     0.049 A 
ATOM     31  C   UNL A   1      51.180  30.019  26.076  1.00  0.00     0.074 A 
ATOM     32  C   UNL A   1      47.863  35.442  27.048  1.00  0.00     0.029 A 
ATOM     33  N   UNL A   1      48.436  33.301  26.809  1.00  0.00    -0.354 N 
ATOM     34  N   UNL A   1      50.403  31.054  26.306  1.00  0.00    -0.248 NA
ATOM     35  C   UNL A   1      52.547  30.371  25.689  1.00  0.00     0.031 C 
ATOM     36  C   UNL A   1      49.200  35.371  26.645  1.00  0.00     0.029 A 
ATOM     37  C   UNL A   1      49.572  34.038  26.542  1.00  0.00     0.049 A 
ATOM     38  H   UNL A   1      48.382  32.317  26.792  1.00  0.00     0.167 HD
ATOM     39  C   UNL A   1      51.195  32.178  26.129  1.00  0.00     0.074 A 
ATOM     40  C   UNL A   1      52.520  31.691  25.794  1.00  0.00     0.031 C 
ATOM     41  C   UNL A   1      50.870  33.492  26.229  1.00  0.00     0.037 A 
BRANCH  28  42
ATOM     42  C   UNL A   1      44.969  34.684  27.732  1.00  0.00     0.064 A 
ATOM     43  C   UNL A   1      44.689  35.075  29.051  1.00  0.00     0.173 A 
ATOM     44  C   UNL A   1      44.159  35.194  26.708  1.00  0.00     0.173 A 
ATOM     45  F   UNL A   1      45.401  34.573  30.071  1.00  0.00    -0.203 F 
ATOM     46  C   UNL A   1      43.622  35.924  29.332  1.00  0.00     0.198 A 
ATOM     47  C   UNL A   1      43.120  36.074  26.989  1.00  0.00     0.198 A 
ATOM     48  F   UNL A   1      44.364  34.825  25.436  1.00  0.00    -0.203 F 
ATOM     49  F   UNL A   1      43.327  36.225  30.604  1.00  0.00    -0.200 F 
ATOM     50  C   UNL A   1      42.847  36.432  28.301  1.00  0.00     0.200 A 
ATOM     51  F   UNL A   1      42.372  36.563  25.992  1.00  0.00    -0.200 F 
ATOM     52  F   UNL A   1      41.824  37.253  28.573  1.00  0.00    -0.200 F 
ENDBRANCH  28  42
BRANCH  29  53
ATOM     53  C   UNL A   1      51.868  27.501  25.860  1.00  0.00     0.064 A 
ATOM     54  C   UNL A   1      52.069  27.037  24.554  1.00  0.00     0.173 A 
ATOM     55  C   UNL A   1      52.606  26.885  26.886  1.00  0.00     0.173 A 
ATOM     56  F   UNL A   1      51.383  27.580  23.538  1.00  0.00    -0.203 F 
ATOM     57  C   UNL A   1      52.922  25.966  24.291  1.00  0.00     0.198 A 
ATOM     58  C   UNL A   1      53.492  25.845  26.617  1.00  0.00     0.198 A 
ATOM     59  F   UNL A   1      52.461  27.287  28.158  1.00  0.00    -0.203 F 
ATOM     60  F   UNL A   1      53.025  25.487  23.044  1.00  0.00    -0.200 F 
ATOM     61  C   UNL A   1      53.633  25.371  25.322  1.00  0.00     0.200 A 
ATOM     62  F   UNL A   1      54.188  25.285  27.616  1.00  0.00    -0.200 F 
ATOM     63  F   UNL A   1      54.439  24.331  25.072  1.00  0.00    -0.200 F 
ENDBRANCH  29  53
BRANCH  41  64
ATOM     64  C   UNL A   1      51.984  34.477  26.041  1.00  0.00     0.064 A 
ATOM     65  C   UNL A   1      52.745  34.954  27.117  1.00  0.00     0.173 A 
ATOM     66  C   UNL A   1      52.320  34.912  24.749  1.00  0.00     0.173 A 
ATOM     67  F   UNL A   1      52.456  34.573  28.371  1.00  0.00    -0.203 F 
ATOM     68  C   UNL A   1      53.772  35.869  26.911  1.00  0.00     0.198 A 
ATOM     69  C   UNL A   1      53.382  35.783  24.543  1.00  0.00     0.198 A 
ATOM     70  F   UNL A   1      51.634  34.469  23.684  1.00  0.00    -0.203 F 
ATOM     71  F   UNL A   1      54.435  36.371  27.961  1.00  0.00    -0.200 F 
ATOM     72  C   UNL A   1      54.096  36.273  25.625  1.00  0.00     0.200 A 
ATOM     73  F   UNL A   1      53.713  36.148  23.297  1.00  0.00    -0.200 F 
ATOM     74  F   UNL A   1      55.094  37.144  25.428  1.00  0.00    -0.200 F 
ENDBRANCH  41  64
ENDBRANCH  15  16
ENDBRANCH   8  10
ENDBRANCH   7   8
ENDBRANCH   6   7
ENDBRANCH   5   6
ENDBRANCH   4   5
ENDBRANCH   3   4
ENDBRANCH   2   3
ENDBRANCH   1   2
BRANCH   1  75
ATOM     75  C   UNL A   1      36.342  30.653  27.770  1.00  0.00     0.188 C 
BRANCH  75  76
ATOM     76  C   UNL A   1      34.924  30.043  27.449  1.00  0.00     0.188 C 
BRANCH  76  77
ATOM     77  O   UNL A   1      33.900  31.023  27.246  1.00  0.00    -0.376 OA
BRANCH  77  78
ATOM     78  C   UNL A   1      32.584  30.562  26.952  1.00  0.00     0.202 C 
BRANCH  78  79
ATOM     79  C   UNL A   1      32.432  29.448  25.904  1.00  0.00     0.261 C 
BRANCH  79  80
ATOM     80  O   UNL A   1      33.019  29.720  24.627  1.00  0.00    -0.459 OA
BRANCH  80  81
ATOM     81  C   UNL A   1      33.461  28.671  23.878  1.00  0.00     0.364 C 
ATOM     82  O   UNL A   1      34.408  28.719  23.107  1.00  0.00    -0.245 OA
BRANCH  81  83
ATOM     83  C   UNL A   1      32.588  27.433  24.212  1.00  0.00     0.295 C 
ATOM     84  C   UNL A   1      31.866  26.848  22.396  1.00  0.00     0.078 C 
ATOM     85  N   UNL A   1      33.345  26.017  25.258  1.00  0.00    -0.318 N 
ATOM     86  C   UNL A   1      31.234  24.793  22.802  1.00  0.00     0.016 C 
ATOM     87  C   UNL A   1      32.386  24.696  25.533  1.00  0.00     0.187 C 
ATOM     88  H   UNL A   1      33.661  26.524  26.085  1.00  0.00     0.349 HD
ATOM     89  C   UNL A   1      31.241  24.194  24.539  1.00  0.00     0.048 C 
ATOM     90  C   UNL A   1      32.089  24.304  27.003  1.00  0.00     0.065 C 
ATOM     91  C   UNL A   1      30.927  22.698  24.664  1.00  0.00     0.010 C 
ATOM     92  C   UNL A   1      31.684  22.798  27.094  1.00  0.00     0.006 C 
ATOM     93  C   UNL A   1      30.568  22.391  26.129  1.00  0.00     0.001 C 
BRANCH  85  94
ATOM     94  C   UNL A   1      34.413  25.065  24.209  1.00  0.00     0.295 C 
BRANCH  94  95
ATOM     95  C   UNL A   1      35.761  24.336  25.227  1.00  0.00     0.173 C 
ATOM     96  C   UNL A   1      35.160  23.335  24.289  1.00  0.00     0.038 C 
ATOM     97  O   UNL A   1      37.337  23.466  24.983  1.00  0.00    -0.372 OA
ATOM     98  C   UNL A   1      34.544  21.276  24.540  1.00  0.00     0.005 C 
ATOM     99  C   UNL A   1      37.613  21.716  25.164  1.00  0.00     0.161 C 
ATOM    100  C   UNL A   1      36.244  20.358  24.998  1.00  0.00     0.029 C 
ENDBRANCH  94  95
ENDBRANCH  85  94
ENDBRANCH  81  83
ENDBRANCH  80  81
ENDBRANCH  79  80
ENDBRANCH  78  79
ENDBRANCH  77  78
ENDBRANCH  76  77
ENDBRANCH  75  76
ENDBRANCH   1  75
TORSDOF 22
ENDMDL
