MODEL 1
REMARK VINA RESULT:     -11.4      0.000      0.000
REMARK SMILES CC1=Nc2c(c(C)nn2-c2ccc(F)cc2)[C@H](c2ccc(C(=O)OCCOCCOCCOCCOC(=O)c3ccc(-c4c5nc(c(-c6c(F)c(F)c(F)c(F)c6F)c6ccc([nH]6)c(-c6c(F)c(F)c(F)c(F)c6F)c6nc(c(-c7c(F)c(F)c(F)c(F)c7F)c7ccc4[nH]7)C=C6)C=C5)cc3)cc2)S1
REMARK SMILES IDX 30 1 29 2 28 3 27 4 26 5 25 6 24 7 22 8 23 9 21 10 18 11
REMARK SMILES IDX 19 12 103 13 20 14 102 15 17 16 1 17 2 18 3 19 104 20 4 21
REMARK SMILES IDX 5 22 9 23 6 24 8 25 7 26 10 27 11 28 16 29 12 30 15 31 13 32
REMARK SMILES IDX 14 33 31 34 32 35 33 36 34 37 35 38 36 39 37 40 38 41 39 42
REMARK SMILES IDX 40 43 101 44 41 45 100 46 42 47 43 48 44 49 94 50 45 51
REMARK SMILES IDX 99 52 93 53 95 54 46 55 98 56 92 57 91 58 47 60 79 61 59 62
REMARK SMILES IDX 78 63 60 64 63 65 77 66 96 67 61 68 62 69 76 71 97 72 64 73
REMARK SMILES IDX 48 74 49 75 57 76 50 77 51 78 55 79 58 80 52 81 53 82 56 83
REMARK SMILES IDX 54 84 80 85 81 86 89 87 82 88 83 89 87 90 90 91 84 92 85 93
REMARK SMILES IDX 88 94 86 95 65 96 66 97 74 98 67 99 68 100 72 101 75 102
REMARK SMILES IDX 69 103 70 104 73 105 71 106
REMARK H PARENT 95 59 63 70
REMARK Flexibility Score: inf
ROOT
ATOM      1  O   UNL A   1      43.808  19.611  24.650  1.00  0.00    -0.377 OA
ENDROOT
BRANCH   1   2
ATOM      2  C   UNL A   1      43.323  18.726  25.654  1.00  0.00     0.188 C 
BRANCH   2   3
ATOM      3  C   UNL A   1      42.330  19.201  26.742  1.00  0.00     0.188 C 
BRANCH   3   4
ATOM      4  O   UNL A   1      41.378  20.143  26.286  1.00  0.00    -0.376 OA
BRANCH   4   5
ATOM      5  C   UNL A   1      40.177  19.690  25.704  1.00  0.00     0.202 C 
BRANCH   5   6
ATOM      6  C   UNL A   1      38.890  20.452  26.052  1.00  0.00     0.261 C 
BRANCH   6   7
ATOM      7  O   UNL A   1      38.574  21.558  25.193  1.00  0.00    -0.460 OA
BRANCH   7   8
ATOM      8  C   UNL A   1      38.134  22.676  25.812  1.00  0.00     0.338 C 
ATOM      9  O   UNL A   1      38.783  23.386  26.561  1.00  0.00    -0.246 OA
BRANCH   8  10
ATOM     10  C   UNL A   1      36.793  23.043  25.286  1.00  0.00     0.060 A 
ATOM     11  C   UNL A   1      34.172  23.537  24.326  1.00  0.00    -0.030 A 
ATOM     12  C   UNL A   1      34.393  22.919  25.572  1.00  0.00     0.006 A 
ATOM     13  C   UNL A   1      35.303  23.996  23.622  1.00  0.00     0.006 A 
ATOM     14  C   UNL A   1      35.683  22.676  26.048  1.00  0.00     0.016 A 
ATOM     15  C   UNL A   1      36.604  23.740  24.090  1.00  0.00     0.016 A 
BRANCH  11  16
ATOM     16  C   UNL A   1      32.751  23.544  23.766  1.00  0.00     0.119 C 
ATOM     17  C   UNL A   1      32.739  25.400  20.051  1.00  0.00     0.075 C 
ATOM     18  C   UNL A   1      32.384  25.078  21.479  1.00  0.00     0.074 C 
ATOM     19  N   UNL A   1      31.858  26.016  22.199  1.00  0.00    -0.227 NA
ATOM     20  S   UNL A   1      32.660  23.408  21.949  1.00  0.00    -0.098 SA
ATOM     21  C   UNL A   1      31.570  25.745  23.493  1.00  0.00     0.161 A 
ATOM     22  C   UNL A   1      31.998  24.707  24.291  1.00  0.00     0.038 A 
ATOM     23  N   UNL A   1      30.757  26.545  24.284  1.00  0.00    -0.215 N 
ATOM     24  C   UNL A   1      31.433  24.982  25.565  1.00  0.00     0.067 A 
ATOM     25  N   UNL A   1      30.804  26.165  25.587  1.00  0.00    -0.171 NA
ATOM     26  C   UNL A   1      31.441  24.148  26.794  1.00  0.00     0.069 C 
BRANCH  23  27
ATOM     27  C   UNL A   1      29.892  27.586  23.863  1.00  0.00     0.067 A 
ATOM     28  C   UNL A   1      28.536  27.315  23.612  1.00  0.00     0.031 A 
ATOM     29  C   UNL A   1      30.390  28.886  23.716  1.00  0.00     0.031 A 
ATOM     30  C   UNL A   1      27.688  28.341  23.195  1.00  0.00     0.041 A 
ATOM     31  C   UNL A   1      29.545  29.896  23.248  1.00  0.00     0.041 A 
ATOM     32  C   UNL A   1      28.204  29.615  22.996  1.00  0.00     0.123 A 
ATOM     33  F   UNL A   1      27.397  30.589  22.555  1.00  0.00    -0.207 F 
ENDBRANCH  23  27
ENDBRANCH  11  16
ENDBRANCH   8  10
ENDBRANCH   7   8
ENDBRANCH   6   7
ENDBRANCH   5   6
ENDBRANCH   4   5
ENDBRANCH   3   4
ENDBRANCH   2   3
ENDBRANCH   1   2
BRANCH   1  34
ATOM     34  C   UNL A   1      45.161  20.054  24.671  1.00  0.00     0.188 C 
BRANCH  34  35
ATOM     35  C   UNL A   1      45.528  21.546  24.894  1.00  0.00     0.188 C 
BRANCH  35  36
ATOM     36  O   UNL A   1      44.762  22.225  25.873  1.00  0.00    -0.376 OA
BRANCH  36  37
ATOM     37  C   UNL A   1      43.613  22.993  25.586  1.00  0.00     0.202 C 
BRANCH  37  38
ATOM     38  C   UNL A   1      43.529  24.454  26.012  1.00  0.00     0.261 C 
BRANCH  38  39
ATOM     39  O   UNL A   1      42.255  25.027  25.838  1.00  0.00    -0.460 OA
BRANCH  39  40
ATOM     40  C   UNL A   1      42.278  26.289  25.374  1.00  0.00     0.338 C 
ATOM     41  O   UNL A   1      43.083  26.785  24.610  1.00  0.00    -0.246 OA
BRANCH  40  42
ATOM     42  C   UNL A   1      41.183  27.013  26.023  1.00  0.00     0.060 A 
ATOM     43  C   UNL A   1      41.195  28.394  25.848  1.00  0.00     0.016 A 
ATOM     44  C   UNL A   1      40.522  26.379  27.086  1.00  0.00     0.016 A 
ATOM     45  C   UNL A   1      40.859  29.158  26.933  1.00  0.00     0.010 A 
ATOM     46  C   UNL A   1      40.213  27.137  28.177  1.00  0.00     0.010 A 
ATOM     47  C   UNL A   1      40.512  28.494  28.115  1.00  0.00    -0.014 A 
BRANCH  47  48
ATOM     48  C   UNL A   1      40.492  29.269  29.326  1.00  0.00     0.031 A 
ATOM     49  C   UNL A   1      39.351  30.196  29.378  1.00  0.00     0.074 A 
ATOM     50  C   UNL A   1      41.402  29.067  30.295  1.00  0.00     0.049 A 
ATOM     51  N   UNL A   1      39.372  31.486  29.337  1.00  0.00    -0.248 NA
ATOM     52  C   UNL A   1      38.008  29.602  29.268  1.00  0.00     0.031 C 
ATOM     53  C   UNL A   1      42.377  27.979  30.431  1.00  0.00     0.029 A 
ATOM     54  N   UNL A   1      41.579  29.776  31.437  1.00  0.00    -0.354 N 
ATOM     55  C   UNL A   1      38.040  31.868  29.394  1.00  0.00     0.074 A 
ATOM     56  C   UNL A   1      37.253  30.690  29.144  1.00  0.00     0.031 C 
ATOM     57  C   UNL A   1      42.871  27.979  31.691  1.00  0.00     0.029 A 
ATOM     58  C   UNL A   1      42.355  29.140  32.393  1.00  0.00     0.049 A 
ATOM     59  H   UNL A   1      41.187  30.669  31.575  1.00  0.00     0.167 HD
ATOM     60  C   UNL A   1      37.678  33.063  29.924  1.00  0.00     0.037 A 
ATOM     61  C   UNL A   1      42.440  29.518  33.693  1.00  0.00     0.037 A 
ATOM     62  C   UNL A   1      38.775  33.992  29.935  1.00  0.00     0.049 A 
ATOM     63  C   UNL A   1      41.980  30.934  33.761  1.00  0.00     0.074 A 
ATOM     64  C   UNL A   1      39.546  34.583  28.954  1.00  0.00     0.029 A 
ATOM     65  N   UNL A   1      39.478  34.143  31.105  1.00  0.00    -0.354 N 
ATOM     66  N   UNL A   1      42.612  31.935  33.212  1.00  0.00    -0.248 NA
ATOM     67  C   UNL A   1      40.570  31.168  34.046  1.00  0.00     0.031 C 
ATOM     68  C   UNL A   1      40.862  34.645  29.498  1.00  0.00     0.029 A 
ATOM     69  C   UNL A   1      40.814  34.133  30.796  1.00  0.00     0.049 A 
ATOM     70  H   UNL A   1      39.092  34.241  32.006  1.00  0.00     0.167 HD
ATOM     71  C   UNL A   1      41.613  32.768  32.723  1.00  0.00     0.074 A 
ATOM     72  C   UNL A   1      40.379  32.278  33.329  1.00  0.00     0.031 C 
ATOM     73  C   UNL A   1      41.839  33.589  31.657  1.00  0.00     0.037 A 
BRANCH  60  74
ATOM     74  C   UNL A   1      36.442  33.233  30.761  1.00  0.00     0.064 A 
ATOM     75  C   UNL A   1      36.377  32.911  32.138  1.00  0.00     0.173 A 
ATOM     76  C   UNL A   1      35.368  33.986  30.260  1.00  0.00     0.173 A 
ATOM     77  F   UNL A   1      37.392  32.327  32.786  1.00  0.00    -0.203 F 
ATOM     78  C   UNL A   1      35.305  33.286  32.941  1.00  0.00     0.198 A 
ATOM     79  C   UNL A   1      34.326  34.416  31.086  1.00  0.00     0.198 A 
ATOM     80  F   UNL A   1      35.355  34.385  28.980  1.00  0.00    -0.203 F 
ATOM     81  F   UNL A   1      35.309  32.952  34.241  1.00  0.00    -0.200 F 
ATOM     82  C   UNL A   1      34.292  34.061  32.424  1.00  0.00     0.200 A 
ATOM     83  F   UNL A   1      33.381  35.227  30.593  1.00  0.00    -0.200 F 
ATOM     84  F   UNL A   1      33.318  34.510  33.225  1.00  0.00    -0.200 F 
ENDBRANCH  60  74
BRANCH  61  85
ATOM     85  C   UNL A   1      42.433  28.631  34.884  1.00  0.00     0.064 A 
ATOM     86  C   UNL A   1      43.447  28.695  35.861  1.00  0.00     0.173 A 
ATOM     87  C   UNL A   1      41.598  27.502  34.928  1.00  0.00     0.173 A 
ATOM     88  F   UNL A   1      44.346  29.690  35.860  1.00  0.00    -0.203 F 
ATOM     89  C   UNL A   1      43.631  27.682  36.803  1.00  0.00     0.198 A 
ATOM     90  C   UNL A   1      41.788  26.483  35.868  1.00  0.00     0.198 A 
ATOM     91  F   UNL A   1      40.637  27.341  34.005  1.00  0.00    -0.203 F 
ATOM     92  F   UNL A   1      44.650  27.759  37.672  1.00  0.00    -0.200 F 
ATOM     93  C   UNL A   1      42.813  26.569  36.796  1.00  0.00     0.200 A 
ATOM     94  F   UNL A   1      41.016  25.388  35.833  1.00  0.00    -0.200 F 
ATOM     95  F   UNL A   1      43.038  25.563  37.652  1.00  0.00    -0.200 F 
ENDBRANCH  61  85
BRANCH  73  96
ATOM     96  C   UNL A   1      43.258  33.754  31.185  1.00  0.00     0.064 A 
ATOM     97  C   UNL A   1      43.983  34.862  31.642  1.00  0.00     0.173 A 
ATOM     98  C   UNL A   1      43.838  32.976  30.167  1.00  0.00     0.173 A 
ATOM     99  F   UNL A   1      43.457  35.668  32.576  1.00  0.00    -0.203 F 
ATOM    100  C   UNL A   1      45.220  35.191  31.094  1.00  0.00     0.198 A 
ATOM    101  C   UNL A   1      45.092  33.287  29.644  1.00  0.00     0.198 A 
ATOM    102  F   UNL A   1      43.169  31.954  29.619  1.00  0.00    -0.203 F 
ATOM    103  F   UNL A   1      45.854  36.298  31.503  1.00  0.00    -0.200 F 
ATOM    104  C   UNL A   1      45.776  34.403  30.099  1.00  0.00     0.200 A 
ATOM    105  F   UNL A   1      45.621  32.536  28.666  1.00  0.00    -0.200 F 
ATOM    106  F   UNL A   1      46.955  34.740  29.555  1.00  0.00    -0.200 F 
ENDBRANCH  73  96
ENDBRANCH  47  48
ENDBRANCH  40  42
ENDBRANCH  39  40
ENDBRANCH  38  39
ENDBRANCH  37  38
ENDBRANCH  36  37
ENDBRANCH  35  36
ENDBRANCH  34  35
ENDBRANCH   1  34
TORSDOF 22
ENDMDL
MODEL 2
REMARK VINA RESULT:     -11.2      4.840     10.231
REMARK SMILES CC1=Nc2c(c(C)nn2-c2ccc(F)cc2)[C@H](c2ccc(C(=O)OCCOCCOCCOCCOC(=O)c3ccc(-c4c5nc(c(-c6c(F)c(F)c(F)c(F)c6F)c6ccc([nH]6)c(-c6c(F)c(F)c(F)c(F)c6F)c6nc(c(-c7c(F)c(F)c(F)c(F)c7F)c7ccc4[nH]7)C=C6)C=C5)cc3)cc2)S1
REMARK SMILES IDX 30 1 29 2 28 3 27 4 26 5 25 6 24 7 22 8 23 9 21 10 18 11
REMARK SMILES IDX 19 12 103 13 20 14 102 15 17 16 1 17 2 18 3 19 104 20 4 21
REMARK SMILES IDX 5 22 9 23 6 24 8 25 7 26 10 27 11 28 16 29 12 30 15 31 13 32
REMARK SMILES IDX 14 33 31 34 32 35 33 36 34 37 35 38 36 39 37 40 38 41 39 42
REMARK SMILES IDX 40 43 101 44 41 45 100 46 42 47 43 48 44 49 94 50 45 51
REMARK SMILES IDX 99 52 93 53 95 54 46 55 98 56 92 57 91 58 47 60 79 61 59 62
REMARK SMILES IDX 78 63 60 64 63 65 77 66 96 67 61 68 62 69 76 71 97 72 64 73
REMARK SMILES IDX 48 74 49 75 57 76 50 77 51 78 55 79 58 80 52 81 53 82 56 83
REMARK SMILES IDX 54 84 80 85 81 86 89 87 82 88 83 89 87 90 90 91 84 92 85 93
REMARK SMILES IDX 88 94 86 95 65 96 66 97 74 98 67 99 68 100 72 101 75 102
REMARK SMILES IDX 69 103 70 104 73 105 71 106
REMARK H PARENT 95 59 63 70
REMARK Flexibility Score: inf
ROOT
ATOM      1  O   UNL A   1      35.246  31.546  28.321  1.00  0.00    -0.377 OA
ENDROOT
BRANCH   1   2
ATOM      2  C   UNL A   1      34.969  30.616  27.279  1.00  0.00     0.188 C 
BRANCH   2   3
ATOM      3  C   UNL A   1      34.265  29.268  27.563  1.00  0.00     0.188 C 
BRANCH   3   4
ATOM      4  O   UNL A   1      32.927  29.206  27.109  1.00  0.00    -0.376 OA
BRANCH   4   5
ATOM      5  C   UNL A   1      32.363  30.321  26.458  1.00  0.00     0.202 C 
BRANCH   5   6
ATOM      6  C   UNL A   1      31.791  30.105  25.049  1.00  0.00     0.261 C 
BRANCH   6   7
ATOM      7  O   UNL A   1      30.618  29.280  24.977  1.00  0.00    -0.460 OA
BRANCH   7   8
ATOM      8  C   UNL A   1      30.355  28.738  23.766  1.00  0.00     0.338 C 
ATOM      9  O   UNL A   1      30.138  29.351  22.735  1.00  0.00    -0.246 OA
BRANCH   8  10
ATOM     10  C   UNL A   1      30.573  27.268  23.820  1.00  0.00     0.060 A 
ATOM     11  C   UNL A   1      31.166  24.506  24.045  1.00  0.00    -0.030 A 
ATOM     12  C   UNL A   1      31.148  25.347  25.174  1.00  0.00     0.006 A 
ATOM     13  C   UNL A   1      30.774  25.067  22.813  1.00  0.00     0.006 A 
ATOM     14  C   UNL A   1      30.855  26.707  25.067  1.00  0.00     0.016 A 
ATOM     15  C   UNL A   1      30.492  26.440  22.697  1.00  0.00     0.016 A 
BRANCH  11  16
ATOM     16  C   UNL A   1      31.733  23.096  24.203  1.00  0.00     0.119 C 
ATOM     17  C   UNL A   1      32.613  22.399  28.201  1.00  0.00     0.075 C 
ATOM     18  C   UNL A   1      32.780  22.510  26.708  1.00  0.00     0.074 C 
ATOM     19  N   UNL A   1      33.975  22.690  26.244  1.00  0.00    -0.227 NA
ATOM     20  S   UNL A   1      31.304  22.288  25.782  1.00  0.00    -0.098 SA
ATOM     21  C   UNL A   1      34.130  22.827  24.908  1.00  0.00     0.161 A 
ATOM     22  C   UNL A   1      33.190  23.095  23.936  1.00  0.00     0.038 A 
ATOM     23  N   UNL A   1      35.354  22.738  24.261  1.00  0.00    -0.215 N 
ATOM     24  C   UNL A   1      33.941  23.197  22.734  1.00  0.00     0.067 A 
ATOM     25  N   UNL A   1      35.259  23.121  22.962  1.00  0.00    -0.171 NA
ATOM     26  C   UNL A   1      33.458  23.348  21.338  1.00  0.00     0.069 C 
BRANCH  23  27
ATOM     27  C   UNL A   1      36.576  22.242  24.782  1.00  0.00     0.067 A 
ATOM     28  C   UNL A   1      37.446  23.102  25.473  1.00  0.00     0.031 A 
ATOM     29  C   UNL A   1      36.902  20.889  24.621  1.00  0.00     0.031 A 
ATOM     30  C   UNL A   1      38.649  22.611  25.982  1.00  0.00     0.041 A 
ATOM     31  C   UNL A   1      38.131  20.419  25.088  1.00  0.00     0.041 A 
ATOM     32  C   UNL A   1      38.989  21.282  25.766  1.00  0.00     0.123 A 
ATOM     33  F   UNL A   1      40.164  20.823  26.219  1.00  0.00    -0.207 F 
ENDBRANCH  23  27
ENDBRANCH  11  16
ENDBRANCH   8  10
ENDBRANCH   7   8
ENDBRANCH   6   7
ENDBRANCH   5   6
ENDBRANCH   4   5
ENDBRANCH   3   4
ENDBRANCH   2   3
ENDBRANCH   1   2
BRANCH   1  34
ATOM     34  C   UNL A   1      35.452  32.923  28.024  1.00  0.00     0.188 C 
BRANCH  34  35
ATOM     35  C   UNL A   1      36.012  33.913  29.081  1.00  0.00     0.188 C 
BRANCH  35  36
ATOM     36  O   UNL A   1      35.315  33.949  30.313  1.00  0.00    -0.376 OA
BRANCH  36  37
ATOM     37  C   UNL A   1      35.808  33.406  31.519  1.00  0.00     0.202 C 
BRANCH  37  38
ATOM     38  C   UNL A   1      37.034  32.500  31.519  1.00  0.00     0.261 C 
BRANCH  38  39
ATOM     39  O   UNL A   1      36.863  31.310  30.786  1.00  0.00    -0.460 OA
BRANCH  39  40
ATOM     40  C   UNL A   1      36.782  30.203  31.546  1.00  0.00     0.338 C 
ATOM     41  O   UNL A   1      36.322  30.102  32.666  1.00  0.00    -0.246 OA
BRANCH  40  42
ATOM     42  C   UNL A   1      37.434  29.119  30.808  1.00  0.00     0.060 A 
ATOM     43  C   UNL A   1      38.169  28.227  31.584  1.00  0.00     0.016 A 
ATOM     44  C   UNL A   1      37.656  29.305  29.435  1.00  0.00     0.016 A 
ATOM     45  C   UNL A   1      39.362  27.796  31.069  1.00  0.00     0.010 A 
ATOM     46  C   UNL A   1      38.856  28.899  28.930  1.00  0.00     0.010 A 
ATOM     47  C   UNL A   1      39.733  28.265  29.804  1.00  0.00    -0.014 A 
BRANCH  47  48
ATOM     48  C   UNL A   1      41.106  28.093  29.413  1.00  0.00     0.031 A 
ATOM     49  C   UNL A   1      41.363  26.762  28.842  1.00  0.00     0.074 A 
ATOM     50  C   UNL A   1      41.988  29.103  29.516  1.00  0.00     0.049 A 
ATOM     51  N   UNL A   1      42.077  25.809  29.339  1.00  0.00    -0.248 NA
ATOM     52  C   UNL A   1      40.567  26.381  27.664  1.00  0.00     0.031 C 
ATOM     53  C   UNL A   1      41.737  30.520  29.801  1.00  0.00     0.029 A 
ATOM     54  N   UNL A   1      43.324  29.072  29.288  1.00  0.00    -0.354 N 
ATOM     55  C   UNL A   1      41.973  24.770  28.425  1.00  0.00     0.074 A 
ATOM     56  C   UNL A   1      40.888  25.095  27.540  1.00  0.00     0.031 C 
ATOM     57  C   UNL A   1      42.845  31.237  29.501  1.00  0.00     0.029 A 
ATOM     58  C   UNL A   1      43.911  30.319  29.142  1.00  0.00     0.049 A 
ATOM     59  H   UNL A   1      43.835  28.232  29.232  1.00  0.00     0.167 HD
ATOM     60  C   UNL A   1      42.968  23.858  28.288  1.00  0.00     0.037 A 
ATOM     61  C   UNL A   1      45.154  30.532  28.642  1.00  0.00     0.037 A 
ATOM     62  C   UNL A   1      43.812  23.816  29.452  1.00  0.00     0.049 A 
ATOM     63  C   UNL A   1      45.891  29.242  28.757  1.00  0.00     0.074 A 
ATOM     64  C   UNL A   1      43.607  23.494  30.779  1.00  0.00     0.029 A 
ATOM     65  N   UNL A   1      44.994  24.512  29.414  1.00  0.00    -0.354 N 
ATOM     66  N   UNL A   1      46.217  28.685  29.892  1.00  0.00    -0.248 NA
ATOM     67  C   UNL A   1      45.857  28.345  27.609  1.00  0.00     0.031 C 
ATOM     68  C   UNL A   1      44.424  24.401  31.514  1.00  0.00     0.029 A 
ATOM     69  C   UNL A   1      45.119  25.193  30.598  1.00  0.00     0.049 A 
ATOM     70  H   UNL A   1      45.639  24.522  28.669  1.00  0.00     0.167 HD
ATOM     71  C   UNL A   1      46.042  27.322  29.687  1.00  0.00     0.074 A 
ATOM     72  C   UNL A   1      45.888  27.171  28.244  1.00  0.00     0.031 C 
ATOM     73  C   UNL A   1      45.754  26.485  30.725  1.00  0.00     0.037 A 
BRANCH  60  74
ATOM     74  C   UNL A   1      43.370  23.297  26.954  1.00  0.00     0.064 A 
ATOM     75  C   UNL A   1      44.152  24.004  26.010  1.00  0.00     0.173 A 
ATOM     76  C   UNL A   1      43.210  21.925  26.706  1.00  0.00     0.173 A 
ATOM     77  F   UNL A   1      44.513  25.281  26.190  1.00  0.00    -0.203 F 
ATOM     78  C   UNL A   1      44.702  23.393  24.889  1.00  0.00     0.198 A 
ATOM     79  C   UNL A   1      43.818  21.301  25.613  1.00  0.00     0.198 A 
ATOM     80  F   UNL A   1      42.527  21.153  27.564  1.00  0.00    -0.203 F 
ATOM     81  F   UNL A   1      45.438  24.121  24.036  1.00  0.00    -0.200 F 
ATOM     82  C   UNL A   1      44.559  22.036  24.703  1.00  0.00     0.200 A 
ATOM     83  F   UNL A   1      43.733  19.972  25.477  1.00  0.00    -0.200 F 
ATOM     84  F   UNL A   1      45.179  21.432  23.682  1.00  0.00    -0.200 F 
ENDBRANCH  60  74
BRANCH  61  85
ATOM     85  C   UNL A   1      45.562  31.589  27.681  1.00  0.00     0.064 A 
ATOM     86  C   UNL A   1      46.531  32.556  28.012  1.00  0.00     0.173 A 
ATOM     87  C   UNL A   1      44.789  31.848  26.537  1.00  0.00     0.173 A 
ATOM     88  F   UNL A   1      47.267  32.444  29.127  1.00  0.00    -0.203 F 
ATOM     89  C   UNL A   1      46.699  33.721  27.262  1.00  0.00     0.198 A 
ATOM     90  C   UNL A   1      44.953  33.020  25.790  1.00  0.00     0.198 A 
ATOM     91  F   UNL A   1      43.813  31.000  26.178  1.00  0.00    -0.203 F 
ATOM     92  F   UNL A   1      47.591  34.642  27.654  1.00  0.00    -0.200 F 
ATOM     93  C   UNL A   1      45.899  33.961  26.161  1.00  0.00     0.200 A 
ATOM     94  F   UNL A   1      44.149  33.265  24.746  1.00  0.00    -0.200 F 
ATOM     95  F   UNL A   1      46.009  35.114  25.488  1.00  0.00    -0.200 F 
ENDBRANCH  61  85
BRANCH  73  96
ATOM     96  C   UNL A   1      45.875  27.029  32.122  1.00  0.00     0.064 A 
ATOM     97  C   UNL A   1      44.765  27.674  32.681  1.00  0.00     0.173 A 
ATOM     98  C   UNL A   1      47.088  27.100  32.829  1.00  0.00     0.173 A 
ATOM     99  F   UNL A   1      43.594  27.681  32.025  1.00  0.00    -0.203 F 
ATOM    100  C   UNL A   1      44.864  28.377  33.878  1.00  0.00     0.198 A 
ATOM    101  C   UNL A   1      47.178  27.775  34.046  1.00  0.00     0.198 A 
ATOM    102  F   UNL A   1      48.213  26.583  32.318  1.00  0.00    -0.203 F 
ATOM    103  F   UNL A   1      43.801  29.044  34.348  1.00  0.00    -0.200 F 
ATOM    104  C   UNL A   1      46.068  28.425  34.563  1.00  0.00     0.200 A 
ATOM    105  F   UNL A   1      48.349  27.838  34.698  1.00  0.00    -0.200 F 
ATOM    106  F   UNL A   1      46.166  29.125  35.702  1.00  0.00    -0.200 F 
ENDBRANCH  73  96
ENDBRANCH  47  48
ENDBRANCH  40  42
ENDBRANCH  39  40
ENDBRANCH  38  39
ENDBRANCH  37  38
ENDBRANCH  36  37
ENDBRANCH  35  36
ENDBRANCH  34  35
ENDBRANCH   1  34
TORSDOF 22
ENDMDL
MODEL 3
REMARK VINA RESULT:     -10.8      6.364     12.688
REMARK SMILES CC1=Nc2c(c(C)nn2-c2ccc(F)cc2)[C@H](c2ccc(C(=O)OCCOCCOCCOCCOC(=O)c3ccc(-c4c5nc(c(-c6c(F)c(F)c(F)c(F)c6F)c6ccc([nH]6)c(-c6c(F)c(F)c(F)c(F)c6F)c6nc(c(-c7c(F)c(F)c(F)c(F)c7F)c7ccc4[nH]7)C=C6)C=C5)cc3)cc2)S1
REMARK SMILES IDX 30 1 29 2 28 3 27 4 26 5 25 6 24 7 22 8 23 9 21 10 18 11
REMARK SMILES IDX 19 12 103 13 20 14 102 15 17 16 1 17 2 18 3 19 104 20 4 21
REMARK SMILES IDX 5 22 9 23 6 24 8 25 7 26 10 27 11 28 16 29 12 30 15 31 13 32
REMARK SMILES IDX 14 33 31 34 32 35 33 36 34 37 35 38 36 39 37 40 38 41 39 42
REMARK SMILES IDX 40 43 101 44 41 45 100 46 42 47 43 48 44 49 94 50 45 51
REMARK SMILES IDX 99 52 93 53 95 54 46 55 98 56 92 57 91 58 47 60 79 61 59 62
REMARK SMILES IDX 78 63 60 64 63 65 77 66 96 67 61 68 62 69 76 71 97 72 64 73
REMARK SMILES IDX 48 74 49 75 57 76 50 77 51 78 55 79 58 80 52 81 53 82 56 83
REMARK SMILES IDX 54 84 80 85 81 86 89 87 82 88 83 89 87 90 90 91 84 92 85 93
REMARK SMILES IDX 88 94 86 95 65 96 66 97 74 98 67 99 68 100 72 101 75 102
REMARK SMILES IDX 69 103 70 104 73 105 71 106
REMARK H PARENT 95 59 63 70
REMARK Flexibility Score: inf
ROOT
ATOM      1  O   UNL A   1      34.696  35.620  32.235  1.00  0.00    -0.377 OA
ENDROOT
BRANCH   1   2
ATOM      2  C   UNL A   1      35.564  34.549  32.589  1.00  0.00     0.188 C 
BRANCH   2   3
ATOM      3  C   UNL A   1      35.761  34.119  34.063  1.00  0.00     0.188 C 
BRANCH   3   4
ATOM      4  O   UNL A   1      36.769  34.838  34.746  1.00  0.00    -0.376 OA
BRANCH   4   5
ATOM      5  C   UNL A   1      38.049  34.266  34.897  1.00  0.00     0.202 C 
BRANCH   5   6
ATOM      6  C   UNL A   1      39.070  34.507  33.775  1.00  0.00     0.261 C 
BRANCH   6   7
ATOM      7  O   UNL A   1      40.160  33.575  33.720  1.00  0.00    -0.460 OA
BRANCH   7   8
ATOM      8  C   UNL A   1      40.275  32.873  32.570  1.00  0.00     0.338 C 
ATOM      9  O   UNL A   1      39.513  32.006  32.177  1.00  0.00    -0.246 OA
BRANCH   8  10
ATOM     10  C   UNL A   1      41.361  33.454  31.738  1.00  0.00     0.060 A 
ATOM     11  C   UNL A   1      43.381  34.758  30.236  1.00  0.00    -0.030 A 
ATOM     12  C   UNL A   1      43.241  34.973  31.621  1.00  0.00     0.006 A 
ATOM     13  C   UNL A   1      42.546  33.789  29.644  1.00  0.00     0.006 A 
ATOM     14  C   UNL A   1      42.248  34.331  32.363  1.00  0.00     0.016 A 
ATOM     15  C   UNL A   1      41.535  33.150  30.385  1.00  0.00     0.016 A 
BRANCH  11  16
ATOM     16  C   UNL A   1      44.320  35.673  29.454  1.00  0.00     0.119 C 
ATOM     17  C   UNL A   1      47.039  37.420  32.062  1.00  0.00     0.075 C 
ATOM     18  C   UNL A   1      45.979  37.277  31.002  1.00  0.00     0.074 C 
ATOM     19  N   UNL A   1      45.194  38.284  30.790  1.00  0.00    -0.227 NA
ATOM     20  S   UNL A   1      46.016  35.757  30.122  1.00  0.00    -0.098 SA
ATOM     21  C   UNL A   1      44.215  38.150  29.865  1.00  0.00     0.161 A 
ATOM     22  C   UNL A   1      43.707  37.011  29.281  1.00  0.00     0.038 A 
ATOM     23  N   UNL A   1      43.501  39.218  29.340  1.00  0.00    -0.215 N 
ATOM     24  C   UNL A   1      42.654  37.478  28.448  1.00  0.00     0.067 A 
ATOM     25  N   UNL A   1      42.446  38.793  28.598  1.00  0.00    -0.171 NA
ATOM     26  C   UNL A   1      41.826  36.724  27.473  1.00  0.00     0.069 C 
BRANCH  23  27
ATOM     27  C   UNL A   1      43.807  40.599  29.441  1.00  0.00     0.067 A 
ATOM     28  C   UNL A   1      44.609  41.214  28.464  1.00  0.00     0.031 A 
ATOM     29  C   UNL A   1      43.293  41.349  30.506  1.00  0.00     0.031 A 
ATOM     30  C   UNL A   1      44.911  42.572  28.568  1.00  0.00     0.041 A 
ATOM     31  C   UNL A   1      43.644  42.695  30.630  1.00  0.00     0.041 A 
ATOM     32  C   UNL A   1      44.445  43.293  29.659  1.00  0.00     0.123 A 
ATOM     33  F   UNL A   1      44.771  44.587  29.779  1.00  0.00    -0.207 F 
ENDBRANCH  23  27
ENDBRANCH  11  16
ENDBRANCH   8  10
ENDBRANCH   7   8
ENDBRANCH   6   7
ENDBRANCH   5   6
ENDBRANCH   4   5
ENDBRANCH   3   4
ENDBRANCH   2   3
ENDBRANCH   1   2
BRANCH   1  34
ATOM     34  C   UNL A   1      33.497  35.368  31.511  1.00  0.00     0.188 C 
BRANCH  34  35
ATOM     35  C   UNL A   1      33.257  35.962  30.096  1.00  0.00     0.188 C 
BRANCH  35  36
ATOM     36  O   UNL A   1      33.822  35.232  29.023  1.00  0.00    -0.376 OA
BRANCH  36  37
ATOM     37  C   UNL A   1      33.471  33.903  28.697  1.00  0.00     0.202 C 
BRANCH  37  38
ATOM     38  C   UNL A   1      34.498  32.782  28.792  1.00  0.00     0.261 C 
BRANCH  38  39
ATOM     39  O   UNL A   1      35.325  32.862  29.929  1.00  0.00    -0.460 OA
BRANCH  39  40
ATOM     40  C   UNL A   1      35.772  31.671  30.368  1.00  0.00     0.338 C 
ATOM     41  O   UNL A   1      35.525  31.130  31.427  1.00  0.00    -0.246 OA
BRANCH  40  42
ATOM     42  C   UNL A   1      36.699  31.154  29.359  1.00  0.00     0.060 A 
ATOM     43  C   UNL A   1      36.647  29.779  29.151  1.00  0.00     0.016 A 
ATOM     44  C   UNL A   1      37.818  31.938  29.039  1.00  0.00     0.016 A 
ATOM     45  C   UNL A   1      37.841  29.136  28.966  1.00  0.00     0.010 A 
ATOM     46  C   UNL A   1      39.012  31.296  28.883  1.00  0.00     0.010 A 
ATOM     47  C   UNL A   1      39.007  29.909  28.980  1.00  0.00    -0.014 A 
BRANCH  47  48
ATOM     48  C   UNL A   1      40.258  29.215  29.127  1.00  0.00     0.031 A 
ATOM     49  C   UNL A   1      40.619  29.004  30.538  1.00  0.00     0.074 A 
ATOM     50  C   UNL A   1      40.935  28.770  28.053  1.00  0.00     0.049 A 
ATOM     51  N   UNL A   1      41.595  29.533  31.195  1.00  0.00    -0.248 NA
ATOM     52  C   UNL A   1      39.655  28.259  31.364  1.00  0.00     0.031 C 
ATOM     53  C   UNL A   1      40.497  28.693  26.656  1.00  0.00     0.029 A 
ATOM     54  N   UNL A   1      42.162  28.195  28.018  1.00  0.00    -0.354 N 
ATOM     55  C   UNL A   1      41.476  29.025  32.481  1.00  0.00     0.074 A 
ATOM     56  C   UNL A   1      40.172  28.426  32.579  1.00  0.00     0.031 C 
ATOM     57  C   UNL A   1      41.349  27.900  25.965  1.00  0.00     0.029 A 
ATOM     58  C   UNL A   1      42.454  27.537  26.834  1.00  0.00     0.049 A 
ATOM     59  H   UNL A   1      42.794  28.243  28.772  1.00  0.00     0.167 HD
ATOM     60  C   UNL A   1      42.564  28.883  33.279  1.00  0.00     0.037 A 
ATOM     61  C   UNL A   1      43.483  26.669  26.669  1.00  0.00     0.037 A 
ATOM     62  C   UNL A   1      43.649  29.723  32.850  1.00  0.00     0.049 A 
ATOM     63  C   UNL A   1      44.455  26.939  27.766  1.00  0.00     0.074 A 
ATOM     64  C   UNL A   1      43.824  31.088  32.739  1.00  0.00     0.029 A 
ATOM     65  N   UNL A   1      44.638  29.156  32.086  1.00  0.00    -0.354 N 
ATOM     66  N   UNL A   1      45.135  28.046  27.884  1.00  0.00    -0.248 NA
ATOM     67  C   UNL A   1      44.321  26.156  28.988  1.00  0.00     0.031 C 
ATOM     68  C   UNL A   1      44.606  31.271  31.561  1.00  0.00     0.029 A 
ATOM     69  C   UNL A   1      44.906  30.008  31.046  1.00  0.00     0.049 A 
ATOM     70  H   UNL A   1      45.077  28.290  32.254  1.00  0.00     0.167 HD
ATOM     71  C   UNL A   1      45.176  28.301  29.249  1.00  0.00     0.074 A 
ATOM     72  C   UNL A   1      44.719  27.067  29.880  1.00  0.00     0.031 C 
ATOM     73  C   UNL A   1      45.300  29.573  29.724  1.00  0.00     0.037 A 
BRANCH  60  74
ATOM     74  C   UNL A   1      42.741  27.710  34.201  1.00  0.00     0.064 A 
ATOM     75  C   UNL A   1      42.224  27.663  35.518  1.00  0.00     0.173 A 
ATOM     76  C   UNL A   1      43.200  26.489  33.683  1.00  0.00     0.173 A 
ATOM     77  F   UNL A   1      41.619  28.713  36.088  1.00  0.00    -0.203 F 
ATOM     78  C   UNL A   1      42.199  26.493  36.268  1.00  0.00     0.198 A 
ATOM     79  C   UNL A   1      43.114  25.303  34.417  1.00  0.00     0.198 A 
ATOM     80  F   UNL A   1      43.665  26.414  32.428  1.00  0.00    -0.203 F 
ATOM     81  F   UNL A   1      41.691  26.518  37.510  1.00  0.00    -0.200 F 
ATOM     82  C   UNL A   1      42.619  25.307  35.710  1.00  0.00     0.200 A 
ATOM     83  F   UNL A   1      43.458  24.143  33.844  1.00  0.00    -0.200 F 
ATOM     84  F   UNL A   1      42.494  24.164  36.396  1.00  0.00    -0.200 F 
ENDBRANCH  60  74
BRANCH  61  85
ATOM     85  C   UNL A   1      43.449  25.369  25.949  1.00  0.00     0.064 A 
ATOM     86  C   UNL A   1      42.524  24.361  26.286  1.00  0.00     0.173 A 
ATOM     87  C   UNL A   1      44.520  24.983  25.126  1.00  0.00     0.173 A 
ATOM     88  F   UNL A   1      41.511  24.605  27.128  1.00  0.00    -0.203 F 
ATOM     89  C   UNL A   1      42.675  23.044  25.849  1.00  0.00     0.198 A 
ATOM     90  C   UNL A   1      44.674  23.661  24.694  1.00  0.00     0.198 A 
ATOM     91  F   UNL A   1      45.469  25.871  24.797  1.00  0.00    -0.203 F 
ATOM     92  F   UNL A   1      41.803  22.107  26.248  1.00  0.00    -0.200 F 
ATOM     93  C   UNL A   1      43.758  22.690  25.067  1.00  0.00     0.200 A 
ATOM     94  F   UNL A   1      45.747  23.315  23.969  1.00  0.00    -0.200 F 
ATOM     95  F   UNL A   1      43.943  21.412  24.712  1.00  0.00    -0.200 F 
ENDBRANCH  61  85
BRANCH  73  96
ATOM     96  C   UNL A   1      45.641  30.662  28.743  1.00  0.00     0.064 A 
ATOM     97  C   UNL A   1      46.963  31.122  28.698  1.00  0.00     0.173 A 
ATOM     98  C   UNL A   1      44.681  31.377  28.006  1.00  0.00     0.173 A 
ATOM     99  F   UNL A   1      47.911  30.507  29.421  1.00  0.00    -0.203 F 
ATOM    100  C   UNL A   1      47.309  32.256  27.969  1.00  0.00     0.198 A 
ATOM    101  C   UNL A   1      45.035  32.493  27.249  1.00  0.00     0.198 A 
ATOM    102  F   UNL A   1      43.383  31.051  28.069  1.00  0.00    -0.203 F 
ATOM    103  F   UNL A   1      48.568  32.712  28.006  1.00  0.00    -0.200 F 
ATOM    104  C   UNL A   1      46.347  32.939  27.242  1.00  0.00     0.200 A 
ATOM    105  F   UNL A   1      44.100  33.166  26.561  1.00  0.00    -0.200 F 
ATOM    106  F   UNL A   1      46.678  34.047  26.563  1.00  0.00    -0.200 F 
ENDBRANCH  73  96
ENDBRANCH  47  48
ENDBRANCH  40  42
ENDBRANCH  39  40
ENDBRANCH  38  39
ENDBRANCH  37  38
ENDBRANCH  36  37
ENDBRANCH  35  36
ENDBRANCH  34  35
ENDBRANCH   1  34
TORSDOF 22
ENDMDL
