MODEL 1
REMARK VINA RESULT:     -11.1      0.000      0.000
REMARK SMILES O=C(N[C@@H](Cc1c[nH]c2ccccc12)C(=O)N[C@@H](CO)C(=O)OCCOCCOCCOCCOC(=O)c1ccc(-c2c3nc(c(-c4c(F)c(F)c(F)c(F)c4F)c4ccc([nH]4)c(-c4c(F)c(F)c(F)c(F)c4F)c4nc(c(-c5c(F)c(F)c(F)c(F)c5F)c5ccc2[nH]5)C=C4)C=C3)cc1)c1ccc(F)cc1
REMARK SMILES IDX 28 1 27 2 26 3 25 4 24 5 23 6 21 7 22 8 18 9 17 10 15 11
REMARK SMILES IDX 16 12 4 14 3 15 1 16 2 17 101 19 102 20 107 21 103 22 106 23
REMARK SMILES IDX 104 24 105 25 5 26 6 27 7 28 14 29 8 30 9 31 13 32 10 34
REMARK SMILES IDX 12 35 11 36 19 37 20 38 29 40 30 41 31 42 32 43 33 44 34 45
REMARK SMILES IDX 35 46 36 47 37 48 38 49 39 50 100 51 40 52 99 53 41 54 42 55
REMARK SMILES IDX 43 56 93 57 44 58 98 59 92 60 94 61 45 62 97 63 91 64 90 65
REMARK SMILES IDX 46 67 78 68 58 69 77 70 59 71 62 72 76 73 95 74 60 75 61 76
REMARK SMILES IDX 75 78 96 79 63 80 47 81 48 82 56 83 49 84 50 85 54 86 57 87
REMARK SMILES IDX 51 88 52 89 55 90 53 91 79 92 80 93 88 94 81 95 82 96 86 97
REMARK SMILES IDX 89 98 83 99 84 100 87 101 85 102 64 103 65 104 73 105 66 106
REMARK SMILES IDX 67 107 71 108 74 109 68 110 69 111 72 112 70 113
REMARK H PARENT 17 13 3 18 8 33 20 39 94 66 62 77
REMARK Flexibility Score: inf
ROOT
ATOM      1  C   UNL A   1      34.570  33.016  29.437  1.00  0.00     0.188 C 
ENDROOT
BRANCH   1   2
ATOM      2  C   UNL A   1      34.429  32.546  27.989  1.00  0.00     0.188 C 
BRANCH   2   3
ATOM      3  O   UNL A   1      34.591  31.144  27.816  1.00  0.00    -0.376 OA
BRANCH   3   4
ATOM      4  C   UNL A   1      33.402  30.480  27.386  1.00  0.00     0.202 C 
BRANCH   4   5
ATOM      5  C   UNL A   1      33.412  28.950  27.509  1.00  0.00     0.261 C 
BRANCH   5   6
ATOM      6  O   UNL A   1      32.174  28.288  27.161  1.00  0.00    -0.462 OA
BRANCH   6   7
ATOM      7  C   UNL A   1      32.172  26.939  26.569  1.00  0.00     0.331 C 
ATOM      8  O   UNL A   1      33.408  26.663  26.487  1.00  0.00    -0.250 OA
BRANCH   7   9
ATOM      9  C   UNL A   1      30.352  25.865  25.942  1.00  0.00     0.218 C 
BRANCH   9  10
ATOM     10  N   UNL A   1      30.085  24.809  24.571  1.00  0.00    -0.339 N 
ATOM     11  C   UNL A   1      30.659  24.562  23.355  1.00  0.00     0.243 C 
ATOM     12  O   UNL A   1      30.274  23.513  22.810  1.00  0.00    -0.273 OA
ATOM     13  H   UNL A   1      29.301  24.230  24.717  1.00  0.00     0.164 HD
BRANCH  11  14
ATOM     14  C   UNL A   1      31.644  25.474  22.570  1.00  0.00     0.176 C 
BRANCH  14  15
ATOM     15  N   UNL A   1      32.335  24.616  21.609  1.00  0.00    -0.340 N 
ATOM     16  O   UNL A   1      33.654  22.954  20.871  1.00  0.00    -0.269 OA
ATOM     17  C   UNL A   1      33.261  23.625  21.822  1.00  0.00     0.251 C 
ATOM     18  H   UNL A   1      32.101  24.773  20.666  1.00  0.00     0.164 HD
BRANCH  17  19
ATOM     19  C   UNL A   1      33.883  23.425  23.156  1.00  0.00     0.040 A 
ATOM     20  C   UNL A   1      34.782  24.332  23.731  1.00  0.00     0.017 A 
ATOM     21  C   UNL A   1      33.532  22.260  23.854  1.00  0.00     0.017 A 
ATOM     22  C   UNL A   1      35.413  24.018  24.939  1.00  0.00     0.040 A 
ATOM     23  C   UNL A   1      34.140  21.964  25.075  1.00  0.00     0.040 A 
ATOM     24  C   UNL A   1      35.093  22.833  25.594  1.00  0.00     0.123 A 
ATOM     25  F   UNL A   1      35.709  22.527  26.743  1.00  0.00    -0.207 F 
ENDBRANCH  17  19
ENDBRANCH  14  15
BRANCH  14  26
ATOM     26  C   UNL A   1      31.249  26.861  22.025  1.00  0.00     0.072 C 
BRANCH  26  27
ATOM     27  C   UNL A   1      31.178  27.890  23.084  1.00  0.00    -0.020 A 
ATOM     28  C   UNL A   1      32.223  28.579  23.688  1.00  0.00     0.087 A 
ATOM     29  C   UNL A   1      29.963  28.489  23.472  1.00  0.00     0.003 A 
ATOM     30  N   UNL A   1      31.842  29.801  24.230  1.00  0.00    -0.361 N 
ATOM     31  C   UNL A   1      30.538  30.072  23.916  1.00  0.00     0.046 A 
ATOM     32  C   UNL A   1      28.217  28.226  23.070  1.00  0.00     0.010 A 
ATOM     33  H   UNL A   1      32.427  30.387  24.762  1.00  0.00     0.166 HD
ATOM     34  C   UNL A   1      29.412  31.468  23.925  1.00  0.00     0.026 A 
ATOM     35  C   UNL A   1      27.062  29.617  23.129  1.00  0.00     0.001 A 
ATOM     36  C   UNL A   1      27.658  31.206  23.618  1.00  0.00     0.002 A 
ENDBRANCH  26  27
ENDBRANCH  14  26
ENDBRANCH  11  14
ENDBRANCH   9  10
BRANCH   9  37
ATOM     37  C   UNL A   1      29.164  24.972  26.876  1.00  0.00     0.193 C 
BRANCH  37  38
ATOM     38  O   UNL A   1      29.543  23.641  27.249  1.00  0.00    -0.394 OA
ATOM     39  H   UNL A   1      30.348  23.674  27.789  1.00  0.00     0.210 HD
ENDBRANCH  37  38
ENDBRANCH   9  37
ENDBRANCH   7   9
ENDBRANCH   6   7
ENDBRANCH   5   6
ENDBRANCH   4   5
ENDBRANCH   3   4
ENDBRANCH   2   3
ENDBRANCH   1   2
BRANCH   1  40
ATOM     40  O   UNL A   1      33.629  33.946  29.951  1.00  0.00    -0.377 OA
BRANCH  40  41
ATOM     41  C   UNL A   1      34.133  35.011  30.743  1.00  0.00     0.188 C 
BRANCH  41  42
ATOM     42  C   UNL A   1      33.276  35.474  31.935  1.00  0.00     0.188 C 
BRANCH  42  43
ATOM     43  O   UNL A   1      33.457  34.731  33.128  1.00  0.00    -0.376 OA
BRANCH  43  44
ATOM     44  C   UNL A   1      34.772  34.507  33.609  1.00  0.00     0.202 C 
BRANCH  44  45
ATOM     45  C   UNL A   1      35.338  33.078  33.612  1.00  0.00     0.261 C 
BRANCH  45  46
ATOM     46  O   UNL A   1      36.411  32.787  32.699  1.00  0.00    -0.460 OA
BRANCH  46  47
ATOM     47  C   UNL A   1      36.539  31.538  32.207  1.00  0.00     0.338 C 
ATOM     48  O   UNL A   1      35.688  30.674  32.123  1.00  0.00    -0.246 OA
BRANCH  47  49
ATOM     49  C   UNL A   1      37.881  31.452  31.592  1.00  0.00     0.060 A 
ATOM     50  C   UNL A   1      38.020  31.693  30.218  1.00  0.00     0.016 A 
ATOM     51  C   UNL A   1      38.996  31.158  32.378  1.00  0.00     0.016 A 
ATOM     52  C   UNL A   1      39.275  31.610  29.618  1.00  0.00     0.010 A 
ATOM     53  C   UNL A   1      40.247  31.034  31.770  1.00  0.00     0.010 A 
ATOM     54  C   UNL A   1      40.381  31.222  30.382  1.00  0.00    -0.014 A 
BRANCH  54  55
ATOM     55  C   UNL A   1      41.595  30.733  29.690  1.00  0.00     0.031 A 
ATOM     56  C   UNL A   1      41.560  29.335  29.138  1.00  0.00     0.074 A 
ATOM     57  C   UNL A   1      42.684  31.503  29.528  1.00  0.00     0.049 A 
ATOM     58  N   UNL A   1      42.499  28.648  28.540  1.00  0.00    -0.248 NA
ATOM     59  C   UNL A   1      40.284  28.613  29.282  1.00  0.00     0.031 C 
ATOM     60  C   UNL A   1      42.815  32.890  29.966  1.00  0.00     0.029 A 
ATOM     61  N   UNL A   1      43.896  31.213  28.954  1.00  0.00    -0.354 N 
ATOM     62  C   UNL A   1      41.929  27.416  28.244  1.00  0.00     0.074 A 
ATOM     63  C   UNL A   1      40.575  27.436  28.752  1.00  0.00     0.031 C 
ATOM     64  C   UNL A   1      44.050  33.327  29.660  1.00  0.00     0.029 A 
ATOM     65  C   UNL A   1      44.804  32.239  29.037  1.00  0.00     0.049 A 
ATOM     66  H   UNL A   1      44.095  30.351  28.522  1.00  0.00     0.167 HD
ATOM     67  C   UNL A   1      42.483  26.363  27.601  1.00  0.00     0.037 A 
ATOM     68  C   UNL A   1      46.102  32.277  28.675  1.00  0.00     0.037 A 
ATOM     69  C   UNL A   1      43.833  26.343  27.110  1.00  0.00     0.049 A 
ATOM     70  C   UNL A   1      46.727  31.055  28.046  1.00  0.00     0.074 A 
ATOM     71  C   UNL A   1      44.491  25.330  26.439  1.00  0.00     0.029 A 
ATOM     72  N   UNL A   1      44.736  27.386  27.252  1.00  0.00    -0.354 N 
ATOM     73  N   UNL A   1      46.179  29.902  27.746  1.00  0.00    -0.248 NA
ATOM     74  C   UNL A   1      48.154  31.143  27.701  1.00  0.00     0.031 C 
ATOM     75  C   UNL A   1      45.812  25.736  26.227  1.00  0.00     0.029 A 
ATOM     76  C   UNL A   1      45.959  27.027  26.708  1.00  0.00     0.049 A 
ATOM     77  H   UNL A   1      44.539  28.252  27.676  1.00  0.00     0.167 HD
ATOM     78  C   UNL A   1      47.181  29.141  27.155  1.00  0.00     0.074 A 
ATOM     79  C   UNL A   1      48.367  29.970  27.123  1.00  0.00     0.031 C 
ATOM     80  C   UNL A   1      47.127  27.871  26.679  1.00  0.00     0.037 A 
BRANCH  67  81
ATOM     81  C   UNL A   1      41.637  25.136  27.431  1.00  0.00     0.064 A 
ATOM     82  C   UNL A   1      41.856  23.974  28.186  1.00  0.00     0.173 A 
ATOM     83  C   UNL A   1      40.582  25.128  26.506  1.00  0.00     0.173 A 
ATOM     84  F   UNL A   1      42.865  23.922  29.069  1.00  0.00    -0.203 F 
ATOM     85  C   UNL A   1      41.067  22.841  28.002  1.00  0.00     0.198 A 
ATOM     86  C   UNL A   1      39.775  24.005  26.348  1.00  0.00     0.198 A 
ATOM     87  F   UNL A   1      40.331  26.212  25.756  1.00  0.00    -0.203 F 
ATOM     88  F   UNL A   1      41.329  21.725  28.697  1.00  0.00    -0.200 F 
ATOM     89  C   UNL A   1      40.023  22.860  27.091  1.00  0.00     0.200 A 
ATOM     90  F   UNL A   1      38.760  24.029  25.473  1.00  0.00    -0.200 F 
ATOM     91  F   UNL A   1      39.261  21.771  26.919  1.00  0.00    -0.200 F 
ENDBRANCH  67  81
BRANCH  68  92
ATOM     92  C   UNL A   1      46.911  33.502  28.916  1.00  0.00     0.064 A 
ATOM     93  C   UNL A   1      47.569  33.708  30.137  1.00  0.00     0.173 A 
ATOM     94  C   UNL A   1      47.015  34.508  27.944  1.00  0.00     0.173 A 
ATOM     95  F   UNL A   1      47.477  32.789  31.110  1.00  0.00    -0.203 F 
ATOM     96  C   UNL A   1      48.282  34.880  30.383  1.00  0.00     0.198 A 
ATOM     97  C   UNL A   1      47.754  35.666  28.180  1.00  0.00     0.198 A 
ATOM     98  F   UNL A   1      46.401  34.366  26.760  1.00  0.00    -0.203 F 
ATOM     99  F   UNL A   1      48.856  35.073  31.579  1.00  0.00    -0.200 F 
ATOM    100  C   UNL A   1      48.379  35.855  29.403  1.00  0.00     0.200 A 
ATOM    101  F   UNL A   1      47.854  36.601  27.225  1.00  0.00    -0.200 F 
ATOM    102  F   UNL A   1      49.065  36.982  29.640  1.00  0.00    -0.200 F 
ENDBRANCH  68  92
BRANCH  80 103
ATOM    103  C   UNL A   1      48.371  27.311  26.048  1.00  0.00     0.064 A 
ATOM    104  C   UNL A   1      48.599  27.393  24.666  1.00  0.00     0.173 A 
ATOM    105  C   UNL A   1      49.372  26.733  26.845  1.00  0.00     0.173 A 
ATOM    106  F   UNL A   1      47.670  27.926  23.859  1.00  0.00    -0.203 F 
ATOM    107  C   UNL A   1      49.770  26.892  24.104  1.00  0.00     0.198 A 
ATOM    108  C   UNL A   1      50.556  26.265  26.283  1.00  0.00     0.198 A 
ATOM    109  F   UNL A   1      49.208  26.639  28.173  1.00  0.00    -0.203 F 
ATOM    110  F   UNL A   1      49.945  26.936  22.775  1.00  0.00    -0.200 F 
ATOM    111  C   UNL A   1      50.751  26.337  24.913  1.00  0.00     0.200 A 
ATOM    112  F   UNL A   1      51.509  25.747  27.070  1.00  0.00    -0.200 F 
ATOM    113  F   UNL A   1      51.882  25.866  24.370  1.00  0.00    -0.200 F 
ENDBRANCH  80 103
ENDBRANCH  54  55
ENDBRANCH  47  49
ENDBRANCH  46  47
ENDBRANCH  45  46
ENDBRANCH  44  45
ENDBRANCH  43  44
ENDBRANCH  42  43
ENDBRANCH  41  42
ENDBRANCH  40  41
ENDBRANCH   1  40
TORSDOF 28
ENDMDL
MODEL 2
REMARK VINA RESULT:     -11.0      3.140      9.104
REMARK SMILES O=C(N[C@@H](Cc1c[nH]c2ccccc12)C(=O)N[C@@H](CO)C(=O)OCCOCCOCCOCCOC(=O)c1ccc(-c2c3nc(c(-c4c(F)c(F)c(F)c(F)c4F)c4ccc([nH]4)c(-c4c(F)c(F)c(F)c(F)c4F)c4nc(c(-c5c(F)c(F)c(F)c(F)c5F)c5ccc2[nH]5)C=C4)C=C3)cc1)c1ccc(F)cc1
REMARK SMILES IDX 28 1 27 2 26 3 25 4 24 5 23 6 21 7 22 8 18 9 17 10 15 11
REMARK SMILES IDX 16 12 4 14 3 15 1 16 2 17 101 19 102 20 107 21 103 22 106 23
REMARK SMILES IDX 104 24 105 25 5 26 6 27 7 28 14 29 8 30 9 31 13 32 10 34
REMARK SMILES IDX 12 35 11 36 19 37 20 38 29 40 30 41 31 42 32 43 33 44 34 45
REMARK SMILES IDX 35 46 36 47 37 48 38 49 39 50 100 51 40 52 99 53 41 54 42 55
REMARK SMILES IDX 43 56 93 57 44 58 98 59 92 60 94 61 45 62 97 63 91 64 90 65
REMARK SMILES IDX 46 67 78 68 58 69 77 70 59 71 62 72 76 73 95 74 60 75 61 76
REMARK SMILES IDX 75 78 96 79 63 80 47 81 48 82 56 83 49 84 50 85 54 86 57 87
REMARK SMILES IDX 51 88 52 89 55 90 53 91 79 92 80 93 88 94 81 95 82 96 86 97
REMARK SMILES IDX 89 98 83 99 84 100 87 101 85 102 64 103 65 104 73 105 66 106
REMARK SMILES IDX 67 107 71 108 74 109 68 110 69 111 72 112 70 113
REMARK H PARENT 17 13 3 18 8 33 20 39 94 66 62 77
REMARK Flexibility Score: inf
ROOT
ATOM      1  C   UNL A   1      34.764  19.015  24.887  1.00  0.00     0.188 C 
ENDROOT
BRANCH   1   2
ATOM      2  C   UNL A   1      33.552  19.935  25.038  1.00  0.00     0.188 C 
BRANCH   2   3
ATOM      3  O   UNL A   1      32.360  19.422  24.456  1.00  0.00    -0.376 OA
BRANCH   3   4
ATOM      4  C   UNL A   1      32.210  19.752  23.075  1.00  0.00     0.202 C 
BRANCH   4   5
ATOM      5  C   UNL A   1      32.019  21.243  22.763  1.00  0.00     0.261 C 
BRANCH   5   6
ATOM      6  O   UNL A   1      33.233  22.026  22.698  1.00  0.00    -0.462 OA
BRANCH   6   7
ATOM      7  C   UNL A   1      33.404  23.238  23.518  1.00  0.00     0.331 C 
ATOM      8  O   UNL A   1      34.302  23.881  22.892  1.00  0.00    -0.250 OA
BRANCH   7   9
ATOM      9  C   UNL A   1      32.336  23.613  25.409  1.00  0.00     0.218 C 
BRANCH   9  10
ATOM     10  N   UNL A   1      31.738  25.113  26.086  1.00  0.00    -0.339 N 
ATOM     11  C   UNL A   1      31.840  26.452  25.829  1.00  0.00     0.243 C 
ATOM     12  O   UNL A   1      31.011  27.154  26.433  1.00  0.00    -0.273 OA
ATOM     13  H   UNL A   1      31.169  24.946  26.873  1.00  0.00     0.164 HD
BRANCH  11  14
ATOM     14  C   UNL A   1      32.908  27.171  24.956  1.00  0.00     0.176 C 
BRANCH  14  15
ATOM     15  N   UNL A   1      32.849  26.559  23.630  1.00  0.00    -0.340 N 
ATOM     16  O   UNL A   1      32.132  26.198  21.532  1.00  0.00    -0.269 OA
ATOM     17  C   UNL A   1      31.947  26.751  22.613  1.00  0.00     0.251 C 
ATOM     18  H   UNL A   1      33.563  25.910  23.437  1.00  0.00     0.164 HD
BRANCH  17  19
ATOM     19  C   UNL A   1      30.693  27.517  22.829  1.00  0.00     0.040 A 
ATOM     20  C   UNL A   1      29.530  26.957  23.374  1.00  0.00     0.017 A 
ATOM     21  C   UNL A   1      30.703  28.871  22.461  1.00  0.00     0.017 A 
ATOM     22  C   UNL A   1      28.356  27.713  23.439  1.00  0.00     0.040 A 
ATOM     23  C   UNL A   1      29.536  29.633  22.557  1.00  0.00     0.040 A 
ATOM     24  C   UNL A   1      28.369  29.040  23.022  1.00  0.00     0.123 A 
ATOM     25  F   UNL A   1      27.239  29.758  23.072  1.00  0.00    -0.207 F 
ENDBRANCH  17  19
ENDBRANCH  14  15
BRANCH  14  26
ATOM     26  C   UNL A   1      33.092  28.702  24.950  1.00  0.00     0.072 C 
BRANCH  26  27
ATOM     27  C   UNL A   1      33.578  29.223  26.244  1.00  0.00    -0.020 A 
ATOM     28  C   UNL A   1      34.719  28.854  26.947  1.00  0.00     0.087 A 
ATOM     29  C   UNL A   1      33.034  30.376  26.844  1.00  0.00     0.003 A 
ATOM     30  N   UNL A   1      35.180  29.840  27.813  1.00  0.00    -0.361 N 
ATOM     31  C   UNL A   1      34.449  30.987  27.656  1.00  0.00     0.046 A 
ATOM     32  C   UNL A   1      31.637  31.470  26.488  1.00  0.00     0.010 A 
ATOM     33  H   UNL A   1      35.925  29.728  28.446  1.00  0.00     0.166 HD
ATOM     34  C   UNL A   1      34.554  32.723  28.097  1.00  0.00     0.026 A 
ATOM     35  C   UNL A   1      31.710  33.210  26.977  1.00  0.00     0.001 A 
ATOM     36  C   UNL A   1      33.137  33.801  27.832  1.00  0.00     0.002 A 
ENDBRANCH  26  27
ENDBRANCH  14  26
ENDBRANCH  11  14
ENDBRANCH   9  10
BRANCH   9  37
ATOM     37  C   UNL A   1      31.036  22.729  26.191  1.00  0.00     0.193 C 
BRANCH  37  38
ATOM     38  O   UNL A   1      31.216  22.470  27.589  1.00  0.00    -0.394 OA
ATOM     39  H   UNL A   1      32.108  22.120  27.740  1.00  0.00     0.210 HD
ENDBRANCH  37  38
ENDBRANCH   9  37
ENDBRANCH   7   9
ENDBRANCH   6   7
ENDBRANCH   5   6
ENDBRANCH   4   5
ENDBRANCH   3   4
ENDBRANCH   2   3
ENDBRANCH   1   2
BRANCH   1  40
ATOM     40  O   UNL A   1      36.058  19.592  24.816  1.00  0.00    -0.377 OA
BRANCH  40  41
ATOM     41  C   UNL A   1      36.148  21.006  24.908  1.00  0.00     0.188 C 
BRANCH  41  42
ATOM     42  C   UNL A   1      37.425  21.672  24.366  1.00  0.00     0.188 C 
BRANCH  42  43
ATOM     43  O   UNL A   1      38.399  21.985  25.346  1.00  0.00    -0.376 OA
BRANCH  43  44
ATOM     44  C   UNL A   1      38.831  20.970  26.239  1.00  0.00     0.202 C 
BRANCH  44  45
ATOM     45  C   UNL A   1      39.888  19.959  25.769  1.00  0.00     0.261 C 
BRANCH  45  46
ATOM     46  O   UNL A   1      41.028  19.746  26.621  1.00  0.00    -0.460 OA
BRANCH  46  47
ATOM     47  C   UNL A   1      42.220  20.272  26.274  1.00  0.00     0.338 C 
ATOM     48  O   UNL A   1      43.102  19.758  25.614  1.00  0.00    -0.246 OA
BRANCH  47  49
ATOM     49  C   UNL A   1      42.202  21.692  26.681  1.00  0.00     0.060 A 
ATOM     50  C   UNL A   1      41.928  22.676  25.720  1.00  0.00     0.016 A 
ATOM     51  C   UNL A   1      42.430  22.045  28.012  1.00  0.00     0.016 A 
ATOM     52  C   UNL A   1      41.912  24.021  26.081  1.00  0.00     0.010 A 
ATOM     53  C   UNL A   1      42.456  23.395  28.366  1.00  0.00     0.010 A 
ATOM     54  C   UNL A   1      42.235  24.387  27.393  1.00  0.00    -0.014 A 
BRANCH  54  55
ATOM     55  C   UNL A   1      42.626  25.788  27.672  1.00  0.00     0.031 A 
ATOM     56  C   UNL A   1      43.974  26.240  27.182  1.00  0.00     0.074 A 
ATOM     57  C   UNL A   1      41.810  26.642  28.312  1.00  0.00     0.049 A 
ATOM     58  N   UNL A   1      44.578  27.388  27.339  1.00  0.00    -0.248 NA
ATOM     59  C   UNL A   1      44.746  25.253  26.406  1.00  0.00     0.031 C 
ATOM     60  C   UNL A   1      40.461  26.338  28.780  1.00  0.00     0.029 A 
ATOM     61  N   UNL A   1      42.013  27.948  28.685  1.00  0.00    -0.354 N 
ATOM     62  C   UNL A   1      45.798  27.259  26.689  1.00  0.00     0.074 A 
ATOM     63  C   UNL A   1      45.864  25.915  26.160  1.00  0.00     0.031 C 
ATOM     64  C   UNL A   1      39.961  27.424  29.397  1.00  0.00     0.029 A 
ATOM     65  C   UNL A   1      40.968  28.485  29.395  1.00  0.00     0.049 A 
ATOM     66  H   UNL A   1      42.829  28.451  28.462  1.00  0.00     0.167 HD
ATOM     67  C   UNL A   1      46.776  28.182  26.540  1.00  0.00     0.037 A 
ATOM     68  C   UNL A   1      40.859  29.687  29.996  1.00  0.00     0.037 A 
ATOM     69  C   UNL A   1      46.712  29.513  27.077  1.00  0.00     0.049 A 
ATOM     70  C   UNL A   1      42.004  30.666  29.898  1.00  0.00     0.074 A 
ATOM     71  C   UNL A   1      47.645  30.529  26.979  1.00  0.00     0.029 A 
ATOM     72  N   UNL A   1      45.656  30.007  27.829  1.00  0.00    -0.354 N 
ATOM     73  N   UNL A   1      43.145  30.550  29.263  1.00  0.00    -0.248 NA
ATOM     74  C   UNL A   1      41.842  31.948  30.601  1.00  0.00     0.031 C 
ATOM     75  C   UNL A   1      47.180  31.618  27.722  1.00  0.00     0.029 A 
ATOM     76  C   UNL A   1      45.929  31.305  28.229  1.00  0.00     0.049 A 
ATOM     77  H   UNL A   1      44.836  29.509  28.047  1.00  0.00     0.167 HD
ATOM     78  C   UNL A   1      43.822  31.748  29.464  1.00  0.00     0.074 A 
ATOM     79  C   UNL A   1      42.955  32.584  30.267  1.00  0.00     0.031 C 
ATOM     80  C   UNL A   1      45.049  32.124  29.023  1.00  0.00     0.037 A 
BRANCH  67  81
ATOM     81  C   UNL A   1      48.012  27.764  25.798  1.00  0.00     0.064 A 
ATOM     82  C   UNL A   1      49.191  27.403  26.466  1.00  0.00     0.173 A 
ATOM     83  C   UNL A   1      48.010  27.713  24.396  1.00  0.00     0.173 A 
ATOM     84  F   UNL A   1      49.252  27.456  27.806  1.00  0.00    -0.203 F 
ATOM     85  C   UNL A   1      50.331  27.032  25.757  1.00  0.00     0.198 A 
ATOM     86  C   UNL A   1      49.141  27.310  23.691  1.00  0.00     0.198 A 
ATOM     87  F   UNL A   1      46.909  28.051  23.707  1.00  0.00    -0.203 F 
ATOM     88  F   UNL A   1      51.462  26.742  26.416  1.00  0.00    -0.200 F 
ATOM     89  C   UNL A   1      50.302  26.977  24.372  1.00  0.00     0.200 A 
ATOM     90  F   UNL A   1      49.108  27.248  22.353  1.00  0.00    -0.200 F 
ATOM     91  F   UNL A   1      51.398  26.613  23.692  1.00  0.00    -0.200 F 
ENDBRANCH  67  81
BRANCH  68  92
ATOM     92  C   UNL A   1      39.633  30.030  30.766  1.00  0.00     0.064 A 
ATOM     93  C   UNL A   1      38.550  30.676  30.153  1.00  0.00     0.173 A 
ATOM     94  C   UNL A   1      39.533  29.752  32.137  1.00  0.00     0.173 A 
ATOM     95  F   UNL A   1      38.606  30.990  28.850  1.00  0.00    -0.203 F 
ATOM     96  C   UNL A   1      37.423  31.047  30.886  1.00  0.00     0.198 A 
ATOM     97  C   UNL A   1      38.395  30.096  32.862  1.00  0.00     0.198 A 
ATOM     98  F   UNL A   1      40.542  29.141  32.775  1.00  0.00    -0.203 F 
ATOM     99  F   UNL A   1      36.426  31.711  30.286  1.00  0.00    -0.200 F 
ATOM    100  C   UNL A   1      37.344  30.753  32.238  1.00  0.00     0.200 A 
ATOM    101  F   UNL A   1      38.317  29.799  34.166  1.00  0.00    -0.200 F 
ATOM    102  F   UNL A   1      36.261  31.109  32.942  1.00  0.00    -0.200 F 
ENDBRANCH  68  92
BRANCH  80 103
ATOM    103  C   UNL A   1      45.514  33.512  29.364  1.00  0.00     0.064 A 
ATOM    104  C   UNL A   1      45.317  34.593  28.491  1.00  0.00     0.173 A 
ATOM    105  C   UNL A   1      46.118  33.773  30.604  1.00  0.00     0.173 A 
ATOM    106  F   UNL A   1      44.755  34.396  27.290  1.00  0.00    -0.203 F 
ATOM    107  C   UNL A   1      45.731  35.876  28.838  1.00  0.00     0.198 A 
ATOM    108  C   UNL A   1      46.499  35.063  30.961  1.00  0.00     0.198 A 
ATOM    109  F   UNL A   1      46.321  32.777  31.480  1.00  0.00    -0.203 F 
ATOM    110  F   UNL A   1      45.578  36.885  27.967  1.00  0.00    -0.200 F 
ATOM    111  C   UNL A   1      46.314  36.112  30.074  1.00  0.00     0.200 A 
ATOM    112  F   UNL A   1      47.044  35.290  32.164  1.00  0.00    -0.200 F 
ATOM    113  F   UNL A   1      46.702  37.350  30.409  1.00  0.00    -0.200 F 
ENDBRANCH  80 103
ENDBRANCH  54  55
ENDBRANCH  47  49
ENDBRANCH  46  47
ENDBRANCH  45  46
ENDBRANCH  44  45
ENDBRANCH  43  44
ENDBRANCH  42  43
ENDBRANCH  41  42
ENDBRANCH  40  41
ENDBRANCH   1  40
TORSDOF 28
ENDMDL
MODEL 3
REMARK VINA RESULT:     -10.4      4.550      6.491
REMARK SMILES O=C(N[C@@H](Cc1c[nH]c2ccccc12)C(=O)N[C@@H](CO)C(=O)OCCOCCOCCOCCOC(=O)c1ccc(-c2c3nc(c(-c4c(F)c(F)c(F)c(F)c4F)c4ccc([nH]4)c(-c4c(F)c(F)c(F)c(F)c4F)c4nc(c(-c5c(F)c(F)c(F)c(F)c5F)c5ccc2[nH]5)C=C4)C=C3)cc1)c1ccc(F)cc1
REMARK SMILES IDX 28 1 27 2 26 3 25 4 24 5 23 6 21 7 22 8 18 9 17 10 15 11
REMARK SMILES IDX 16 12 4 14 3 15 1 16 2 17 101 19 102 20 107 21 103 22 106 23
REMARK SMILES IDX 104 24 105 25 5 26 6 27 7 28 14 29 8 30 9 31 13 32 10 34
REMARK SMILES IDX 12 35 11 36 19 37 20 38 29 40 30 41 31 42 32 43 33 44 34 45
REMARK SMILES IDX 35 46 36 47 37 48 38 49 39 50 100 51 40 52 99 53 41 54 42 55
REMARK SMILES IDX 43 56 93 57 44 58 98 59 92 60 94 61 45 62 97 63 91 64 90 65
REMARK SMILES IDX 46 67 78 68 58 69 77 70 59 71 62 72 76 73 95 74 60 75 61 76
REMARK SMILES IDX 75 78 96 79 63 80 47 81 48 82 56 83 49 84 50 85 54 86 57 87
REMARK SMILES IDX 51 88 52 89 55 90 53 91 79 92 80 93 88 94 81 95 82 96 86 97
REMARK SMILES IDX 89 98 83 99 84 100 87 101 85 102 64 103 65 104 73 105 66 106
REMARK SMILES IDX 67 107 71 108 74 109 68 110 69 111 72 112 70 113
REMARK H PARENT 17 13 3 18 8 33 20 39 94 66 62 77
REMARK Flexibility Score: inf
ROOT
ATOM      1  C   UNL A   1      34.952  32.270  29.846  1.00  0.00     0.188 C 
ENDROOT
BRANCH   1   2
ATOM      2  C   UNL A   1      34.379  32.543  28.455  1.00  0.00     0.188 C 
BRANCH   2   3
ATOM      3  O   UNL A   1      34.597  31.492  27.521  1.00  0.00    -0.376 OA
BRANCH   3   4
ATOM      4  C   UNL A   1      33.510  30.571  27.433  1.00  0.00     0.202 C 
BRANCH   4   5
ATOM      5  C   UNL A   1      33.901  29.096  27.265  1.00  0.00     0.261 C 
BRANCH   5   6
ATOM      6  O   UNL A   1      32.802  28.180  27.054  1.00  0.00    -0.462 OA
BRANCH   6   7
ATOM      7  C   UNL A   1      33.012  26.873  26.406  1.00  0.00     0.331 C 
ATOM      8  O   UNL A   1      34.204  26.957  25.979  1.00  0.00    -0.250 OA
BRANCH   7   9
ATOM      9  C   UNL A   1      31.462  25.317  26.229  1.00  0.00     0.218 C 
BRANCH   9  10
ATOM     10  N   UNL A   1      30.599  24.743  24.817  1.00  0.00    -0.339 N 
ATOM     11  C   UNL A   1      30.781  24.713  23.462  1.00  0.00     0.243 C 
ATOM     12  O   UNL A   1      30.005  23.953  22.858  1.00  0.00    -0.273 OA
ATOM     13  H   UNL A   1      29.743  24.326  25.069  1.00  0.00     0.164 HD
BRANCH  11  14
ATOM     14  C   UNL A   1      31.767  25.571  22.618  1.00  0.00     0.176 C 
BRANCH  14  15
ATOM     15  N   UNL A   1      32.371  24.672  21.636  1.00  0.00    -0.340 N 
ATOM     16  O   UNL A   1      33.506  22.896  20.858  1.00  0.00    -0.269 OA
ATOM     17  C   UNL A   1      33.176  23.576  21.826  1.00  0.00     0.251 C 
ATOM     18  H   UNL A   1      32.170  24.884  20.697  1.00  0.00     0.164 HD
BRANCH  17  19
ATOM     19  C   UNL A   1      33.752  23.265  23.159  1.00  0.00     0.040 A 
ATOM     20  C   UNL A   1      33.395  22.136  23.910  1.00  0.00     0.017 A 
ATOM     21  C   UNL A   1      34.703  24.162  23.667  1.00  0.00     0.017 A 
ATOM     22  C   UNL A   1      33.896  21.973  25.204  1.00  0.00     0.040 A 
ATOM     23  C   UNL A   1      35.226  23.979  24.949  1.00  0.00     0.040 A 
ATOM     24  C   UNL A   1      34.799  22.900  25.714  1.00  0.00     0.123 A 
ATOM     25  F   UNL A   1      35.267  22.750  26.961  1.00  0.00    -0.207 F 
ENDBRANCH  17  19
ENDBRANCH  14  15
BRANCH  14  26
ATOM     26  C   UNL A   1      31.408  26.968  22.075  1.00  0.00     0.072 C 
BRANCH  26  27
ATOM     27  C   UNL A   1      31.232  27.970  23.148  1.00  0.00    -0.020 A 
ATOM     28  C   UNL A   1      32.207  28.730  23.783  1.00  0.00     0.087 A 
ATOM     29  C   UNL A   1      29.966  28.460  23.520  1.00  0.00     0.003 A 
ATOM     30  N   UNL A   1      31.717  29.908  24.337  1.00  0.00    -0.361 N 
ATOM     31  C   UNL A   1      30.401  30.077  24.001  1.00  0.00     0.046 A 
ATOM     32  C   UNL A   1      28.255  28.063  23.079  1.00  0.00     0.010 A 
ATOM     33  H   UNL A   1      32.242  30.530  24.890  1.00  0.00     0.166 HD
ATOM     34  C   UNL A   1      29.164  31.377  24.009  1.00  0.00     0.026 A 
ATOM     35  C   UNL A   1      26.990  29.354  23.136  1.00  0.00     0.001 A 
ATOM     36  C   UNL A   1      27.444  30.977  23.662  1.00  0.00     0.002 A 
ENDBRANCH  26  27
ENDBRANCH  14  26
ENDBRANCH  11  14
ENDBRANCH   9  10
BRANCH   9  37
ATOM     37  C   UNL A   1      31.340  23.726  26.962  1.00  0.00     0.193 C 
BRANCH  37  38
ATOM     38  O   UNL A   1      30.023  23.331  27.367  1.00  0.00    -0.394 OA
ATOM     39  H   UNL A   1      30.026  22.390  27.601  1.00  0.00     0.210 HD
ENDBRANCH  37  38
ENDBRANCH   9  37
ENDBRANCH   7   9
ENDBRANCH   6   7
ENDBRANCH   5   6
ENDBRANCH   4   5
ENDBRANCH   3   4
ENDBRANCH   2   3
ENDBRANCH   1   2
BRANCH   1  40
ATOM     40  O   UNL A   1      34.237  32.725  30.984  1.00  0.00    -0.377 OA
BRANCH  40  41
ATOM     41  C   UNL A   1      34.927  33.572  31.891  1.00  0.00     0.188 C 
BRANCH  41  42
ATOM     42  C   UNL A   1      35.173  33.036  33.312  1.00  0.00     0.188 C 
BRANCH  42  43
ATOM     43  O   UNL A   1      36.488  32.568  33.557  1.00  0.00    -0.376 OA
BRANCH  43  44
ATOM     44  C   UNL A   1      37.501  32.823  32.597  1.00  0.00     0.202 C 
BRANCH  44  45
ATOM     45  C   UNL A   1      38.404  31.669  32.135  1.00  0.00     0.261 C 
BRANCH  45  46
ATOM     46  O   UNL A   1      38.883  31.704  30.779  1.00  0.00    -0.460 OA
BRANCH  46  47
ATOM     47  C   UNL A   1      38.835  30.582  30.031  1.00  0.00     0.338 C 
ATOM     48  O   UNL A   1      37.929  30.193  29.321  1.00  0.00    -0.246 OA
BRANCH  47  49
ATOM     49  C   UNL A   1      40.183  29.978  30.072  1.00  0.00     0.060 A 
ATOM     50  C   UNL A   1      40.306  28.583  30.157  1.00  0.00     0.016 A 
ATOM     51  C   UNL A   1      41.319  30.787  30.002  1.00  0.00     0.016 A 
ATOM     52  C   UNL A   1      41.567  27.994  30.203  1.00  0.00     0.010 A 
ATOM     53  C   UNL A   1      42.582  30.200  30.091  1.00  0.00     0.010 A 
ATOM     54  C   UNL A   1      42.707  28.805  30.230  1.00  0.00    -0.014 A 
BRANCH  54  55
ATOM     55  C   UNL A   1      43.989  28.227  30.695  1.00  0.00     0.031 A 
ATOM     56  C   UNL A   1      44.954  27.752  29.643  1.00  0.00     0.074 A 
ATOM     57  C   UNL A   1      44.305  28.147  31.998  1.00  0.00     0.049 A 
ATOM     58  N   UNL A   1      46.112  27.161  29.778  1.00  0.00    -0.248 NA
ATOM     59  C   UNL A   1      44.551  27.978  28.244  1.00  0.00     0.031 C 
ATOM     60  C   UNL A   1      43.479  28.627  33.102  1.00  0.00     0.029 A 
ATOM     61  N   UNL A   1      45.415  27.617  32.608  1.00  0.00    -0.354 N 
ATOM     62  C   UNL A   1      46.571  26.941  28.485  1.00  0.00     0.074 A 
ATOM     63  C   UNL A   1      45.557  27.433  27.580  1.00  0.00     0.031 C 
ATOM     64  C   UNL A   1      44.104  28.352  34.262  1.00  0.00     0.029 A 
ATOM     65  C   UNL A   1      45.356  27.648  33.979  1.00  0.00     0.049 A 
ATOM     66  H   UNL A   1      46.181  27.251  32.110  1.00  0.00     0.167 HD
ATOM     67  C   UNL A   1      47.737  26.383  28.088  1.00  0.00     0.037 A 
ATOM     68  C   UNL A   1      46.205  27.138  34.893  1.00  0.00     0.037 A 
ATOM     69  C   UNL A   1      48.737  25.884  28.991  1.00  0.00     0.049 A 
ATOM     70  C   UNL A   1      47.455  26.433  34.424  1.00  0.00     0.074 A 
ATOM     71  C   UNL A   1      49.956  25.306  28.694  1.00  0.00     0.029 A 
ATOM     72  N   UNL A   1      48.621  25.893  30.374  1.00  0.00    -0.354 N 
ATOM     73  N   UNL A   1      47.896  26.247  33.203  1.00  0.00    -0.248 NA
ATOM     74  C   UNL A   1      48.328  25.867  35.464  1.00  0.00     0.031 C 
ATOM     75  C   UNL A   1      50.554  24.910  29.894  1.00  0.00     0.029 A 
ATOM     76  C   UNL A   1      49.736  25.300  30.943  1.00  0.00     0.049 A 
ATOM     77  H   UNL A   1      47.861  26.264  30.875  1.00  0.00     0.167 HD
ATOM     78  C   UNL A   1      49.106  25.573  33.328  1.00  0.00     0.074 A 
ATOM     79  C   UNL A   1      49.337  25.397  34.746  1.00  0.00     0.031 C 
ATOM     80  C   UNL A   1      49.951  25.140  32.359  1.00  0.00     0.037 A 
BRANCH  67  81
ATOM     81  C   UNL A   1      47.971  26.250  26.612  1.00  0.00     0.064 A 
ATOM     82  C   UNL A   1      48.741  27.180  25.897  1.00  0.00     0.173 A 
ATOM     83  C   UNL A   1      47.424  25.169  25.905  1.00  0.00     0.173 A 
ATOM     84  F   UNL A   1      49.267  28.244  26.522  1.00  0.00    -0.203 F 
ATOM     85  C   UNL A   1      48.933  27.045  24.524  1.00  0.00     0.198 A 
ATOM     86  C   UNL A   1      47.645  25.020  24.538  1.00  0.00     0.198 A 
ATOM     87  F   UNL A   1      46.677  24.253  26.540  1.00  0.00    -0.203 F 
ATOM     88  F   UNL A   1      49.628  27.975  23.852  1.00  0.00    -0.200 F 
ATOM     89  C   UNL A   1      48.393  25.962  23.848  1.00  0.00     0.200 A 
ATOM     90  F   UNL A   1      47.131  23.966  23.889  1.00  0.00    -0.200 F 
ATOM     91  F   UNL A   1      48.585  25.830  22.528  1.00  0.00    -0.200 F 
ENDBRANCH  67  81
BRANCH  68  92
ATOM     92  C   UNL A   1      45.898  27.249  36.344  1.00  0.00     0.064 A 
ATOM     93  C   UNL A   1      45.092  26.301  36.990  1.00  0.00     0.173 A 
ATOM     94  C   UNL A   1      46.377  28.324  37.109  1.00  0.00     0.173 A 
ATOM     95  F   UNL A   1      44.586  25.269  36.298  1.00  0.00    -0.203 F 
ATOM     96  C   UNL A   1      44.760  26.435  38.337  1.00  0.00     0.198 A 
ATOM     97  C   UNL A   1      46.069  28.440  38.462  1.00  0.00     0.198 A 
ATOM     98  F   UNL A   1      47.148  29.263  36.541  1.00  0.00    -0.203 F 
ATOM     99  F   UNL A   1      43.943  25.543  38.914  1.00  0.00    -0.200 F 
ATOM    100  C   UNL A   1      45.252  27.500  39.074  1.00  0.00     0.200 A 
ATOM    101  F   UNL A   1      46.557  29.465  39.174  1.00  0.00    -0.200 F 
ATOM    102  F   UNL A   1      44.934  27.628  40.369  1.00  0.00    -0.200 F 
ENDBRANCH  68  92
BRANCH  80 103
ATOM    103  C   UNL A   1      51.223  24.468  32.796  1.00  0.00     0.064 A 
ATOM    104  C   UNL A   1      51.250  23.122  33.189  1.00  0.00     0.173 A 
ATOM    105  C   UNL A   1      52.440  25.168  32.768  1.00  0.00     0.173 A 
ATOM    106  F   UNL A   1      50.114  22.412  33.243  1.00  0.00    -0.203 F 
ATOM    107  C   UNL A   1      52.444  22.511  33.564  1.00  0.00     0.198 A 
ATOM    108  C   UNL A   1      53.636  24.544  33.111  1.00  0.00     0.198 A 
ATOM    109  F   UNL A   1      52.471  26.455  32.390  1.00  0.00    -0.203 F 
ATOM    110  F   UNL A   1      52.439  21.238  33.985  1.00  0.00    -0.200 F 
ATOM    111  C   UNL A   1      53.636  23.219  33.517  1.00  0.00     0.200 A 
ATOM    112  F   UNL A   1      54.787  25.226  33.046  1.00  0.00    -0.200 F 
ATOM    113  F   UNL A   1      54.784  22.625  33.869  1.00  0.00    -0.200 F 
ENDBRANCH  80 103
ENDBRANCH  54  55
ENDBRANCH  47  49
ENDBRANCH  46  47
ENDBRANCH  45  46
ENDBRANCH  44  45
ENDBRANCH  43  44
ENDBRANCH  42  43
ENDBRANCH  41  42
ENDBRANCH  40  41
ENDBRANCH   1  40
TORSDOF 28
ENDMDL
