MODEL 1
REMARK VINA RESULT:      -9.5      0.000      0.000
REMARK SMILES CC(=O)N[C@@H](Cc1cc(Br)c(O)c(Br)c1)C(=O)OCCOCCOCCOCCOC(=O)c1ccc(-c2c3nc(c(-c4c(F)c(F)c(F)c(F)c4F)c4ccc([nH]4)c(-c4c(F)c(F)c(F)c(F)c4F)c4nc(c(-c5c(F)c(F)c(F)c(F)c5F)c5ccc2[nH]5)C=C4)C=C3)cc1
REMARK SMILES IDX 23 1 22 2 21 3 20 4 19 5 18 6 16 7 17 8 5 9 4 10 1 11 2 12
REMARK SMILES IDX 3 13 6 15 7 16 8 17 15 18 9 19 13 20 10 21 11 22 14 23 12 24
REMARK SMILES IDX 24 26 25 27 26 28 27 29 28 30 29 31 30 32 31 33 32 34 33 35
REMARK SMILES IDX 34 36 95 37 35 38 94 39 36 40 37 41 38 42 88 43 39 44 93 45
REMARK SMILES IDX 87 46 89 47 40 48 92 49 86 50 85 51 41 53 73 54 53 55 72 56
REMARK SMILES IDX 54 57 57 58 71 59 90 60 55 61 56 62 70 64 91 65 58 66 42 67
REMARK SMILES IDX 43 68 51 69 44 70 45 71 49 72 52 73 46 74 47 75 50 76 48 77
REMARK SMILES IDX 74 78 75 79 83 80 76 81 77 82 81 83 84 84 78 85 79 86 82 87
REMARK SMILES IDX 80 88 59 89 60 90 68 91 61 92 62 93 66 94 69 95 63 96 64 97
REMARK SMILES IDX 67 98 65 99
REMARK H PARENT 4 14 12 25 89 52 57 63
REMARK Flexibility Score: inf
ROOT
ATOM      1  C   UNL A   1      36.025  22.193  25.763  1.00  0.00     0.188 C 
ENDROOT
BRANCH   1   2
ATOM      2  C   UNL A   1      35.384  21.070  24.925  1.00  0.00     0.188 C 
BRANCH   2   3
ATOM      3  O   UNL A   1      34.311  20.285  25.432  1.00  0.00    -0.376 OA
BRANCH   3   4
ATOM      4  C   UNL A   1      33.029  20.336  24.829  1.00  0.00     0.202 C 
BRANCH   4   5
ATOM      5  C   UNL A   1      32.712  21.413  23.781  1.00  0.00     0.261 C 
BRANCH   5   6
ATOM      6  O   UNL A   1      32.858  22.777  24.215  1.00  0.00    -0.462 OA
BRANCH   6   7
ATOM      7  C   UNL A   1      31.725  23.520  24.278  1.00  0.00     0.329 C 
ATOM      8  O   UNL A   1      30.689  23.155  24.825  1.00  0.00    -0.250 OA
BRANCH   7   9
ATOM      9  C   UNL A   1      31.795  24.813  23.437  1.00  0.00     0.196 C 
BRANCH   9  10
ATOM     10  N   UNL A   1      32.175  24.736  22.016  1.00  0.00    -0.343 N 
ATOM     11  C   UNL A   1      33.461  26.846  21.910  1.00  0.00     0.114 C 
ATOM     12  C   UNL A   1      32.862  25.635  21.250  1.00  0.00     0.217 C 
ATOM     13  O   UNL A   1      33.029  25.410  20.053  1.00  0.00    -0.275 OA
ATOM     14  H   UNL A   1      31.895  23.916  21.550  1.00  0.00     0.164 HD
ENDBRANCH   9  10
BRANCH   9  15
ATOM     15  C   UNL A   1      30.423  25.505  23.563  1.00  0.00     0.072 C 
BRANCH  15  16
ATOM     16  C   UNL A   1      30.512  26.969  23.964  1.00  0.00    -0.043 A 
ATOM     17  C   UNL A   1      29.839  27.959  23.231  1.00  0.00     0.023 A 
ATOM     18  C   UNL A   1      31.321  27.358  25.041  1.00  0.00     0.023 A 
ATOM     19  C   UNL A   1      30.005  29.310  23.548  1.00  0.00     0.061 A 
ATOM     20  C   UNL A   1      31.456  28.710  25.377  1.00  0.00     0.061 A 
ATOM     21  Br  UNL A   1      29.151  30.611  22.463  1.00  0.00    -0.047 Br
ATOM     22  C   UNL A   1      30.804  29.690  24.626  1.00  0.00     0.143 A 
ATOM     23  Br  UNL A   1      32.544  29.160  26.864  1.00  0.00    -0.047 Br
BRANCH  22  24
ATOM     24  O   UNL A   1      30.957  31.011  24.957  1.00  0.00    -0.506 OA
ATOM     25  H   UNL A   1      31.795  31.333  25.224  1.00  0.00     0.293 HD
ENDBRANCH  22  24
ENDBRANCH  15  16
ENDBRANCH   9  15
ENDBRANCH   7   9
ENDBRANCH   6   7
ENDBRANCH   5   6
ENDBRANCH   4   5
ENDBRANCH   3   4
ENDBRANCH   2   3
ENDBRANCH   1   2
BRANCH   1  26
ATOM     26  O   UNL A   1      37.344  22.552  25.399  1.00  0.00    -0.377 OA
BRANCH  26  27
ATOM     27  C   UNL A   1      38.350  21.598  25.705  1.00  0.00     0.188 C 
BRANCH  27  28
ATOM     28  C   UNL A   1      39.555  22.110  26.518  1.00  0.00     0.188 C 
BRANCH  28  29
ATOM     29  O   UNL A   1      40.338  21.073  27.099  1.00  0.00    -0.376 OA
BRANCH  29  30
ATOM     30  C   UNL A   1      41.168  20.281  26.262  1.00  0.00     0.202 C 
BRANCH  30  31
ATOM     31  C   UNL A   1      42.669  20.616  26.195  1.00  0.00     0.261 C 
BRANCH  31  32
ATOM     32  O   UNL A   1      43.053  21.927  26.639  1.00  0.00    -0.460 OA
BRANCH  32  33
ATOM     33  C   UNL A   1      43.034  22.923  25.736  1.00  0.00     0.338 C 
ATOM     34  O   UNL A   1      43.037  22.814  24.518  1.00  0.00    -0.246 OA
BRANCH  33  35
ATOM     35  C   UNL A   1      42.784  24.193  26.448  1.00  0.00     0.060 A 
ATOM     36  C   UNL A   1      42.680  25.367  25.692  1.00  0.00     0.016 A 
ATOM     37  C   UNL A   1      42.671  24.238  27.841  1.00  0.00     0.016 A 
ATOM     38  C   UNL A   1      42.528  26.596  26.328  1.00  0.00     0.010 A 
ATOM     39  C   UNL A   1      42.540  25.475  28.480  1.00  0.00     0.010 A 
ATOM     40  C   UNL A   1      42.516  26.662  27.728  1.00  0.00    -0.014 A 
BRANCH  40  41
ATOM     41  C   UNL A   1      42.681  27.988  28.370  1.00  0.00     0.031 A 
ATOM     42  C   UNL A   1      44.065  28.571  28.477  1.00  0.00     0.074 A 
ATOM     43  C   UNL A   1      41.613  28.706  28.761  1.00  0.00     0.049 A 
ATOM     44  N   UNL A   1      44.446  29.741  28.922  1.00  0.00    -0.248 NA
ATOM     45  C   UNL A   1      45.170  27.717  28.013  1.00  0.00     0.031 C 
ATOM     46  C   UNL A   1      40.224  28.264  28.675  1.00  0.00     0.029 A 
ATOM     47  N   UNL A   1      41.536  29.967  29.298  1.00  0.00    -0.354 N 
ATOM     48  C   UNL A   1      45.829  29.764  28.788  1.00  0.00     0.074 A 
ATOM     49  C   UNL A   1      46.226  28.477  28.262  1.00  0.00     0.031 C 
ATOM     50  C   UNL A   1      39.428  29.243  29.138  1.00  0.00     0.029 A 
ATOM     51  C   UNL A   1      40.253  30.368  29.576  1.00  0.00     0.049 A 
ATOM     52  H   UNL A   1      42.326  30.529  29.467  1.00  0.00     0.167 HD
ATOM     53  C   UNL A   1      46.689  30.773  29.066  1.00  0.00     0.037 A 
ATOM     54  C   UNL A   1      39.802  31.509  30.130  1.00  0.00     0.037 A 
ATOM     55  C   UNL A   1      46.291  32.051  29.598  1.00  0.00     0.049 A 
ATOM     56  C   UNL A   1      40.789  32.591  30.490  1.00  0.00     0.074 A 
ATOM     57  C   UNL A   1      47.083  33.145  29.904  1.00  0.00     0.029 A 
ATOM     58  N   UNL A   1      44.986  32.403  29.914  1.00  0.00    -0.354 N 
ATOM     59  N   UNL A   1      42.090  32.620  30.330  1.00  0.00    -0.248 NA
ATOM     60  C   UNL A   1      40.235  33.811  31.096  1.00  0.00     0.031 C 
ATOM     61  C   UNL A   1      46.267  34.132  30.466  1.00  0.00     0.029 A 
ATOM     62  C   UNL A   1      44.956  33.687  30.439  1.00  0.00     0.049 A 
ATOM     63  H   UNL A   1      44.199  31.827  29.784  1.00  0.00     0.167 HD
ATOM     64  C   UNL A   1      42.507  33.865  30.786  1.00  0.00     0.074 A 
ATOM     65  C   UNL A   1      41.313  34.572  31.201  1.00  0.00     0.031 C 
ATOM     66  C   UNL A   1      43.761  34.378  30.855  1.00  0.00     0.037 A 
BRANCH  53  67
ATOM     67  C   UNL A   1      48.152  30.522  28.831  1.00  0.00     0.064 A 
ATOM     68  C   UNL A   1      48.782  30.873  27.627  1.00  0.00     0.173 A 
ATOM     69  C   UNL A   1      48.942  29.945  29.838  1.00  0.00     0.173 A 
ATOM     70  F   UNL A   1      48.072  31.412  26.625  1.00  0.00    -0.203 F 
ATOM     71  C   UNL A   1      50.140  30.631  27.430  1.00  0.00     0.198 A 
ATOM     72  C   UNL A   1      50.306  29.737  29.650  1.00  0.00     0.198 A 
ATOM     73  F   UNL A   1      48.394  29.591  31.010  1.00  0.00    -0.203 F 
ATOM     74  F   UNL A   1      50.708  30.927  26.252  1.00  0.00    -0.200 F 
ATOM     75  C   UNL A   1      50.903  30.071  28.445  1.00  0.00     0.200 A 
ATOM     76  F   UNL A   1      51.043  29.210  30.638  1.00  0.00    -0.200 F 
ATOM     77  F   UNL A   1      52.210  29.849  28.257  1.00  0.00    -0.200 F 
ENDBRANCH  53  67
BRANCH  54  78
ATOM     78  C   UNL A   1      38.347  31.693  30.379  1.00  0.00     0.064 A 
ATOM     79  C   UNL A   1      37.539  32.409  29.484  1.00  0.00     0.173 A 
ATOM     80  C   UNL A   1      37.741  31.181  31.536  1.00  0.00     0.173 A 
ATOM     81  F   UNL A   1      38.075  32.940  28.376  1.00  0.00    -0.203 F 
ATOM     82  C   UNL A   1      36.188  32.626  29.749  1.00  0.00     0.198 A 
ATOM     83  C   UNL A   1      36.382  31.367  31.781  1.00  0.00     0.198 A 
ATOM     84  F   UNL A   1      38.468  30.490  32.426  1.00  0.00    -0.203 F 
ATOM     85  F   UNL A   1      35.452  33.362  28.904  1.00  0.00    -0.200 F 
ATOM     86  C   UNL A   1      35.610  32.099  30.893  1.00  0.00     0.200 A 
ATOM     87  F   UNL A   1      35.823  30.841  32.879  1.00  0.00    -0.200 F 
ATOM     88  F   UNL A   1      34.309  32.303  31.144  1.00  0.00    -0.200 F 
ENDBRANCH  54  78
BRANCH  66  89
ATOM     89  C   UNL A   1      43.896  35.788  31.365  1.00  0.00     0.064 A 
ATOM     90  C   UNL A   1      43.844  36.897  30.506  1.00  0.00     0.173 A 
ATOM     91  C   UNL A   1      44.090  36.032  32.734  1.00  0.00     0.173 A 
ATOM     92  F   UNL A   1      43.669  36.723  29.188  1.00  0.00    -0.203 F 
ATOM     93  C   UNL A   1      44.039  38.189  30.990  1.00  0.00     0.198 A 
ATOM     94  C   UNL A   1      44.242  37.329  33.220  1.00  0.00     0.198 A 
ATOM     95  F   UNL A   1      44.134  35.012  33.605  1.00  0.00    -0.203 F 
ATOM     96  F   UNL A   1      44.069  39.224  30.138  1.00  0.00    -0.200 F 
ATOM     97  C   UNL A   1      44.235  38.404  32.346  1.00  0.00     0.200 A 
ATOM     98  F   UNL A   1      44.410  37.535  34.533  1.00  0.00    -0.200 F 
ATOM     99  F   UNL A   1      44.429  39.646  32.808  1.00  0.00    -0.200 F 
ENDBRANCH  66  89
ENDBRANCH  40  41
ENDBRANCH  33  35
ENDBRANCH  32  33
ENDBRANCH  31  32
ENDBRANCH  30  31
ENDBRANCH  29  30
ENDBRANCH  28  29
ENDBRANCH  27  28
ENDBRANCH  26  27
ENDBRANCH   1  26
TORSDOF 24
ENDMDL
MODEL 2
REMARK VINA RESULT:      -9.3      4.525      6.224
REMARK SMILES CC(=O)N[C@@H](Cc1cc(Br)c(O)c(Br)c1)C(=O)OCCOCCOCCOCCOC(=O)c1ccc(-c2c3nc(c(-c4c(F)c(F)c(F)c(F)c4F)c4ccc([nH]4)c(-c4c(F)c(F)c(F)c(F)c4F)c4nc(c(-c5c(F)c(F)c(F)c(F)c5F)c5ccc2[nH]5)C=C4)C=C3)cc1
REMARK SMILES IDX 23 1 22 2 21 3 20 4 19 5 18 6 16 7 17 8 5 9 4 10 1 11 2 12
REMARK SMILES IDX 3 13 6 15 7 16 8 17 15 18 9 19 13 20 10 21 11 22 14 23 12 24
REMARK SMILES IDX 24 26 25 27 26 28 27 29 28 30 29 31 30 32 31 33 32 34 33 35
REMARK SMILES IDX 34 36 95 37 35 38 94 39 36 40 37 41 38 42 88 43 39 44 93 45
REMARK SMILES IDX 87 46 89 47 40 48 92 49 86 50 85 51 41 53 73 54 53 55 72 56
REMARK SMILES IDX 54 57 57 58 71 59 90 60 55 61 56 62 70 64 91 65 58 66 42 67
REMARK SMILES IDX 43 68 51 69 44 70 45 71 49 72 52 73 46 74 47 75 50 76 48 77
REMARK SMILES IDX 74 78 75 79 83 80 76 81 77 82 81 83 84 84 78 85 79 86 82 87
REMARK SMILES IDX 80 88 59 89 60 90 68 91 61 92 62 93 66 94 69 95 63 96 64 97
REMARK SMILES IDX 67 98 65 99
REMARK H PARENT 4 14 12 25 89 52 57 63
REMARK Flexibility Score: inf
ROOT
ATOM      1  C   UNL A   1      42.981  19.060  26.086  1.00  0.00     0.188 C 
ENDROOT
BRANCH   1   2
ATOM      2  C   UNL A   1      42.363  20.465  26.229  1.00  0.00     0.188 C 
BRANCH   2   3
ATOM      3  O   UNL A   1      40.961  20.647  26.386  1.00  0.00    -0.376 OA
BRANCH   3   4
ATOM      4  C   UNL A   1      40.046  19.675  25.905  1.00  0.00     0.202 C 
BRANCH   4   5
ATOM      5  C   UNL A   1      38.689  20.111  25.334  1.00  0.00     0.261 C 
BRANCH   5   6
ATOM      6  O   UNL A   1      38.001  21.143  26.062  1.00  0.00    -0.462 OA
BRANCH   6   7
ATOM      7  C   UNL A   1      36.866  21.631  25.501  1.00  0.00     0.329 C 
ATOM      8  O   UNL A   1      36.027  20.942  24.930  1.00  0.00    -0.250 OA
BRANCH   7   9
ATOM      9  C   UNL A   1      36.806  23.174  25.488  1.00  0.00     0.196 C 
BRANCH   9  10
ATOM     10  N   UNL A   1      38.044  23.948  25.293  1.00  0.00    -0.343 N 
ATOM     11  C   UNL A   1      38.656  24.187  27.677  1.00  0.00     0.114 C 
ATOM     12  C   UNL A   1      38.886  24.490  26.222  1.00  0.00     0.217 C 
ATOM     13  O   UNL A   1      39.847  25.162  25.852  1.00  0.00    -0.275 OA
ATOM     14  H   UNL A   1      38.303  24.097  24.355  1.00  0.00     0.164 HD
ENDBRANCH   9  10
BRANCH   9  15
ATOM     15  C   UNL A   1      35.776  23.574  24.413  1.00  0.00     0.072 C 
BRANCH  15  16
ATOM     16  C   UNL A   1      34.484  24.134  24.983  1.00  0.00    -0.043 A 
ATOM     17  C   UNL A   1      34.371  25.494  25.313  1.00  0.00     0.023 A 
ATOM     18  C   UNL A   1      33.400  23.284  25.245  1.00  0.00     0.023 A 
ATOM     19  C   UNL A   1      33.214  25.981  25.927  1.00  0.00     0.061 A 
ATOM     20  C   UNL A   1      32.229  23.783  25.827  1.00  0.00     0.061 A 
ATOM     21  Br  UNL A   1      33.154  27.806  26.441  1.00  0.00    -0.047 Br
ATOM     22  C   UNL A   1      32.136  25.131  26.176  1.00  0.00     0.143 A 
ATOM     23  Br  UNL A   1      30.793  22.580  26.126  1.00  0.00    -0.047 Br
BRANCH  22  24
ATOM     24  O   UNL A   1      30.989  25.603  26.759  1.00  0.00    -0.506 OA
ATOM     25  H   UNL A   1      30.193  25.114  26.690  1.00  0.00     0.293 HD
ENDBRANCH  22  24
ENDBRANCH  15  16
ENDBRANCH   9  15
ENDBRANCH   7   9
ENDBRANCH   6   7
ENDBRANCH   5   6
ENDBRANCH   4   5
ENDBRANCH   3   4
ENDBRANCH   2   3
ENDBRANCH   1   2
BRANCH   1  26
ATOM     26  O   UNL A   1      44.395  19.011  26.091  1.00  0.00    -0.377 OA
BRANCH  26  27
ATOM     27  C   UNL A   1      44.996  18.443  24.937  1.00  0.00     0.188 C 
BRANCH  27  28
ATOM     28  C   UNL A   1      45.602  19.431  23.922  1.00  0.00     0.188 C 
BRANCH  28  29
ATOM     29  O   UNL A   1      44.753  20.531  23.616  1.00  0.00    -0.376 OA
BRANCH  29  30
ATOM     30  C   UNL A   1      45.200  21.850  23.897  1.00  0.00     0.202 C 
BRANCH  30  31
ATOM     31  C   UNL A   1      44.152  22.977  23.965  1.00  0.00     0.261 C 
BRANCH  31  32
ATOM     32  O   UNL A   1      43.890  23.529  25.265  1.00  0.00    -0.460 OA
BRANCH  32  33
ATOM     33  C   UNL A   1      44.511  24.676  25.593  1.00  0.00     0.338 C 
ATOM     34  O   UNL A   1      45.526  25.135  25.089  1.00  0.00    -0.246 OA
BRANCH  33  35
ATOM     35  C   UNL A   1      43.645  25.424  26.527  1.00  0.00     0.060 A 
ATOM     36  C   UNL A   1      43.770  26.817  26.576  1.00  0.00     0.016 A 
ATOM     37  C   UNL A   1      42.733  24.768  27.359  1.00  0.00     0.016 A 
ATOM     38  C   UNL A   1      43.034  27.553  27.500  1.00  0.00     0.010 A 
ATOM     39  C   UNL A   1      42.009  25.505  28.302  1.00  0.00     0.010 A 
ATOM     40  C   UNL A   1      42.194  26.895  28.407  1.00  0.00    -0.014 A 
BRANCH  40  41
ATOM     41  C   UNL A   1      41.683  27.657  29.572  1.00  0.00     0.031 A 
ATOM     42  C   UNL A   1      42.429  27.566  30.877  1.00  0.00     0.074 A 
ATOM     43  C   UNL A   1      40.636  28.492  29.449  1.00  0.00     0.049 A 
ATOM     44  N   UNL A   1      42.221  28.199  32.003  1.00  0.00    -0.248 NA
ATOM     45  C   UNL A   1      43.567  26.634  30.913  1.00  0.00     0.031 C 
ATOM     46  C   UNL A   1      39.858  28.693  28.229  1.00  0.00     0.029 A 
ATOM     47  N   UNL A   1      40.058  29.337  30.363  1.00  0.00    -0.354 N 
ATOM     48  C   UNL A   1      43.202  27.747  32.877  1.00  0.00     0.074 A 
ATOM     49  C   UNL A   1      43.978  26.754  32.167  1.00  0.00     0.031 C 
ATOM     50  C   UNL A   1      38.905  29.611  28.469  1.00  0.00     0.029 A 
ATOM     51  C   UNL A   1      38.991  30.040  29.864  1.00  0.00     0.049 A 
ATOM     52  H   UNL A   1      40.379  29.429  31.289  1.00  0.00     0.167 HD
ATOM     53  C   UNL A   1      43.443  28.135  34.152  1.00  0.00     0.037 A 
ATOM     54  C   UNL A   1      38.172  30.921  30.470  1.00  0.00     0.037 A 
ATOM     55  C   UNL A   1      42.663  29.118  34.859  1.00  0.00     0.049 A 
ATOM     56  C   UNL A   1      38.425  31.287  31.911  1.00  0.00     0.074 A 
ATOM     57  C   UNL A   1      42.831  29.589  36.150  1.00  0.00     0.029 A 
ATOM     58  N   UNL A   1      41.557  29.773  34.336  1.00  0.00    -0.354 N 
ATOM     59  N   UNL A   1      39.374  30.882  32.721  1.00  0.00    -0.248 NA
ATOM     60  C   UNL A   1      37.494  32.250  32.517  1.00  0.00     0.031 C 
ATOM     61  C   UNL A   1      41.789  30.480  36.429  1.00  0.00     0.029 A 
ATOM     62  C   UNL A   1      41.015  30.624  35.289  1.00  0.00     0.049 A 
ATOM     63  H   UNL A   1      41.208  29.653  33.423  1.00  0.00     0.167 HD
ATOM     64  C   UNL A   1      39.173  31.559  33.917  1.00  0.00     0.074 A 
ATOM     65  C   UNL A   1      38.029  32.423  33.716  1.00  0.00     0.031 C 
ATOM     66  C   UNL A   1      39.871  31.475  35.078  1.00  0.00     0.037 A 
BRANCH  53  67
ATOM     67  C   UNL A   1      44.578  27.468  34.877  1.00  0.00     0.064 A 
ATOM     68  C   UNL A   1      45.869  28.018  34.901  1.00  0.00     0.173 A 
ATOM     69  C   UNL A   1      44.364  26.274  35.582  1.00  0.00     0.173 A 
ATOM     70  F   UNL A   1      46.134  29.150  34.231  1.00  0.00    -0.203 F 
ATOM     71  C   UNL A   1      46.908  27.384  35.580  1.00  0.00     0.198 A 
ATOM     72  C   UNL A   1      45.396  25.661  36.288  1.00  0.00     0.198 A 
ATOM     73  F   UNL A   1      43.150  25.704  35.596  1.00  0.00    -0.203 F 
ATOM     74  F   UNL A   1      48.144  27.901  35.544  1.00  0.00    -0.200 F 
ATOM     75  C   UNL A   1      46.669  26.210  36.280  1.00  0.00     0.200 A 
ATOM     76  F   UNL A   1      45.159  24.535  36.976  1.00  0.00    -0.200 F 
ATOM     77  F   UNL A   1      47.666  25.608  36.939  1.00  0.00    -0.200 F 
ENDBRANCH  53  67
BRANCH  54  78
ATOM     78  C   UNL A   1      37.038  31.523  29.720  1.00  0.00     0.064 A 
ATOM     79  C   UNL A   1      35.943  30.749  29.308  1.00  0.00     0.173 A 
ATOM     80  C   UNL A   1      37.039  32.883  29.373  1.00  0.00     0.173 A 
ATOM     81  F   UNL A   1      35.905  29.439  29.592  1.00  0.00    -0.203 F 
ATOM     82  C   UNL A   1      34.908  31.306  28.558  1.00  0.00     0.198 A 
ATOM     83  C   UNL A   1      35.986  33.446  28.656  1.00  0.00     0.198 A 
ATOM     84  F   UNL A   1      38.062  33.668  29.741  1.00  0.00    -0.203 F 
ATOM     85  F   UNL A   1      33.903  30.530  28.130  1.00  0.00    -0.200 F 
ATOM     86  C   UNL A   1      34.928  32.654  28.239  1.00  0.00     0.200 A 
ATOM     87  F   UNL A   1      36.000  34.753  28.364  1.00  0.00    -0.200 F 
ATOM     88  F   UNL A   1      33.930  33.190  27.523  1.00  0.00    -0.200 F 
ENDBRANCH  54  78
BRANCH  66  89
ATOM     89  C   UNL A   1      39.435  32.372  36.205  1.00  0.00     0.064 A 
ATOM     90  C   UNL A   1      38.406  32.010  37.089  1.00  0.00     0.173 A 
ATOM     91  C   UNL A   1      40.052  33.619  36.398  1.00  0.00     0.173 A 
ATOM     92  F   UNL A   1      37.776  30.834  36.946  1.00  0.00    -0.203 F 
ATOM     93  C   UNL A   1      37.974  32.885  38.083  1.00  0.00     0.198 A 
ATOM     94  C   UNL A   1      39.645  34.473  37.421  1.00  0.00     0.198 A 
ATOM     95  F   UNL A   1      41.051  34.013  35.594  1.00  0.00    -0.203 F 
ATOM     96  F   UNL A   1      36.932  32.550  38.859  1.00  0.00    -0.200 F 
ATOM     97  C   UNL A   1      38.594  34.113  38.250  1.00  0.00     0.200 A 
ATOM     98  F   UNL A   1      40.260  35.650  37.593  1.00  0.00    -0.200 F 
ATOM     99  F   UNL A   1      38.171  34.956  39.202  1.00  0.00    -0.200 F 
ENDBRANCH  66  89
ENDBRANCH  40  41
ENDBRANCH  33  35
ENDBRANCH  32  33
ENDBRANCH  31  32
ENDBRANCH  30  31
ENDBRANCH  29  30
ENDBRANCH  28  29
ENDBRANCH  27  28
ENDBRANCH  26  27
ENDBRANCH   1  26
TORSDOF 24
ENDMDL
MODEL 3
REMARK VINA RESULT:      -9.1      2.724      4.214
REMARK SMILES CC(=O)N[C@@H](Cc1cc(Br)c(O)c(Br)c1)C(=O)OCCOCCOCCOCCOC(=O)c1ccc(-c2c3nc(c(-c4c(F)c(F)c(F)c(F)c4F)c4ccc([nH]4)c(-c4c(F)c(F)c(F)c(F)c4F)c4nc(c(-c5c(F)c(F)c(F)c(F)c5F)c5ccc2[nH]5)C=C4)C=C3)cc1
REMARK SMILES IDX 23 1 22 2 21 3 20 4 19 5 18 6 16 7 17 8 5 9 4 10 1 11 2 12
REMARK SMILES IDX 3 13 6 15 7 16 8 17 15 18 9 19 13 20 10 21 11 22 14 23 12 24
REMARK SMILES IDX 24 26 25 27 26 28 27 29 28 30 29 31 30 32 31 33 32 34 33 35
REMARK SMILES IDX 34 36 95 37 35 38 94 39 36 40 37 41 38 42 88 43 39 44 93 45
REMARK SMILES IDX 87 46 89 47 40 48 92 49 86 50 85 51 41 53 73 54 53 55 72 56
REMARK SMILES IDX 54 57 57 58 71 59 90 60 55 61 56 62 70 64 91 65 58 66 42 67
REMARK SMILES IDX 43 68 51 69 44 70 45 71 49 72 52 73 46 74 47 75 50 76 48 77
REMARK SMILES IDX 74 78 75 79 83 80 76 81 77 82 81 83 84 84 78 85 79 86 82 87
REMARK SMILES IDX 80 88 59 89 60 90 68 91 61 92 62 93 66 94 69 95 63 96 64 97
REMARK SMILES IDX 67 98 65 99
REMARK H PARENT 4 14 12 25 89 52 57 63
REMARK Flexibility Score: inf
ROOT
ATOM      1  C   UNL A   1      34.572  23.859  23.483  1.00  0.00     0.188 C 
ENDROOT
BRANCH   1   2
ATOM      2  C   UNL A   1      33.949  25.169  22.961  1.00  0.00     0.188 C 
BRANCH   2   3
ATOM      3  O   UNL A   1      33.702  25.373  21.575  1.00  0.00    -0.376 OA
BRANCH   3   4
ATOM      4  C   UNL A   1      32.382  25.572  21.097  1.00  0.00     0.202 C 
BRANCH   4   5
ATOM      5  C   UNL A   1      31.341  26.278  21.978  1.00  0.00     0.261 C 
BRANCH   5   6
ATOM      6  O   UNL A   1      31.419  27.714  22.017  1.00  0.00    -0.462 OA
BRANCH   6   7
ATOM      7  C   UNL A   1      30.309  28.373  22.434  1.00  0.00     0.329 C 
ATOM      8  O   UNL A   1      29.195  27.866  22.517  1.00  0.00    -0.250 OA
BRANCH   7   9
ATOM      9  C   UNL A   1      30.536  29.887  22.631  1.00  0.00     0.196 C 
BRANCH   9  10
ATOM     10  N   UNL A   1      29.896  30.844  21.711  1.00  0.00    -0.343 N 
ATOM     11  C   UNL A   1      27.714  30.995  22.865  1.00  0.00     0.114 C 
ATOM     12  C   UNL A   1      28.621  31.334  21.714  1.00  0.00     0.217 C 
ATOM     13  O   UNL A   1      28.258  32.088  20.813  1.00  0.00    -0.275 OA
ATOM     14  H   UNL A   1      30.473  31.182  20.989  1.00  0.00     0.164 HD
ENDBRANCH   9  10
BRANCH   9  15
ATOM     15  C   UNL A   1      30.126  30.219  24.080  1.00  0.00     0.072 C 
BRANCH  15  16
ATOM     16  C   UNL A   1      31.156  29.801  25.117  1.00  0.00    -0.043 A 
ATOM     17  C   UNL A   1      31.797  30.757  25.921  1.00  0.00     0.023 A 
ATOM     18  C   UNL A   1      31.526  28.455  25.243  1.00  0.00     0.023 A 
ATOM     19  C   UNL A   1      32.812  30.375  26.803  1.00  0.00     0.061 A 
ATOM     20  C   UNL A   1      32.518  28.072  26.153  1.00  0.00     0.061 A 
ATOM     21  Br  UNL A   1      33.713  31.720  27.792  1.00  0.00    -0.047 Br
ATOM     22  C   UNL A   1      33.169  29.032  26.930  1.00  0.00     0.143 A 
ATOM     23  Br  UNL A   1      32.946  26.229  26.291  1.00  0.00    -0.047 Br
BRANCH  22  24
ATOM     24  O   UNL A   1      34.148  28.645  27.806  1.00  0.00    -0.506 OA
ATOM     25  H   UNL A   1      35.036  28.907  27.661  1.00  0.00     0.293 HD
ENDBRANCH  22  24
ENDBRANCH  15  16
ENDBRANCH   9  15
ENDBRANCH   7   9
ENDBRANCH   6   7
ENDBRANCH   5   6
ENDBRANCH   4   5
ENDBRANCH   3   4
ENDBRANCH   2   3
ENDBRANCH   1   2
BRANCH   1  26
ATOM     26  O   UNL A   1      35.676  23.370  22.747  1.00  0.00    -0.377 OA
BRANCH  26  27
ATOM     27  C   UNL A   1      36.510  22.444  23.426  1.00  0.00     0.188 C 
BRANCH  27  28
ATOM     28  C   UNL A   1      35.821  21.528  24.455  1.00  0.00     0.188 C 
BRANCH  28  29
ATOM     29  O   UNL A   1      36.709  20.980  25.423  1.00  0.00    -0.376 OA
BRANCH  29  30
ATOM     30  C   UNL A   1      38.110  21.063  25.202  1.00  0.00     0.202 C 
BRANCH  30  31
ATOM     31  C   UNL A   1      38.973  21.790  26.250  1.00  0.00     0.261 C 
BRANCH  31  32
ATOM     32  O   UNL A   1      39.335  23.147  25.950  1.00  0.00    -0.460 OA
BRANCH  32  33
ATOM     33  C   UNL A   1      38.463  24.115  26.283  1.00  0.00     0.338 C 
ATOM     34  O   UNL A   1      37.259  24.126  26.074  1.00  0.00    -0.246 OA
BRANCH  33  35
ATOM     35  C   UNL A   1      39.156  25.090  27.150  1.00  0.00     0.060 A 
ATOM     36  C   UNL A   1      38.896  25.057  28.525  1.00  0.00     0.016 A 
ATOM     37  C   UNL A   1      40.037  26.038  26.621  1.00  0.00     0.016 A 
ATOM     38  C   UNL A   1      39.462  26.010  29.366  1.00  0.00     0.010 A 
ATOM     39  C   UNL A   1      40.589  27.009  27.463  1.00  0.00     0.010 A 
ATOM     40  C   UNL A   1      40.265  27.026  28.831  1.00  0.00    -0.014 A 
BRANCH  40  41
ATOM     41  C   UNL A   1      40.581  28.196  29.686  1.00  0.00     0.031 A 
ATOM     42  C   UNL A   1      41.970  28.321  30.253  1.00  0.00     0.074 A 
ATOM     43  C   UNL A   1      39.683  29.179  29.874  1.00  0.00     0.049 A 
ATOM     44  N   UNL A   1      42.500  29.289  30.956  1.00  0.00    -0.248 NA
ATOM     45  C   UNL A   1      42.887  27.201  29.985  1.00  0.00     0.031 C 
ATOM     46  C   UNL A   1      38.321  29.188  29.347  1.00  0.00     0.029 A 
ATOM     47  N   UNL A   1      39.791  30.367  30.554  1.00  0.00    -0.354 N 
ATOM     48  C   UNL A   1      43.809  28.897  31.210  1.00  0.00     0.074 A 
ATOM     49  C   UNL A   1      43.981  27.586  30.624  1.00  0.00     0.031 C 
ATOM     50  C   UNL A   1      37.720  30.332  29.717  1.00  0.00     0.029 A 
ATOM     51  C   UNL A   1      38.646  31.121  30.528  1.00  0.00     0.049 A 
ATOM     52  H   UNL A   1      40.614  30.650  31.015  1.00  0.00     0.167 HD
ATOM     53  C   UNL A   1      44.784  29.576  31.861  1.00  0.00     0.037 A 
ATOM     54  C   UNL A   1      38.376  32.309  31.103  1.00  0.00     0.037 A 
ATOM     55  C   UNL A   1      44.607  30.878  32.451  1.00  0.00     0.049 A 
ATOM     56  C   UNL A   1      39.462  33.013  31.878  1.00  0.00     0.074 A 
ATOM     57  C   UNL A   1      45.534  31.656  33.122  1.00  0.00     0.029 A 
ATOM     58  N   UNL A   1      43.416  31.591  32.447  1.00  0.00    -0.354 N 
ATOM     59  N   UNL A   1      40.706  32.654  32.085  1.00  0.00    -0.248 NA
ATOM     60  C   UNL A   1      39.104  34.303  32.486  1.00  0.00     0.031 C 
ATOM     61  C   UNL A   1      44.887  32.808  33.582  1.00  0.00     0.029 A 
ATOM     62  C   UNL A   1      43.577  32.787  33.132  1.00  0.00     0.049 A 
ATOM     63  H   UNL A   1      42.580  31.292  32.022  1.00  0.00     0.167 HD
ATOM     64  C   UNL A   1      41.285  33.681  32.819  1.00  0.00     0.074 A 
ATOM     65  C   UNL A   1      40.263  34.691  32.995  1.00  0.00     0.031 C 
ATOM     66  C   UNL A   1      42.548  33.781  33.305  1.00  0.00     0.037 A 
BRANCH  53  67
ATOM     67  C   UNL A   1      46.122  28.906  31.999  1.00  0.00     0.064 A 
ATOM     68  C   UNL A   1      46.432  28.084  33.094  1.00  0.00     0.173 A 
ATOM     69  C   UNL A   1      47.100  29.065  31.005  1.00  0.00     0.173 A 
ATOM     70  F   UNL A   1      45.540  27.909  34.081  1.00  0.00    -0.203 F 
ATOM     71  C   UNL A   1      47.678  27.471  33.202  1.00  0.00     0.198 A 
ATOM     72  C   UNL A   1      48.332  28.423  31.099  1.00  0.00     0.198 A 
ATOM     73  F   UNL A   1      46.858  29.837  29.934  1.00  0.00    -0.203 F 
ATOM     74  F   UNL A   1      47.970  26.735  34.284  1.00  0.00    -0.200 F 
ATOM     75  C   UNL A   1      48.624  27.634  32.200  1.00  0.00     0.200 A 
ATOM     76  F   UNL A   1      49.238  28.570  30.122  1.00  0.00    -0.200 F 
ATOM     77  F   UNL A   1      49.818  27.037  32.302  1.00  0.00    -0.200 F 
ENDBRANCH  53  67
BRANCH  54  78
ATOM     78  C   UNL A   1      37.023  32.912  30.971  1.00  0.00     0.064 A 
ATOM     79  C   UNL A   1      36.669  33.669  29.845  1.00  0.00     0.173 A 
ATOM     80  C   UNL A   1      36.063  32.765  31.984  1.00  0.00     0.173 A 
ATOM     81  F   UNL A   1      37.558  33.860  28.860  1.00  0.00    -0.203 F 
ATOM     82  C   UNL A   1      35.419  34.278  29.750  1.00  0.00     0.198 A 
ATOM     83  C   UNL A   1      34.801  33.343  31.871  1.00  0.00     0.198 A 
ATOM     84  F   UNL A   1      36.349  32.051  33.082  1.00  0.00    -0.203 F 
ATOM     85  F   UNL A   1      35.128  35.044  28.689  1.00  0.00    -0.200 F 
ATOM     86  C   UNL A   1      34.484  34.109  30.759  1.00  0.00     0.200 A 
ATOM     87  F   UNL A   1      33.894  33.163  32.840  1.00  0.00    -0.200 F 
ATOM     88  F   UNL A   1      33.280  34.690  30.665  1.00  0.00    -0.200 F 
ENDBRANCH  54  78
BRANCH  66  89
ATOM     89  C   UNL A   1      42.901  35.048  34.039  1.00  0.00     0.064 A 
ATOM     90  C   UNL A   1      42.828  35.141  35.438  1.00  0.00     0.173 A 
ATOM     91  C   UNL A   1      43.309  36.189  33.330  1.00  0.00     0.173 A 
ATOM     92  F   UNL A   1      42.436  34.084  36.166  1.00  0.00    -0.203 F 
ATOM     93  C   UNL A   1      43.093  36.342  36.091  1.00  0.00     0.198 A 
ATOM     94  C   UNL A   1      43.615  37.376  33.991  1.00  0.00     0.198 A 
ATOM     95  F   UNL A   1      43.411  36.155  31.993  1.00  0.00    -0.203 F 
ATOM     96  F   UNL A   1      42.934  36.428  37.420  1.00  0.00    -0.200 F 
ATOM     97  C   UNL A   1      43.489  37.457  35.369  1.00  0.00     0.200 A 
ATOM     98  F   UNL A   1      44.017  38.446  33.292  1.00  0.00    -0.200 F 
ATOM     99  F   UNL A   1      43.737  38.614  35.999  1.00  0.00    -0.200 F 
ENDBRANCH  66  89
ENDBRANCH  40  41
ENDBRANCH  33  35
ENDBRANCH  32  33
ENDBRANCH  31  32
ENDBRANCH  30  31
ENDBRANCH  29  30
ENDBRANCH  28  29
ENDBRANCH  27  28
ENDBRANCH  26  27
ENDBRANCH   1  26
TORSDOF 24
ENDMDL
