MODEL 1
REMARK VINA RESULT:      -8.6      0.000      0.000
REMARK SMILES Cc1oc(-c2ccc(Cl)cc2[N+](=O)[O-])cc1C(=O)Nc1ccc(C(=O)OCCOCCOCCOCCOC(=O)c2ccc(-c3c4nc(c(-c5c(F)c(F)c(F)c(F)c5F)c5ccc([nH]5)c(-c5c(F)c(F)c(F)c(F)c5F)c5nc(c(-c6c(F)c(F)c(F)c(F)c6F)c6ccc3[nH]6)C=C5)C=C4)cc2)cc1
REMARK SMILES IDX 31 1 30 2 29 3 28 4 27 5 26 6 24 7 25 8 23 9 20 10 21 11
REMARK SMILES IDX 105 12 22 13 104 14 19 15 17 16 18 17 16 19 1 20 2 21 3 22
REMARK SMILES IDX 4 23 15 24 5 25 6 26 11 27 7 28 10 29 8 30 9 31 12 32 13 33
REMARK SMILES IDX 14 34 32 35 33 36 34 37 35 38 36 39 37 40 38 41 39 42 40 43
REMARK SMILES IDX 41 44 42 45 103 46 43 47 102 48 44 49 45 50 46 51 96 52
REMARK SMILES IDX 47 53 101 54 95 55 97 56 48 57 100 58 94 59 93 60 49 62
REMARK SMILES IDX 81 63 61 64 80 65 62 66 65 67 79 68 98 69 63 70 64 71 78 73
REMARK SMILES IDX 99 74 66 75 50 76 51 77 59 78 52 79 53 80 57 81 60 82 54 83
REMARK SMILES IDX 55 84 58 85 56 86 82 87 83 88 91 89 84 90 85 91 89 92 92 93
REMARK SMILES IDX 86 94 87 95 90 96 88 97 67 98 68 99 76 100 69 101 70 102
REMARK SMILES IDX 74 103 77 104 71 105 72 106 75 107 73 108
REMARK H PARENT 19 18 97 61 65 72
REMARK Flexibility Score: inf
ROOT
ATOM      1  C   UNL A   1      33.657  34.611  28.724  1.00  0.00     0.188 C 
ENDROOT
BRANCH   1   2
ATOM      2  C   UNL A   1      34.534  33.412  29.135  1.00  0.00     0.188 C 
BRANCH   2   3
ATOM      3  O   UNL A   1      34.430  32.250  28.340  1.00  0.00    -0.376 OA
BRANCH   3   4
ATOM      4  C   UNL A   1      35.530  31.441  27.961  1.00  0.00     0.202 C 
BRANCH   4   5
ATOM      5  C   UNL A   1      36.959  31.459  28.538  1.00  0.00     0.261 C 
BRANCH   5   6
ATOM      6  O   UNL A   1      37.908  30.582  27.956  1.00  0.00    -0.460 OA
BRANCH   6   7
ATOM      7  C   UNL A   1      38.349  29.608  28.769  1.00  0.00     0.338 C 
ATOM      8  O   UNL A   1      37.732  29.064  29.669  1.00  0.00    -0.246 OA
BRANCH   7   9
ATOM      9  C   UNL A   1      39.679  29.156  28.308  1.00  0.00     0.060 A 
ATOM     10  C   UNL A   1      42.206  29.061  27.266  1.00  0.00     0.041 A 
ATOM     11  C   UNL A   1      42.059  29.337  28.626  1.00  0.00     0.027 A 
ATOM     12  C   UNL A   1      41.149  28.544  26.514  1.00  0.00     0.027 A 
ATOM     13  C   UNL A   1      40.774  29.435  29.137  1.00  0.00     0.018 A 
ATOM     14  C   UNL A   1      39.866  28.572  27.049  1.00  0.00     0.018 A 
BRANCH  10  15
ATOM     15  N   UNL A   1      43.379  29.505  26.669  1.00  0.00    -0.322 N 
ATOM     16  C   UNL A   1      44.555  28.816  26.449  1.00  0.00     0.259 C 
ATOM     17  O   UNL A   1      45.500  29.478  26.012  1.00  0.00    -0.269 OA
ATOM     18  H   UNL A   1      43.372  30.439  26.360  1.00  0.00     0.170 HD
BRANCH  16  19
ATOM     19  C   UNL A   1      44.715  27.368  26.652  1.00  0.00     0.081 A 
ATOM     20  C   UNL A   1      43.980  26.559  29.116  1.00  0.00     0.088 C 
ATOM     21  C   UNL A   1      44.508  26.520  27.740  1.00  0.00     0.114 A 
ATOM     22  O   UNL A   1      44.797  25.240  27.402  1.00  0.00    -0.460 OA
ATOM     23  C   UNL A   1      44.920  25.180  26.063  1.00  0.00     0.142 A 
ATOM     24  C   UNL A   1      44.955  26.456  25.555  1.00  0.00     0.065 A 
BRANCH  23  25
ATOM     25  C   UNL A   1      44.945  23.828  25.545  1.00  0.00     0.095 A 
ATOM     26  C   UNL A   1      46.151  23.311  25.056  1.00  0.00     0.021 A 
ATOM     27  C   UNL A   1      43.816  22.980  25.560  1.00  0.00     0.281 A 
ATOM     28  C   UNL A   1      46.228  21.984  24.620  1.00  0.00     0.022 A 
ATOM     29  C   UNL A   1      43.888  21.649  25.129  1.00  0.00     0.107 A 
ATOM     30  C   UNL A   1      45.103  21.162  24.663  1.00  0.00     0.047 A 
ATOM     31  Cl  UNL A   1      45.215  19.531  24.133  1.00  0.00    -0.084 Cl
BRANCH  27  32
ATOM     32  N   UNL A   1      42.502  23.453  25.995  1.00  0.00     0.063 N 
ATOM     33  O   UNL A   1      42.035  24.435  25.399  1.00  0.00    -0.258 OA
ATOM     34  O   UNL A   1      41.983  22.900  26.975  1.00  0.00    -0.258 OA
ENDBRANCH  27  32
ENDBRANCH  23  25
ENDBRANCH  16  19
ENDBRANCH  10  15
ENDBRANCH   7   9
ENDBRANCH   6   7
ENDBRANCH   5   6
ENDBRANCH   4   5
ENDBRANCH   3   4
ENDBRANCH   2   3
ENDBRANCH   1   2
BRANCH   1  35
ATOM     35  O   UNL A   1      32.669  34.977  29.668  1.00  0.00    -0.377 OA
BRANCH  35  36
ATOM     36  C   UNL A   1      32.998  35.971  30.632  1.00  0.00     0.188 C 
BRANCH  36  37
ATOM     37  C   UNL A   1      33.463  35.604  32.063  1.00  0.00     0.188 C 
BRANCH  37  38
ATOM     38  O   UNL A   1      33.488  34.217  32.364  1.00  0.00    -0.376 OA
BRANCH  38  39
ATOM     39  C   UNL A   1      34.366  33.739  33.369  1.00  0.00     0.202 C 
BRANCH  39  40
ATOM     40  C   UNL A   1      35.482  32.775  32.933  1.00  0.00     0.261 C 
BRANCH  40  41
ATOM     41  O   UNL A   1      36.552  32.600  33.873  1.00  0.00    -0.460 OA
BRANCH  41  42
ATOM     42  C   UNL A   1      37.605  33.430  33.750  1.00  0.00     0.338 C 
ATOM     43  O   UNL A   1      37.638  34.626  34.004  1.00  0.00    -0.246 OA
BRANCH  42  44
ATOM     44  C   UNL A   1      38.798  32.623  33.435  1.00  0.00     0.060 A 
ATOM     45  C   UNL A   1      39.983  32.886  34.133  1.00  0.00     0.016 A 
ATOM     46  C   UNL A   1      38.756  31.636  32.448  1.00  0.00     0.016 A 
ATOM     47  C   UNL A   1      41.150  32.207  33.797  1.00  0.00     0.010 A 
ATOM     48  C   UNL A   1      39.933  30.968  32.099  1.00  0.00     0.010 A 
ATOM     49  C   UNL A   1      41.144  31.292  32.738  1.00  0.00    -0.014 A 
BRANCH  49  50
ATOM     50  C   UNL A   1      42.441  30.864  32.162  1.00  0.00     0.031 A 
ATOM     51  C   UNL A   1      43.016  29.546  32.603  1.00  0.00     0.074 A 
ATOM     52  C   UNL A   1      43.052  31.584  31.207  1.00  0.00     0.049 A 
ATOM     53  N   UNL A   1      44.101  28.932  32.203  1.00  0.00    -0.248 NA
ATOM     54  C   UNL A   1      42.260  28.819  33.636  1.00  0.00     0.031 C 
ATOM     55  C   UNL A   1      42.566  32.849  30.663  1.00  0.00     0.029 A 
ATOM     56  N   UNL A   1      44.212  31.341  30.517  1.00  0.00    -0.354 N 
ATOM     57  C   UNL A   1      44.155  27.750  32.933  1.00  0.00     0.074 A 
ATOM     58  C   UNL A   1      43.024  27.757  33.834  1.00  0.00     0.031 C 
ATOM     59  C   UNL A   1      43.418  33.268  29.713  1.00  0.00     0.029 A 
ATOM     60  C   UNL A   1      44.522  32.316  29.603  1.00  0.00     0.049 A 
ATOM     61  H   UNL A   1      44.770  30.543  30.664  1.00  0.00     0.167 HD
ATOM     62  C   UNL A   1      45.054  26.742  32.847  1.00  0.00     0.037 A 
ATOM     63  C   UNL A   1      45.582  32.425  28.778  1.00  0.00     0.037 A 
ATOM     64  C   UNL A   1      46.186  26.747  31.957  1.00  0.00     0.049 A 
ATOM     65  C   UNL A   1      46.624  31.335  28.767  1.00  0.00     0.074 A 
ATOM     66  C   UNL A   1      47.158  25.778  31.791  1.00  0.00     0.029 A 
ATOM     67  N   UNL A   1      46.503  27.785  31.091  1.00  0.00    -0.354 N 
ATOM     68  N   UNL A   1      46.658  30.211  29.440  1.00  0.00    -0.248 NA
ATOM     69  C   UNL A   1      47.773  31.529  27.871  1.00  0.00     0.031 C 
ATOM     70  C   UNL A   1      48.100  26.256  30.873  1.00  0.00     0.029 A 
ATOM     71  C   UNL A   1      47.673  27.493  30.410  1.00  0.00     0.049 A 
ATOM     72  H   UNL A   1      45.974  28.607  30.978  1.00  0.00     0.167 HD
ATOM     73  C   UNL A   1      47.805  29.546  29.022  1.00  0.00     0.074 A 
ATOM     74  C   UNL A   1      48.436  30.393  28.032  1.00  0.00     0.031 C 
ATOM     75  C   UNL A   1      48.287  28.341  29.418  1.00  0.00     0.037 A 
BRANCH  62  76
ATOM     76  C   UNL A   1      44.865  25.572  33.772  1.00  0.00     0.064 A 
ATOM     77  C   UNL A   1      45.239  25.626  35.125  1.00  0.00     0.173 A 
ATOM     78  C   UNL A   1      44.310  24.375  33.296  1.00  0.00     0.173 A 
ATOM     79  F   UNL A   1      45.789  26.741  35.629  1.00  0.00    -0.203 F 
ATOM     80  C   UNL A   1      45.106  24.513  35.952  1.00  0.00     0.198 A 
ATOM     81  C   UNL A   1      44.143  23.276  34.136  1.00  0.00     0.198 A 
ATOM     82  F   UNL A   1      43.931  24.266  32.014  1.00  0.00    -0.203 F 
ATOM     83  F   UNL A   1      45.537  24.567  37.220  1.00  0.00    -0.200 F 
ATOM     84  C   UNL A   1      44.553  23.342  35.458  1.00  0.00     0.200 A 
ATOM     85  F   UNL A   1      43.595  22.150  33.660  1.00  0.00    -0.200 F 
ATOM     86  F   UNL A   1      44.428  22.270  36.254  1.00  0.00    -0.200 F 
ENDBRANCH  62  76
BRANCH  63  87
ATOM     87  C   UNL A   1      45.702  33.604  27.880  1.00  0.00     0.064 A 
ATOM     88  C   UNL A   1      45.191  33.572  26.575  1.00  0.00     0.173 A 
ATOM     89  C   UNL A   1      46.330  34.784  28.306  1.00  0.00     0.173 A 
ATOM     90  F   UNL A   1      44.603  32.458  26.112  1.00  0.00    -0.203 F 
ATOM     91  C   UNL A   1      45.315  34.670  25.726  1.00  0.00     0.198 A 
ATOM     92  C   UNL A   1      46.426  35.891  27.466  1.00  0.00     0.198 A 
ATOM     93  F   UNL A   1      46.837  34.865  29.544  1.00  0.00    -0.203 F 
ATOM     94  F   UNL A   1      44.855  34.598  24.470  1.00  0.00    -0.200 F 
ATOM     95  C   UNL A   1      45.925  35.831  26.175  1.00  0.00     0.200 A 
ATOM     96  F   UNL A   1      47.005  37.016  27.909  1.00  0.00    -0.200 F 
ATOM     97  F   UNL A   1      46.036  36.890  25.361  1.00  0.00    -0.200 F 
ENDBRANCH  63  87
BRANCH  75  98
ATOM     98  C   UNL A   1      49.531  27.835  28.741  1.00  0.00     0.064 A 
ATOM     99  C   UNL A   1      49.481  27.047  27.582  1.00  0.00     0.173 A 
ATOM    100  C   UNL A   1      50.797  28.182  29.241  1.00  0.00     0.173 A 
ATOM    101  F   UNL A   1      48.299  26.676  27.068  1.00  0.00    -0.203 F 
ATOM    102  C   UNL A   1      50.649  26.597  26.970  1.00  0.00     0.198 A 
ATOM    103  C   UNL A   1      51.962  27.762  28.605  1.00  0.00     0.198 A 
ATOM    104  F   UNL A   1      50.905  28.943  30.341  1.00  0.00    -0.203 F 
ATOM    105  F   UNL A   1      50.575  25.797  25.897  1.00  0.00    -0.200 F 
ATOM    106  C   UNL A   1      51.887  26.961  27.477  1.00  0.00     0.200 A 
ATOM    107  F   UNL A   1      53.157  28.133  29.087  1.00  0.00    -0.200 F 
ATOM    108  F   UNL A   1      53.010  26.534  26.882  1.00  0.00    -0.200 F 
ENDBRANCH  75  98
ENDBRANCH  49  50
ENDBRANCH  42  44
ENDBRANCH  41  42
ENDBRANCH  40  41
ENDBRANCH  39  40
ENDBRANCH  38  39
ENDBRANCH  37  38
ENDBRANCH  36  37
ENDBRANCH  35  36
ENDBRANCH   1  35
TORSDOF 24
ENDMDL
MODEL 2
REMARK VINA RESULT:      -8.2      6.370     11.240
REMARK SMILES Cc1oc(-c2ccc(Cl)cc2[N+](=O)[O-])cc1C(=O)Nc1ccc(C(=O)OCCOCCOCCOCCOC(=O)c2ccc(-c3c4nc(c(-c5c(F)c(F)c(F)c(F)c5F)c5ccc([nH]5)c(-c5c(F)c(F)c(F)c(F)c5F)c5nc(c(-c6c(F)c(F)c(F)c(F)c6F)c6ccc3[nH]6)C=C5)C=C4)cc2)cc1
REMARK SMILES IDX 31 1 30 2 29 3 28 4 27 5 26 6 24 7 25 8 23 9 20 10 21 11
REMARK SMILES IDX 105 12 22 13 104 14 19 15 17 16 18 17 16 19 1 20 2 21 3 22
REMARK SMILES IDX 4 23 15 24 5 25 6 26 11 27 7 28 10 29 8 30 9 31 12 32 13 33
REMARK SMILES IDX 14 34 32 35 33 36 34 37 35 38 36 39 37 40 38 41 39 42 40 43
REMARK SMILES IDX 41 44 42 45 103 46 43 47 102 48 44 49 45 50 46 51 96 52
REMARK SMILES IDX 47 53 101 54 95 55 97 56 48 57 100 58 94 59 93 60 49 62
REMARK SMILES IDX 81 63 61 64 80 65 62 66 65 67 79 68 98 69 63 70 64 71 78 73
REMARK SMILES IDX 99 74 66 75 50 76 51 77 59 78 52 79 53 80 57 81 60 82 54 83
REMARK SMILES IDX 55 84 58 85 56 86 82 87 83 88 91 89 84 90 85 91 89 92 92 93
REMARK SMILES IDX 86 94 87 95 90 96 88 97 67 98 68 99 76 100 69 101 70 102
REMARK SMILES IDX 74 103 77 104 71 105 72 106 75 107 73 108
REMARK H PARENT 19 18 97 61 65 72
REMARK Flexibility Score: inf
ROOT
ATOM      1  C   UNL A   1      39.176  28.018  29.046  1.00  0.00     0.188 C 
ENDROOT
BRANCH   1   2
ATOM      2  C   UNL A   1      39.510  27.896  27.546  1.00  0.00     0.188 C 
BRANCH   2   3
ATOM      3  O   UNL A   1      40.258  26.765  27.154  1.00  0.00    -0.376 OA
BRANCH   3   4
ATOM      4  C   UNL A   1      40.230  25.517  27.825  1.00  0.00     0.202 C 
BRANCH   4   5
ATOM      5  C   UNL A   1      39.144  24.426  27.744  1.00  0.00     0.261 C 
BRANCH   5   6
ATOM      6  O   UNL A   1      38.342  24.390  26.577  1.00  0.00    -0.460 OA
BRANCH   6   7
ATOM      7  C   UNL A   1      38.108  23.159  26.091  1.00  0.00     0.338 C 
ATOM      8  O   UNL A   1      38.867  22.204  26.107  1.00  0.00    -0.246 OA
BRANCH   7   9
ATOM      9  C   UNL A   1      36.698  23.067  25.658  1.00  0.00     0.060 A 
ATOM     10  C   UNL A   1      34.398  22.450  24.314  1.00  0.00     0.041 A 
ATOM     11  C   UNL A   1      34.803  21.613  25.354  1.00  0.00     0.027 A 
ATOM     12  C   UNL A   1      34.951  23.721  24.150  1.00  0.00     0.027 A 
ATOM     13  C   UNL A   1      35.998  21.902  25.997  1.00  0.00     0.018 A 
ATOM     14  C   UNL A   1      36.109  24.046  24.847  1.00  0.00     0.018 A 
BRANCH  10  15
ATOM     15  N   UNL A   1      33.571  21.883  23.352  1.00  0.00    -0.322 N 
ATOM     16  C   UNL A   1      32.260  22.189  23.045  1.00  0.00     0.259 C 
ATOM     17  O   UNL A   1      31.705  21.449  22.229  1.00  0.00    -0.269 OA
ATOM     18  H   UNL A   1      33.975  21.164  22.815  1.00  0.00     0.170 HD
BRANCH  16  19
ATOM     19  C   UNL A   1      31.534  23.350  23.585  1.00  0.00     0.081 A 
ATOM     20  C   UNL A   1      30.904  23.083  26.192  1.00  0.00     0.088 C 
ATOM     21  C   UNL A   1      30.984  23.645  24.831  1.00  0.00     0.114 A 
ATOM     22  O   UNL A   1      30.420  24.878  24.818  1.00  0.00    -0.460 OA
ATOM     23  C   UNL A   1      30.821  25.507  23.698  1.00  0.00     0.142 A 
ATOM     24  C   UNL A   1      31.441  24.603  22.869  1.00  0.00     0.065 A 
BRANCH  23  25
ATOM     25  C   UNL A   1      30.528  26.926  23.694  1.00  0.00     0.095 A 
ATOM     26  C   UNL A   1      29.380  27.379  23.034  1.00  0.00     0.021 A 
ATOM     27  C   UNL A   1      31.320  27.874  24.378  1.00  0.00     0.281 A 
ATOM     28  C   UNL A   1      29.025  28.732  23.077  1.00  0.00     0.022 A 
ATOM     29  C   UNL A   1      30.968  29.229  24.429  1.00  0.00     0.107 A 
ATOM     30  C   UNL A   1      29.815  29.645  23.775  1.00  0.00     0.047 A 
ATOM     31  Cl  UNL A   1      29.362  31.302  23.828  1.00  0.00    -0.084 Cl
BRANCH  27  32
ATOM     32  N   UNL A   1      32.569  27.501  25.043  1.00  0.00     0.063 N 
ATOM     33  O   UNL A   1      32.500  27.235  26.252  1.00  0.00    -0.258 OA
ATOM     34  O   UNL A   1      33.615  27.556  24.383  1.00  0.00    -0.258 OA
ENDBRANCH  27  32
ENDBRANCH  23  25
ENDBRANCH  16  19
ENDBRANCH  10  15
ENDBRANCH   7   9
ENDBRANCH   6   7
ENDBRANCH   5   6
ENDBRANCH   4   5
ENDBRANCH   3   4
ENDBRANCH   2   3
ENDBRANCH   1   2
BRANCH   1  35
ATOM     35  O   UNL A   1      38.999  29.342  29.509  1.00  0.00    -0.377 OA
BRANCH  35  36
ATOM     36  C   UNL A   1      37.755  29.683  30.111  1.00  0.00     0.188 C 
BRANCH  36  37
ATOM     37  C   UNL A   1      36.448  29.787  29.288  1.00  0.00     0.188 C 
BRANCH  37  38
ATOM     38  O   UNL A   1      36.500  30.643  28.158  1.00  0.00    -0.376 OA
BRANCH  38  39
ATOM     39  C   UNL A   1      35.751  31.847  28.160  1.00  0.00     0.202 C 
BRANCH  39  40
ATOM     40  C   UNL A   1      34.930  32.167  29.420  1.00  0.00     0.261 C 
BRANCH  40  41
ATOM     41  O   UNL A   1      35.431  33.239  30.230  1.00  0.00    -0.460 OA
BRANCH  41  42
ATOM     42  C   UNL A   1      35.267  33.118  31.561  1.00  0.00     0.338 C 
ATOM     43  O   UNL A   1      34.235  33.285  32.197  1.00  0.00    -0.246 OA
BRANCH  42  44
ATOM     44  C   UNL A   1      36.502  32.551  32.133  1.00  0.00     0.060 A 
ATOM     45  C   UNL A   1      36.388  31.572  33.126  1.00  0.00     0.016 A 
ATOM     46  C   UNL A   1      37.757  32.997  31.711  1.00  0.00     0.016 A 
ATOM     47  C   UNL A   1      37.531  31.083  33.752  1.00  0.00     0.010 A 
ATOM     48  C   UNL A   1      38.903  32.519  32.353  1.00  0.00     0.010 A 
ATOM     49  C   UNL A   1      38.787  31.599  33.411  1.00  0.00    -0.014 A 
BRANCH  49  50
ATOM     50  C   UNL A   1      39.929  31.347  34.322  1.00  0.00     0.031 A 
ATOM     51  C   UNL A   1      40.197  32.341  35.419  1.00  0.00     0.074 A 
ATOM     52  C   UNL A   1      40.657  30.222  34.235  1.00  0.00     0.049 A 
ATOM     53  N   UNL A   1      41.095  32.313  36.371  1.00  0.00    -0.248 NA
ATOM     54  C   UNL A   1      39.329  33.530  35.448  1.00  0.00     0.031 C 
ATOM     55  C   UNL A   1      40.459  29.164  33.248  1.00  0.00     0.029 A 
ATOM     56  N   UNL A   1      41.705  29.780  35.001  1.00  0.00    -0.354 N 
ATOM     57  C   UNL A   1      40.899  33.474  37.108  1.00  0.00     0.074 A 
ATOM     58  C   UNL A   1      39.832  34.209  36.466  1.00  0.00     0.031 C 
ATOM     59  C   UNL A   1      41.352  28.187  33.476  1.00  0.00     0.029 A 
ATOM     60  C   UNL A   1      42.201  28.564  34.605  1.00  0.00     0.049 A 
ATOM     61  H   UNL A   1      42.066  30.288  35.764  1.00  0.00     0.167 HD
ATOM     62  C   UNL A   1      41.536  33.884  38.231  1.00  0.00     0.037 A 
ATOM     63  C   UNL A   1      43.228  27.845  35.099  1.00  0.00     0.037 A 
ATOM     64  C   UNL A   1      42.607  33.154  38.859  1.00  0.00     0.049 A 
ATOM     65  C   UNL A   1      43.987  28.365  36.293  1.00  0.00     0.074 A 
ATOM     66  C   UNL A   1      43.321  33.479  39.998  1.00  0.00     0.029 A 
ATOM     67  N   UNL A   1      43.126  31.955  38.389  1.00  0.00    -0.354 N 
ATOM     68  N   UNL A   1      43.783  29.451  36.999  1.00  0.00    -0.248 NA
ATOM     69  C   UNL A   1      45.118  27.553  36.761  1.00  0.00     0.031 C 
ATOM     70  C   UNL A   1      44.316  32.512  40.180  1.00  0.00     0.029 A 
ATOM     71  C   UNL A   1      44.172  31.543  39.197  1.00  0.00     0.049 A 
ATOM     72  H   UNL A   1      42.799  31.470  37.597  1.00  0.00     0.167 HD
ATOM     73  C   UNL A   1      44.729  29.432  38.018  1.00  0.00     0.074 A 
ATOM     74  C   UNL A   1      45.505  28.222  37.838  1.00  0.00     0.031 C 
ATOM     75  C   UNL A   1      44.932  30.330  39.014  1.00  0.00     0.037 A 
BRANCH  62  76
ATOM     76  C   UNL A   1      41.113  35.200  38.820  1.00  0.00     0.064 A 
ATOM     77  C   UNL A   1      39.925  35.336  39.559  1.00  0.00     0.173 A 
ATOM     78  C   UNL A   1      41.901  36.345  38.637  1.00  0.00     0.173 A 
ATOM     79  F   UNL A   1      39.125  34.276  39.752  1.00  0.00    -0.203 F 
ATOM     80  C   UNL A   1      39.524  36.575  40.050  1.00  0.00     0.198 A 
ATOM     81  C   UNL A   1      41.515  37.576  39.163  1.00  0.00     0.198 A 
ATOM     82  F   UNL A   1      43.048  36.275  37.944  1.00  0.00    -0.203 F 
ATOM     83  F   UNL A   1      38.351  36.693  40.688  1.00  0.00    -0.200 F 
ATOM     84  C   UNL A   1      40.321  37.693  39.857  1.00  0.00     0.200 A 
ATOM     85  F   UNL A   1      42.295  38.651  38.988  1.00  0.00    -0.200 F 
ATOM     86  F   UNL A   1      39.932  38.886  40.328  1.00  0.00    -0.200 F 
ENDBRANCH  62  76
BRANCH  63  87
ATOM     87  C   UNL A   1      43.587  26.544  34.475  1.00  0.00     0.064 A 
ATOM     88  C   UNL A   1      43.047  25.342  34.951  1.00  0.00     0.173 A 
ATOM     89  C   UNL A   1      44.477  26.477  33.393  1.00  0.00     0.173 A 
ATOM     90  F   UNL A   1      42.210  25.351  35.999  1.00  0.00    -0.203 F 
ATOM     91  C   UNL A   1      43.393  24.120  34.377  1.00  0.00     0.198 A 
ATOM     92  C   UNL A   1      44.799  25.257  32.801  1.00  0.00     0.198 A 
ATOM     93  F   UNL A   1      45.023  27.598  32.901  1.00  0.00    -0.203 F 
ATOM     94  F   UNL A   1      42.895  22.982  34.879  1.00  0.00    -0.200 F 
ATOM     95  C   UNL A   1      44.263  24.079  33.298  1.00  0.00     0.200 A 
ATOM     96  F   UNL A   1      45.629  25.224  31.749  1.00  0.00    -0.200 F 
ATOM     97  F   UNL A   1      44.588  22.905  32.741  1.00  0.00    -0.200 F 
ENDBRANCH  63  87
BRANCH  75  98
ATOM     98  C   UNL A   1      46.000  30.017  40.025  1.00  0.00     0.064 A 
ATOM     99  C   UNL A   1      45.725  29.317  41.208  1.00  0.00     0.173 A 
ATOM    100  C   UNL A   1      47.333  30.390  39.781  1.00  0.00     0.173 A 
ATOM    101  F   UNL A   1      44.468  28.947  41.496  1.00  0.00    -0.203 F 
ATOM    102  C   UNL A   1      46.734  29.033  42.125  1.00  0.00     0.198 A 
ATOM    103  C   UNL A   1      48.345  30.071  40.682  1.00  0.00     0.198 A 
ATOM    104  F   UNL A   1      47.656  31.052  38.660  1.00  0.00    -0.203 F 
ATOM    105  F   UNL A   1      46.436  28.414  43.276  1.00  0.00    -0.200 F 
ATOM    106  C   UNL A   1      48.044  29.402  41.857  1.00  0.00     0.200 A 
ATOM    107  F   UNL A   1      49.613  30.412  40.411  1.00  0.00    -0.200 F 
ATOM    108  F   UNL A   1      49.015  29.121  42.737  1.00  0.00    -0.200 F 
ENDBRANCH  75  98
ENDBRANCH  49  50
ENDBRANCH  42  44
ENDBRANCH  41  42
ENDBRANCH  40  41
ENDBRANCH  39  40
ENDBRANCH  38  39
ENDBRANCH  37  38
ENDBRANCH  36  37
ENDBRANCH  35  36
ENDBRANCH   1  35
TORSDOF 24
ENDMDL
MODEL 3
REMARK VINA RESULT:      -8.0      1.176      1.998
REMARK SMILES Cc1oc(-c2ccc(Cl)cc2[N+](=O)[O-])cc1C(=O)Nc1ccc(C(=O)OCCOCCOCCOCCOC(=O)c2ccc(-c3c4nc(c(-c5c(F)c(F)c(F)c(F)c5F)c5ccc([nH]5)c(-c5c(F)c(F)c(F)c(F)c5F)c5nc(c(-c6c(F)c(F)c(F)c(F)c6F)c6ccc3[nH]6)C=C5)C=C4)cc2)cc1
REMARK SMILES IDX 31 1 30 2 29 3 28 4 27 5 26 6 24 7 25 8 23 9 20 10 21 11
REMARK SMILES IDX 105 12 22 13 104 14 19 15 17 16 18 17 16 19 1 20 2 21 3 22
REMARK SMILES IDX 4 23 15 24 5 25 6 26 11 27 7 28 10 29 8 30 9 31 12 32 13 33
REMARK SMILES IDX 14 34 32 35 33 36 34 37 35 38 36 39 37 40 38 41 39 42 40 43
REMARK SMILES IDX 41 44 42 45 103 46 43 47 102 48 44 49 45 50 46 51 96 52
REMARK SMILES IDX 47 53 101 54 95 55 97 56 48 57 100 58 94 59 93 60 49 62
REMARK SMILES IDX 81 63 61 64 80 65 62 66 65 67 79 68 98 69 63 70 64 71 78 73
REMARK SMILES IDX 99 74 66 75 50 76 51 77 59 78 52 79 53 80 57 81 60 82 54 83
REMARK SMILES IDX 55 84 58 85 56 86 82 87 83 88 91 89 84 90 85 91 89 92 92 93
REMARK SMILES IDX 86 94 87 95 90 96 88 97 67 98 68 99 76 100 69 101 70 102
REMARK SMILES IDX 74 103 77 104 71 105 72 106 75 107 73 108
REMARK H PARENT 19 18 97 61 65 72
REMARK Flexibility Score: inf
ROOT
ATOM      1  C   UNL A   1      33.692  34.261  28.570  1.00  0.00     0.188 C 
ENDROOT
BRANCH   1   2
ATOM      2  C   UNL A   1      34.489  33.041  29.072  1.00  0.00     0.188 C 
BRANCH   2   3
ATOM      3  O   UNL A   1      34.752  32.024  28.129  1.00  0.00    -0.376 OA
BRANCH   3   4
ATOM      4  C   UNL A   1      36.051  31.591  27.763  1.00  0.00     0.202 C 
BRANCH   4   5
ATOM      5  C   UNL A   1      37.145  31.009  28.680  1.00  0.00     0.261 C 
BRANCH   5   6
ATOM      6  O   UNL A   1      38.095  30.139  28.089  1.00  0.00    -0.460 OA
BRANCH   6   7
ATOM      7  C   UNL A   1      38.496  29.125  28.874  1.00  0.00     0.338 C 
ATOM      8  O   UNL A   1      37.841  28.551  29.727  1.00  0.00    -0.246 OA
BRANCH   7   9
ATOM      9  C   UNL A   1      39.837  28.677  28.442  1.00  0.00     0.060 A 
ATOM     10  C   UNL A   1      42.186  28.354  27.080  1.00  0.00     0.041 A 
ATOM     11  C   UNL A   1      42.127  29.326  28.079  1.00  0.00     0.027 A 
ATOM     12  C   UNL A   1      41.206  27.366  26.973  1.00  0.00     0.027 A 
ATOM     13  C   UNL A   1      40.918  29.521  28.730  1.00  0.00     0.018 A 
ATOM     14  C   UNL A   1      40.019  27.516  27.680  1.00  0.00     0.018 A 
BRANCH  10  15
ATOM     15  N   UNL A   1      43.150  28.537  26.096  1.00  0.00    -0.322 N 
ATOM     16  C   UNL A   1      44.191  27.705  25.736  1.00  0.00     0.259 C 
ATOM     17  O   UNL A   1      44.989  28.158  24.910  1.00  0.00    -0.269 OA
ATOM     18  H   UNL A   1      43.082  29.376  25.586  1.00  0.00     0.170 HD
BRANCH  16  19
ATOM     19  C   UNL A   1      44.359  26.330  26.230  1.00  0.00     0.081 A 
ATOM     20  C   UNL A   1      45.218  26.222  28.783  1.00  0.00     0.088 C 
ATOM     21  C   UNL A   1      44.804  25.789  27.436  1.00  0.00     0.114 A 
ATOM     22  O   UNL A   1      44.758  24.435  27.391  1.00  0.00    -0.460 OA
ATOM     23  C   UNL A   1      44.044  24.078  26.308  1.00  0.00     0.142 A 
ATOM     24  C   UNL A   1      43.836  25.184  25.519  1.00  0.00     0.065 A 
BRANCH  23  25
ATOM     25  C   UNL A   1      43.674  22.678  26.294  1.00  0.00     0.095 A 
ATOM     26  C   UNL A   1      42.688  22.228  27.180  1.00  0.00     0.021 A 
ATOM     27  C   UNL A   1      44.225  21.749  25.384  1.00  0.00     0.281 A 
ATOM     28  C   UNL A   1      42.253  20.898  27.140  1.00  0.00     0.022 A 
ATOM     29  C   UNL A   1      43.790  20.418  25.336  1.00  0.00     0.107 A 
ATOM     30  C   UNL A   1      42.799  20.006  26.219  1.00  0.00     0.047 A 
ATOM     31  Cl  UNL A   1      42.248  18.379  26.174  1.00  0.00    -0.084 Cl
BRANCH  27  32
ATOM     32  N   UNL A   1      45.303  22.114  24.465  1.00  0.00     0.063 N 
ATOM     33  O   UNL A   1      44.975  22.705  23.425  1.00  0.00    -0.258 OA
ATOM     34  O   UNL A   1      46.451  21.739  24.741  1.00  0.00    -0.258 OA
ENDBRANCH  27  32
ENDBRANCH  23  25
ENDBRANCH  16  19
ENDBRANCH  10  15
ENDBRANCH   7   9
ENDBRANCH   6   7
ENDBRANCH   5   6
ENDBRANCH   4   5
ENDBRANCH   3   4
ENDBRANCH   2   3
ENDBRANCH   1   2
BRANCH   1  35
ATOM     35  O   UNL A   1      32.740  34.767  29.485  1.00  0.00    -0.377 OA
BRANCH  35  36
ATOM     36  C   UNL A   1      33.127  35.848  30.327  1.00  0.00     0.188 C 
BRANCH  36  37
ATOM     37  C   UNL A   1      33.634  35.620  31.772  1.00  0.00     0.188 C 
BRANCH  37  38
ATOM     38  O   UNL A   1      33.508  34.296  32.266  1.00  0.00    -0.376 OA
BRANCH  38  39
ATOM     39  C   UNL A   1      34.411  33.833  33.256  1.00  0.00     0.202 C 
BRANCH  39  40
ATOM     40  C   UNL A   1      35.224  32.569  32.935  1.00  0.00     0.261 C 
BRANCH  40  41
ATOM     41  O   UNL A   1      36.607  32.609  33.316  1.00  0.00    -0.460 OA
BRANCH  41  42
ATOM     42  C   UNL A   1      37.430  33.323  32.525  1.00  0.00     0.338 C 
ATOM     43  O   UNL A   1      37.233  34.441  32.069  1.00  0.00    -0.246 OA
BRANCH  42  44
ATOM     44  C   UNL A   1      38.723  32.618  32.442  1.00  0.00     0.060 A 
ATOM     45  C   UNL A   1      39.811  33.137  33.154  1.00  0.00     0.016 A 
ATOM     46  C   UNL A   1      38.866  31.474  31.653  1.00  0.00     0.016 A 
ATOM     47  C   UNL A   1      41.066  32.550  33.026  1.00  0.00     0.010 A 
ATOM     48  C   UNL A   1      40.131  30.897  31.511  1.00  0.00     0.010 A 
ATOM     49  C   UNL A   1      41.244  31.467  32.156  1.00  0.00    -0.014 A 
BRANCH  49  50
ATOM     50  C   UNL A   1      42.622  31.099  31.753  1.00  0.00     0.031 A 
ATOM     51  C   UNL A   1      43.192  29.805  32.267  1.00  0.00     0.074 A 
ATOM     52  C   UNL A   1      43.320  31.849  30.885  1.00  0.00     0.049 A 
ATOM     53  N   UNL A   1      44.345  29.241  32.012  1.00  0.00    -0.248 NA
ATOM     54  C   UNL A   1      42.341  29.041  33.194  1.00  0.00     0.031 C 
ATOM     55  C   UNL A   1      42.854  33.094  30.282  1.00  0.00     0.029 A 
ATOM     56  N   UNL A   1      44.570  31.661  30.352  1.00  0.00    -0.354 N 
ATOM     57  C   UNL A   1      44.356  28.059  32.744  1.00  0.00     0.074 A 
ATOM     58  C   UNL A   1      43.118  28.012  33.491  1.00  0.00     0.031 C 
ATOM     59  C   UNL A   1      43.803  33.554  29.449  1.00  0.00     0.029 A 
ATOM     60  C   UNL A   1      44.952  32.652  29.485  1.00  0.00     0.049 A 
ATOM     61  H   UNL A   1      45.137  30.886  30.571  1.00  0.00     0.167 HD
ATOM     62  C   UNL A   1      45.302  27.092  32.777  1.00  0.00     0.037 A 
ATOM     63  C   UNL A   1      46.105  32.811  28.805  1.00  0.00     0.037 A 
ATOM     64  C   UNL A   1      46.538  27.149  32.042  1.00  0.00     0.049 A 
ATOM     65  C   UNL A   1      47.186  31.767  28.930  1.00  0.00     0.074 A 
ATOM     66  C   UNL A   1      47.566  26.224  32.004  1.00  0.00     0.029 A 
ATOM     67  N   UNL A   1      46.919  28.204  31.223  1.00  0.00    -0.354 N 
ATOM     68  N   UNL A   1      47.181  30.642  29.603  1.00  0.00    -0.248 NA
ATOM     69  C   UNL A   1      48.432  32.015  28.191  1.00  0.00     0.031 C 
ATOM     70  C   UNL A   1      48.596  26.748  31.216  1.00  0.00     0.029 A 
ATOM     71  C   UNL A   1      48.180  27.966  30.700  1.00  0.00     0.049 A 
ATOM     72  H   UNL A   1      46.374  29.004  31.041  1.00  0.00     0.167 HD
ATOM     73  C   UNL A   1      48.401  30.030  29.339  1.00  0.00     0.074 A 
ATOM     74  C   UNL A   1      49.117  30.908  28.437  1.00  0.00     0.031 C 
ATOM     75  C   UNL A   1      48.880  28.845  29.795  1.00  0.00     0.037 A 
BRANCH  62  76
ATOM     76  C   UNL A   1      45.046  25.910  33.671  1.00  0.00     0.064 A 
ATOM     77  C   UNL A   1      44.473  24.723  33.186  1.00  0.00     0.173 A 
ATOM     78  C   UNL A   1      45.370  25.969  35.034  1.00  0.00     0.173 A 
ATOM     79  F   UNL A   1      44.130  24.616  31.894  1.00  0.00    -0.203 F 
ATOM     80  C   UNL A   1      44.194  23.659  34.042  1.00  0.00     0.198 A 
ATOM     81  C   UNL A   1      45.124  24.889  35.879  1.00  0.00     0.198 A 
ATOM     82  F   UNL A   1      45.923  27.077  35.552  1.00  0.00    -0.203 F 
ATOM     83  F   UNL A   1      43.580  22.565  33.570  1.00  0.00    -0.200 F 
ATOM     84  C   UNL A   1      44.525  23.741  35.386  1.00  0.00     0.200 A 
ATOM     85  F   UNL A   1      45.458  24.966  37.174  1.00  0.00    -0.200 F 
ATOM     86  F   UNL A   1      44.253  22.719  36.208  1.00  0.00    -0.200 F 
ENDBRANCH  62  76
BRANCH  63  87
ATOM     87  C   UNL A   1      46.288  33.997  27.928  1.00  0.00     0.064 A 
ATOM     88  C   UNL A   1      46.794  35.201  28.439  1.00  0.00     0.173 A 
ATOM     89  C   UNL A   1      45.962  33.953  26.564  1.00  0.00     0.173 A 
ATOM     90  F   UNL A   1      47.098  35.301  29.742  1.00  0.00    -0.203 F 
ATOM     91  C   UNL A   1      46.953  36.319  27.623  1.00  0.00     0.198 A 
ATOM     92  C   UNL A   1      46.150  35.063  25.743  1.00  0.00     0.198 A 
ATOM     93  F   UNL A   1      45.473  32.827  26.027  1.00  0.00    -0.203 F 
ATOM     94  F   UNL A   1      47.398  37.469  28.145  1.00  0.00    -0.200 F 
ATOM     95  C   UNL A   1      46.638  36.247  26.274  1.00  0.00     0.200 A 
ATOM     96  F   UNL A   1      45.857  34.984  24.438  1.00  0.00    -0.200 F 
ATOM     97  F   UNL A   1      46.800  37.319  25.488  1.00  0.00    -0.200 F 
ENDBRANCH  63  87
BRANCH  75  98
ATOM     98  C   UNL A   1      50.222  28.397  29.286  1.00  0.00     0.064 A 
ATOM     99  C   UNL A   1      50.367  27.702  28.076  1.00  0.00     0.173 A 
ATOM    100  C   UNL A   1      51.389  28.706  30.005  1.00  0.00     0.173 A 
ATOM    101  F   UNL A   1      49.285  27.372  27.354  1.00  0.00    -0.203 F 
ATOM    102  C   UNL A   1      51.622  27.305  27.623  1.00  0.00     0.198 A 
ATOM    103  C   UNL A   1      52.645  28.340  29.531  1.00  0.00     0.198 A 
ATOM    104  F   UNL A   1      51.311  29.377  31.164  1.00  0.00    -0.203 F 
ATOM    105  F   UNL A   1      51.730  26.592  26.493  1.00  0.00    -0.200 F 
ATOM    106  C   UNL A   1      52.760  27.631  28.346  1.00  0.00     0.200 A 
ATOM    107  F   UNL A   1      53.743  28.673  30.223  1.00  0.00    -0.200 F 
ATOM    108  F   UNL A   1      53.968  27.254  27.905  1.00  0.00    -0.200 F 
ENDBRANCH  75  98
ENDBRANCH  49  50
ENDBRANCH  42  44
ENDBRANCH  41  42
ENDBRANCH  40  41
ENDBRANCH  39  40
ENDBRANCH  38  39
ENDBRANCH  37  38
ENDBRANCH  36  37
ENDBRANCH  35  36
ENDBRANCH   1  35
TORSDOF 24
ENDMDL
