MODEL 1
REMARK VINA RESULT:     -10.9      0.000      0.000
REMARK SMILES Cc1cc(NC(=O)c2ccc(Br)nc2)sc1C(=O)OCCOCCOCCOCCOC(=O)c1ccc(-c2c3nc(c(-c4c(F)c(F)c(F)c(F)c4F)c4ccc([nH]4)c(-c4c(F)c(F)c(F)c(F)c4F)c4nc(c(-c5c(F)c(F)c(F)c(F)c5F)c5ccc2[nH]5)C=C4)C=C3)cc1
REMARK SMILES IDX 25 1 24 2 23 3 22 4 21 5 20 6 19 7 17 8 18 9 16 10 1 11 2 12
REMARK SMILES IDX 3 13 4 14 15 15 5 16 6 17 7 19 8 20 9 21 14 22 10 23 13 24
REMARK SMILES IDX 11 25 12 26 26 27 27 28 28 29 29 30 30 31 31 32 32 33 33 34
REMARK SMILES IDX 34 35 35 36 96 37 36 38 95 39 37 40 38 41 39 42 89 43 40 44
REMARK SMILES IDX 94 45 88 46 90 47 41 48 93 49 87 50 86 51 42 53 74 54 54 55
REMARK SMILES IDX 73 56 55 57 58 58 72 59 91 60 56 61 57 62 71 64 92 65 59 66
REMARK SMILES IDX 43 67 44 68 52 69 45 70 46 71 50 72 53 73 47 74 48 75 51 76
REMARK SMILES IDX 49 77 75 78 76 79 84 80 77 81 78 82 82 83 85 84 79 85 80 86
REMARK SMILES IDX 83 87 81 88 60 89 61 90 69 91 62 92 63 93 67 94 70 95 64 96
REMARK SMILES IDX 65 97 68 98 66 99
REMARK H PARENT 5 18 90 52 58 63
REMARK Flexibility Score: inf
ROOT
ATOM      1  O   UNL A   1      42.508  19.916  25.829  1.00  0.00    -0.377 OA
ENDROOT
BRANCH   1   2
ATOM      2  C   UNL A   1      41.132  19.701  26.102  1.00  0.00     0.188 C 
BRANCH   2   3
ATOM      3  C   UNL A   1      40.421  20.965  26.609  1.00  0.00     0.188 C 
BRANCH   3   4
ATOM      4  O   UNL A   1      39.528  21.515  25.640  1.00  0.00    -0.376 OA
BRANCH   4   5
ATOM      5  C   UNL A   1      38.429  22.262  26.147  1.00  0.00     0.202 C 
BRANCH   5   6
ATOM      6  C   UNL A   1      37.325  22.606  25.137  1.00  0.00     0.261 C 
BRANCH   6   7
ATOM      7  O   UNL A   1      36.936  21.528  24.279  1.00  0.00    -0.459 OA
BRANCH   7   8
ATOM      8  C   UNL A   1      36.507  20.369  24.832  1.00  0.00     0.348 C 
ATOM      9  O   UNL A   1      37.238  19.416  25.075  1.00  0.00    -0.245 OA
BRANCH   8  10
ATOM     10  C   UNL A   1      35.105  20.514  25.196  1.00  0.00     0.117 A 
ATOM     11  C   UNL A   1      33.962  18.477  24.061  1.00  0.00     0.046 C 
ATOM     12  C   UNL A   1      33.988  19.760  24.832  1.00  0.00    -0.023 A 
ATOM     13  C   UNL A   1      32.783  20.383  25.289  1.00  0.00     0.042 A 
ATOM     14  C   UNL A   1      33.021  21.447  26.120  1.00  0.00     0.096 A 
ATOM     15  S   UNL A   1      34.656  21.879  26.152  1.00  0.00    -0.111 S 
BRANCH  14  16
ATOM     16  N   UNL A   1      32.195  22.205  26.916  1.00  0.00    -0.313 N 
ATOM     17  C   UNL A   1      31.754  23.487  26.651  1.00  0.00     0.257 C 
ATOM     18  H   UNL A   1      31.889  21.794  27.757  1.00  0.00     0.171 HD
ATOM     19  O   UNL A   1      31.249  24.183  27.528  1.00  0.00    -0.269 OA
BRANCH  17  20
ATOM     20  C   UNL A   1      31.813  24.017  25.274  1.00  0.00     0.058 A 
ATOM     21  C   UNL A   1      31.179  23.374  24.206  1.00  0.00     0.018 A 
ATOM     22  C   UNL A   1      32.573  25.144  25.007  1.00  0.00     0.126 A 
ATOM     23  C   UNL A   1      31.422  23.813  22.908  1.00  0.00     0.037 A 
ATOM     24  N   UNL A   1      32.815  25.597  23.752  1.00  0.00    -0.249 NA
ATOM     25  C   UNL A   1      32.252  24.911  22.730  1.00  0.00     0.106 A 
ATOM     26  Br  UNL A   1      32.667  25.459  20.964  1.00  0.00    -0.029 Br
ENDBRANCH  17  20
ENDBRANCH  14  16
ENDBRANCH   8  10
ENDBRANCH   7   8
ENDBRANCH   6   7
ENDBRANCH   5   6
ENDBRANCH   4   5
ENDBRANCH   3   4
ENDBRANCH   2   3
ENDBRANCH   1   2
BRANCH   1  27
ATOM     27  C   UNL A   1      43.255  18.822  25.299  1.00  0.00     0.188 C 
BRANCH  27  28
ATOM     28  C   UNL A   1      44.797  18.761  25.396  1.00  0.00     0.188 C 
BRANCH  28  29
ATOM     29  O   UNL A   1      45.481  19.575  24.446  1.00  0.00    -0.376 OA
BRANCH  29  30
ATOM     30  C   UNL A   1      45.048  20.926  24.334  1.00  0.00     0.202 C 
BRANCH  30  31
ATOM     31  C   UNL A   1      45.383  21.781  25.562  1.00  0.00     0.261 C 
BRANCH  31  32
ATOM     32  O   UNL A   1      44.354  22.710  25.939  1.00  0.00    -0.460 OA
BRANCH  32  33
ATOM     33  C   UNL A   1      44.415  23.943  25.392  1.00  0.00     0.338 C 
ATOM     34  O   UNL A   1      44.870  24.252  24.306  1.00  0.00    -0.246 OA
BRANCH  33  35
ATOM     35  C   UNL A   1      43.668  24.865  26.267  1.00  0.00     0.060 A 
ATOM     36  C   UNL A   1      43.995  26.226  26.245  1.00  0.00     0.016 A 
ATOM     37  C   UNL A   1      42.669  24.383  27.115  1.00  0.00     0.016 A 
ATOM     38  C   UNL A   1      43.350  27.107  27.112  1.00  0.00     0.010 A 
ATOM     39  C   UNL A   1      42.034  25.262  27.992  1.00  0.00     0.010 A 
ATOM     40  C   UNL A   1      42.400  26.619  28.020  1.00  0.00    -0.014 A 
BRANCH  40  41
ATOM     41  C   UNL A   1      41.930  27.479  29.130  1.00  0.00     0.031 A 
ATOM     42  C   UNL A   1      42.662  27.409  30.441  1.00  0.00     0.074 A 
ATOM     43  C   UNL A   1      40.876  28.297  28.982  1.00  0.00     0.049 A 
ATOM     44  N   UNL A   1      42.413  28.025  31.568  1.00  0.00    -0.248 NA
ATOM     45  C   UNL A   1      43.834  26.519  30.486  1.00  0.00     0.031 C 
ATOM     46  C   UNL A   1      40.105  28.470  27.754  1.00  0.00     0.029 A 
ATOM     47  N   UNL A   1      40.267  29.131  29.885  1.00  0.00    -0.354 N 
ATOM     48  C   UNL A   1      43.394  27.600  32.452  1.00  0.00     0.074 A 
ATOM     49  C   UNL A   1      44.226  26.650  31.745  1.00  0.00     0.031 C 
ATOM     50  C   UNL A   1      39.111  29.346  27.985  1.00  0.00     0.029 A 
ATOM     51  C   UNL A   1      39.164  29.774  29.383  1.00  0.00     0.049 A 
ATOM     52  H   UNL A   1      40.592  29.257  30.807  1.00  0.00     0.167 HD
ATOM     53  C   UNL A   1      43.592  27.975  33.737  1.00  0.00     0.037 A 
ATOM     54  C   UNL A   1      38.288  30.595  29.992  1.00  0.00     0.037 A 
ATOM     55  C   UNL A   1      42.758  28.908  34.445  1.00  0.00     0.049 A 
ATOM     56  C   UNL A   1      38.487  30.943  31.447  1.00  0.00     0.074 A 
ATOM     57  C   UNL A   1      42.881  29.363  35.745  1.00  0.00     0.029 A 
ATOM     58  N   UNL A   1      41.636  29.522  33.909  1.00  0.00    -0.354 N 
ATOM     59  N   UNL A   1      39.439  30.566  32.266  1.00  0.00    -0.248 NA
ATOM     60  C   UNL A   1      37.490  31.834  32.058  1.00  0.00     0.031 C 
ATOM     61  C   UNL A   1      41.807  30.219  36.012  1.00  0.00     0.029 A 
ATOM     62  C   UNL A   1      41.043  30.335  34.861  1.00  0.00     0.049 A 
ATOM     63  H   UNL A   1      41.310  29.399  32.988  1.00  0.00     0.167 HD
ATOM     64  C   UNL A   1      39.171  31.193  33.477  1.00  0.00     0.074 A 
ATOM     65  C   UNL A   1      37.974  31.983  33.282  1.00  0.00     0.031 C 
ATOM     66  C   UNL A   1      39.857  31.123  34.645  1.00  0.00     0.037 A 
BRANCH  53  67
ATOM     67  C   UNL A   1      44.745  27.353  34.465  1.00  0.00     0.064 A 
ATOM     68  C   UNL A   1      44.605  26.148  35.170  1.00  0.00     0.173 A 
ATOM     69  C   UNL A   1      46.009  27.960  34.444  1.00  0.00     0.173 A 
ATOM     70  F   UNL A   1      43.410  25.539  35.235  1.00  0.00    -0.203 F 
ATOM     71  C   UNL A   1      45.683  25.584  35.846  1.00  0.00     0.198 A 
ATOM     72  C   UNL A   1      47.092  27.380  35.100  1.00  0.00     0.198 A 
ATOM     73  F   UNL A   1      46.194  29.114  33.786  1.00  0.00    -0.203 F 
ATOM     74  F   UNL A   1      45.516  24.456  36.549  1.00  0.00    -0.200 F 
ATOM     75  C   UNL A   1      46.927  26.197  35.805  1.00  0.00     0.200 A 
ATOM     76  F   UNL A   1      48.295  27.970  35.054  1.00  0.00    -0.200 F 
ATOM     77  F   UNL A   1      47.965  25.653  36.453  1.00  0.00    -0.200 F 
ENDBRANCH  53  67
BRANCH  54  78
ATOM     78  C   UNL A   1      37.133  31.145  29.236  1.00  0.00     0.064 A 
ATOM     79  C   UNL A   1      37.118  32.480  28.810  1.00  0.00     0.173 A 
ATOM     80  C   UNL A   1      36.013  30.353  28.946  1.00  0.00     0.173 A 
ATOM     81  F   UNL A   1      38.156  33.282  29.087  1.00  0.00    -0.203 F 
ATOM     82  C   UNL A   1      36.017  33.008  28.137  1.00  0.00     0.198 A 
ATOM     83  C   UNL A   1      34.924  30.875  28.251  1.00  0.00     0.198 A 
ATOM     84  F   UNL A   1      35.976  29.071  29.335  1.00  0.00    -0.203 F 
ATOM     85  F   UNL A   1      36.009  34.299  27.780  1.00  0.00    -0.200 F 
ATOM     86  C   UNL A   1      34.924  32.203  27.853  1.00  0.00     0.200 A 
ATOM     87  F   UNL A   1      33.873  30.092  27.969  1.00  0.00    -0.200 F 
ATOM     88  F   UNL A   1      33.866  32.711  27.205  1.00  0.00    -0.200 F 
ENDBRANCH  54  78
BRANCH  66  89
ATOM     89  C   UNL A   1      39.354  31.948  35.794  1.00  0.00     0.064 A 
ATOM     90  C   UNL A   1      39.768  33.275  35.983  1.00  0.00     0.173 A 
ATOM     91  C   UNL A   1      38.407  31.420  36.684  1.00  0.00     0.173 A 
ATOM     92  F   UNL A   1      40.680  33.820  35.166  1.00  0.00    -0.203 F 
ATOM     93  C   UNL A   1      39.267  34.035  37.036  1.00  0.00     0.198 A 
ATOM     94  C   UNL A   1      37.888  32.192  37.719  1.00  0.00     0.198 A 
ATOM     95  F   UNL A   1      37.974  30.158  36.541  1.00  0.00    -0.203 F 
ATOM     96  F   UNL A   1      39.706  35.288  37.223  1.00  0.00    -0.200 F 
ATOM     97  C   UNL A   1      38.323  33.497  37.898  1.00  0.00     0.200 A 
ATOM     98  F   UNL A   1      36.967  31.674  38.543  1.00  0.00    -0.200 F 
ATOM     99  F   UNL A   1      37.835  34.233  38.906  1.00  0.00    -0.200 F 
ENDBRANCH  66  89
ENDBRANCH  40  41
ENDBRANCH  33  35
ENDBRANCH  32  33
ENDBRANCH  31  32
ENDBRANCH  30  31
ENDBRANCH  29  30
ENDBRANCH  28  29
ENDBRANCH  27  28
ENDBRANCH   1  27
TORSDOF 22
ENDMDL
MODEL 2
REMARK VINA RESULT:     -10.6      3.756      9.088
REMARK SMILES Cc1cc(NC(=O)c2ccc(Br)nc2)sc1C(=O)OCCOCCOCCOCCOC(=O)c1ccc(-c2c3nc(c(-c4c(F)c(F)c(F)c(F)c4F)c4ccc([nH]4)c(-c4c(F)c(F)c(F)c(F)c4F)c4nc(c(-c5c(F)c(F)c(F)c(F)c5F)c5ccc2[nH]5)C=C4)C=C3)cc1
REMARK SMILES IDX 25 1 24 2 23 3 22 4 21 5 20 6 19 7 17 8 18 9 16 10 1 11 2 12
REMARK SMILES IDX 3 13 4 14 15 15 5 16 6 17 7 19 8 20 9 21 14 22 10 23 13 24
REMARK SMILES IDX 11 25 12 26 26 27 27 28 28 29 29 30 30 31 31 32 32 33 33 34
REMARK SMILES IDX 34 35 35 36 96 37 36 38 95 39 37 40 38 41 39 42 89 43 40 44
REMARK SMILES IDX 94 45 88 46 90 47 41 48 93 49 87 50 86 51 42 53 74 54 54 55
REMARK SMILES IDX 73 56 55 57 58 58 72 59 91 60 56 61 57 62 71 64 92 65 59 66
REMARK SMILES IDX 43 67 44 68 52 69 45 70 46 71 50 72 53 73 47 74 48 75 51 76
REMARK SMILES IDX 49 77 75 78 76 79 84 80 77 81 78 82 82 83 85 84 79 85 80 86
REMARK SMILES IDX 83 87 81 88 60 89 61 90 69 91 62 92 63 93 67 94 70 95 64 96
REMARK SMILES IDX 65 97 68 98 66 99
REMARK H PARENT 5 18 90 52 58 63
REMARK Flexibility Score: inf
ROOT
ATOM      1  O   UNL A   1      32.189  28.910  25.784  1.00  0.00    -0.377 OA
ENDROOT
BRANCH   1   2
ATOM      2  C   UNL A   1      31.603  30.078  25.232  1.00  0.00     0.188 C 
BRANCH   2   3
ATOM      3  C   UNL A   1      30.528  29.764  24.180  1.00  0.00     0.188 C 
BRANCH   3   4
ATOM      4  O   UNL A   1      30.219  28.372  24.114  1.00  0.00    -0.376 OA
BRANCH   4   5
ATOM      5  C   UNL A   1      30.326  27.761  22.834  1.00  0.00     0.202 C 
BRANCH   5   6
ATOM      6  C   UNL A   1      31.736  27.326  22.410  1.00  0.00     0.261 C 
BRANCH   6   7
ATOM      7  O   UNL A   1      31.775  26.328  21.385  1.00  0.00    -0.459 OA
BRANCH   7   8
ATOM      8  C   UNL A   1      32.610  25.271  21.526  1.00  0.00     0.348 C 
ATOM      9  O   UNL A   1      33.375  24.882  20.651  1.00  0.00    -0.245 OA
BRANCH   8  10
ATOM     10  C   UNL A   1      32.533  24.794  22.900  1.00  0.00     0.117 A 
ATOM     11  C   UNL A   1      30.084  23.955  23.120  1.00  0.00     0.046 C 
ATOM     12  C   UNL A   1      31.455  24.286  23.626  1.00  0.00    -0.023 A 
ATOM     13  C   UNL A   1      31.806  24.111  25.003  1.00  0.00     0.042 A 
ATOM     14  C   UNL A   1      33.144  24.301  25.234  1.00  0.00     0.096 A 
ATOM     15  S   UNL A   1      33.940  24.942  23.886  1.00  0.00    -0.111 S 
BRANCH  14  16
ATOM     16  N   UNL A   1      33.938  24.066  26.331  1.00  0.00    -0.313 N 
ATOM     17  C   UNL A   1      34.271  22.829  26.851  1.00  0.00     0.257 C 
ATOM     18  H   UNL A   1      34.305  24.855  26.792  1.00  0.00     0.171 HD
ATOM     19  O   UNL A   1      34.754  22.717  27.974  1.00  0.00    -0.269 OA
BRANCH  17  20
ATOM     20  C   UNL A   1      34.123  21.617  26.021  1.00  0.00     0.058 A 
ATOM     21  C   UNL A   1      32.907  20.933  25.921  1.00  0.00     0.018 A 
ATOM     22  C   UNL A   1      35.230  21.091  25.375  1.00  0.00     0.126 A 
ATOM     23  C   UNL A   1      32.873  19.699  25.278  1.00  0.00     0.037 A 
ATOM     24  N   UNL A   1      35.218  19.896  24.734  1.00  0.00    -0.249 NA
ATOM     25  C   UNL A   1      34.047  19.218  24.716  1.00  0.00     0.106 A 
ATOM     26  Br  UNL A   1      34.036  17.497  23.923  1.00  0.00    -0.029 Br
ENDBRANCH  17  20
ENDBRANCH  14  16
ENDBRANCH   8  10
ENDBRANCH   7   8
ENDBRANCH   6   7
ENDBRANCH   5   6
ENDBRANCH   4   5
ENDBRANCH   3   4
ENDBRANCH   2   3
ENDBRANCH   1   2
BRANCH   1  27
ATOM     27  C   UNL A   1      33.583  28.948  26.086  1.00  0.00     0.188 C 
BRANCH  27  28
ATOM     28  C   UNL A   1      34.139  29.741  27.290  1.00  0.00     0.188 C 
BRANCH  28  29
ATOM     29  O   UNL A   1      34.182  31.154  27.097  1.00  0.00    -0.376 OA
BRANCH  29  30
ATOM     30  C   UNL A   1      33.450  31.947  28.025  1.00  0.00     0.202 C 
BRANCH  30  31
ATOM     31  C   UNL A   1      32.987  33.292  27.451  1.00  0.00     0.261 C 
BRANCH  31  32
ATOM     32  O   UNL A   1      32.372  34.167  28.409  1.00  0.00    -0.460 OA
BRANCH  32  33
ATOM     33  C   UNL A   1      33.106  35.217  28.836  1.00  0.00     0.338 C 
ATOM     34  O   UNL A   1      32.827  36.399  28.761  1.00  0.00    -0.246 OA
BRANCH  33  35
ATOM     35  C   UNL A   1      34.260  34.688  29.586  1.00  0.00     0.060 A 
ATOM     36  C   UNL A   1      35.524  34.721  28.986  1.00  0.00     0.016 A 
ATOM     37  C   UNL A   1      34.088  34.146  30.862  1.00  0.00     0.016 A 
ATOM     38  C   UNL A   1      36.619  34.165  29.647  1.00  0.00     0.010 A 
ATOM     39  C   UNL A   1      35.180  33.577  31.516  1.00  0.00     0.010 A 
ATOM     40  C   UNL A   1      36.441  33.551  30.894  1.00  0.00    -0.014 A 
BRANCH  40  41
ATOM     41  C   UNL A   1      37.518  32.710  31.463  1.00  0.00     0.031 A 
ATOM     42  C   UNL A   1      38.039  33.053  32.831  1.00  0.00     0.074 A 
ATOM     43  C   UNL A   1      38.026  31.670  30.782  1.00  0.00     0.049 A 
ATOM     44  N   UNL A   1      39.004  32.497  33.518  1.00  0.00    -0.248 NA
ATOM     45  C   UNL A   1      37.381  34.178  33.516  1.00  0.00     0.031 C 
ATOM     46  C   UNL A   1      37.585  31.227  29.462  1.00  0.00     0.029 A 
ATOM     47  N   UNL A   1      39.039  30.806  31.111  1.00  0.00    -0.354 N 
ATOM     48  C   UNL A   1      39.068  33.203  34.711  1.00  0.00     0.074 A 
ATOM     49  C   UNL A   1      38.068  34.246  34.646  1.00  0.00     0.031 C 
ATOM     50  C   UNL A   1      38.337  30.177  29.084  1.00  0.00     0.029 A 
ATOM     51  C   UNL A   1      39.326  29.895  30.124  1.00  0.00     0.049 A 
ATOM     52  H   UNL A   1      39.515  30.834  31.973  1.00  0.00     0.167 HD
ATOM     53  C   UNL A   1      39.882  32.994  35.772  1.00  0.00     0.037 A 
ATOM     54  C   UNL A   1      40.291  28.958  30.065  1.00  0.00     0.037 A 
ATOM     55  C   UNL A   1      40.885  31.966  35.832  1.00  0.00     0.049 A 
ATOM     56  C   UNL A   1      41.234  28.791  31.231  1.00  0.00     0.074 A 
ATOM     57  C   UNL A   1      41.752  31.665  36.867  1.00  0.00     0.029 A 
ATOM     58  N   UNL A   1      41.161  31.077  34.805  1.00  0.00    -0.354 N 
ATOM     59  N   UNL A   1      41.265  29.438  32.372  1.00  0.00    -0.248 NA
ATOM     60  C   UNL A   1      42.274  27.760  31.100  1.00  0.00     0.031 C 
ATOM     61  C   UNL A   1      42.584  30.620  36.448  1.00  0.00     0.029 A 
ATOM     62  C   UNL A   1      42.201  30.240  35.171  1.00  0.00     0.049 A 
ATOM     63  H   UNL A   1      40.686  31.044  33.942  1.00  0.00     0.167 HD
ATOM     64  C   UNL A   1      42.304  28.875  33.102  1.00  0.00     0.074 A 
ATOM     65  C   UNL A   1      42.873  27.828  32.280  1.00  0.00     0.031 C 
ATOM     66  C   UNL A   1      42.747  29.196  34.343  1.00  0.00     0.037 A 
BRANCH  53  67
ATOM     67  C   UNL A   1      39.731  33.915  36.945  1.00  0.00     0.064 A 
ATOM     68  C   UNL A   1      38.945  33.568  38.055  1.00  0.00     0.173 A 
ATOM     69  C   UNL A   1      40.395  35.150  36.969  1.00  0.00     0.173 A 
ATOM     70  F   UNL A   1      38.276  32.404  38.070  1.00  0.00    -0.203 F 
ATOM     71  C   UNL A   1      38.810  34.435  39.135  1.00  0.00     0.198 A 
ATOM     72  C   UNL A   1      40.277  36.004  38.063  1.00  0.00     0.198 A 
ATOM     73  F   UNL A   1      41.157  35.528  35.932  1.00  0.00    -0.203 F 
ATOM     74  F   UNL A   1      38.019  34.102  40.164  1.00  0.00    -0.200 F 
ATOM     75  C   UNL A   1      39.481  35.648  39.141  1.00  0.00     0.200 A 
ATOM     76  F   UNL A   1      40.933  37.173  38.071  1.00  0.00    -0.200 F 
ATOM     77  F   UNL A   1      39.354  36.481  40.183  1.00  0.00    -0.200 F 
ENDBRANCH  53  67
BRANCH  54  78
ATOM     78  C   UNL A   1      40.427  28.105  28.856  1.00  0.00     0.064 A 
ATOM     79  C   UNL A   1      41.215  28.512  27.771  1.00  0.00     0.173 A 
ATOM     80  C   UNL A   1      39.755  26.880  28.753  1.00  0.00     0.173 A 
ATOM     81  F   UNL A   1      41.856  29.689  27.813  1.00  0.00    -0.203 F 
ATOM     82  C   UNL A   1      41.310  27.732  26.619  1.00  0.00     0.198 A 
ATOM     83  C   UNL A   1      39.871  26.089  27.612  1.00  0.00     0.198 A 
ATOM     84  F   UNL A   1      38.986  26.447  29.763  1.00  0.00    -0.203 F 
ATOM     85  F   UNL A   1      42.033  28.165  25.577  1.00  0.00    -0.200 F 
ATOM     86  C   UNL A   1      40.642  26.519  26.543  1.00  0.00     0.200 A 
ATOM     87  F   UNL A   1      39.232  24.912  27.546  1.00  0.00    -0.200 F 
ATOM     88  F   UNL A   1      40.734  25.769  25.436  1.00  0.00    -0.200 F 
ENDBRANCH  54  78
BRANCH  66  89
ATOM     89  C   UNL A   1      43.878  28.384  34.906  1.00  0.00     0.064 A 
ATOM     90  C   UNL A   1      43.648  27.202  35.625  1.00  0.00     0.173 A 
ATOM     91  C   UNL A   1      45.208  28.767  34.677  1.00  0.00     0.173 A 
ATOM     92  F   UNL A   1      42.394  26.801  35.880  1.00  0.00    -0.203 F 
ATOM     93  C   UNL A   1      44.710  26.444  36.113  1.00  0.00     0.198 A 
ATOM     94  C   UNL A   1      46.267  27.994  35.142  1.00  0.00     0.198 A 
ATOM     95  F   UNL A   1      45.481  29.886  33.989  1.00  0.00    -0.203 F 
ATOM     96  F   UNL A   1      44.467  25.340  36.832  1.00  0.00    -0.200 F 
ATOM     97  C   UNL A   1      46.017  26.836  35.865  1.00  0.00     0.200 A 
ATOM     98  F   UNL A   1      47.529  28.367  34.891  1.00  0.00    -0.200 F 
ATOM     99  F   UNL A   1      47.037  26.102  36.328  1.00  0.00    -0.200 F 
ENDBRANCH  66  89
ENDBRANCH  40  41
ENDBRANCH  33  35
ENDBRANCH  32  33
ENDBRANCH  31  32
ENDBRANCH  30  31
ENDBRANCH  29  30
ENDBRANCH  28  29
ENDBRANCH  27  28
ENDBRANCH   1  27
TORSDOF 22
ENDMDL
MODEL 3
REMARK VINA RESULT:     -10.5      1.727      2.762
REMARK SMILES Cc1cc(NC(=O)c2ccc(Br)nc2)sc1C(=O)OCCOCCOCCOCCOC(=O)c1ccc(-c2c3nc(c(-c4c(F)c(F)c(F)c(F)c4F)c4ccc([nH]4)c(-c4c(F)c(F)c(F)c(F)c4F)c4nc(c(-c5c(F)c(F)c(F)c(F)c5F)c5ccc2[nH]5)C=C4)C=C3)cc1
REMARK SMILES IDX 25 1 24 2 23 3 22 4 21 5 20 6 19 7 17 8 18 9 16 10 1 11 2 12
REMARK SMILES IDX 3 13 4 14 15 15 5 16 6 17 7 19 8 20 9 21 14 22 10 23 13 24
REMARK SMILES IDX 11 25 12 26 26 27 27 28 28 29 29 30 30 31 31 32 32 33 33 34
REMARK SMILES IDX 34 35 35 36 96 37 36 38 95 39 37 40 38 41 39 42 89 43 40 44
REMARK SMILES IDX 94 45 88 46 90 47 41 48 93 49 87 50 86 51 42 53 74 54 54 55
REMARK SMILES IDX 73 56 55 57 58 58 72 59 91 60 56 61 57 62 71 64 92 65 59 66
REMARK SMILES IDX 43 67 44 68 52 69 45 70 46 71 50 72 53 73 47 74 48 75 51 76
REMARK SMILES IDX 49 77 75 78 76 79 84 80 77 81 78 82 82 83 85 84 79 85 80 86
REMARK SMILES IDX 83 87 81 88 60 89 61 90 69 91 62 92 63 93 67 94 70 95 64 96
REMARK SMILES IDX 65 97 68 98 66 99
REMARK H PARENT 5 18 90 52 58 63
REMARK Flexibility Score: inf
ROOT
ATOM      1  O   UNL A   1      42.886  19.733  25.923  1.00  0.00    -0.377 OA
ENDROOT
BRANCH   1   2
ATOM      2  C   UNL A   1      41.634  19.227  26.359  1.00  0.00     0.188 C 
BRANCH   2   3
ATOM      3  C   UNL A   1      40.854  20.230  27.222  1.00  0.00     0.188 C 
BRANCH   3   4
ATOM      4  O   UNL A   1      39.585  20.564  26.658  1.00  0.00    -0.376 OA
BRANCH   4   5
ATOM      5  C   UNL A   1      39.561  21.678  25.775  1.00  0.00     0.202 C 
BRANCH   5   6
ATOM      6  C   UNL A   1      38.191  22.040  25.183  1.00  0.00     0.261 C 
BRANCH   6   7
ATOM      7  O   UNL A   1      37.103  21.995  26.113  1.00  0.00    -0.459 OA
BRANCH   7   8
ATOM      8  C   UNL A   1      36.252  23.046  26.181  1.00  0.00     0.348 C 
ATOM      9  O   UNL A   1      36.602  24.193  26.436  1.00  0.00    -0.245 OA
BRANCH   8  10
ATOM     10  C   UNL A   1      34.926  22.603  25.775  1.00  0.00     0.117 A 
ATOM     11  C   UNL A   1      33.592  22.540  28.002  1.00  0.00     0.046 C 
ATOM     12  C   UNL A   1      33.791  22.318  26.535  1.00  0.00    -0.023 A 
ATOM     13  C   UNL A   1      32.765  21.741  25.720  1.00  0.00     0.042 A 
ATOM     14  C   UNL A   1      33.068  21.781  24.383  1.00  0.00     0.096 A 
ATOM     15  S   UNL A   1      34.668  22.253  24.106  1.00  0.00    -0.111 S 
BRANCH  14  16
ATOM     16  N   UNL A   1      32.327  21.519  23.256  1.00  0.00    -0.313 N 
ATOM     17  C   UNL A   1      32.209  20.298  22.619  1.00  0.00     0.257 C 
ATOM     18  H   UNL A   1      31.832  22.275  22.864  1.00  0.00     0.171 HD
ATOM     19  O   UNL A   1      31.753  20.212  21.482  1.00  0.00    -0.269 OA
BRANCH  17  20
ATOM     20  C   UNL A   1      32.560  19.056  23.336  1.00  0.00     0.058 A 
ATOM     21  C   UNL A   1      33.218  17.997  22.702  1.00  0.00     0.018 A 
ATOM     22  C   UNL A   1      32.169  18.894  24.655  1.00  0.00     0.126 A 
ATOM     23  C   UNL A   1      33.356  16.785  23.373  1.00  0.00     0.037 A 
ATOM     24  N   UNL A   1      32.303  17.727  25.332  1.00  0.00    -0.249 NA
ATOM     25  C   UNL A   1      32.875  16.693  24.671  1.00  0.00     0.106 A 
ATOM     26  Br  UNL A   1      32.970  15.022  25.560  1.00  0.00    -0.029 Br
ENDBRANCH  17  20
ENDBRANCH  14  16
ENDBRANCH   8  10
ENDBRANCH   7   8
ENDBRANCH   6   7
ENDBRANCH   5   6
ENDBRANCH   4   5
ENDBRANCH   3   4
ENDBRANCH   2   3
ENDBRANCH   1   2
BRANCH   1  27
ATOM     27  C   UNL A   1      43.792  18.819  25.308  1.00  0.00     0.188 C 
BRANCH  27  28
ATOM     28  C   UNL A   1      45.321  19.043  25.327  1.00  0.00     0.188 C 
BRANCH  28  29
ATOM     29  O   UNL A   1      45.804  19.901  24.295  1.00  0.00    -0.376 OA
BRANCH  29  30
ATOM     30  C   UNL A   1      45.308  21.234  24.289  1.00  0.00     0.202 C 
BRANCH  30  31
ATOM     31  C   UNL A   1      45.484  21.961  25.628  1.00  0.00     0.261 C 
BRANCH  31  32
ATOM     32  O   UNL A   1      44.412  22.855  25.966  1.00  0.00    -0.460 OA
BRANCH  32  33
ATOM     33  C   UNL A   1      44.453  24.089  25.419  1.00  0.00     0.338 C 
ATOM     34  O   UNL A   1      44.909  24.408  24.337  1.00  0.00    -0.246 OA
BRANCH  33  35
ATOM     35  C   UNL A   1      43.683  24.996  26.289  1.00  0.00     0.060 A 
ATOM     36  C   UNL A   1      43.974  26.365  26.260  1.00  0.00     0.016 A 
ATOM     37  C   UNL A   1      42.696  24.493  27.140  1.00  0.00     0.016 A 
ATOM     38  C   UNL A   1      43.306  27.234  27.123  1.00  0.00     0.010 A 
ATOM     39  C   UNL A   1      42.038  25.360  28.013  1.00  0.00     0.010 A 
ATOM     40  C   UNL A   1      42.369  26.727  28.033  1.00  0.00    -0.014 A 
BRANCH  40  41
ATOM     41  C   UNL A   1      41.877  27.579  29.139  1.00  0.00     0.031 A 
ATOM     42  C   UNL A   1      42.604  27.528  30.453  1.00  0.00     0.074 A 
ATOM     43  C   UNL A   1      40.807  28.376  28.984  1.00  0.00     0.049 A 
ATOM     44  N   UNL A   1      42.338  28.142  31.577  1.00  0.00    -0.248 NA
ATOM     45  C   UNL A   1      43.795  26.663  30.506  1.00  0.00     0.031 C 
ATOM     46  C   UNL A   1      40.038  28.529  27.752  1.00  0.00     0.029 A 
ATOM     47  N   UNL A   1      40.178  29.199  29.883  1.00  0.00    -0.354 N 
ATOM     48  C   UNL A   1      43.324  27.740  32.466  1.00  0.00     0.074 A 
ATOM     49  C   UNL A   1      44.178  26.805  31.766  1.00  0.00     0.031 C 
ATOM     50  C   UNL A   1      39.025  29.385  27.977  1.00  0.00     0.029 A 
ATOM     51  C   UNL A   1      39.063  29.818  29.373  1.00  0.00     0.049 A 
ATOM     52  H   UNL A   1      40.495  29.335  30.805  1.00  0.00     0.167 HD
ATOM     53  C   UNL A   1      43.509  28.122  33.751  1.00  0.00     0.037 A 
ATOM     54  C   UNL A   1      38.168  30.623  29.977  1.00  0.00     0.037 A 
ATOM     55  C   UNL A   1      42.653  29.040  34.453  1.00  0.00     0.049 A 
ATOM     56  C   UNL A   1      38.354  30.978  31.431  1.00  0.00     0.074 A 
ATOM     57  C   UNL A   1      42.761  29.501  35.753  1.00  0.00     0.029 A 
ATOM     58  N   UNL A   1      41.521  29.629  33.911  1.00  0.00    -0.354 N 
ATOM     59  N   UNL A   1      39.309  30.623  32.256  1.00  0.00    -0.248 NA
ATOM     60  C   UNL A   1      37.336  31.850  32.036  1.00  0.00     0.031 C 
ATOM     61  C   UNL A   1      41.669  30.336  36.012  1.00  0.00     0.029 A 
ATOM     62  C   UNL A   1      40.908  30.433  34.857  1.00  0.00     0.049 A 
ATOM     63  H   UNL A   1      41.201  29.497  32.988  1.00  0.00     0.167 HD
ATOM     64  C   UNL A   1      39.024  31.248  33.464  1.00  0.00     0.074 A 
ATOM     65  C   UNL A   1      37.812  32.013  33.262  1.00  0.00     0.031 C 
ATOM     66  C   UNL A   1      39.706  31.195  34.634  1.00  0.00     0.037 A 
BRANCH  53  67
ATOM     67  C   UNL A   1      44.671  27.526  34.486  1.00  0.00     0.064 A 
ATOM     68  C   UNL A   1      44.551  26.322  35.197  1.00  0.00     0.173 A 
ATOM     69  C   UNL A   1      45.924  28.157  34.465  1.00  0.00     0.173 A 
ATOM     70  F   UNL A   1      43.368  25.692  35.262  1.00  0.00    -0.203 F 
ATOM     71  C   UNL A   1      45.639  25.783  35.879  1.00  0.00     0.198 A 
ATOM     72  C   UNL A   1      47.015  27.601  35.127  1.00  0.00     0.198 A 
ATOM     73  F   UNL A   1      46.089  29.310  33.800  1.00  0.00    -0.203 F 
ATOM     74  F   UNL A   1      45.490  24.656  36.588  1.00  0.00    -0.200 F 
ATOM     75  C   UNL A   1      46.871  26.419  35.838  1.00  0.00     0.200 A 
ATOM     76  F   UNL A   1      48.207  28.212  35.080  1.00  0.00    -0.200 F 
ATOM     77  F   UNL A   1      47.917  25.898  36.492  1.00  0.00    -0.200 F 
ENDBRANCH  53  67
BRANCH  54  78
ATOM     78  C   UNL A   1      37.005  31.146  29.214  1.00  0.00     0.064 A 
ATOM     79  C   UNL A   1      36.951  32.487  28.811  1.00  0.00     0.173 A 
ATOM     80  C   UNL A   1      35.917  30.323  28.895  1.00  0.00     0.173 A 
ATOM     81  F   UNL A   1      37.957  33.319  29.117  1.00  0.00    -0.203 F 
ATOM     82  C   UNL A   1      35.842  32.990  28.132  1.00  0.00     0.198 A 
ATOM     83  C   UNL A   1      34.820  30.819  28.194  1.00  0.00     0.198 A 
ATOM     84  F   UNL A   1      35.919  29.033  29.261  1.00  0.00    -0.203 F 
ATOM     85  F   UNL A   1      35.795  34.286  27.797  1.00  0.00    -0.200 F 
ATOM     86  C   UNL A   1      34.780  32.154  27.819  1.00  0.00     0.200 A 
ATOM     87  F   UNL A   1      33.800  30.006  27.884  1.00  0.00    -0.200 F 
ATOM     88  F   UNL A   1      33.714  32.637  27.166  1.00  0.00    -0.200 F 
ENDBRANCH  54  78
BRANCH  66  89
ATOM     89  C   UNL A   1      39.181  32.013  35.779  1.00  0.00     0.064 A 
ATOM     90  C   UNL A   1      38.302  31.471  36.728  1.00  0.00     0.173 A 
ATOM     91  C   UNL A   1      39.605  33.339  35.955  1.00  0.00     0.173 A 
ATOM     92  F   UNL A   1      37.858  30.213  36.595  1.00  0.00    -0.203 F 
ATOM     93  C   UNL A   1      37.850  32.235  37.801  1.00  0.00     0.198 A 
ATOM     94  C   UNL A   1      39.173  34.090  37.043  1.00  0.00     0.198 A 
ATOM     95  F   UNL A   1      40.451  33.901  35.079  1.00  0.00    -0.203 F 
ATOM     96  F   UNL A   1      36.979  31.711  38.673  1.00  0.00    -0.200 F 
ATOM     97  C   UNL A   1      38.291  33.540  37.962  1.00  0.00     0.200 A 
ATOM     98  F   UNL A   1      39.609  35.347  37.204  1.00  0.00    -0.200 F 
ATOM     99  F   UNL A   1      37.862  34.271  38.999  1.00  0.00    -0.200 F 
ENDBRANCH  66  89
ENDBRANCH  40  41
ENDBRANCH  33  35
ENDBRANCH  32  33
ENDBRANCH  31  32
ENDBRANCH  30  31
ENDBRANCH  29  30
ENDBRANCH  28  29
ENDBRANCH  27  28
ENDBRANCH   1  27
TORSDOF 22
ENDMDL
