MODEL 1
REMARK VINA RESULT:     -11.4      0.000      0.000
REMARK SMILES Cc1cc(F)cc(N[C@H](C(=O)OCCOCCOCCOCCOC(=O)c2ccc(-c3c4nc(c(-c5c(F)c(F)c(F)c(F)c5F)c5ccc([nH]5)c(-c5c(F)c(F)c(F)c(F)c5F)c5nc(c(-c6c(F)c(F)c(F)c(F)c6F)c6ccc3[nH]6)C=C5)C=C4)cc2)c2cc(Br)cs2)c1
REMARK SMILES IDX 18 1 17 2 16 3 15 4 14 5 13 6 12 7 10 8 11 9 9 10 8 11 7 13
REMARK SMILES IDX 1 14 2 15 3 16 96 17 4 18 5 19 6 20 90 21 91 22 95 23 92 24
REMARK SMILES IDX 94 25 93 26 19 27 20 28 21 29 22 30 23 31 24 32 25 33 26 34
REMARK SMILES IDX 27 35 28 36 89 37 29 38 88 39 30 40 31 41 32 42 82 43 33 44
REMARK SMILES IDX 87 45 81 46 83 47 34 48 86 49 80 50 79 51 35 53 67 54 47 55
REMARK SMILES IDX 66 56 48 57 51 58 65 59 84 60 49 61 50 62 64 64 85 65 52 66
REMARK SMILES IDX 36 67 37 68 45 69 38 70 39 71 43 72 46 73 40 74 41 75 44 76
REMARK SMILES IDX 42 77 68 78 69 79 77 80 70 81 71 82 75 83 78 84 72 85 73 86
REMARK SMILES IDX 76 87 74 88 53 89 54 90 62 91 55 92 56 93 60 94 63 95 57 96
REMARK SMILES IDX 58 97 61 98 59 99
REMARK H PARENT 8 12 83 52 51 63
REMARK Flexibility Score: inf
ROOT
ATOM      1  O   UNL A   1      41.588  18.955  25.967  1.00  0.00    -0.377 OA
ENDROOT
BRANCH   1   2
ATOM      2  C   UNL A   1      40.314  19.565  25.972  1.00  0.00     0.188 C 
BRANCH   2   3
ATOM      3  C   UNL A   1      40.371  21.054  26.358  1.00  0.00     0.188 C 
BRANCH   3   4
ATOM      4  O   UNL A   1      39.086  21.618  26.588  1.00  0.00    -0.376 OA
BRANCH   4   5
ATOM      5  C   UNL A   1      38.497  22.461  25.607  1.00  0.00     0.202 C 
BRANCH   5   6
ATOM      6  C   UNL A   1      37.098  23.066  25.823  1.00  0.00     0.261 C 
BRANCH   6   7
ATOM      7  O   UNL A   1      36.618  23.923  24.781  1.00  0.00    -0.461 OA
BRANCH   7   8
ATOM      8  C   UNL A   1      35.677  23.416  23.940  1.00  0.00     0.334 C 
ATOM      9  O   UNL A   1      35.935  22.975  22.827  1.00  0.00    -0.249 OA
BRANCH   8  10
ATOM     10  C   UNL A   1      34.290  23.393  24.655  1.00  0.00     0.231 C 
BRANCH  10  11
ATOM     11  N   UNL A   1      33.387  24.412  24.095  1.00  0.00    -0.368 N 
ATOM     12  H   UNL A   1      32.596  24.105  23.594  1.00  0.00     0.161 HD
BRANCH  11  13
ATOM     13  C   UNL A   1      33.582  25.778  24.231  1.00  0.00     0.038 A 
ATOM     14  C   UNL A   1      33.591  28.314  27.094  1.00  0.00     0.044 C 
ATOM     15  C   UNL A   1      33.667  27.724  25.719  1.00  0.00    -0.046 A 
ATOM     16  C   UNL A   1      33.787  28.565  24.611  1.00  0.00     0.042 A 
ATOM     17  C   UNL A   1      33.558  26.338  25.518  1.00  0.00     0.029 A 
ATOM     18  C   UNL A   1      33.806  28.020  23.339  1.00  0.00     0.125 A 
ATOM     19  F   UNL A   1      33.911  28.824  22.272  1.00  0.00    -0.207 F 
ATOM     20  C   UNL A   1      33.697  26.652  23.146  1.00  0.00     0.065 A 
ENDBRANCH  11  13
ENDBRANCH  10  11
BRANCH  10  21
ATOM     21  C   UNL A   1      33.799  21.963  24.787  1.00  0.00     0.039 A 
ATOM     22  C   UNL A   1      34.572  20.811  24.761  1.00  0.00     0.033 A 
ATOM     23  S   UNL A   1      32.143  21.570  25.024  1.00  0.00    -0.145 S 
ATOM     24  C   UNL A   1      33.774  19.651  24.655  1.00  0.00     0.029 A 
ATOM     25  C   UNL A   1      32.432  19.909  24.746  1.00  0.00     0.080 A 
ATOM     26  Br  UNL A   1      34.531  17.952  24.353  1.00  0.00    -0.050 Br
ENDBRANCH  10  21
ENDBRANCH   8  10
ENDBRANCH   7   8
ENDBRANCH   6   7
ENDBRANCH   5   6
ENDBRANCH   4   5
ENDBRANCH   3   4
ENDBRANCH   2   3
ENDBRANCH   1   2
BRANCH   1  27
ATOM     27  C   UNL A   1      42.714  19.779  26.235  1.00  0.00     0.188 C 
BRANCH  27  28
ATOM     28  C   UNL A   1      43.874  20.022  25.226  1.00  0.00     0.188 C 
BRANCH  28  29
ATOM     29  O   UNL A   1      44.459  21.323  25.236  1.00  0.00    -0.376 OA
BRANCH  29  30
ATOM     30  C   UNL A   1      43.616  22.445  25.022  1.00  0.00     0.202 C 
BRANCH  30  31
ATOM     31  C   UNL A   1      43.425  23.257  26.310  1.00  0.00     0.261 C 
BRANCH  31  32
ATOM     32  O   UNL A   1      42.087  23.739  26.432  1.00  0.00    -0.460 OA
BRANCH  32  33
ATOM     33  C   UNL A   1      41.917  24.486  27.527  1.00  0.00     0.338 C 
ATOM     34  O   UNL A   1      42.639  24.562  28.521  1.00  0.00    -0.246 OA
BRANCH  33  35
ATOM     35  C   UNL A   1      40.709  25.277  27.413  1.00  0.00     0.060 A 
ATOM     36  C   UNL A   1      40.737  26.309  26.456  1.00  0.00     0.016 A 
ATOM     37  C   UNL A   1      39.895  25.281  28.537  1.00  0.00     0.016 A 
ATOM     38  C   UNL A   1      40.229  27.527  26.813  1.00  0.00     0.010 A 
ATOM     39  C   UNL A   1      39.412  26.502  28.906  1.00  0.00     0.010 A 
ATOM     40  C   UNL A   1      39.752  27.612  28.113  1.00  0.00    -0.014 A 
BRANCH  40  41
ATOM     41  C   UNL A   1      39.991  28.812  28.879  1.00  0.00     0.031 A 
ATOM     42  C   UNL A   1      38.943  29.819  28.925  1.00  0.00     0.074 A 
ATOM     43  C   UNL A   1      41.122  28.828  29.618  1.00  0.00     0.049 A 
ATOM     44  N   UNL A   1      39.124  31.040  29.277  1.00  0.00    -0.248 NA
ATOM     45  C   UNL A   1      37.590  29.527  28.469  1.00  0.00     0.031 C 
ATOM     46  C   UNL A   1      41.420  29.636  30.789  1.00  0.00     0.029 A 
ATOM     47  N   UNL A   1      42.325  28.154  29.337  1.00  0.00    -0.354 N 
ATOM     48  C   UNL A   1      37.875  31.601  29.407  1.00  0.00     0.074 A 
ATOM     49  C   UNL A   1      36.973  30.669  28.772  1.00  0.00     0.031 C 
ATOM     50  C   UNL A   1      42.745  29.597  31.016  1.00  0.00     0.029 A 
ATOM     51  C   UNL A   1      43.363  28.933  29.874  1.00  0.00     0.049 A 
ATOM     52  H   UNL A   1      42.420  27.301  28.855  1.00  0.00     0.167 HD
ATOM     53  C   UNL A   1      37.743  32.691  30.214  1.00  0.00     0.037 A 
ATOM     54  C   UNL A   1      44.270  29.538  29.049  1.00  0.00     0.037 A 
ATOM     55  C   UNL A   1      39.057  33.114  30.708  1.00  0.00     0.049 A 
ATOM     56  C   UNL A   1      44.197  31.045  29.110  1.00  0.00     0.074 A 
ATOM     57  C   UNL A   1      39.743  32.797  31.872  1.00  0.00     0.029 A 
ATOM     58  N   UNL A   1      40.003  33.620  29.820  1.00  0.00    -0.354 N 
ATOM     59  N   UNL A   1      43.116  31.712  29.412  1.00  0.00    -0.248 NA
ATOM     60  C   UNL A   1      45.335  31.910  28.820  1.00  0.00     0.031 C 
ATOM     61  C   UNL A   1      41.119  33.047  31.651  1.00  0.00     0.029 A 
ATOM     62  C   UNL A   1      41.272  33.540  30.367  1.00  0.00     0.049 A 
ATOM     63  H   UNL A   1      39.798  33.984  28.928  1.00  0.00     0.167 HD
ATOM     64  C   UNL A   1      43.389  33.051  29.369  1.00  0.00     0.074 A 
ATOM     65  C   UNL A   1      44.792  33.125  28.997  1.00  0.00     0.031 C 
ATOM     66  C   UNL A   1      42.444  33.999  29.638  1.00  0.00     0.037 A 
BRANCH  53  67
ATOM     67  C   UNL A   1      36.427  33.079  30.854  1.00  0.00     0.064 A 
ATOM     68  C   UNL A   1      35.521  33.914  30.168  1.00  0.00     0.173 A 
ATOM     69  C   UNL A   1      36.037  32.742  32.164  1.00  0.00     0.173 A 
ATOM     70  F   UNL A   1      35.693  34.221  28.876  1.00  0.00    -0.203 F 
ATOM     71  C   UNL A   1      34.398  34.471  30.785  1.00  0.00     0.198 A 
ATOM     72  C   UNL A   1      34.947  33.343  32.802  1.00  0.00     0.198 A 
ATOM     73  F   UNL A   1      36.657  31.776  32.851  1.00  0.00    -0.203 F 
ATOM     74  F   UNL A   1      33.583  35.270  30.083  1.00  0.00    -0.200 F 
ATOM     75  C   UNL A   1      34.134  34.220  32.115  1.00  0.00     0.200 A 
ATOM     76  F   UNL A   1      34.692  33.064  34.088  1.00  0.00    -0.200 F 
ATOM     77  F   UNL A   1      33.085  34.790  32.720  1.00  0.00    -0.200 F 
ENDBRANCH  53  67
BRANCH  54  78
ATOM     78  C   UNL A   1      44.556  28.785  27.796  1.00  0.00     0.064 A 
ATOM     79  C   UNL A   1      45.486  27.729  27.821  1.00  0.00     0.173 A 
ATOM     80  C   UNL A   1      43.708  28.873  26.685  1.00  0.00     0.173 A 
ATOM     81  F   UNL A   1      46.332  27.607  28.856  1.00  0.00    -0.203 F 
ATOM     82  C   UNL A   1      45.504  26.754  26.823  1.00  0.00     0.198 A 
ATOM     83  C   UNL A   1      43.722  27.890  25.694  1.00  0.00     0.198 A 
ATOM     84  F   UNL A   1      42.800  29.855  26.597  1.00  0.00    -0.203 F 
ATOM     85  F   UNL A   1      46.359  25.723  26.904  1.00  0.00    -0.200 F 
ATOM     86  C   UNL A   1      44.599  26.818  25.779  1.00  0.00     0.200 A 
ATOM     87  F   UNL A   1      42.827  27.936  24.696  1.00  0.00    -0.200 F 
ATOM     88  F   UNL A   1      44.537  25.829  24.875  1.00  0.00    -0.200 F 
ENDBRANCH  54  78
BRANCH  66  89
ATOM     89  C   UNL A   1      42.599  35.467  29.350  1.00  0.00     0.064 A 
ATOM     90  C   UNL A   1      43.444  36.314  30.084  1.00  0.00     0.173 A 
ATOM     91  C   UNL A   1      41.991  36.043  28.210  1.00  0.00     0.173 A 
ATOM     92  F   UNL A   1      44.180  35.851  31.103  1.00  0.00    -0.203 F 
ATOM     93  C   UNL A   1      43.601  37.661  29.756  1.00  0.00     0.198 A 
ATOM     94  C   UNL A   1      42.200  37.372  27.849  1.00  0.00     0.198 A 
ATOM     95  F   UNL A   1      41.199  35.326  27.398  1.00  0.00    -0.203 F 
ATOM     96  F   UNL A   1      44.374  38.443  30.523  1.00  0.00    -0.200 F 
ATOM     97  C   UNL A   1      42.986  38.188  28.636  1.00  0.00     0.200 A 
ATOM     98  F   UNL A   1      41.649  37.851  26.726  1.00  0.00    -0.200 F 
ATOM     99  F   UNL A   1      43.170  39.472  28.304  1.00  0.00    -0.200 F 
ENDBRANCH  66  89
ENDBRANCH  40  41
ENDBRANCH  33  35
ENDBRANCH  32  33
ENDBRANCH  31  32
ENDBRANCH  30  31
ENDBRANCH  29  30
ENDBRANCH  28  29
ENDBRANCH  27  28
ENDBRANCH   1  27
TORSDOF 23
ENDMDL
MODEL 2
REMARK VINA RESULT:     -10.4      2.814      4.932
REMARK SMILES Cc1cc(F)cc(N[C@H](C(=O)OCCOCCOCCOCCOC(=O)c2ccc(-c3c4nc(c(-c5c(F)c(F)c(F)c(F)c5F)c5ccc([nH]5)c(-c5c(F)c(F)c(F)c(F)c5F)c5nc(c(-c6c(F)c(F)c(F)c(F)c6F)c6ccc3[nH]6)C=C5)C=C4)cc2)c2cc(Br)cs2)c1
REMARK SMILES IDX 18 1 17 2 16 3 15 4 14 5 13 6 12 7 10 8 11 9 9 10 8 11 7 13
REMARK SMILES IDX 1 14 2 15 3 16 96 17 4 18 5 19 6 20 90 21 91 22 95 23 92 24
REMARK SMILES IDX 94 25 93 26 19 27 20 28 21 29 22 30 23 31 24 32 25 33 26 34
REMARK SMILES IDX 27 35 28 36 89 37 29 38 88 39 30 40 31 41 32 42 82 43 33 44
REMARK SMILES IDX 87 45 81 46 83 47 34 48 86 49 80 50 79 51 35 53 67 54 47 55
REMARK SMILES IDX 66 56 48 57 51 58 65 59 84 60 49 61 50 62 64 64 85 65 52 66
REMARK SMILES IDX 36 67 37 68 45 69 38 70 39 71 43 72 46 73 40 74 41 75 44 76
REMARK SMILES IDX 42 77 68 78 69 79 77 80 70 81 71 82 75 83 78 84 72 85 73 86
REMARK SMILES IDX 76 87 74 88 53 89 54 90 62 91 55 92 56 93 60 94 63 95 57 96
REMARK SMILES IDX 58 97 61 98 59 99
REMARK H PARENT 8 12 83 52 51 63
REMARK Flexibility Score: inf
ROOT
ATOM      1  O   UNL A   1      41.774  19.782  25.588  1.00  0.00    -0.377 OA
ENDROOT
BRANCH   1   2
ATOM      2  C   UNL A   1      40.846  20.280  26.529  1.00  0.00     0.188 C 
BRANCH   2   3
ATOM      3  C   UNL A   1      39.640  20.969  25.866  1.00  0.00     0.188 C 
BRANCH   3   4
ATOM      4  O   UNL A   1      38.807  20.065  25.151  1.00  0.00    -0.376 OA
BRANCH   4   5
ATOM      5  C   UNL A   1      37.482  20.445  24.806  1.00  0.00     0.202 C 
BRANCH   5   6
ATOM      6  C   UNL A   1      36.607  21.243  25.790  1.00  0.00     0.261 C 
BRANCH   6   7
ATOM      7  O   UNL A   1      35.381  21.760  25.262  1.00  0.00    -0.461 OA
BRANCH   7   8
ATOM      8  C   UNL A   1      34.316  21.825  26.107  1.00  0.00     0.334 C 
ATOM      9  O   UNL A   1      34.425  21.875  27.326  1.00  0.00    -0.249 OA
BRANCH   8  10
ATOM     10  C   UNL A   1      32.996  21.934  25.281  1.00  0.00     0.231 C 
BRANCH  10  11
ATOM     11  N   UNL A   1      32.180  20.717  25.422  1.00  0.00    -0.368 N 
ATOM     12  H   UNL A   1      31.434  20.731  26.064  1.00  0.00     0.161 HD
BRANCH  11  13
ATOM     13  C   UNL A   1      32.398  19.551  24.703  1.00  0.00     0.038 A 
ATOM     14  C   UNL A   1      33.846  16.082  25.402  1.00  0.00     0.044 C 
ATOM     15  C   UNL A   1      33.242  17.250  24.686  1.00  0.00    -0.046 A 
ATOM     16  C   UNL A   1      33.048  17.190  23.304  1.00  0.00     0.042 A 
ATOM     17  C   UNL A   1      32.921  18.434  25.371  1.00  0.00     0.029 A 
ATOM     18  C   UNL A   1      32.537  18.290  22.638  1.00  0.00     0.125 A 
ATOM     19  F   UNL A   1      32.358  18.241  21.311  1.00  0.00    -0.207 F 
ATOM     20  C   UNL A   1      32.223  19.457  23.319  1.00  0.00     0.065 A 
ENDBRANCH  11  13
ENDBRANCH  10  11
BRANCH  10  21
ATOM     21  C   UNL A   1      32.350  23.287  25.515  1.00  0.00     0.039 A 
ATOM     22  C   UNL A   1      32.816  24.520  25.078  1.00  0.00     0.033 A 
ATOM     23  S   UNL A   1      30.870  23.473  26.369  1.00  0.00    -0.145 S 
ATOM     24  C   UNL A   1      32.114  25.585  25.684  1.00  0.00     0.029 A 
ATOM     25  C   UNL A   1      31.053  25.170  26.443  1.00  0.00     0.080 A 
ATOM     26  Br  UNL A   1      32.668  27.375  25.486  1.00  0.00    -0.050 Br
ENDBRANCH  10  21
ENDBRANCH   8  10
ENDBRANCH   7   8
ENDBRANCH   6   7
ENDBRANCH   5   6
ENDBRANCH   4   5
ENDBRANCH   3   4
ENDBRANCH   2   3
ENDBRANCH   1   2
BRANCH   1  27
ATOM     27  C   UNL A   1      43.016  19.297  26.080  1.00  0.00     0.188 C 
BRANCH  27  28
ATOM     28  C   UNL A   1      44.142  18.716  25.177  1.00  0.00     0.188 C 
BRANCH  28  29
ATOM     29  O   UNL A   1      44.337  19.357  23.917  1.00  0.00    -0.376 OA
BRANCH  29  30
ATOM     30  C   UNL A   1      44.857  20.678  23.904  1.00  0.00     0.202 C 
BRANCH  30  31
ATOM     31  C   UNL A   1      46.167  20.773  24.699  1.00  0.00     0.261 C 
BRANCH  31  32
ATOM     32  O   UNL A   1      45.982  21.472  25.929  1.00  0.00    -0.460 OA
BRANCH  32  33
ATOM     33  C   UNL A   1      45.956  22.797  25.759  1.00  0.00     0.338 C 
ATOM     34  O   UNL A   1      46.898  23.559  25.541  1.00  0.00    -0.246 OA
BRANCH  33  35
ATOM     35  C   UNL A   1      44.596  23.287  25.845  1.00  0.00     0.060 A 
ATOM     36  C   UNL A   1      44.276  24.366  24.999  1.00  0.00     0.016 A 
ATOM     37  C   UNL A   1      43.941  23.014  27.038  1.00  0.00     0.016 A 
ATOM     38  C   UNL A   1      43.553  25.400  25.526  1.00  0.00     0.010 A 
ATOM     39  C   UNL A   1      43.243  24.055  27.575  1.00  0.00     0.010 A 
ATOM     40  C   UNL A   1      43.227  25.271  26.868  1.00  0.00    -0.014 A 
BRANCH  40  41
ATOM     41  C   UNL A   1      43.278  26.432  27.725  1.00  0.00     0.031 A 
ATOM     42  C   UNL A   1      42.070  27.227  27.881  1.00  0.00     0.074 A 
ATOM     43  C   UNL A   1      44.416  26.594  28.435  1.00  0.00     0.049 A 
ATOM     44  N   UNL A   1      42.045  28.429  28.328  1.00  0.00    -0.248 NA
ATOM     45  C   UNL A   1      40.774  26.731  27.436  1.00  0.00     0.031 C 
ATOM     46  C   UNL A   1      44.611  27.350  29.662  1.00  0.00     0.029 A 
ATOM     47  N   UNL A   1      45.708  26.172  28.070  1.00  0.00    -0.354 N 
ATOM     48  C   UNL A   1      40.722  28.744  28.535  1.00  0.00     0.074 A 
ATOM     49  C   UNL A   1      39.976  27.716  27.847  1.00  0.00     0.031 C 
ATOM     50  C   UNL A   1      45.930  27.533  29.852  1.00  0.00     0.029 A 
ATOM     51  C   UNL A   1      46.611  27.082  28.644  1.00  0.00     0.049 A 
ATOM     52  H   UNL A   1      45.935  25.390  27.517  1.00  0.00     0.167 HD
ATOM     53  C   UNL A   1      40.430  29.726  29.433  1.00  0.00     0.037 A 
ATOM     54  C   UNL A   1      47.363  27.902  27.851  1.00  0.00     0.037 A 
ATOM     55  C   UNL A   1      41.666  30.340  29.927  1.00  0.00     0.049 A 
ATOM     56  C   UNL A   1      47.025  29.362  28.038  1.00  0.00     0.074 A 
ATOM     57  C   UNL A   1      42.442  30.063  31.044  1.00  0.00     0.029 A 
ATOM     58  N   UNL A   1      42.472  31.076  29.062  1.00  0.00    -0.354 N 
ATOM     59  N   UNL A   1      45.856  29.798  28.420  1.00  0.00    -0.248 NA
ATOM     60  C   UNL A   1      47.980  30.438  27.793  1.00  0.00     0.031 C 
ATOM     61  C   UNL A   1      43.743  30.574  30.811  1.00  0.00     0.029 A 
ATOM     62  C   UNL A   1      43.755  31.184  29.569  1.00  0.00     0.049 A 
ATOM     63  H   UNL A   1      42.171  31.464  28.208  1.00  0.00     0.167 HD
ATOM     64  C   UNL A   1      45.885  31.164  28.482  1.00  0.00     0.074 A 
ATOM     65  C   UNL A   1      47.236  31.518  28.083  1.00  0.00     0.031 C 
ATOM     66  C   UNL A   1      44.797  31.902  28.852  1.00  0.00     0.037 A 
BRANCH  53  67
ATOM     67  C   UNL A   1      39.092  29.820  30.134  1.00  0.00     0.064 A 
ATOM     68  C   UNL A   1      38.182  30.845  29.799  1.00  0.00     0.173 A 
ATOM     69  C   UNL A   1      38.681  28.997  31.199  1.00  0.00     0.173 A 
ATOM     70  F   UNL A   1      38.376  31.631  28.733  1.00  0.00    -0.203 F 
ATOM     71  C   UNL A   1      37.035  31.105  30.552  1.00  0.00     0.198 A 
ATOM     72  C   UNL A   1      37.564  29.291  31.989  1.00  0.00     0.198 A 
ATOM     73  F   UNL A   1      39.308  27.848  31.477  1.00  0.00    -0.203 F 
ATOM     74  F   UNL A   1      36.217  32.104  30.191  1.00  0.00    -0.200 F 
ATOM     75  C   UNL A   1      36.747  30.355  31.672  1.00  0.00     0.200 A 
ATOM     76  F   UNL A   1      37.287  28.531  33.059  1.00  0.00    -0.200 F 
ATOM     77  F   UNL A   1      35.672  30.633  32.420  1.00  0.00    -0.200 F 
ENDBRANCH  53  67
BRANCH  54  78
ATOM     78  C   UNL A   1      47.729  27.312  26.533  1.00  0.00     0.064 A 
ATOM     79  C   UNL A   1      47.010  27.688  25.383  1.00  0.00     0.173 A 
ATOM     80  C   UNL A   1      48.953  26.657  26.344  1.00  0.00     0.173 A 
ATOM     81  F   UNL A   1      45.825  28.306  25.508  1.00  0.00    -0.203 F 
ATOM     82  C   UNL A   1      47.534  27.497  24.104  1.00  0.00     0.198 A 
ATOM     83  C   UNL A   1      49.479  26.478  25.064  1.00  0.00     0.198 A 
ATOM     84  F   UNL A   1      49.688  26.270  27.396  1.00  0.00    -0.203 F 
ATOM     85  F   UNL A   1      46.855  27.922  23.028  1.00  0.00    -0.200 F 
ATOM     86  C   UNL A   1      48.783  26.923  23.949  1.00  0.00     0.200 A 
ATOM     87  F   UNL A   1      50.701  25.946  24.913  1.00  0.00    -0.200 F 
ATOM     88  F   UNL A   1      49.341  26.835  22.732  1.00  0.00    -0.200 F 
ENDBRANCH  54  78
BRANCH  66  89
ATOM     89  C   UNL A   1      44.677  33.391  28.683  1.00  0.00     0.064 A 
ATOM     90  C   UNL A   1      44.207  34.001  27.508  1.00  0.00     0.173 A 
ATOM     91  C   UNL A   1      44.906  34.259  29.776  1.00  0.00     0.173 A 
ATOM     92  F   UNL A   1      43.827  33.272  26.450  1.00  0.00    -0.203 F 
ATOM     93  C   UNL A   1      44.062  35.384  27.405  1.00  0.00     0.198 A 
ATOM     94  C   UNL A   1      44.699  35.633  29.689  1.00  0.00     0.198 A 
ATOM     95  F   UNL A   1      45.310  33.795  30.968  1.00  0.00    -0.203 F 
ATOM     96  F   UNL A   1      43.665  35.924  26.243  1.00  0.00    -0.200 F 
ATOM     97  C   UNL A   1      44.300  36.199  28.496  1.00  0.00     0.200 A 
ATOM     98  F   UNL A   1      44.872  36.403  30.772  1.00  0.00    -0.200 F 
ATOM     99  F   UNL A   1      44.122  37.523  28.403  1.00  0.00    -0.200 F 
ENDBRANCH  66  89
ENDBRANCH  40  41
ENDBRANCH  33  35
ENDBRANCH  32  33
ENDBRANCH  31  32
ENDBRANCH  30  31
ENDBRANCH  29  30
ENDBRANCH  28  29
ENDBRANCH  27  28
ENDBRANCH   1  27
TORSDOF 23
ENDMDL
MODEL 3
REMARK VINA RESULT:      -9.8      1.820      3.356
REMARK SMILES Cc1cc(F)cc(N[C@H](C(=O)OCCOCCOCCOCCOC(=O)c2ccc(-c3c4nc(c(-c5c(F)c(F)c(F)c(F)c5F)c5ccc([nH]5)c(-c5c(F)c(F)c(F)c(F)c5F)c5nc(c(-c6c(F)c(F)c(F)c(F)c6F)c6ccc3[nH]6)C=C5)C=C4)cc2)c2cc(Br)cs2)c1
REMARK SMILES IDX 18 1 17 2 16 3 15 4 14 5 13 6 12 7 10 8 11 9 9 10 8 11 7 13
REMARK SMILES IDX 1 14 2 15 3 16 96 17 4 18 5 19 6 20 90 21 91 22 95 23 92 24
REMARK SMILES IDX 94 25 93 26 19 27 20 28 21 29 22 30 23 31 24 32 25 33 26 34
REMARK SMILES IDX 27 35 28 36 89 37 29 38 88 39 30 40 31 41 32 42 82 43 33 44
REMARK SMILES IDX 87 45 81 46 83 47 34 48 86 49 80 50 79 51 35 53 67 54 47 55
REMARK SMILES IDX 66 56 48 57 51 58 65 59 84 60 49 61 50 62 64 64 85 65 52 66
REMARK SMILES IDX 36 67 37 68 45 69 38 70 39 71 43 72 46 73 40 74 41 75 44 76
REMARK SMILES IDX 42 77 68 78 69 79 77 80 70 81 71 82 75 83 78 84 72 85 73 86
REMARK SMILES IDX 76 87 74 88 53 89 54 90 62 91 55 92 56 93 60 94 63 95 57 96
REMARK SMILES IDX 58 97 61 98 59 99
REMARK H PARENT 8 12 83 52 51 63
REMARK Flexibility Score: inf
ROOT
ATOM      1  O   UNL A   1      41.489  19.628  26.025  1.00  0.00    -0.377 OA
ENDROOT
BRANCH   1   2
ATOM      2  C   UNL A   1      40.115  19.945  26.098  1.00  0.00     0.188 C 
BRANCH   2   3
ATOM      3  C   UNL A   1      39.857  21.462  26.129  1.00  0.00     0.188 C 
BRANCH   3   4
ATOM      4  O   UNL A   1      38.496  21.790  26.379  1.00  0.00    -0.376 OA
BRANCH   4   5
ATOM      5  C   UNL A   1      37.809  22.675  25.505  1.00  0.00     0.202 C 
BRANCH   5   6
ATOM      6  C   UNL A   1      36.813  23.712  26.054  1.00  0.00     0.261 C 
BRANCH   6   7
ATOM      7  O   UNL A   1      35.695  24.014  25.212  1.00  0.00    -0.461 OA
BRANCH   7   8
ATOM      8  C   UNL A   1      34.470  23.589  25.626  1.00  0.00     0.334 C 
ATOM      9  O   UNL A   1      34.078  23.687  26.782  1.00  0.00    -0.249 OA
BRANCH   8  10
ATOM     10  C   UNL A   1      33.648  23.081  24.400  1.00  0.00     0.231 C 
BRANCH  10  11
ATOM     11  N   UNL A   1      33.066  21.756  24.664  1.00  0.00    -0.368 N 
ATOM     12  H   UNL A   1      32.121  21.711  24.938  1.00  0.00     0.161 HD
BRANCH  11  13
ATOM     13  C   UNL A   1      33.767  20.565  24.547  1.00  0.00     0.038 A 
ATOM     14  C   UNL A   1      32.925  16.898  23.863  1.00  0.00     0.044 C 
ATOM     15  C   UNL A   1      33.697  18.145  24.166  1.00  0.00    -0.046 A 
ATOM     16  C   UNL A   1      35.060  18.061  24.459  1.00  0.00     0.042 A 
ATOM     17  C   UNL A   1      33.062  19.396  24.219  1.00  0.00     0.029 A 
ATOM     18  C   UNL A   1      35.760  19.208  24.789  1.00  0.00     0.125 A 
ATOM     19  F   UNL A   1      37.065  19.131  25.081  1.00  0.00    -0.207 F 
ATOM     20  C   UNL A   1      35.128  20.441  24.841  1.00  0.00     0.065 A 
ENDBRANCH  11  13
ENDBRANCH  10  11
BRANCH  10  21
ATOM     21  C   UNL A   1      32.753  24.192  23.882  1.00  0.00     0.039 A 
ATOM     22  C   UNL A   1      33.131  25.491  23.570  1.00  0.00     0.033 A 
ATOM     23  S   UNL A   1      31.078  23.963  23.572  1.00  0.00    -0.145 S 
ATOM     24  C   UNL A   1      32.010  26.323  23.362  1.00  0.00     0.029 A 
ATOM     25  C   UNL A   1      30.822  25.641  23.369  1.00  0.00     0.080 A 
ATOM     26  Br  UNL A   1      32.184  28.188  23.163  1.00  0.00    -0.050 Br
ENDBRANCH  10  21
ENDBRANCH   8  10
ENDBRANCH   7   8
ENDBRANCH   6   7
ENDBRANCH   5   6
ENDBRANCH   4   5
ENDBRANCH   3   4
ENDBRANCH   2   3
ENDBRANCH   1   2
BRANCH   1  27
ATOM     27  C   UNL A   1      42.420  20.680  26.237  1.00  0.00     0.188 C 
BRANCH  27  28
ATOM     28  C   UNL A   1      43.823  20.749  25.566  1.00  0.00     0.188 C 
BRANCH  28  29
ATOM     29  O   UNL A   1      44.163  21.984  24.937  1.00  0.00    -0.376 OA
BRANCH  29  30
ATOM     30  C   UNL A   1      43.134  22.940  24.724  1.00  0.00     0.202 C 
BRANCH  30  31
ATOM     31  C   UNL A   1      43.253  24.118  25.701  1.00  0.00     0.261 C 
BRANCH  31  32
ATOM     32  O   UNL A   1      42.354  23.978  26.800  1.00  0.00    -0.460 OA
BRANCH  32  33
ATOM     33  C   UNL A   1      42.409  25.022  27.633  1.00  0.00     0.338 C 
ATOM     34  O   UNL A   1      43.346  25.386  28.343  1.00  0.00    -0.246 OA
BRANCH  33  35
ATOM     35  C   UNL A   1      41.160  25.755  27.604  1.00  0.00     0.060 A 
ATOM     36  C   UNL A   1      41.066  26.773  26.636  1.00  0.00     0.016 A 
ATOM     37  C   UNL A   1      40.434  25.737  28.787  1.00  0.00     0.016 A 
ATOM     38  C   UNL A   1      40.530  27.971  27.019  1.00  0.00     0.010 A 
ATOM     39  C   UNL A   1      39.923  26.939  29.179  1.00  0.00     0.010 A 
ATOM     40  C   UNL A   1      40.150  28.053  28.350  1.00  0.00    -0.014 A 
BRANCH  40  41
ATOM     41  C   UNL A   1      40.390  29.273  29.083  1.00  0.00     0.031 A 
ATOM     42  C   UNL A   1      39.322  30.258  29.148  1.00  0.00     0.074 A 
ATOM     43  C   UNL A   1      41.546  29.328  29.780  1.00  0.00     0.049 A 
ATOM     44  N   UNL A   1      39.488  31.490  29.468  1.00  0.00    -0.248 NA
ATOM     45  C   UNL A   1      37.960  29.928  28.747  1.00  0.00     0.031 C 
ATOM     46  C   UNL A   1      41.868  30.167  30.923  1.00  0.00     0.029 A 
ATOM     47  N   UNL A   1      42.753  28.675  29.468  1.00  0.00    -0.354 N 
ATOM     48  C   UNL A   1      38.233  32.027  29.633  1.00  0.00     0.074 A 
ATOM     49  C   UNL A   1      37.329  31.063  29.050  1.00  0.00     0.031 C 
ATOM     50  C   UNL A   1      43.202  30.161  31.102  1.00  0.00     0.029 A 
ATOM     51  C   UNL A   1      43.792  29.487  29.951  1.00  0.00     0.049 A 
ATOM     52  H   UNL A   1      42.850  27.814  29.000  1.00  0.00     0.167 HD
ATOM     53  C   UNL A   1      38.107  33.130  30.422  1.00  0.00     0.037 A 
ATOM     54  C   UNL A   1      44.655  30.094  29.082  1.00  0.00     0.037 A 
ATOM     55  C   UNL A   1      39.427  33.591  30.859  1.00  0.00     0.049 A 
ATOM     56  C   UNL A   1      44.551  31.600  29.116  1.00  0.00     0.074 A 
ATOM     57  C   UNL A   1      40.162  33.313  32.003  1.00  0.00     0.029 A 
ATOM     58  N   UNL A   1      40.330  34.099  29.927  1.00  0.00    -0.354 N 
ATOM     59  N   UNL A   1      43.468  32.250  29.444  1.00  0.00    -0.248 NA
ATOM     60  C   UNL A   1      45.659  32.483  28.767  1.00  0.00     0.031 C 
ATOM     61  C   UNL A   1      41.524  33.587  31.728  1.00  0.00     0.029 A 
ATOM     62  C   UNL A   1      41.619  34.057  30.429  1.00  0.00     0.049 A 
ATOM     63  H   UNL A   1      40.085  34.439  29.036  1.00  0.00     0.167 HD
ATOM     64  C   UNL A   1      43.709  33.593  29.364  1.00  0.00     0.074 A 
ATOM     65  C   UNL A   1      45.095  33.690  28.940  1.00  0.00     0.031 C 
ATOM     66  C   UNL A   1      42.753  34.526  29.649  1.00  0.00     0.037 A 
BRANCH  53  67
ATOM     67  C   UNL A   1      36.806  33.503  31.102  1.00  0.00     0.064 A 
ATOM     68  C   UNL A   1      36.629  33.266  32.481  1.00  0.00     0.173 A 
ATOM     69  C   UNL A   1      35.670  34.009  30.443  1.00  0.00     0.173 A 
ATOM     70  F   UNL A   1      37.651  32.900  33.265  1.00  0.00    -0.203 F 
ATOM     71  C   UNL A   1      35.389  33.393  33.111  1.00  0.00     0.198 A 
ATOM     72  C   UNL A   1      34.415  34.082  31.058  1.00  0.00     0.198 A 
ATOM     73  F   UNL A   1      35.743  34.508  29.204  1.00  0.00    -0.203 F 
ATOM     74  F   UNL A   1      35.282  33.138  34.423  1.00  0.00    -0.200 F 
ATOM     75  C   UNL A   1      34.272  33.760  32.391  1.00  0.00     0.200 A 
ATOM     76  F   UNL A   1      33.346  34.468  30.346  1.00  0.00    -0.200 F 
ATOM     77  F   UNL A   1      33.074  33.837  32.985  1.00  0.00    -0.200 F 
ENDBRANCH  53  67
BRANCH  54  78
ATOM     78  C   UNL A   1      44.912  29.321  27.835  1.00  0.00     0.064 A 
ATOM     79  C   UNL A   1      45.901  28.320  27.833  1.00  0.00     0.173 A 
ATOM     80  C   UNL A   1      43.998  29.329  26.773  1.00  0.00     0.173 A 
ATOM     81  F   UNL A   1      46.810  28.276  28.820  1.00  0.00    -0.203 F 
ATOM     82  C   UNL A   1      45.919  27.319  26.862  1.00  0.00     0.198 A 
ATOM     83  C   UNL A   1      44.013  28.320  25.809  1.00  0.00     0.198 A 
ATOM     84  F   UNL A   1      43.032  30.256  26.712  1.00  0.00    -0.203 F 
ATOM     85  F   UNL A   1      46.835  26.340  26.920  1.00  0.00    -0.200 F 
ATOM     86  C   UNL A   1      44.953  27.302  25.871  1.00  0.00     0.200 A 
ATOM     87  F   UNL A   1      43.062  28.286  24.864  1.00  0.00    -0.200 F 
ATOM     88  F   UNL A   1      44.897  26.284  24.998  1.00  0.00    -0.200 F 
ENDBRANCH  54  78
BRANCH  66  89
ATOM     89  C   UNL A   1      42.865  35.991  29.326  1.00  0.00     0.064 A 
ATOM     90  C   UNL A   1      43.661  36.886  30.059  1.00  0.00     0.173 A 
ATOM     91  C   UNL A   1      42.268  36.516  28.156  1.00  0.00     0.173 A 
ATOM     92  F   UNL A   1      44.385  36.474  31.109  1.00  0.00    -0.203 F 
ATOM     93  C   UNL A   1      43.780  38.228  29.700  1.00  0.00     0.198 A 
ATOM     94  C   UNL A   1      42.441  37.841  27.765  1.00  0.00     0.198 A 
ATOM     95  F   UNL A   1      41.524  35.751  27.344  1.00  0.00    -0.203 F 
ATOM     96  F   UNL A   1      44.505  39.057  30.465  1.00  0.00    -0.200 F 
ATOM     97  C   UNL A   1      43.177  38.704  28.551  1.00  0.00     0.200 A 
ATOM     98  F   UNL A   1      41.904  38.272  26.616  1.00  0.00    -0.200 F 
ATOM     99  F   UNL A   1      43.326  39.985  28.190  1.00  0.00    -0.200 F 
ENDBRANCH  66  89
ENDBRANCH  40  41
ENDBRANCH  33  35
ENDBRANCH  32  33
ENDBRANCH  31  32
ENDBRANCH  30  31
ENDBRANCH  29  30
ENDBRANCH  28  29
ENDBRANCH  27  28
ENDBRANCH   1  27
TORSDOF 23
ENDMDL
