MODEL 1
REMARK VINA RESULT:      -9.2      0.000      0.000
REMARK SMILES Cc1ccccc1NC(=S)NN1C(=O)CS[C@H]1c1ccccc1C(=O)OCCOCCOCCOCCOC(=O)c1ccc(-c2c3nc(c(-c4c(F)c(F)c(F)c(F)c4F)c4ccc([nH]4)c(-c4c(F)c(F)c(F)c(F)c4F)c4nc(c(-c5c(F)c(F)c(F)c(F)c5F)c5ccc2[nH]5)C=C4)C=C3)cc1
REMARK SMILES IDX 30 1 29 2 28 3 27 4 26 5 24 6 25 7 23 8 18 9 19 10 20 11
REMARK SMILES IDX 22 12 21 13 17 14 12 15 13 16 14 17 15 18 16 19 11 20 9 22
REMARK SMILES IDX 10 23 8 24 7 26 1 27 2 28 3 29 4 30 6 31 5 32 31 33 32 34
REMARK SMILES IDX 33 35 34 36 35 37 36 38 37 39 38 40 39 41 40 42 41 43 42 44
REMARK SMILES IDX 103 45 43 46 102 47 44 48 45 49 46 50 96 51 47 52 101 53
REMARK SMILES IDX 95 54 97 55 48 56 100 57 94 58 93 59 49 61 81 62 61 63 80 64
REMARK SMILES IDX 62 65 65 66 79 67 98 68 63 69 64 70 78 72 99 73 66 74 50 75
REMARK SMILES IDX 51 76 59 77 52 78 53 79 57 80 60 81 54 82 55 83 58 84 56 85
REMARK SMILES IDX 82 86 83 87 91 88 84 89 85 90 89 91 92 92 86 93 87 94 90 95
REMARK SMILES IDX 88 96 67 97 68 98 76 99 69 100 70 101 74 102 77 103 71 104
REMARK SMILES IDX 72 105 75 106 73 107
REMARK H PARENT 11 21 8 25 97 60 65 71
REMARK Flexibility Score: inf
ROOT
ATOM      1  C   UNL A   1      43.107  27.764  35.021  1.00  0.00     0.188 C 
ENDROOT
BRANCH   1   2
ATOM      2  O   UNL A   1      42.081  28.685  34.726  1.00  0.00    -0.376 OA
BRANCH   2   3
ATOM      3  C   UNL A   1      42.280  30.103  35.005  1.00  0.00     0.202 C 
BRANCH   3   4
ATOM      4  C   UNL A   1      41.521  31.358  33.904  1.00  0.00     0.261 C 
BRANCH   4   5
ATOM      5  O   UNL A   1      41.511  31.458  32.032  1.00  0.00    -0.460 OA
BRANCH   5   6
ATOM      6  C   UNL A   1      40.506  31.918  30.833  1.00  0.00     0.338 C 
ATOM      7  O   UNL A   1      40.630  33.053  30.367  1.00  0.00    -0.246 OA
BRANCH   6   8
ATOM      8  C   UNL A   1      39.059  31.133  30.291  1.00  0.00     0.066 A 
ATOM      9  C   UNL A   1      37.875  31.437  30.994  1.00  0.00     0.001 A 
ATOM     10  C   UNL A   1      36.638  30.757  30.930  1.00  0.00     0.008 A 
ATOM     11  C   UNL A   1      36.584  29.568  30.260  1.00  0.00     0.000 A 
ATOM     12  C   UNL A   1      38.919  29.976  29.505  1.00  0.00     0.016 A 
ATOM     13  C   UNL A   1      37.722  29.175  29.555  1.00  0.00     0.001 A 
BRANCH   9  14
ATOM     14  C   UNL A   1      38.085  32.211  32.197  1.00  0.00     0.197 C 
ATOM     15  N   UNL A   1      37.574  33.543  31.968  1.00  0.00    -0.236 N 
ATOM     16  C   UNL A   1      37.416  34.030  33.351  1.00  0.00     0.252 C 
ATOM     17  O   UNL A   1      37.968  35.040  33.803  1.00  0.00    -0.272 OA
ATOM     18  C   UNL A   1      36.868  32.973  34.312  1.00  0.00     0.174 C 
ATOM     19  S   UNL A   1      37.456  31.416  33.681  1.00  0.00    -0.120 SA
BRANCH  15  20
ATOM     20  N   UNL A   1      36.607  33.860  30.410  1.00  0.00    -0.270 N 
ATOM     21  H   UNL A   1      37.215  34.166  29.699  1.00  0.00     0.191 HD
BRANCH  20  22
ATOM     22  C   UNL A   1      34.968  33.792  29.799  1.00  0.00     0.189 C 
ATOM     23  S   UNL A   1      33.956  34.923  30.653  1.00  0.00    -0.039 S 
BRANCH  22  24
ATOM     24  N   UNL A   1      34.181  32.576  28.936  1.00  0.00    -0.331 N 
ATOM     25  H   UNL A   1      33.512  32.388  29.633  1.00  0.00     0.169 HD
BRANCH  24  26
ATOM     26  C   UNL A   1      33.567  31.345  27.784  1.00  0.00     0.043 A 
ATOM     27  C   UNL A   1      35.216  29.192  27.072  1.00  0.00     0.046 C 
ATOM     28  C   UNL A   1      33.901  29.954  27.282  1.00  0.00    -0.028 A 
ATOM     29  C   UNL A   1      32.999  29.101  26.413  1.00  0.00     0.005 A 
ATOM     30  C   UNL A   1      31.870  29.539  25.807  1.00  0.00     0.000 A 
ATOM     31  C   UNL A   1      32.447  31.554  27.056  1.00  0.00     0.026 A 
ATOM     32  C   UNL A   1      31.636  30.825  26.090  1.00  0.00     0.002 A 
ENDBRANCH  24  26
ENDBRANCH  22  24
ENDBRANCH  20  22
ENDBRANCH  15  20
ENDBRANCH   9  14
ENDBRANCH   6   8
ENDBRANCH   5   6
ENDBRANCH   4   5
ENDBRANCH   3   4
ENDBRANCH   2   3
ENDBRANCH   1   2
BRANCH   1  33
ATOM     33  C   UNL A   1      43.509  27.176  33.675  1.00  0.00     0.188 C 
BRANCH  33  34
ATOM     34  O   UNL A   1      42.691  27.564  32.585  1.00  0.00    -0.377 OA
BRANCH  34  35
ATOM     35  C   UNL A   1      43.431  27.924  31.424  1.00  0.00     0.188 C 
BRANCH  35  36
ATOM     36  C   UNL A   1      42.880  27.271  30.165  1.00  0.00     0.188 C 
BRANCH  36  37
ATOM     37  O   UNL A   1      41.493  27.452  29.924  1.00  0.00    -0.376 OA
BRANCH  37  38
ATOM     38  C   UNL A   1      41.106  27.585  28.560  1.00  0.00     0.202 C 
BRANCH  38  39
ATOM     39  C   UNL A   1      40.178  26.468  28.055  1.00  0.00     0.261 C 
BRANCH  39  40
ATOM     40  O   UNL A   1      40.495  26.179  26.681  1.00  0.00    -0.460 OA
BRANCH  40  41
ATOM     41  C   UNL A   1      41.047  24.953  26.460  1.00  0.00     0.338 C 
ATOM     42  O   UNL A   1      40.551  23.888  26.764  1.00  0.00    -0.246 OA
BRANCH  41  43
ATOM     43  C   UNL A   1      42.496  25.130  26.145  1.00  0.00     0.060 A 
ATOM     44  C   UNL A   1      43.419  24.851  27.156  1.00  0.00     0.016 A 
ATOM     45  C   UNL A   1      42.852  25.969  25.085  1.00  0.00     0.016 A 
ATOM     46  C   UNL A   1      44.594  25.593  27.210  1.00  0.00     0.010 A 
ATOM     47  C   UNL A   1      43.927  26.825  25.243  1.00  0.00     0.010 A 
ATOM     48  C   UNL A   1      44.765  26.694  26.342  1.00  0.00    -0.014 A 
BRANCH  48  49
ATOM     49  C   UNL A   1      45.751  27.758  26.674  1.00  0.00     0.031 A 
ATOM     50  C   UNL A   1      45.054  29.185  27.248  1.00  0.00     0.074 A 
ATOM     51  C   UNL A   1      47.046  27.293  26.397  1.00  0.00     0.049 A 
ATOM     52  N   UNL A   1      45.612  30.300  27.648  1.00  0.00    -0.248 NA
ATOM     53  C   UNL A   1      43.606  29.410  27.390  1.00  0.00     0.031 C 
ATOM     54  C   UNL A   1      47.574  25.937  26.757  1.00  0.00     0.029 A 
ATOM     55  N   UNL A   1      48.235  27.830  25.948  1.00  0.00    -0.354 N 
ATOM     56  C   UNL A   1      44.787  31.317  28.108  1.00  0.00     0.074 A 
ATOM     57  C   UNL A   1      43.507  30.662  27.891  1.00  0.00     0.031 C 
ATOM     58  C   UNL A   1      48.929  25.941  26.820  1.00  0.00     0.029 A 
ATOM     59  C   UNL A   1      49.448  27.208  26.305  1.00  0.00     0.049 A 
ATOM     60  H   UNL A   1      48.235  28.638  25.385  1.00  0.00     0.167 HD
ATOM     61  C   UNL A   1      45.279  32.502  28.698  1.00  0.00     0.037 A 
ATOM     62  C   UNL A   1      50.788  27.541  26.078  1.00  0.00     0.037 A 
ATOM     63  C   UNL A   1      46.844  32.798  28.717  1.00  0.00     0.049 A 
ATOM     64  C   UNL A   1      51.516  29.095  26.448  1.00  0.00     0.074 A 
ATOM     65  C   UNL A   1      47.698  33.079  29.789  1.00  0.00     0.029 A 
ATOM     66  N   UNL A   1      47.801  32.814  27.634  1.00  0.00    -0.354 N 
ATOM     67  N   UNL A   1      51.117  29.964  27.407  1.00  0.00    -0.248 NA
ATOM     68  C   UNL A   1      52.550  29.801  25.673  1.00  0.00     0.031 C 
ATOM     69  C   UNL A   1      49.061  32.921  29.415  1.00  0.00     0.029 A 
ATOM     70  C   UNL A   1      49.182  32.566  28.083  1.00  0.00     0.049 A 
ATOM     71  H   UNL A   1      47.556  32.973  26.693  1.00  0.00     0.167 HD
ATOM     72  C   UNL A   1      51.301  31.337  27.003  1.00  0.00     0.074 A 
ATOM     73  C   UNL A   1      52.422  31.102  26.067  1.00  0.00     0.031 C 
ATOM     74  C   UNL A   1      50.470  32.512  27.215  1.00  0.00     0.037 A 
BRANCH  61  75
ATOM     75  C   UNL A   1      44.391  33.237  29.813  1.00  0.00     0.064 A 
ATOM     76  C   UNL A   1      43.663  34.415  29.512  1.00  0.00     0.173 A 
ATOM     77  C   UNL A   1      44.416  32.987  31.203  1.00  0.00     0.173 A 
ATOM     78  F   UNL A   1      43.215  34.650  28.271  1.00  0.00    -0.203 F 
ATOM     79  C   UNL A   1      43.308  35.380  30.476  1.00  0.00     0.198 A 
ATOM     80  C   UNL A   1      44.028  33.923  32.177  1.00  0.00     0.198 A 
ATOM     81  F   UNL A   1      44.701  31.789  31.704  1.00  0.00    -0.203 F 
ATOM     82  F   UNL A   1      42.737  36.533  30.095  1.00  0.00    -0.200 F 
ATOM     83  C   UNL A   1      43.536  35.152  31.812  1.00  0.00     0.200 A 
ATOM     84  F   UNL A   1      44.124  33.604  33.476  1.00  0.00    -0.200 F 
ATOM     85  F   UNL A   1      43.211  36.063  32.740  1.00  0.00    -0.200 F 
ENDBRANCH  61  75
BRANCH  62  86
ATOM     86  C   UNL A   1      51.144  26.525  24.936  1.00  0.00     0.064 A 
ATOM     87  C   UNL A   1      51.059  27.029  23.612  1.00  0.00     0.173 A 
ATOM     88  C   UNL A   1      52.309  25.732  25.178  1.00  0.00     0.173 A 
ATOM     89  F   UNL A   1      49.994  27.758  23.252  1.00  0.00    -0.203 F 
ATOM     90  C   UNL A   1      52.179  27.039  22.747  1.00  0.00     0.198 A 
ATOM     91  C   UNL A   1      53.435  25.780  24.331  1.00  0.00     0.198 A 
ATOM     92  F   UNL A   1      52.476  25.143  26.369  1.00  0.00    -0.203 F 
ATOM     93  F   UNL A   1      52.137  27.755  21.613  1.00  0.00    -0.200 F 
ATOM     94  C   UNL A   1      53.385  26.482  23.142  1.00  0.00     0.200 A 
ATOM     95  F   UNL A   1      54.608  25.274  24.748  1.00  0.00    -0.200 F 
ATOM     96  F   UNL A   1      54.504  26.692  22.429  1.00  0.00    -0.200 F 
ENDBRANCH  62  86
BRANCH  74  97
ATOM     97  C   UNL A   1      50.770  33.961  26.675  1.00  0.00     0.064 A 
ATOM     98  C   UNL A   1      50.072  34.614  25.653  1.00  0.00     0.173 A 
ATOM     99  C   UNL A   1      51.757  34.800  27.303  1.00  0.00     0.173 A 
ATOM    100  F   UNL A   1      49.023  34.045  25.049  1.00  0.00    -0.203 F 
ATOM    101  C   UNL A   1      50.386  35.930  25.246  1.00  0.00     0.198 A 
ATOM    102  C   UNL A   1      52.017  36.122  26.946  1.00  0.00     0.198 A 
ATOM    103  F   UNL A   1      52.532  34.398  28.313  1.00  0.00    -0.203 F 
ATOM    104  F   UNL A   1      49.721  36.480  24.221  1.00  0.00    -0.200 F 
ATOM    105  C   UNL A   1      51.349  36.683  25.895  1.00  0.00     0.200 A 
ATOM    106  F   UNL A   1      52.916  36.836  27.642  1.00  0.00    -0.200 F 
ATOM    107  F   UNL A   1      51.615  37.942  25.525  1.00  0.00    -0.200 F 
ENDBRANCH  74  97
ENDBRANCH  48  49
ENDBRANCH  41  43
ENDBRANCH  40  41
ENDBRANCH  39  40
ENDBRANCH  38  39
ENDBRANCH  37  38
ENDBRANCH  36  37
ENDBRANCH  35  36
ENDBRANCH  34  35
ENDBRANCH  33  34
ENDBRANCH   1  33
TORSDOF 25
ENDMDL
MODEL 2
REMARK VINA RESULT:      -9.1      4.726     10.856
REMARK SMILES Cc1ccccc1NC(=S)NN1C(=O)CS[C@H]1c1ccccc1C(=O)OCCOCCOCCOCCOC(=O)c1ccc(-c2c3nc(c(-c4c(F)c(F)c(F)c(F)c4F)c4ccc([nH]4)c(-c4c(F)c(F)c(F)c(F)c4F)c4nc(c(-c5c(F)c(F)c(F)c(F)c5F)c5ccc2[nH]5)C=C4)C=C3)cc1
REMARK SMILES IDX 30 1 29 2 28 3 27 4 26 5 24 6 25 7 23 8 18 9 19 10 20 11
REMARK SMILES IDX 22 12 21 13 17 14 12 15 13 16 14 17 15 18 16 19 11 20 9 22
REMARK SMILES IDX 10 23 8 24 7 26 1 27 2 28 3 29 4 30 6 31 5 32 31 33 32 34
REMARK SMILES IDX 33 35 34 36 35 37 36 38 37 39 38 40 39 41 40 42 41 43 42 44
REMARK SMILES IDX 103 45 43 46 102 47 44 48 45 49 46 50 96 51 47 52 101 53
REMARK SMILES IDX 95 54 97 55 48 56 100 57 94 58 93 59 49 61 81 62 61 63 80 64
REMARK SMILES IDX 62 65 65 66 79 67 98 68 63 69 64 70 78 72 99 73 66 74 50 75
REMARK SMILES IDX 51 76 59 77 52 78 53 79 57 80 60 81 54 82 55 83 58 84 56 85
REMARK SMILES IDX 82 86 83 87 91 88 84 89 85 90 89 91 92 92 86 93 87 94 90 95
REMARK SMILES IDX 88 96 67 97 68 98 76 99 69 100 70 101 74 102 77 103 71 104
REMARK SMILES IDX 72 105 75 106 73 107
REMARK H PARENT 11 21 8 25 97 60 65 71
REMARK Flexibility Score: inf
ROOT
ATOM      1  C   UNL A   1      40.481  27.839  26.940  1.00  0.00     0.188 C 
ENDROOT
BRANCH   1   2
ATOM      2  O   UNL A   1      40.879  26.856  26.011  1.00  0.00    -0.376 OA
BRANCH   2   3
ATOM      3  C   UNL A   1      42.199  26.938  25.394  1.00  0.00     0.202 C 
BRANCH   3   4
ATOM      4  C   UNL A   1      43.070  25.397  24.911  1.00  0.00     0.261 C 
BRANCH   4   5
ATOM      5  O   UNL A   1      44.893  24.974  25.009  1.00  0.00    -0.460 OA
BRANCH   5   6
ATOM      6  C   UNL A   1      46.302  25.697  25.399  1.00  0.00     0.338 C 
ATOM      7  O   UNL A   1      47.025  26.105  24.486  1.00  0.00    -0.246 OA
BRANCH   6   8
ATOM      8  C   UNL A   1      47.099  25.727  26.938  1.00  0.00     0.066 A 
ATOM      9  C   UNL A   1      46.993  26.921  27.680  1.00  0.00     0.001 A 
ATOM     10  C   UNL A   1      47.744  27.297  28.817  1.00  0.00     0.008 A 
ATOM     11  C   UNL A   1      48.818  26.529  29.169  1.00  0.00     0.000 A 
ATOM     12  C   UNL A   1      48.130  24.901  27.418  1.00  0.00     0.016 A 
ATOM     13  C   UNL A   1      49.015  25.339  28.468  1.00  0.00     0.001 A 
BRANCH   9  14
ATOM     14  C   UNL A   1      46.398  28.019  26.952  1.00  0.00     0.197 C 
ATOM     15  N   UNL A   1      45.029  28.160  27.392  1.00  0.00    -0.236 N 
ATOM     16  C   UNL A   1      44.729  29.536  26.956  1.00  0.00     0.252 C 
ATOM     17  O   UNL A   1      43.811  29.840  26.185  1.00  0.00    -0.272 OA
ATOM     18  C   UNL A   1      45.885  30.513  27.177  1.00  0.00     0.174 C 
ATOM     19  S   UNL A   1      47.363  29.533  27.021  1.00  0.00    -0.120 SA
BRANCH  15  20
ATOM     20  N   UNL A   1      44.467  27.160  28.857  1.00  0.00    -0.270 N 
ATOM     21  H   UNL A   1      44.612  27.673  29.684  1.00  0.00     0.191 HD
BRANCH  20  22
ATOM     22  C   UNL A   1      43.766  25.602  29.242  1.00  0.00     0.189 C 
ATOM     23  S   UNL A   1      44.765  24.756  30.391  1.00  0.00    -0.039 S 
BRANCH  22  24
ATOM     24  N   UNL A   1      42.645  24.676  28.389  1.00  0.00    -0.331 N 
ATOM     25  H   UNL A   1      41.967  25.387  28.329  1.00  0.00     0.169 HD
BRANCH  24  26
ATOM     26  C   UNL A   1      41.678  23.452  27.501  1.00  0.00     0.043 A 
ATOM     27  C   UNL A   1      43.001  21.433  26.076  1.00  0.00     0.046 C 
ATOM     28  C   UNL A   1      41.845  22.104  26.829  1.00  0.00    -0.028 A 
ATOM     29  C   UNL A   1      40.710  21.229  26.336  1.00  0.00     0.005 A 
ATOM     30  C   UNL A   1      39.416  21.619  26.248  1.00  0.00     0.000 A 
ATOM     31  C   UNL A   1      40.354  23.619  27.285  1.00  0.00     0.026 A 
ATOM     32  C   UNL A   1      39.259  22.877  26.674  1.00  0.00     0.002 A 
ENDBRANCH  24  26
ENDBRANCH  22  24
ENDBRANCH  20  22
ENDBRANCH  15  20
ENDBRANCH   9  14
ENDBRANCH   6   8
ENDBRANCH   5   6
ENDBRANCH   4   5
ENDBRANCH   3   4
ENDBRANCH   2   3
ENDBRANCH   1   2
BRANCH   1  33
ATOM     33  C   UNL A   1      39.730  27.076  28.023  1.00  0.00     0.188 C 
BRANCH  33  34
ATOM     34  O   UNL A   1      38.659  27.786  28.620  1.00  0.00    -0.377 OA
BRANCH  34  35
ATOM     35  C   UNL A   1      38.354  29.010  27.958  1.00  0.00     0.188 C 
BRANCH  35  36
ATOM     36  C   UNL A   1      37.055  29.625  28.456  1.00  0.00     0.188 C 
BRANCH  36  37
ATOM     37  O   UNL A   1      35.865  29.145  27.848  1.00  0.00    -0.376 OA
BRANCH  37  38
ATOM     38  C   UNL A   1      34.940  30.136  27.414  1.00  0.00     0.202 C 
BRANCH  38  39
ATOM     39  C   UNL A   1      35.273  31.561  27.884  1.00  0.00     0.261 C 
BRANCH  39  40
ATOM     40  O   UNL A   1      34.296  31.977  28.856  1.00  0.00    -0.460 OA
BRANCH  40  41
ATOM     41  C   UNL A   1      34.804  32.599  29.956  1.00  0.00     0.338 C 
ATOM     42  O   UNL A   1      34.198  33.358  30.684  1.00  0.00    -0.246 OA
BRANCH  41  43
ATOM     43  C   UNL A   1      36.294  32.511  29.910  1.00  0.00     0.060 A 
ATOM     44  C   UNL A   1      36.930  31.738  30.886  1.00  0.00     0.016 A 
ATOM     45  C   UNL A   1      37.002  33.512  29.240  1.00  0.00     0.016 A 
ATOM     46  C   UNL A   1      38.185  32.131  31.333  1.00  0.00     0.010 A 
ATOM     47  C   UNL A   1      38.163  34.004  29.809  1.00  0.00     0.010 A 
ATOM     48  C   UNL A   1      38.726  33.364  30.904  1.00  0.00    -0.014 A 
BRANCH  48  49
ATOM     49  C   UNL A   1      39.805  34.019  31.694  1.00  0.00     0.031 A 
ATOM     50  C   UNL A   1      39.345  34.448  33.261  1.00  0.00     0.074 A 
ATOM     51  C   UNL A   1      40.957  34.131  30.900  1.00  0.00     0.049 A 
ATOM     52  N   UNL A   1      40.032  35.014  34.221  1.00  0.00    -0.248 NA
ATOM     53  C   UNL A   1      38.000  34.243  33.823  1.00  0.00     0.031 C 
ATOM     54  C   UNL A   1      41.512  33.051  30.021  1.00  0.00     0.029 A 
ATOM     55  N   UNL A   1      41.998  35.025  30.756  1.00  0.00    -0.354 N 
ATOM     56  C   UNL A   1      39.403  35.225  35.439  1.00  0.00     0.074 A 
ATOM     57  C   UNL A   1      38.088  34.713  35.088  1.00  0.00     0.031 C 
ATOM     58  C   UNL A   1      42.832  33.247  29.779  1.00  0.00     0.029 A 
ATOM     59  C   UNL A   1      43.238  34.564  30.271  1.00  0.00     0.049 A 
ATOM     60  H   UNL A   1      41.875  35.974  30.989  1.00  0.00     0.167 HD
ATOM     61  C   UNL A   1      40.081  35.690  36.588  1.00  0.00     0.037 A 
ATOM     62  C   UNL A   1      44.477  35.187  30.088  1.00  0.00     0.037 A 
ATOM     63  C   UNL A   1      41.602  36.153  36.488  1.00  0.00     0.049 A 
ATOM     64  C   UNL A   1      45.336  36.100  31.317  1.00  0.00     0.074 A 
ATOM     65  C   UNL A   1      42.725  35.726  37.203  1.00  0.00     0.029 A 
ATOM     66  N   UNL A   1      42.228  37.108  35.601  1.00  0.00    -0.354 N 
ATOM     67  N   UNL A   1      45.246  35.930  32.657  1.00  0.00    -0.248 NA
ATOM     68  C   UNL A   1      46.146  37.315  31.121  1.00  0.00     0.031 C 
ATOM     69  C   UNL A   1      43.928  36.127  36.560  1.00  0.00     0.029 A 
ATOM     70  C   UNL A   1      43.668  36.862  35.416  1.00  0.00     0.049 A 
ATOM     71  H   UNL A   1      41.742  37.846  35.166  1.00  0.00     0.167 HD
ATOM     72  C   UNL A   1      45.366  37.180  33.370  1.00  0.00     0.074 A 
ATOM     73  C   UNL A   1      46.179  37.889  32.359  1.00  0.00     0.031 C 
ATOM     74  C   UNL A   1      44.668  37.675  34.547  1.00  0.00     0.037 A 
BRANCH  61  75
ATOM     75  C   UNL A   1      39.559  35.232  38.033  1.00  0.00     0.064 A 
ATOM     76  C   UNL A   1      39.319  36.178  39.061  1.00  0.00     0.173 A 
ATOM     77  C   UNL A   1      39.520  33.910  38.529  1.00  0.00     0.173 A 
ATOM     78  F   UNL A   1      38.964  37.437  38.769  1.00  0.00    -0.203 F 
ATOM     79  C   UNL A   1      39.374  35.868  40.434  1.00  0.00     0.198 A 
ATOM     80  C   UNL A   1      39.532  33.584  39.897  1.00  0.00     0.198 A 
ATOM     81  F   UNL A   1      39.346  32.858  37.735  1.00  0.00    -0.203 F 
ATOM     82  F   UNL A   1      39.267  36.845  41.349  1.00  0.00    -0.200 F 
ATOM     83  C   UNL A   1      39.529  34.568  40.853  1.00  0.00     0.200 A 
ATOM     84  F   UNL A   1      39.531  32.295  40.268  1.00  0.00    -0.200 F 
ATOM     85  F   UNL A   1      39.590  34.259  42.156  1.00  0.00    -0.200 F 
ENDBRANCH  61  75
BRANCH  62  86
ATOM     86  C   UNL A   1      44.470  35.382  28.531  1.00  0.00     0.064 A 
ATOM     87  C   UNL A   1      44.027  36.647  28.068  1.00  0.00     0.173 A 
ATOM     88  C   UNL A   1      45.636  34.897  27.859  1.00  0.00     0.173 A 
ATOM     89  F   UNL A   1      42.922  37.192  28.596  1.00  0.00    -0.203 F 
ATOM     90  C   UNL A   1      44.856  37.485  27.285  1.00  0.00     0.198 A 
ATOM     91  C   UNL A   1      46.477  35.748  27.114  1.00  0.00     0.198 A 
ATOM     92  F   UNL A   1      46.118  33.684  28.156  1.00  0.00    -0.203 F 
ATOM     93  F   UNL A   1      44.513  38.768  27.091  1.00  0.00    -0.200 F 
ATOM     94  C   UNL A   1      46.111  37.059  26.877  1.00  0.00     0.200 A 
ATOM     95  F   UNL A   1      47.707  35.335  26.765  1.00  0.00    -0.200 F 
ATOM     96  F   UNL A   1      46.987  37.924  26.339  1.00  0.00    -0.200 F 
ENDBRANCH  62  86
BRANCH  74  97
ATOM     97  C   UNL A   1      44.864  39.093  35.204  1.00  0.00     0.064 A 
ATOM     98  C   UNL A   1      45.843  39.431  36.145  1.00  0.00     0.173 A 
ATOM     99  C   UNL A   1      44.086  40.225  34.774  1.00  0.00     0.173 A 
ATOM    100  F   UNL A   1      46.754  38.543  36.555  1.00  0.00    -0.203 F 
ATOM    101  C   UNL A   1      45.971  40.739  36.663  1.00  0.00     0.198 A 
ATOM    102  C   UNL A   1      44.260  41.529  35.236  1.00  0.00     0.198 A 
ATOM    103  F   UNL A   1      43.107  40.147  33.870  1.00  0.00    -0.203 F 
ATOM    104  F   UNL A   1      46.889  40.988  37.606  1.00  0.00    -0.200 F 
ATOM    105  C   UNL A   1      45.188  41.784  36.205  1.00  0.00     0.200 A 
ATOM    106  F   UNL A   1      43.521  42.524  34.720  1.00  0.00    -0.200 F 
ATOM    107  F   UNL A   1      45.341  43.028  36.678  1.00  0.00    -0.200 F 
ENDBRANCH  74  97
ENDBRANCH  48  49
ENDBRANCH  41  43
ENDBRANCH  40  41
ENDBRANCH  39  40
ENDBRANCH  38  39
ENDBRANCH  37  38
ENDBRANCH  36  37
ENDBRANCH  35  36
ENDBRANCH  34  35
ENDBRANCH  33  34
ENDBRANCH   1  33
TORSDOF 25
ENDMDL
MODEL 3
REMARK VINA RESULT:      -9.0      4.535     10.745
REMARK SMILES Cc1ccccc1NC(=S)NN1C(=O)CS[C@H]1c1ccccc1C(=O)OCCOCCOCCOCCOC(=O)c1ccc(-c2c3nc(c(-c4c(F)c(F)c(F)c(F)c4F)c4ccc([nH]4)c(-c4c(F)c(F)c(F)c(F)c4F)c4nc(c(-c5c(F)c(F)c(F)c(F)c5F)c5ccc2[nH]5)C=C4)C=C3)cc1
REMARK SMILES IDX 30 1 29 2 28 3 27 4 26 5 24 6 25 7 23 8 18 9 19 10 20 11
REMARK SMILES IDX 22 12 21 13 17 14 12 15 13 16 14 17 15 18 16 19 11 20 9 22
REMARK SMILES IDX 10 23 8 24 7 26 1 27 2 28 3 29 4 30 6 31 5 32 31 33 32 34
REMARK SMILES IDX 33 35 34 36 35 37 36 38 37 39 38 40 39 41 40 42 41 43 42 44
REMARK SMILES IDX 103 45 43 46 102 47 44 48 45 49 46 50 96 51 47 52 101 53
REMARK SMILES IDX 95 54 97 55 48 56 100 57 94 58 93 59 49 61 81 62 61 63 80 64
REMARK SMILES IDX 62 65 65 66 79 67 98 68 63 69 64 70 78 72 99 73 66 74 50 75
REMARK SMILES IDX 51 76 59 77 52 78 53 79 57 80 60 81 54 82 55 83 58 84 56 85
REMARK SMILES IDX 82 86 83 87 91 88 84 89 85 90 89 91 92 92 86 93 87 94 90 95
REMARK SMILES IDX 88 96 67 97 68 98 76 99 69 100 70 101 74 102 77 103 71 104
REMARK SMILES IDX 72 105 75 106 73 107
REMARK H PARENT 11 21 8 25 97 60 65 71
REMARK Flexibility Score: inf
ROOT
ATOM      1  C   UNL A   1      40.506  27.727  26.852  1.00  0.00     0.188 C 
ENDROOT
BRANCH   1   2
ATOM      2  O   UNL A   1      41.016  26.734  25.991  1.00  0.00    -0.376 OA
BRANCH   2   3
ATOM      3  C   UNL A   1      42.274  26.964  25.288  1.00  0.00     0.202 C 
BRANCH   3   4
ATOM      4  C   UNL A   1      43.502  25.607  25.163  1.00  0.00     0.261 C 
BRANCH   4   5
ATOM      5  O   UNL A   1      45.374  25.690  25.104  1.00  0.00    -0.460 OA
BRANCH   5   6
ATOM      6  C   UNL A   1      46.553  26.817  25.088  1.00  0.00     0.338 C 
ATOM      7  O   UNL A   1      46.894  27.292  24.001  1.00  0.00    -0.246 OA
BRANCH   6   8
ATOM      8  C   UNL A   1      47.630  27.256  26.371  1.00  0.00     0.066 A 
ATOM      9  C   UNL A   1      47.293  28.406  27.113  1.00  0.00     0.001 A 
ATOM     10  C   UNL A   1      48.112  29.117  28.019  1.00  0.00     0.008 A 
ATOM     11  C   UNL A   1      49.438  28.794  28.087  1.00  0.00     0.000 A 
ATOM     12  C   UNL A   1      48.969  26.876  26.574  1.00  0.00     0.016 A 
ATOM     13  C   UNL A   1      49.867  27.683  27.362  1.00  0.00     0.001 A 
BRANCH   9  14
ATOM     14  C   UNL A   1      46.195  29.166  26.559  1.00  0.00     0.197 C 
ATOM     15  N   UNL A   1      45.000  28.834  27.299  1.00  0.00    -0.236 N 
ATOM     16  C   UNL A   1      44.131  29.977  26.967  1.00  0.00     0.252 C 
ATOM     17  O   UNL A   1      43.022  29.880  26.429  1.00  0.00    -0.272 OA
ATOM     18  C   UNL A   1      44.868  31.318  26.940  1.00  0.00     0.174 C 
ATOM     19  S   UNL A   1      46.530  30.928  26.436  1.00  0.00    -0.120 SA
BRANCH  15  20
ATOM     20  N   UNL A   1      45.174  27.797  28.834  1.00  0.00    -0.270 N 
ATOM     21  H   UNL A   1      45.990  27.249  28.773  1.00  0.00     0.191 HD
BRANCH  20  22
ATOM     22  C   UNL A   1      44.359  27.478  30.351  1.00  0.00     0.189 C 
ATOM     23  S   UNL A   1      44.251  25.763  30.631  1.00  0.00    -0.039 S 
BRANCH  22  24
ATOM     24  N   UNL A   1      43.329  28.458  31.255  1.00  0.00    -0.331 N 
ATOM     25  H   UNL A   1      43.907  29.254  31.222  1.00  0.00     0.169 HD
BRANCH  24  26
ATOM     26  C   UNL A   1      42.038  29.236  32.230  1.00  0.00     0.043 A 
ATOM     27  C   UNL A   1      39.415  28.259  32.056  1.00  0.00     0.046 C 
ATOM     28  C   UNL A   1      40.613  28.984  32.683  1.00  0.00    -0.028 A 
ATOM     29  C   UNL A   1      39.871  29.805  33.718  1.00  0.00     0.005 A 
ATOM     30  C   UNL A   1      40.303  30.983  34.226  1.00  0.00     0.000 A 
ATOM     31  C   UNL A   1      42.233  30.426  32.841  1.00  0.00     0.026 A 
ATOM     32  C   UNL A   1      41.489  31.326  33.712  1.00  0.00     0.002 A 
ENDBRANCH  24  26
ENDBRANCH  22  24
ENDBRANCH  20  22
ENDBRANCH  15  20
ENDBRANCH   9  14
ENDBRANCH   6   8
ENDBRANCH   5   6
ENDBRANCH   4   5
ENDBRANCH   3   4
ENDBRANCH   2   3
ENDBRANCH   1   2
BRANCH   1  33
ATOM     33  C   UNL A   1      39.835  26.961  27.984  1.00  0.00     0.188 C 
BRANCH  33  34
ATOM     34  O   UNL A   1      38.764  27.643  28.614  1.00  0.00    -0.377 OA
BRANCH  34  35
ATOM     35  C   UNL A   1      38.443  28.885  27.995  1.00  0.00     0.188 C 
BRANCH  35  36
ATOM     36  C   UNL A   1      37.140  29.469  28.519  1.00  0.00     0.188 C 
BRANCH  36  37
ATOM     37  O   UNL A   1      35.953  29.001  27.898  1.00  0.00    -0.376 OA
BRANCH  37  38
ATOM     38  C   UNL A   1      35.044  30.002  27.450  1.00  0.00     0.202 C 
BRANCH  38  39
ATOM     39  C   UNL A   1      35.380  31.422  27.933  1.00  0.00     0.261 C 
BRANCH  39  40
ATOM     40  O   UNL A   1      34.393  31.836  28.897  1.00  0.00    -0.460 OA
BRANCH  40  41
ATOM     41  C   UNL A   1      34.890  32.461  30.001  1.00  0.00     0.338 C 
ATOM     42  O   UNL A   1      34.267  33.195  30.740  1.00  0.00    -0.246 OA
BRANCH  41  43
ATOM     43  C   UNL A   1      36.381  32.414  29.946  1.00  0.00     0.060 A 
ATOM     44  C   UNL A   1      37.043  31.638  30.901  1.00  0.00     0.016 A 
ATOM     45  C   UNL A   1      37.058  33.450  29.295  1.00  0.00     0.016 A 
ATOM     46  C   UNL A   1      38.290  32.054  31.351  1.00  0.00     0.010 A 
ATOM     47  C   UNL A   1      38.208  33.960  29.870  1.00  0.00     0.010 A 
ATOM     48  C   UNL A   1      38.795  33.311  30.948  1.00  0.00    -0.014 A 
BRANCH  48  49
ATOM     49  C   UNL A   1      39.860  33.977  31.747  1.00  0.00     0.031 A 
ATOM     50  C   UNL A   1      39.370  34.432  33.298  1.00  0.00     0.074 A 
ATOM     51  C   UNL A   1      41.027  34.075  30.973  1.00  0.00     0.049 A 
ATOM     52  N   UNL A   1      40.040  35.012  34.262  1.00  0.00    -0.248 NA
ATOM     53  C   UNL A   1      38.015  34.238  33.837  1.00  0.00     0.031 C 
ATOM     54  C   UNL A   1      41.596  32.980  30.123  1.00  0.00     0.029 A 
ATOM     55  N   UNL A   1      42.071  34.966  30.835  1.00  0.00    -0.354 N 
ATOM     56  C   UNL A   1      39.388  35.244  35.464  1.00  0.00     0.074 A 
ATOM     57  C   UNL A   1      38.079  34.728  35.096  1.00  0.00     0.031 C 
ATOM     58  C   UNL A   1      42.921  33.171  29.902  1.00  0.00     0.029 A 
ATOM     59  C   UNL A   1      43.319  34.495  30.381  1.00  0.00     0.049 A 
ATOM     60  H   UNL A   1      41.946  35.918  31.050  1.00  0.00     0.167 HD
ATOM     61  C   UNL A   1      40.045  35.727  36.617  1.00  0.00     0.037 A 
ATOM     62  C   UNL A   1      44.563  35.113  30.211  1.00  0.00     0.037 A 
ATOM     63  C   UNL A   1      41.569  36.186  36.539  1.00  0.00     0.049 A 
ATOM     64  C   UNL A   1      45.400  36.045  31.441  1.00  0.00     0.074 A 
ATOM     65  C   UNL A   1      42.677  35.769  37.282  1.00  0.00     0.029 A 
ATOM     66  N   UNL A   1      42.213  37.126  35.649  1.00  0.00    -0.354 N 
ATOM     67  N   UNL A   1      45.284  35.896  32.782  1.00  0.00    -0.248 NA
ATOM     68  C   UNL A   1      46.215  37.255  31.241  1.00  0.00     0.031 C 
ATOM     69  C   UNL A   1      43.893  36.158  36.656  1.00  0.00     0.029 A 
ATOM     70  C   UNL A   1      43.656  36.875  35.495  1.00  0.00     0.049 A 
ATOM     71  H   UNL A   1      41.736  37.857  35.193  1.00  0.00     0.167 HD
ATOM     72  C   UNL A   1      45.392  37.157  33.477  1.00  0.00     0.074 A 
ATOM     73  C   UNL A   1      46.226  37.849  32.470  1.00  0.00     0.031 C 
ATOM     74  C   UNL A   1      44.673  37.672  34.633  1.00  0.00     0.037 A 
BRANCH  61  75
ATOM     75  C   UNL A   1      39.495  35.292  38.060  1.00  0.00     0.064 A 
ATOM     76  C   UNL A   1      39.265  36.253  39.077  1.00  0.00     0.173 A 
ATOM     77  C   UNL A   1      39.419  33.976  38.566  1.00  0.00     0.173 A 
ATOM     78  F   UNL A   1      38.942  37.517  38.771  1.00  0.00    -0.203 F 
ATOM     79  C   UNL A   1      39.296  35.953  40.454  1.00  0.00     0.198 A 
ATOM     80  C   UNL A   1      39.408  33.661  39.936  1.00  0.00     0.198 A 
ATOM     81  F   UNL A   1      39.231  32.922  37.778  1.00  0.00    -0.203 F 
ATOM     82  F   UNL A   1      39.201  36.939  41.359  1.00  0.00    -0.200 F 
ATOM     83  C   UNL A   1      39.416  34.653  40.885  1.00  0.00     0.200 A 
ATOM     84  F   UNL A   1      39.372  32.375  40.318  1.00  0.00    -0.200 F 
ATOM     85  F   UNL A   1      39.454  34.353  42.191  1.00  0.00    -0.200 F 
ENDBRANCH  61  75
BRANCH  62  86
ATOM     86  C   UNL A   1      44.586  35.283  28.651  1.00  0.00     0.064 A 
ATOM     87  C   UNL A   1      44.012  36.480  28.151  1.00  0.00     0.173 A 
ATOM     88  C   UNL A   1      45.822  34.930  28.026  1.00  0.00     0.173 A 
ATOM     89  F   UNL A   1      42.834  36.898  28.634  1.00  0.00    -0.203 F 
ATOM     90  C   UNL A   1      44.763  37.399  27.380  1.00  0.00     0.198 A 
ATOM     91  C   UNL A   1      46.582  35.863  27.292  1.00  0.00     0.198 A 
ATOM     92  F   UNL A   1      46.434  33.787  28.361  1.00  0.00    -0.203 F 
ATOM     93  F   UNL A   1      44.279  38.629  27.151  1.00  0.00    -0.200 F 
ATOM     94  C   UNL A   1      46.073  37.118  27.019  1.00  0.00     0.200 A 
ATOM     95  F   UNL A   1      47.863  35.593  26.991  1.00  0.00    -0.200 F 
ATOM     96  F   UNL A   1      46.858  38.072  26.493  1.00  0.00    -0.200 F 
ENDBRANCH  62  86
BRANCH  74  97
ATOM     97  C   UNL A   1      44.859  39.101  35.270  1.00  0.00     0.064 A 
ATOM     98  C   UNL A   1      45.843  39.462  36.197  1.00  0.00     0.173 A 
ATOM     99  C   UNL A   1      44.064  40.219  34.834  1.00  0.00     0.173 A 
ATOM    100  F   UNL A   1      46.768  38.589  36.610  1.00  0.00    -0.203 F 
ATOM    101  C   UNL A   1      45.960  40.777  36.698  1.00  0.00     0.198 A 
ATOM    102  C   UNL A   1      44.227  41.530  35.278  1.00  0.00     0.198 A 
ATOM    103  F   UNL A   1      43.077  40.118  33.940  1.00  0.00    -0.203 F 
ATOM    104  F   UNL A   1      46.885  41.048  37.630  1.00  0.00    -0.200 F 
ATOM    105  C   UNL A   1      45.162  41.808  36.235  1.00  0.00     0.200 A 
ATOM    106  F   UNL A   1      43.472  42.510  34.757  1.00  0.00    -0.200 F 
ATOM    107  F   UNL A   1      45.304  43.059  36.691  1.00  0.00    -0.200 F 
ENDBRANCH  74  97
ENDBRANCH  48  49
ENDBRANCH  41  43
ENDBRANCH  40  41
ENDBRANCH  39  40
ENDBRANCH  38  39
ENDBRANCH  37  38
ENDBRANCH  36  37
ENDBRANCH  35  36
ENDBRANCH  34  35
ENDBRANCH  33  34
ENDBRANCH   1  33
TORSDOF 25
ENDMDL
