MODEL 1
REMARK VINA RESULT:     -11.9      0.000      0.000
REMARK SMILES O=C(OCCOCCOCCOCCOC(=O)c1ccc(-c2c3nc(c(-c4c(F)c(F)c(F)c(F)c4F)c4ccc([nH]4)c(-c4c(F)c(F)c(F)c(F)c4F)c4nc(c(-c5c(F)c(F)c(F)c(F)c5F)c5ccc2[nH]5)C=C4)C=C3)cc1)C1=Cc2cc(S(F)(F)(F)(F)F)cc(Br)c2O[C@@H]1C(F)(F)F
REMARK SMILES IDX 10 1 9 2 8 3 7 4 6 5 5 6 4 7 3 8 2 9 1 10 81 11 82 12 97 13
REMARK SMILES IDX 83 14 96 15 84 16 95 17 85 18 93 19 92 20 94 21 98 22 99 23
REMARK SMILES IDX 100 24 101 25 86 26 87 27 88 28 89 29 90 30 91 31 11 32
REMARK SMILES IDX 12 33 13 34 14 35 15 36 16 37 17 38 18 39 19 40 80 41 20 42
REMARK SMILES IDX 79 43 21 44 22 45 23 46 73 47 24 48 78 49 72 50 74 51 25 52
REMARK SMILES IDX 77 53 71 54 70 55 26 57 58 58 38 59 57 60 39 61 42 62 56 63
REMARK SMILES IDX 75 64 40 65 41 66 55 68 76 69 43 70 27 71 28 72 36 73 29 74
REMARK SMILES IDX 30 75 34 76 37 77 31 78 32 79 35 80 33 81 59 82 60 83 68 84
REMARK SMILES IDX 61 85 62 86 66 87 69 88 63 89 64 90 67 91 65 92 44 93 45 94
REMARK SMILES IDX 53 95 46 96 47 97 51 98 54 99 48 100 49 101 52 102 50 103
REMARK H PARENT 74 56 42 67
REMARK Flexibility Score: inf
ROOT
ATOM      1  C   UNL A   1      34.701  21.772  24.610  1.00  0.00     0.188 C 
ENDROOT
BRANCH   1   2
ATOM      2  O   UNL A   1      34.097  20.487  24.633  1.00  0.00    -0.377 OA
BRANCH   2   3
ATOM      3  C   UNL A   1      32.738  20.610  25.023  1.00  0.00     0.188 C 
BRANCH   3   4
ATOM      4  C   UNL A   1      32.398  22.079  25.219  1.00  0.00     0.188 C 
BRANCH   4   5
ATOM      5  O   UNL A   1      31.418  22.206  26.239  1.00  0.00    -0.376 OA
BRANCH   5   6
ATOM      6  C   UNL A   1      31.337  23.563  26.653  1.00  0.00     0.202 C 
BRANCH   6   7
ATOM      7  C   UNL A   1      32.527  24.332  26.103  1.00  0.00     0.261 C 
BRANCH   7   8
ATOM      8  O   UNL A   1      32.121  25.646  25.753  1.00  0.00    -0.460 OA
BRANCH   8   9
ATOM      9  C   UNL A   1      31.021  25.840  24.875  1.00  0.00     0.338 C 
ATOM     10  O   UNL A   1      29.868  26.092  25.347  1.00  0.00    -0.246 OA
BRANCH   9  11
ATOM     11  C   UNL A   1      31.224  25.746  23.372  1.00  0.00     0.087 C 
ATOM     12  C   UNL A   1      31.102  26.857  22.598  1.00  0.00     0.027 C 
ATOM     13  C   UNL A   1      31.561  24.408  22.733  1.00  0.00     0.316 C 
ATOM     14  C   UNL A   1      30.764  28.195  23.237  1.00  0.00     0.020 A 
ATOM     15  O   UNL A   1      32.313  27.832  25.002  1.00  0.00    -0.474 OA
ATOM     16  C   UNL A   1      29.713  28.883  22.654  1.00  0.00     0.036 A 
ATOM     17  C   UNL A   1      31.349  28.640  24.342  1.00  0.00     0.142 A 
ATOM     18  C   UNL A   1      29.536  30.194  23.156  1.00  0.00     0.109 A 
ATOM     19  C   UNL A   1      31.031  29.874  24.855  1.00  0.00     0.062 A 
ATOM     20  C   UNL A   1      30.042  30.633  24.294  1.00  0.00     0.044 A 
ATOM     21  Br  UNL A   1      32.007  30.556  26.411  1.00  0.00    -0.047 Br
BRANCH  13  22
ATOM     22  C   UNL A   1      32.902  24.510  22.023  1.00  0.00     0.430 C 
ATOM     23  F   UNL A   1      33.805  25.023  22.853  1.00  0.00    -0.167 F 
ATOM     24  F   UNL A   1      33.292  23.298  21.637  1.00  0.00    -0.167 F 
ATOM     25  F   UNL A   1      32.781  25.298  20.958  1.00  0.00    -0.167 F 
ENDBRANCH  13  22
BRANCH  18  26
ATOM     26  S   UNL A   1      28.550  31.347  22.170  1.00  0.00     0.310 S 
ATOM     27  F   UNL A   1      27.259  30.437  22.310  1.00  0.00    -0.094 F 
ATOM     28  F   UNL A   1      28.904  30.525  20.874  1.00  0.00    -0.094 F 
ATOM     29  F   UNL A   1      27.687  32.338  21.338  1.00  0.00    -0.094 F 
ATOM     30  F   UNL A   1      28.094  32.075  23.495  1.00  0.00    -0.094 F 
ATOM     31  F   UNL A   1      29.331  30.283  23.039  1.00  0.00    -0.094 F 
ENDBRANCH  18  26
ENDBRANCH   9  11
ENDBRANCH   8   9
ENDBRANCH   7   8
ENDBRANCH   6   7
ENDBRANCH   5   6
ENDBRANCH   4   5
ENDBRANCH   3   4
ENDBRANCH   2   3
ENDBRANCH   1   2
BRANCH   1  32
ATOM     32  C   UNL A   1      36.202  21.623  24.422  1.00  0.00     0.188 C 
BRANCH  32  33
ATOM     33  O   UNL A   1      36.726  20.793  25.448  1.00  0.00    -0.376 OA
BRANCH  33  34
ATOM     34  C   UNL A   1      37.771  19.990  24.920  1.00  0.00     0.202 C 
BRANCH  34  35
ATOM     35  C   UNL A   1      39.021  20.164  25.768  1.00  0.00     0.261 C 
BRANCH  35  36
ATOM     36  O   UNL A   1      39.927  19.104  25.501  1.00  0.00    -0.460 OA
BRANCH  36  37
ATOM     37  C   UNL A   1      41.290  19.223  25.881  1.00  0.00     0.338 C 
ATOM     38  O   UNL A   1      42.078  18.236  25.738  1.00  0.00    -0.246 OA
BRANCH  37  39
ATOM     39  C   UNL A   1      41.806  20.529  26.461  1.00  0.00     0.060 A 
ATOM     40  C   UNL A   1      42.132  21.492  25.520  1.00  0.00     0.016 A 
ATOM     41  C   UNL A   1      41.816  20.805  27.760  1.00  0.00     0.016 A 
ATOM     42  C   UNL A   1      42.740  22.646  26.068  1.00  0.00     0.010 A 
ATOM     43  C   UNL A   1      42.299  22.008  28.216  1.00  0.00     0.010 A 
ATOM     44  C   UNL A   1      42.696  22.983  27.344  1.00  0.00    -0.014 A 
BRANCH  44  45
ATOM     45  C   UNL A   1      43.063  24.380  27.817  1.00  0.00     0.031 A 
ATOM     46  C   UNL A   1      42.076  25.333  28.068  1.00  0.00     0.074 A 
ATOM     47  C   UNL A   1      44.421  24.654  27.808  1.00  0.00     0.049 A 
ATOM     48  N   UNL A   1      42.247  26.622  28.367  1.00  0.00    -0.248 NA
ATOM     49  C   UNL A   1      40.633  25.051  28.044  1.00  0.00     0.031 C 
ATOM     50  C   UNL A   1      45.424  23.695  27.564  1.00  0.00     0.029 A 
ATOM     51  N   UNL A   1      45.039  25.865  28.026  1.00  0.00    -0.354 N 
ATOM     52  C   UNL A   1      41.064  27.211  28.559  1.00  0.00     0.074 A 
ATOM     53  C   UNL A   1      40.010  26.211  28.347  1.00  0.00     0.031 C 
ATOM     54  C   UNL A   1      46.628  24.322  27.623  1.00  0.00     0.029 A 
ATOM     55  C   UNL A   1      46.399  25.682  27.905  1.00  0.00     0.049 A 
ATOM     56  H   UNL A   1      44.587  26.715  28.233  1.00  0.00     0.167 HD
ATOM     57  C   UNL A   1      40.825  28.543  28.902  1.00  0.00     0.037 A 
ATOM     58  C   UNL A   1      47.398  26.634  28.027  1.00  0.00     0.037 A 
ATOM     59  C   UNL A   1      41.828  29.486  29.068  1.00  0.00     0.049 A 
ATOM     60  C   UNL A   1      47.155  27.980  28.314  1.00  0.00     0.074 A 
ATOM     61  C   UNL A   1      41.603  30.830  29.422  1.00  0.00     0.029 A 
ATOM     62  N   UNL A   1      43.185  29.307  28.922  1.00  0.00    -0.354 N 
ATOM     63  N   UNL A   1      45.976  28.560  28.544  1.00  0.00    -0.248 NA
ATOM     64  C   UNL A   1      48.203  29.004  28.414  1.00  0.00     0.031 C 
ATOM     65  C   UNL A   1      42.809  31.456  29.480  1.00  0.00     0.029 A 
ATOM     66  C   UNL A   1      43.805  30.515  29.162  1.00  0.00     0.049 A 
ATOM     67  H   UNL A   1      43.635  28.464  28.687  1.00  0.00     0.167 HD
ATOM     68  C   UNL A   1      46.145  29.858  28.803  1.00  0.00     0.074 A 
ATOM     69  C   UNL A   1      47.579  30.164  28.715  1.00  0.00     0.031 C 
ATOM     70  C   UNL A   1      45.161  30.799  29.111  1.00  0.00     0.037 A 
BRANCH  57  71
ATOM     71  C   UNL A   1      39.384  28.983  29.108  1.00  0.00     0.064 A 
ATOM     72  C   UNL A   1      38.801  29.118  30.357  1.00  0.00     0.173 A 
ATOM     73  C   UNL A   1      38.752  29.370  28.007  1.00  0.00     0.173 A 
ATOM     74  F   UNL A   1      39.479  28.985  31.493  1.00  0.00    -0.203 F 
ATOM     75  C   UNL A   1      37.417  29.410  30.314  1.00  0.00     0.198 A 
ATOM     76  C   UNL A   1      37.440  29.774  28.058  1.00  0.00     0.198 A 
ATOM     77  F   UNL A   1      39.395  29.367  26.842  1.00  0.00    -0.203 F 
ATOM     78  F   UNL A   1      36.707  29.205  31.419  1.00  0.00    -0.200 F 
ATOM     79  C   UNL A   1      36.782  29.874  29.253  1.00  0.00     0.200 A 
ATOM     80  F   UNL A   1      36.800  30.070  26.931  1.00  0.00    -0.200 F 
ATOM     81  F   UNL A   1      35.567  30.408  29.341  1.00  0.00    -0.200 F 
ENDBRANCH  57  71
BRANCH  58  82
ATOM     82  C   UNL A   1      48.839  26.190  27.839  1.00  0.00     0.064 A 
ATOM     83  C   UNL A   1      49.642  25.873  28.921  1.00  0.00     0.173 A 
ATOM     84  C   UNL A   1      49.339  26.276  26.612  1.00  0.00     0.173 A 
ATOM     85  F   UNL A   1      49.155  25.530  30.111  1.00  0.00    -0.203 F 
ATOM     86  C   UNL A   1      51.029  25.946  28.648  1.00  0.00     0.198 A 
ATOM     87  C   UNL A   1      50.695  26.204  26.402  1.00  0.00     0.198 A 
ATOM     88  F   UNL A   1      48.520  26.433  25.576  1.00  0.00    -0.203 F 
ATOM     89  F   UNL A   1      51.861  26.016  29.683  1.00  0.00    -0.200 F 
ATOM     90  C   UNL A   1      51.554  25.952  27.436  1.00  0.00     0.200 A 
ATOM     91  F   UNL A   1      51.179  26.382  25.177  1.00  0.00    -0.200 F 
ATOM     92  F   UNL A   1      52.848  25.723  27.232  1.00  0.00    -0.200 F 
ENDBRANCH  58  82
BRANCH  70  93
ATOM     93  C   UNL A   1      45.603  32.222  29.409  1.00  0.00     0.064 A 
ATOM     94  C   UNL A   1      45.923  32.475  30.733  1.00  0.00     0.173 A 
ATOM     95  C   UNL A   1      45.779  33.145  28.470  1.00  0.00     0.173 A 
ATOM     96  F   UNL A   1      46.006  31.520  31.654  1.00  0.00    -0.203 F 
ATOM     97  C   UNL A   1      46.157  33.842  31.015  1.00  0.00     0.198 A 
ATOM     98  C   UNL A   1      46.139  34.427  28.807  1.00  0.00     0.198 A 
ATOM     99  F   UNL A   1      45.604  32.824  27.190  1.00  0.00    -0.203 F 
ATOM    100  F   UNL A   1      46.113  34.227  32.288  1.00  0.00    -0.200 F 
ATOM    101  C   UNL A   1      46.413  34.762  30.104  1.00  0.00     0.200 A 
ATOM    102  F   UNL A   1      46.221  35.355  27.858  1.00  0.00    -0.200 F 
ATOM    103  F   UNL A   1      46.913  35.951  30.429  1.00  0.00    -0.200 F 
ENDBRANCH  70  93
ENDBRANCH  44  45
ENDBRANCH  37  39
ENDBRANCH  36  37
ENDBRANCH  35  36
ENDBRANCH  34  35
ENDBRANCH  33  34
ENDBRANCH  32  33
ENDBRANCH   1  32
TORSDOF 22
ENDMDL
MODEL 2
REMARK VINA RESULT:     -11.6      2.866      8.432
REMARK SMILES O=C(OCCOCCOCCOCCOC(=O)c1ccc(-c2c3nc(c(-c4c(F)c(F)c(F)c(F)c4F)c4ccc([nH]4)c(-c4c(F)c(F)c(F)c(F)c4F)c4nc(c(-c5c(F)c(F)c(F)c(F)c5F)c5ccc2[nH]5)C=C4)C=C3)cc1)C1=Cc2cc(S(F)(F)(F)(F)F)cc(Br)c2O[C@@H]1C(F)(F)F
REMARK SMILES IDX 10 1 9 2 8 3 7 4 6 5 5 6 4 7 3 8 2 9 1 10 81 11 82 12 97 13
REMARK SMILES IDX 83 14 96 15 84 16 95 17 85 18 93 19 92 20 94 21 98 22 99 23
REMARK SMILES IDX 100 24 101 25 86 26 87 27 88 28 89 29 90 30 91 31 11 32
REMARK SMILES IDX 12 33 13 34 14 35 15 36 16 37 17 38 18 39 19 40 80 41 20 42
REMARK SMILES IDX 79 43 21 44 22 45 23 46 73 47 24 48 78 49 72 50 74 51 25 52
REMARK SMILES IDX 77 53 71 54 70 55 26 57 58 58 38 59 57 60 39 61 42 62 56 63
REMARK SMILES IDX 75 64 40 65 41 66 55 68 76 69 43 70 27 71 28 72 36 73 29 74
REMARK SMILES IDX 30 75 34 76 37 77 31 78 32 79 35 80 33 81 59 82 60 83 68 84
REMARK SMILES IDX 61 85 62 86 66 87 69 88 63 89 64 90 67 91 65 92 44 93 45 94
REMARK SMILES IDX 53 95 46 96 47 97 51 98 54 99 48 100 49 101 52 102 50 103
REMARK H PARENT 74 56 42 67
REMARK Flexibility Score: inf
ROOT
ATOM      1  C   UNL A   1      41.620  21.499  27.667  1.00  0.00     0.188 C 
ENDROOT
BRANCH   1   2
ATOM      2  O   UNL A   1      40.470  22.099  27.090  1.00  0.00    -0.377 OA
BRANCH   2   3
ATOM      3  C   UNL A   1      39.884  21.200  26.161  1.00  0.00     0.188 C 
BRANCH   3   4
ATOM      4  C   UNL A   1      38.528  21.733  25.726  1.00  0.00     0.188 C 
BRANCH   4   5
ATOM      5  O   UNL A   1      38.252  22.942  26.416  1.00  0.00    -0.376 OA
BRANCH   5   6
ATOM      6  C   UNL A   1      37.720  23.896  25.507  1.00  0.00     0.202 C 
BRANCH   6   7
ATOM      7  C   UNL A   1      36.206  23.926  25.634  1.00  0.00     0.261 C 
BRANCH   7   8
ATOM      8  O   UNL A   1      35.628  24.168  24.359  1.00  0.00    -0.460 OA
BRANCH   8   9
ATOM      9  C   UNL A   1      34.468  24.979  24.248  1.00  0.00     0.338 C 
ATOM     10  O   UNL A   1      34.209  25.845  25.141  1.00  0.00    -0.246 OA
BRANCH   9  11
ATOM     11  C   UNL A   1      33.534  24.810  23.060  1.00  0.00     0.087 C 
ATOM     12  C   UNL A   1      32.837  23.653  22.902  1.00  0.00     0.027 C 
ATOM     13  C   UNL A   1      33.380  25.934  22.049  1.00  0.00     0.316 C 
ATOM     14  C   UNL A   1      32.991  22.529  23.913  1.00  0.00     0.020 A 
ATOM     15  O   UNL A   1      32.867  24.046  25.738  1.00  0.00    -0.474 OA
ATOM     16  C   UNL A   1      33.258  21.280  23.377  1.00  0.00     0.036 A 
ATOM     17  C   UNL A   1      32.984  22.726  25.226  1.00  0.00     0.142 A 
ATOM     18  C   UNL A   1      33.223  20.229  24.323  1.00  0.00     0.109 A 
ATOM     19  C   UNL A   1      33.090  21.667  26.094  1.00  0.00     0.062 A 
ATOM     20  C   UNL A   1      33.296  20.397  25.631  1.00  0.00     0.044 A 
ATOM     21  Br  UNL A   1      32.943  21.979  28.023  1.00  0.00    -0.047 Br
BRANCH  13  22
ATOM     22  C   UNL A   1      31.928  26.384  22.008  1.00  0.00     0.430 C 
ATOM     23  F   UNL A   1      31.394  26.050  20.837  1.00  0.00    -0.167 F 
ATOM     24  F   UNL A   1      31.253  25.792  22.989  1.00  0.00    -0.167 F 
ATOM     25  F   UNL A   1      31.869  27.704  22.161  1.00  0.00    -0.167 F 
ENDBRANCH  13  22
BRANCH  18  26
ATOM     26  S   UNL A   1      33.065  18.537  23.699  1.00  0.00     0.310 S 
ATOM     27  F   UNL A   1      31.896  18.218  24.721  1.00  0.00    -0.094 F 
ATOM     28  F   UNL A   1      34.073  18.047  24.806  1.00  0.00    -0.094 F 
ATOM     29  F   UNL A   1      32.908  17.087  23.161  1.00  0.00    -0.094 F 
ATOM     30  F   UNL A   1      31.953  19.024  22.689  1.00  0.00    -0.094 F 
ATOM     31  F   UNL A   1      33.130  19.995  24.308  1.00  0.00    -0.094 F 
ENDBRANCH  18  26
ENDBRANCH   9  11
ENDBRANCH   8   9
ENDBRANCH   7   8
ENDBRANCH   6   7
ENDBRANCH   5   6
ENDBRANCH   4   5
ENDBRANCH   3   4
ENDBRANCH   2   3
ENDBRANCH   1   2
BRANCH   1  32
ATOM     32  C   UNL A   1      42.039  20.299  26.834  1.00  0.00     0.188 C 
BRANCH  32  33
ATOM     33  O   UNL A   1      42.299  19.197  27.691  1.00  0.00    -0.376 OA
BRANCH  33  34
ATOM     34  C   UNL A   1      43.019  18.202  26.978  1.00  0.00     0.202 C 
BRANCH  34  35
ATOM     35  C   UNL A   1      43.137  18.611  25.519  1.00  0.00     0.261 C 
BRANCH  35  36
ATOM     36  O   UNL A   1      44.465  18.384  25.069  1.00  0.00    -0.460 OA
BRANCH  36  37
ATOM     37  C   UNL A   1      45.083  19.310  24.189  1.00  0.00     0.338 C 
ATOM     38  O   UNL A   1      45.618  18.903  23.110  1.00  0.00    -0.246 OA
BRANCH  37  39
ATOM     39  C   UNL A   1      45.107  20.790  24.536  1.00  0.00     0.060 A 
ATOM     40  C   UNL A   1      45.637  21.084  25.781  1.00  0.00     0.016 A 
ATOM     41  C   UNL A   1      44.788  21.753  23.678  1.00  0.00     0.016 A 
ATOM     42  C   UNL A   1      45.523  22.447  26.145  1.00  0.00     0.010 A 
ATOM     43  C   UNL A   1      44.829  23.071  24.061  1.00  0.00     0.010 A 
ATOM     44  C   UNL A   1      45.285  23.431  25.298  1.00  0.00    -0.014 A 
BRANCH  44  45
ATOM     45  C   UNL A   1      45.508  24.886  25.677  1.00  0.00     0.031 A 
ATOM     46  C   UNL A   1      46.787  25.442  25.659  1.00  0.00     0.074 A 
ATOM     47  C   UNL A   1      44.391  25.529  26.186  1.00  0.00     0.049 A 
ATOM     48  N   UNL A   1      47.153  26.655  26.078  1.00  0.00    -0.248 NA
ATOM     49  C   UNL A   1      47.981  24.749  25.152  1.00  0.00     0.031 C 
ATOM     50  C   UNL A   1      43.094  24.978  26.199  1.00  0.00     0.029 A 
ATOM     51  N   UNL A   1      44.323  26.780  26.756  1.00  0.00    -0.354 N 
ATOM     52  C   UNL A   1      48.462  26.835  25.882  1.00  0.00     0.074 A 
ATOM     53  C   UNL A   1      49.013  25.610  25.289  1.00  0.00     0.031 C 
ATOM     54  C   UNL A   1      42.259  25.879  26.779  1.00  0.00     0.029 A 
ATOM     55  C   UNL A   1      43.019  27.008  27.138  1.00  0.00     0.049 A 
ATOM     56  H   UNL A   1      45.075  27.404  26.871  1.00  0.00     0.167 HD
ATOM     57  C   UNL A   1      49.215  27.973  26.173  1.00  0.00     0.037 A 
ATOM     58  C   UNL A   1      42.503  28.130  27.766  1.00  0.00     0.037 A 
ATOM     59  C   UNL A   1      48.689  29.113  26.762  1.00  0.00     0.049 A 
ATOM     60  C   UNL A   1      43.269  29.247  28.111  1.00  0.00     0.074 A 
ATOM     61  C   UNL A   1      49.434  30.272  27.054  1.00  0.00     0.029 A 
ATOM     62  N   UNL A   1      47.391  29.331  27.166  1.00  0.00    -0.354 N 
ATOM     63  N   UNL A   1      44.568  29.442  27.879  1.00  0.00    -0.248 NA
ATOM     64  C   UNL A   1      42.739  30.428  28.806  1.00  0.00     0.031 C 
ATOM     65  C   UNL A   1      48.597  31.173  27.636  1.00  0.00     0.029 A 
ATOM     66  C   UNL A   1      47.318  30.593  27.717  1.00  0.00     0.049 A 
ATOM     67  H   UNL A   1      46.644  28.696  27.078  1.00  0.00     0.167 HD
ATOM     68  C   UNL A   1      44.942  30.639  28.335  1.00  0.00     0.074 A 
ATOM     69  C   UNL A   1      43.772  31.287  28.945  1.00  0.00     0.031 C 
ATOM     70  C   UNL A   1      46.209  31.218  28.265  1.00  0.00     0.037 A 
BRANCH  57  71
ATOM     71  C   UNL A   1      50.694  27.964  25.823  1.00  0.00     0.064 A 
ATOM     72  C   UNL A   1      51.690  27.658  26.736  1.00  0.00     0.173 A 
ATOM     73  C   UNL A   1      50.968  28.133  24.535  1.00  0.00     0.173 A 
ATOM     74  F   UNL A   1      51.437  27.235  27.971  1.00  0.00    -0.203 F 
ATOM     75  C   UNL A   1      53.001  27.838  26.235  1.00  0.00     0.198 A 
ATOM     76  C   UNL A   1      52.270  28.161  24.095  1.00  0.00     0.198 A 
ATOM     77  F   UNL A   1      49.975  28.276  23.663  1.00  0.00    -0.203 F 
ATOM     78  F   UNL A   1      53.993  27.921  27.116  1.00  0.00    -0.200 F 
ATOM     79  C   UNL A   1      53.307  27.926  24.953  1.00  0.00     0.200 A 
ATOM     80  F   UNL A   1      52.523  28.422  22.816  1.00  0.00    -0.200 F 
ATOM     81  F   UNL A   1      54.559  27.796  24.521  1.00  0.00    -0.200 F 
ENDBRANCH  57  71
BRANCH  58  82
ATOM     82  C   UNL A   1      41.021  28.147  28.101  1.00  0.00     0.064 A 
ATOM     83  C   UNL A   1      40.107  28.802  27.292  1.00  0.00     0.173 A 
ATOM     84  C   UNL A   1      40.664  27.649  29.279  1.00  0.00     0.173 A 
ATOM     85  F   UNL A   1      40.344  29.091  26.015  1.00  0.00    -0.203 F 
ATOM     86  C   UNL A   1      38.898  29.136  27.946  1.00  0.00     0.198 A 
ATOM     87  C   UNL A   1      39.418  27.903  29.798  1.00  0.00     0.198 A 
ATOM     88  F   UNL A   1      41.522  26.897  29.963  1.00  0.00    -0.203 F 
ATOM     89  F   UNL A   1      38.125  30.061  27.384  1.00  0.00    -0.200 F 
ATOM     90  C   UNL A   1      38.484  28.595  29.078  1.00  0.00     0.200 A 
ATOM     91  F   UNL A   1      39.115  27.469  31.018  1.00  0.00    -0.200 F 
ATOM     92  F   UNL A   1      37.226  28.716  29.493  1.00  0.00    -0.200 F 
ENDBRANCH  58  82
BRANCH  70  93
ATOM     93  C   UNL A   1      46.386  32.621  28.823  1.00  0.00     0.064 A 
ATOM     94  C   UNL A   1      46.766  32.682  30.154  1.00  0.00     0.173 A 
ATOM     95  C   UNL A   1      46.292  33.720  28.083  1.00  0.00     0.173 A 
ATOM     96  F   UNL A   1      47.117  31.609  30.858  1.00  0.00    -0.203 F 
ATOM     97  C   UNL A   1      46.748  33.989  30.696  1.00  0.00     0.198 A 
ATOM     98  C   UNL A   1      46.420  34.962  28.655  1.00  0.00     0.198 A 
ATOM     99  F   UNL A   1      46.072  33.616  26.775  1.00  0.00    -0.203 F 
ATOM    100  F   UNL A   1      46.742  34.109  32.020  1.00  0.00    -0.200 F 
ATOM    101  C   UNL A   1      46.736  35.097  29.979  1.00  0.00     0.200 A 
ATOM    102  F   UNL A   1      46.232  36.049  27.912  1.00  0.00    -0.200 F 
ATOM    103  F   UNL A   1      47.018  36.282  30.514  1.00  0.00    -0.200 F 
ENDBRANCH  70  93
ENDBRANCH  44  45
ENDBRANCH  37  39
ENDBRANCH  36  37
ENDBRANCH  35  36
ENDBRANCH  34  35
ENDBRANCH  33  34
ENDBRANCH  32  33
ENDBRANCH   1  32
TORSDOF 22
ENDMDL
MODEL 3
REMARK VINA RESULT:     -11.6      2.901      5.270
REMARK SMILES O=C(OCCOCCOCCOCCOC(=O)c1ccc(-c2c3nc(c(-c4c(F)c(F)c(F)c(F)c4F)c4ccc([nH]4)c(-c4c(F)c(F)c(F)c(F)c4F)c4nc(c(-c5c(F)c(F)c(F)c(F)c5F)c5ccc2[nH]5)C=C4)C=C3)cc1)C1=Cc2cc(S(F)(F)(F)(F)F)cc(Br)c2O[C@@H]1C(F)(F)F
REMARK SMILES IDX 10 1 9 2 8 3 7 4 6 5 5 6 4 7 3 8 2 9 1 10 81 11 82 12 97 13
REMARK SMILES IDX 83 14 96 15 84 16 95 17 85 18 93 19 92 20 94 21 98 22 99 23
REMARK SMILES IDX 100 24 101 25 86 26 87 27 88 28 89 29 90 30 91 31 11 32
REMARK SMILES IDX 12 33 13 34 14 35 15 36 16 37 17 38 18 39 19 40 80 41 20 42
REMARK SMILES IDX 79 43 21 44 22 45 23 46 73 47 24 48 78 49 72 50 74 51 25 52
REMARK SMILES IDX 77 53 71 54 70 55 26 57 58 58 38 59 57 60 39 61 42 62 56 63
REMARK SMILES IDX 75 64 40 65 41 66 55 68 76 69 43 70 27 71 28 72 36 73 29 74
REMARK SMILES IDX 30 75 34 76 37 77 31 78 32 79 35 80 33 81 59 82 60 83 68 84
REMARK SMILES IDX 61 85 62 86 66 87 69 88 63 89 64 90 67 91 65 92 44 93 45 94
REMARK SMILES IDX 53 95 46 96 47 97 51 98 54 99 48 100 49 101 52 102 50 103
REMARK H PARENT 74 56 42 67
REMARK Flexibility Score: inf
ROOT
ATOM      1  C   UNL A   1      41.317  21.336  27.669  1.00  0.00     0.188 C 
ENDROOT
BRANCH   1   2
ATOM      2  O   UNL A   1      40.048  21.762  27.196  1.00  0.00    -0.377 OA
BRANCH   2   3
ATOM      3  C   UNL A   1      39.687  20.997  26.056  1.00  0.00     0.188 C 
BRANCH   3   4
ATOM      4  C   UNL A   1      38.350  21.484  25.521  1.00  0.00     0.188 C 
BRANCH   4   5
ATOM      5  O   UNL A   1      37.932  22.623  26.259  1.00  0.00    -0.376 OA
BRANCH   5   6
ATOM      6  C   UNL A   1      37.635  23.686  25.363  1.00  0.00     0.202 C 
BRANCH   6   7
ATOM      7  C   UNL A   1      36.174  24.079  25.511  1.00  0.00     0.261 C 
BRANCH   7   8
ATOM      8  O   UNL A   1      35.549  24.067  24.236  1.00  0.00    -0.460 OA
BRANCH   8   9
ATOM      9  C   UNL A   1      34.386  24.850  24.009  1.00  0.00     0.338 C 
ATOM     10  O   UNL A   1      34.114  25.823  24.780  1.00  0.00    -0.246 OA
BRANCH   9  11
ATOM     11  C   UNL A   1      33.467  24.524  22.843  1.00  0.00     0.087 C 
ATOM     12  C   UNL A   1      32.833  23.322  22.792  1.00  0.00     0.027 C 
ATOM     13  C   UNL A   1      33.257  25.541  21.733  1.00  0.00     0.316 C 
ATOM     14  C   UNL A   1      33.043  22.304  23.902  1.00  0.00     0.020 A 
ATOM     15  O   UNL A   1      32.832  23.973  25.580  1.00  0.00    -0.474 OA
ATOM     16  C   UNL A   1      33.378  21.027  23.481  1.00  0.00     0.036 A 
ATOM     17  C   UNL A   1      33.021  22.620  25.190  1.00  0.00     0.142 A 
ATOM     18  C   UNL A   1      33.395  20.067  24.520  1.00  0.00     0.109 A 
ATOM     19  C   UNL A   1      33.180  21.652  26.152  1.00  0.00     0.062 A 
ATOM     20  C   UNL A   1      33.455  20.358  25.807  1.00  0.00     0.044 A 
ATOM     21  Br  UNL A   1      33.011  22.131  28.045  1.00  0.00    -0.047 Br
BRANCH  13  22
ATOM     22  C   UNL A   1      31.783  25.907  21.653  1.00  0.00     0.430 C 
ATOM     23  F   UNL A   1      31.064  24.991  22.295  1.00  0.00    -0.167 F 
ATOM     24  F   UNL A   1      31.591  27.096  22.215  1.00  0.00    -0.167 F 
ATOM     25  F   UNL A   1      31.407  25.952  20.378  1.00  0.00    -0.167 F 
ENDBRANCH  13  22
BRANCH  18  26
ATOM     26  S   UNL A   1      33.330  18.320  24.053  1.00  0.00     0.310 S 
ATOM     27  F   UNL A   1      33.008  17.885  25.544  1.00  0.00    -0.094 F 
ATOM     28  F   UNL A   1      34.857  18.178  24.415  1.00  0.00    -0.094 F 
ATOM     29  F   UNL A   1      33.256  16.817  23.663  1.00  0.00    -0.094 F 
ATOM     30  F   UNL A   1      31.772  18.448  23.829  1.00  0.00    -0.094 F 
ATOM     31  F   UNL A   1      33.367  19.818  24.554  1.00  0.00    -0.094 F 
ENDBRANCH  18  26
ENDBRANCH   9  11
ENDBRANCH   8   9
ENDBRANCH   7   8
ENDBRANCH   6   7
ENDBRANCH   5   6
ENDBRANCH   4   5
ENDBRANCH   3   4
ENDBRANCH   2   3
ENDBRANCH   1   2
BRANCH   1  32
ATOM     32  C   UNL A   1      41.811  20.175  26.821  1.00  0.00     0.188 C 
BRANCH  32  33
ATOM     33  O   UNL A   1      42.280  19.137  27.669  1.00  0.00    -0.376 OA
BRANCH  33  34
ATOM     34  C   UNL A   1      43.021  18.198  26.904  1.00  0.00     0.202 C 
BRANCH  34  35
ATOM     35  C   UNL A   1      42.956  18.580  25.434  1.00  0.00     0.261 C 
BRANCH  35  36
ATOM     36  O   UNL A   1      44.222  18.362  24.830  1.00  0.00    -0.460 OA
BRANCH  36  37
ATOM     37  C   UNL A   1      44.852  19.407  24.104  1.00  0.00     0.338 C 
ATOM     38  O   UNL A   1      45.439  19.154  23.006  1.00  0.00    -0.246 OA
BRANCH  37  39
ATOM     39  C   UNL A   1      44.824  20.829  24.641  1.00  0.00     0.060 A 
ATOM     40  C   UNL A   1      45.289  20.968  25.938  1.00  0.00     0.016 A 
ATOM     41  C   UNL A   1      44.521  21.889  23.900  1.00  0.00     0.016 A 
ATOM     42  C   UNL A   1      45.125  22.270  26.469  1.00  0.00     0.010 A 
ATOM     43  C   UNL A   1      44.513  23.148  24.451  1.00  0.00     0.010 A 
ATOM     44  C   UNL A   1      44.903  23.352  25.745  1.00  0.00    -0.014 A 
BRANCH  44  45
ATOM     45  C   UNL A   1      45.073  24.749  26.320  1.00  0.00     0.031 A 
ATOM     46  C   UNL A   1      43.977  25.462  26.805  1.00  0.00     0.074 A 
ATOM     47  C   UNL A   1      46.340  25.287  26.164  1.00  0.00     0.049 A 
ATOM     48  N   UNL A   1      43.950  26.729  27.221  1.00  0.00    -0.248 NA
ATOM     49  C   UNL A   1      42.623  24.902  26.939  1.00  0.00     0.031 C 
ATOM     50  C   UNL A   1      47.455  24.571  25.684  1.00  0.00     0.029 A 
ATOM     51  N   UNL A   1      46.750  26.574  26.432  1.00  0.00    -0.354 N 
ATOM     52  C   UNL A   1      42.721  27.053  27.632  1.00  0.00     0.074 A 
ATOM     53  C   UNL A   1      41.850  25.885  27.450  1.00  0.00     0.031 C 
ATOM     54  C   UNL A   1      48.517  25.417  25.653  1.00  0.00     0.029 A 
ATOM     55  C   UNL A   1      48.086  26.675  26.114  1.00  0.00     0.049 A 
ATOM     56  H   UNL A   1      46.186  27.296  26.792  1.00  0.00     0.167 HD
ATOM     57  C   UNL A   1      42.295  28.276  28.151  1.00  0.00     0.037 A 
ATOM     58  C   UNL A   1      48.899  27.793  26.210  1.00  0.00     0.037 A 
ATOM     59  C   UNL A   1      43.120  29.382  28.288  1.00  0.00     0.049 A 
ATOM     60  C   UNL A   1      48.458  29.035  26.675  1.00  0.00     0.074 A 
ATOM     61  C   UNL A   1      42.707  30.620  28.817  1.00  0.00     0.029 A 
ATOM     62  N   UNL A   1      44.449  29.491  27.946  1.00  0.00    -0.354 N 
ATOM     63  N   UNL A   1      47.240  29.348  27.122  1.00  0.00    -0.248 NA
ATOM     64  C   UNL A   1      49.302  30.235  26.751  1.00  0.00     0.031 C 
ATOM     65  C   UNL A   1      43.772  31.467  28.786  1.00  0.00     0.029 A 
ATOM     66  C   UNL A   1      44.865  30.772  28.236  1.00  0.00     0.049 A 
ATOM     67  H   UNL A   1      45.006  28.776  27.560  1.00  0.00     0.167 HD
ATOM     68  C   UNL A   1      47.204  30.627  27.500  1.00  0.00     0.074 A 
ATOM     69  C   UNL A   1      48.527  31.218  27.260  1.00  0.00     0.031 C 
ATOM     70  C   UNL A   1      46.121  31.323  28.039  1.00  0.00     0.037 A 
BRANCH  57  71
ATOM     71  C   UNL A   1      40.846  28.403  28.592  1.00  0.00     0.064 A 
ATOM     72  C   UNL A   1      40.415  28.124  29.879  1.00  0.00     0.173 A 
ATOM     73  C   UNL A   1      40.029  28.937  27.693  1.00  0.00     0.173 A 
ATOM     74  F   UNL A   1      41.247  27.830  30.874  1.00  0.00    -0.203 F 
ATOM     75  C   UNL A   1      39.010  28.180  30.037  1.00  0.00     0.198 A 
ATOM     76  C   UNL A   1      38.691  29.089  27.966  1.00  0.00     0.198 A 
ATOM     77  F   UNL A   1      40.510  29.331  26.517  1.00  0.00    -0.203 F 
ATOM     78  F   UNL A   1      38.485  27.591  31.107  1.00  0.00    -0.200 F 
ATOM     79  C   UNL A   1      38.185  28.778  29.198  1.00  0.00     0.200 A 
ATOM     80  F   UNL A   1      37.876  29.543  27.018  1.00  0.00    -0.200 F 
ATOM     81  F   UNL A   1      36.929  29.061  29.531  1.00  0.00    -0.200 F 
ENDBRANCH  57  71
BRANCH  58  82
ATOM     82  C   UNL A   1      50.352  27.662  25.785  1.00  0.00     0.064 A 
ATOM     83  C   UNL A   1      51.365  27.511  26.717  1.00  0.00     0.173 A 
ATOM     84  C   UNL A   1      50.623  27.861  24.500  1.00  0.00     0.173 A 
ATOM     85  F   UNL A   1      51.153  27.065  27.953  1.00  0.00    -0.203 F 
ATOM     86  C   UNL A   1      52.645  27.875  26.238  1.00  0.00     0.198 A 
ATOM     87  C   UNL A   1      51.914  28.075  24.082  1.00  0.00     0.198 A 
ATOM     88  F   UNL A   1      49.635  27.851  23.609  1.00  0.00    -0.203 F 
ATOM     89  F   UNL A   1      53.599  28.110  27.135  1.00  0.00    -0.200 F 
ATOM     90  C   UNL A   1      52.959  28.000  24.961  1.00  0.00     0.200 A 
ATOM     91  F   UNL A   1      52.151  28.360  22.805  1.00  0.00    -0.200 F 
ATOM     92  F   UNL A   1      54.224  28.049  24.552  1.00  0.00    -0.200 F 
ENDBRANCH  58  82
BRANCH  70  93
ATOM     93  C   UNL A   1      46.332  32.775  28.434  1.00  0.00     0.064 A 
ATOM     94  C   UNL A   1      46.053  33.702  27.443  1.00  0.00     0.173 A 
ATOM     95  C   UNL A   1      46.658  33.160  29.663  1.00  0.00     0.173 A 
ATOM     96  F   UNL A   1      45.483  33.378  26.286  1.00  0.00    -0.203 F 
ATOM     97  C   UNL A   1      46.427  35.026  27.774  1.00  0.00     0.198 A 
ATOM     98  C   UNL A   1      46.876  34.486  29.947  1.00  0.00     0.198 A 
ATOM     99  F   UNL A   1      46.773  32.251  30.628  1.00  0.00    -0.203 F 
ATOM    100  F   UNL A   1      46.535  35.905  26.781  1.00  0.00    -0.200 F 
ATOM    101  C   UNL A   1      46.677  35.450  28.999  1.00  0.00     0.200 A 
ATOM    102  F   UNL A   1      47.289  34.836  31.162  1.00  0.00    -0.200 F 
ATOM    103  F   UNL A   1      46.730  36.746  29.296  1.00  0.00    -0.200 F 
ENDBRANCH  70  93
ENDBRANCH  44  45
ENDBRANCH  37  39
ENDBRANCH  36  37
ENDBRANCH  35  36
ENDBRANCH  34  35
ENDBRANCH  33  34
ENDBRANCH  32  33
ENDBRANCH   1  32
TORSDOF 22
ENDMDL
