MODEL 1
REMARK VINA RESULT:     -11.8      0.000      0.000
REMARK SMILES O=C(OCCOCCOCCOCCOC(=O)[C@H](c1c[nH]c2cc(F)ccc12)[NH+]1CCN(c2ccccc2)CC1)c1ccc(-c2c3nc(c(-c4c(F)c(F)c(F)c(F)c4F)c4ccc([nH]4)c(-c4c(F)c(F)c(F)c(F)c4F)c4nc(c(-c5c(F)c(F)c(F)c(F)c5F)c5ccc2[nH]5)C=C4)C=C3)cc1
REMARK SMILES IDX 9 1 8 2 7 3 6 4 5 5 4 6 3 7 2 8 1 9 41 10 42 11 103 12 43 13
REMARK SMILES IDX 102 14 44 15 45 16 46 17 96 18 47 19 101 20 95 21 97 22
REMARK SMILES IDX 48 23 100 24 94 25 93 26 49 28 81 29 61 30 80 31 62 32 65 33
REMARK SMILES IDX 79 34 98 35 63 36 64 37 78 39 99 40 66 41 50 42 51 43 59 44
REMARK SMILES IDX 52 45 53 46 57 47 60 48 54 49 55 50 58 51 56 52 82 53 83 54
REMARK SMILES IDX 91 55 84 56 85 57 89 58 92 59 86 60 87 61 90 62 88 63 67 64
REMARK SMILES IDX 68 65 76 66 69 67 70 68 74 69 77 70 71 71 72 72 75 73 73 74
REMARK SMILES IDX 10 75 11 76 12 77 13 78 14 79 15 80 16 81 17 82 18 83 29 84
REMARK SMILES IDX 30 85 40 86 31 88 39 89 32 90 33 91 34 92 38 93 35 94 37 95
REMARK SMILES IDX 36 96 19 97 20 98 28 99 21 100 22 101 27 102 23 104 26 105
REMARK SMILES IDX 24 106 25 107
REMARK H PARENT 97 27 65 38 29 87 21 103
REMARK Flexibility Score: inf
ROOT
ATOM      1  O   UNL A   1      35.431  32.491  27.624  1.00  0.00    -0.377 OA
ENDROOT
BRANCH   1   2
ATOM      2  C   UNL A   1      35.332  33.764  28.262  1.00  0.00     0.188 C 
BRANCH   2   3
ATOM      3  C   UNL A   1      33.900  34.278  28.403  1.00  0.00     0.188 C 
BRANCH   3   4
ATOM      4  O   UNL A   1      33.937  35.691  28.613  1.00  0.00    -0.376 OA
BRANCH   4   5
ATOM      5  C   UNL A   1      32.801  36.252  29.264  1.00  0.00     0.202 C 
BRANCH   5   6
ATOM      6  C   UNL A   1      33.185  37.234  30.361  1.00  0.00     0.261 C 
BRANCH   6   7
ATOM      7  O   UNL A   1      32.735  36.811  31.656  1.00  0.00    -0.460 OA
BRANCH   7   8
ATOM      8  C   UNL A   1      32.785  35.566  32.192  1.00  0.00     0.338 C 
ATOM      9  O   UNL A   1      31.756  35.113  32.700  1.00  0.00    -0.246 OA
BRANCH   8  10
ATOM     10  C   UNL A   1      33.973  34.656  32.131  1.00  0.00     0.060 A 
ATOM     11  C   UNL A   1      33.956  33.259  32.188  1.00  0.00     0.016 A 
ATOM     12  C   UNL A   1      35.215  35.286  31.940  1.00  0.00     0.016 A 
ATOM     13  C   UNL A   1      35.128  32.513  32.136  1.00  0.00     0.010 A 
ATOM     14  C   UNL A   1      36.401  34.549  31.888  1.00  0.00     0.010 A 
ATOM     15  C   UNL A   1      36.355  33.161  32.041  1.00  0.00    -0.014 A 
BRANCH  15  16
ATOM     16  C   UNL A   1      37.558  32.396  32.415  1.00  0.00     0.031 A 
ATOM     17  C   UNL A   1      38.097  32.620  33.798  1.00  0.00     0.074 A 
ATOM     18  C   UNL A   1      38.035  31.429  31.617  1.00  0.00     0.049 A 
ATOM     19  N   UNL A   1      39.161  32.130  34.371  1.00  0.00    -0.248 NA
ATOM     20  C   UNL A   1      37.309  33.518  34.662  1.00  0.00     0.031 C 
ATOM     21  C   UNL A   1      37.457  31.036  30.331  1.00  0.00     0.029 A 
ATOM     22  N   UNL A   1      39.089  30.574  31.789  1.00  0.00    -0.354 N 
ATOM     23  C   UNL A   1      39.192  32.697  35.640  1.00  0.00     0.074 A 
ATOM     24  C   UNL A   1      38.043  33.560  35.760  1.00  0.00     0.031 C 
ATOM     25  C   UNL A   1      38.154  29.996  29.841  1.00  0.00     0.029 A 
ATOM     26  C   UNL A   1      39.263  29.702  30.743  1.00  0.00     0.049 A 
ATOM     27  H   UNL A   1      39.667  30.584  32.586  1.00  0.00     0.167 HD
ATOM     28  C   UNL A   1      40.117  32.516  36.610  1.00  0.00     0.037 A 
ATOM     29  C   UNL A   1      40.237  28.796  30.543  1.00  0.00     0.037 A 
ATOM     30  C   UNL A   1      41.241  31.638  36.455  1.00  0.00     0.049 A 
ATOM     31  C   UNL A   1      41.311  28.678  31.593  1.00  0.00     0.074 A 
ATOM     32  C   UNL A   1      42.298  31.412  37.315  1.00  0.00     0.029 A 
ATOM     33  N   UNL A   1      41.443  30.827  35.342  1.00  0.00    -0.354 N 
ATOM     34  N   UNL A   1      41.405  29.290  32.752  1.00  0.00    -0.248 NA
ATOM     35  C   UNL A   1      42.422  27.765  31.305  1.00  0.00     0.031 C 
ATOM     36  C   UNL A   1      43.162  30.497  36.701  1.00  0.00     0.029 A 
ATOM     37  C   UNL A   1      42.615  30.110  35.485  1.00  0.00     0.049 A 
ATOM     38  H   UNL A   1      40.839  30.773  34.566  1.00  0.00     0.167 HD
ATOM     39  C   UNL A   1      42.571  28.823  33.341  1.00  0.00     0.074 A 
ATOM     40  C   UNL A   1      43.141  27.864  32.413  1.00  0.00     0.031 C 
ATOM     41  C   UNL A   1      43.127  29.152  34.534  1.00  0.00     0.037 A 
BRANCH  28  42
ATOM     42  C   UNL A   1      39.980  33.363  37.842  1.00  0.00     0.064 A 
ATOM     43  C   UNL A   1      39.043  33.079  38.848  1.00  0.00     0.173 A 
ATOM     44  C   UNL A   1      40.742  34.534  37.971  1.00  0.00     0.173 A 
ATOM     45  F   UNL A   1      38.261  31.992  38.757  1.00  0.00    -0.203 F 
ATOM     46  C   UNL A   1      38.844  33.959  39.911  1.00  0.00     0.198 A 
ATOM     47  C   UNL A   1      40.561  35.396  39.050  1.00  0.00     0.198 A 
ATOM     48  F   UNL A   1      41.644  34.860  37.033  1.00  0.00    -0.203 F 
ATOM     49  F   UNL A   1      37.885  33.709  40.816  1.00  0.00    -0.200 F 
ATOM     50  C   UNL A   1      39.602  35.116  40.011  1.00  0.00     0.200 A 
ATOM     51  F   UNL A   1      41.296  36.513  39.144  1.00  0.00    -0.200 F 
ATOM     52  F   UNL A   1      39.394  35.972  41.022  1.00  0.00    -0.200 F 
ENDBRANCH  28  42
BRANCH  29  53
ATOM     53  C   UNL A   1      40.258  27.975  29.301  1.00  0.00     0.064 A 
ATOM     54  C   UNL A   1      40.999  28.370  28.179  1.00  0.00     0.173 A 
ATOM     55  C   UNL A   1      39.539  26.772  29.210  1.00  0.00     0.173 A 
ATOM     56  F   UNL A   1      41.687  29.521  28.201  1.00  0.00    -0.203 F 
ATOM     57  C   UNL A   1      41.016  27.599  27.016  1.00  0.00     0.198 A 
ATOM     58  C   UNL A   1      39.579  25.988  28.059  1.00  0.00     0.198 A 
ATOM     59  F   UNL A   1      38.806  26.347  30.251  1.00  0.00    -0.203 F 
ATOM     60  F   UNL A   1      41.704  28.019  25.945  1.00  0.00    -0.200 F 
ATOM     61  C   UNL A   1      40.314  26.405  26.960  1.00  0.00     0.200 A 
ATOM     62  F   UNL A   1      38.910  24.827  28.018  1.00  0.00    -0.200 F 
ATOM     63  F   UNL A   1      40.337  25.660  25.846  1.00  0.00    -0.200 F 
ENDBRANCH  29  53
BRANCH  41  64
ATOM     64  C   UNL A   1      44.383  28.431  34.916  1.00  0.00     0.064 A 
ATOM     65  C   UNL A   1      45.651  28.951  34.622  1.00  0.00     0.173 A 
ATOM     66  C   UNL A   1      44.309  27.227  35.633  1.00  0.00     0.173 A 
ATOM     67  F   UNL A   1      45.768  30.091  33.926  1.00  0.00    -0.203 F 
ATOM     68  C   UNL A   1      46.803  28.276  35.012  1.00  0.00     0.198 A 
ATOM     69  C   UNL A   1      45.462  26.573  36.049  1.00  0.00     0.198 A 
ATOM     70  F   UNL A   1      43.115  26.698  35.945  1.00  0.00    -0.203 F 
ATOM     71  F   UNL A   1      48.006  28.765  34.682  1.00  0.00    -0.200 F 
ATOM     72  C   UNL A   1      46.708  27.094  35.732  1.00  0.00     0.200 A 
ATOM     73  F   UNL A   1      45.369  25.440  36.758  1.00  0.00    -0.200 F 
ATOM     74  F   UNL A   1      47.819  26.452  36.116  1.00  0.00    -0.200 F 
ENDBRANCH  41  64
ENDBRANCH  15  16
ENDBRANCH   8  10
ENDBRANCH   7   8
ENDBRANCH   6   7
ENDBRANCH   5   6
ENDBRANCH   4   5
ENDBRANCH   3   4
ENDBRANCH   2   3
ENDBRANCH   1   2
BRANCH   1  75
ATOM     75  C   UNL A   1      34.744  31.419  28.256  1.00  0.00     0.188 C 
BRANCH  75  76
ATOM     76  C   UNL A   1      33.937  30.424  27.399  1.00  0.00     0.188 C 
BRANCH  76  77
ATOM     77  O   UNL A   1      32.754  30.958  26.822  1.00  0.00    -0.376 OA
BRANCH  77  78
ATOM     78  C   UNL A   1      31.844  29.988  26.315  1.00  0.00     0.202 C 
BRANCH  78  79
ATOM     79  C   UNL A   1      31.704  28.723  27.172  1.00  0.00     0.261 C 
BRANCH  79  80
ATOM     80  O   UNL A   1      31.369  27.509  26.474  1.00  0.00    -0.459 OA
BRANCH  80  81
ATOM     81  C   UNL A   1      32.368  26.791  25.880  1.00  0.00     0.370 C 
ATOM     82  O   UNL A   1      33.419  26.519  26.445  1.00  0.00    -0.245 OA
BRANCH  81  83
ATOM     83  C   UNL A   1      31.934  26.382  24.440  1.00  0.00     0.328 C 
BRANCH  83  84
ATOM     84  N   UNL A   1      30.843  25.378  24.354  1.00  0.00    -0.316 N 
ATOM     85  C   UNL A   1      30.893  24.572  23.113  1.00  0.00     0.284 C 
ATOM     86  C   UNL A   1      30.693  24.467  25.495  1.00  0.00     0.284 C 
ATOM     87  H   UNL A   1      30.022  25.983  24.358  1.00  0.00     0.349 HD
ATOM     88  C   UNL A   1      31.902  23.391  23.088  1.00  0.00     0.178 C 
ATOM     89  C   UNL A   1      31.787  23.402  25.624  1.00  0.00     0.178 C 
ATOM     90  N   UNL A   1      31.964  22.669  24.363  1.00  0.00    -0.360 N 
BRANCH  90  91
ATOM     91  C   UNL A   1      32.800  21.560  24.460  1.00  0.00     0.037 A 
ATOM     92  C   UNL A   1      34.129  21.637  24.896  1.00  0.00     0.026 A 
ATOM     93  C   UNL A   1      32.283  20.300  24.135  1.00  0.00     0.026 A 
ATOM     94  C   UNL A   1      34.926  20.491  24.969  1.00  0.00     0.002 A 
ATOM     95  C   UNL A   1      33.075  19.155  24.202  1.00  0.00     0.002 A 
ATOM     96  C   UNL A   1      34.402  19.251  24.612  1.00  0.00     0.000 A 
ENDBRANCH  90  91
ENDBRANCH  83  84
BRANCH  83  97
ATOM     97  C   UNL A   1      31.691  27.606  23.548  1.00  0.00     0.046 A 
ATOM     98  C   UNL A   1      32.645  28.318  22.836  1.00  0.00     0.094 A 
ATOM     99  C   UNL A   1      30.420  28.201  23.196  1.00  0.00     0.009 A 
ATOM    100  N   UNL A   1      32.036  29.333  22.154  1.00  0.00    -0.361 N 
ATOM    101  C   UNL A   1      30.678  29.272  22.333  1.00  0.00     0.049 A 
ATOM    102  C   UNL A   1      29.069  27.912  23.501  1.00  0.00     0.014 A 
ATOM    103  H   UNL A   1      32.503  30.009  21.614  1.00  0.00     0.166 HD
ATOM    104  C   UNL A   1      29.670  30.080  21.791  1.00  0.00     0.065 A 
ATOM    105  C   UNL A   1      28.046  28.694  22.943  1.00  0.00     0.040 A 
ATOM    106  C   UNL A   1      28.355  29.761  22.113  1.00  0.00     0.125 A 
ATOM    107  F   UNL A   1      27.362  30.501  21.597  1.00  0.00    -0.207 F 
ENDBRANCH  83  97
ENDBRANCH  81  83
ENDBRANCH  80  81
ENDBRANCH  79  80
ENDBRANCH  78  79
ENDBRANCH  77  78
ENDBRANCH  76  77
ENDBRANCH  75  76
ENDBRANCH   1  75
TORSDOF 23
ENDMDL
MODEL 2
REMARK VINA RESULT:     -11.6      1.776      7.902
REMARK SMILES O=C(OCCOCCOCCOCCOC(=O)[C@H](c1c[nH]c2cc(F)ccc12)[NH+]1CCN(c2ccccc2)CC1)c1ccc(-c2c3nc(c(-c4c(F)c(F)c(F)c(F)c4F)c4ccc([nH]4)c(-c4c(F)c(F)c(F)c(F)c4F)c4nc(c(-c5c(F)c(F)c(F)c(F)c5F)c5ccc2[nH]5)C=C4)C=C3)cc1
REMARK SMILES IDX 9 1 8 2 7 3 6 4 5 5 4 6 3 7 2 8 1 9 41 10 42 11 103 12 43 13
REMARK SMILES IDX 102 14 44 15 45 16 46 17 96 18 47 19 101 20 95 21 97 22
REMARK SMILES IDX 48 23 100 24 94 25 93 26 49 28 81 29 61 30 80 31 62 32 65 33
REMARK SMILES IDX 79 34 98 35 63 36 64 37 78 39 99 40 66 41 50 42 51 43 59 44
REMARK SMILES IDX 52 45 53 46 57 47 60 48 54 49 55 50 58 51 56 52 82 53 83 54
REMARK SMILES IDX 91 55 84 56 85 57 89 58 92 59 86 60 87 61 90 62 88 63 67 64
REMARK SMILES IDX 68 65 76 66 69 67 70 68 74 69 77 70 71 71 72 72 75 73 73 74
REMARK SMILES IDX 10 75 11 76 12 77 13 78 14 79 15 80 16 81 17 82 18 83 29 84
REMARK SMILES IDX 30 85 40 86 31 88 39 89 32 90 33 91 34 92 38 93 35 94 37 95
REMARK SMILES IDX 36 96 19 97 20 98 28 99 21 100 22 101 27 102 23 104 26 105
REMARK SMILES IDX 24 106 25 107
REMARK H PARENT 97 27 65 38 29 87 21 103
REMARK Flexibility Score: inf
ROOT
ATOM      1  O   UNL A   1      35.612  32.355  27.648  1.00  0.00    -0.377 OA
ENDROOT
BRANCH   1   2
ATOM      2  C   UNL A   1      35.411  33.576  28.362  1.00  0.00     0.188 C 
BRANCH   2   3
ATOM      3  C   UNL A   1      33.993  34.132  28.254  1.00  0.00     0.188 C 
BRANCH   3   4
ATOM      4  O   UNL A   1      34.036  35.546  28.456  1.00  0.00    -0.376 OA
BRANCH   4   5
ATOM      5  C   UNL A   1      32.900  36.117  29.097  1.00  0.00     0.202 C 
BRANCH   5   6
ATOM      6  C   UNL A   1      33.279  37.201  30.096  1.00  0.00     0.261 C 
BRANCH   6   7
ATOM      7  O   UNL A   1      32.832  36.900  31.425  1.00  0.00    -0.460 OA
BRANCH   7   8
ATOM      8  C   UNL A   1      32.789  35.691  32.039  1.00  0.00     0.338 C 
ATOM      9  O   UNL A   1      31.692  35.274  32.419  1.00  0.00    -0.246 OA
BRANCH   8  10
ATOM     10  C   UNL A   1      33.962  34.775  32.207  1.00  0.00     0.060 A 
ATOM     11  C   UNL A   1      33.931  33.458  32.675  1.00  0.00     0.016 A 
ATOM     12  C   UNL A   1      35.202  35.292  31.792  1.00  0.00     0.016 A 
ATOM     13  C   UNL A   1      35.090  32.702  32.802  1.00  0.00     0.010 A 
ATOM     14  C   UNL A   1      36.377  34.544  31.917  1.00  0.00     0.010 A 
ATOM     15  C   UNL A   1      36.320  33.264  32.475  1.00  0.00    -0.014 A 
BRANCH  15  16
ATOM     16  C   UNL A   1      37.528  32.615  33.015  1.00  0.00     0.031 A 
ATOM     17  C   UNL A   1      38.221  31.628  32.121  1.00  0.00     0.074 A 
ATOM     18  C   UNL A   1      38.067  33.019  34.175  1.00  0.00     0.049 A 
ATOM     19  N   UNL A   1      39.261  30.876  32.351  1.00  0.00    -0.248 NA
ATOM     20  C   UNL A   1      37.665  31.483  30.763  1.00  0.00     0.031 C 
ATOM     21  C   UNL A   1      37.543  34.095  35.018  1.00  0.00     0.029 A 
ATOM     22  N   UNL A   1      39.194  32.600  34.825  1.00  0.00    -0.354 N 
ATOM     23  C   UNL A   1      39.450  30.139  31.188  1.00  0.00     0.074 A 
ATOM     24  C   UNL A   1      38.428  30.534  30.251  1.00  0.00     0.031 C 
ATOM     25  C   UNL A   1      38.367  34.267  36.065  1.00  0.00     0.029 A 
ATOM     26  C   UNL A   1      39.430  33.269  36.000  1.00  0.00     0.049 A 
ATOM     27  H   UNL A   1      39.781  31.887  34.483  1.00  0.00     0.167 HD
ATOM     28  C   UNL A   1      40.393  29.202  30.941  1.00  0.00     0.037 A 
ATOM     29  C   UNL A   1      40.387  33.060  36.923  1.00  0.00     0.037 A 
ATOM     30  C   UNL A   1      41.402  28.846  31.898  1.00  0.00     0.049 A 
ATOM     31  C   UNL A   1      41.371  31.946  36.671  1.00  0.00     0.074 A 
ATOM     32  C   UNL A   1      42.371  27.866  31.820  1.00  0.00     0.029 A 
ATOM     33  N   UNL A   1      41.565  29.482  33.124  1.00  0.00    -0.354 N 
ATOM     34  N   UNL A   1      41.491  31.171  35.617  1.00  0.00    -0.248 NA
ATOM     35  C   UNL A   1      42.336  31.662  37.738  1.00  0.00     0.031 C 
ATOM     36  C   UNL A   1      43.093  27.880  33.020  1.00  0.00     0.029 A 
ATOM     37  C   UNL A   1      42.610  28.907  33.821  1.00  0.00     0.049 A 
ATOM     38  H   UNL A   1      41.016  30.232  33.448  1.00  0.00     0.167 HD
ATOM     39  C   UNL A   1      42.556  30.322  35.883  1.00  0.00     0.074 A 
ATOM     40  C   UNL A   1      43.055  30.691  37.194  1.00  0.00     0.031 C 
ATOM     41  C   UNL A   1      43.076  29.327  35.121  1.00  0.00     0.037 A 
BRANCH  28  42
ATOM     42  C   UNL A   1      40.284  28.457  29.642  1.00  0.00     0.064 A 
ATOM     43  C   UNL A   1      39.557  27.263  29.519  1.00  0.00     0.173 A 
ATOM     44  C   UNL A   1      40.999  28.904  28.520  1.00  0.00     0.173 A 
ATOM     45  F   UNL A   1      38.885  26.769  30.570  1.00  0.00    -0.203 F 
ATOM     46  C   UNL A   1      39.588  26.523  28.337  1.00  0.00     0.198 A 
ATOM     47  C   UNL A   1      41.004  28.179  27.333  1.00  0.00     0.198 A 
ATOM     48  F   UNL A   1      41.721  30.034  28.586  1.00  0.00    -0.203 F 
ATOM     49  F   UNL A   1      38.954  25.343  28.270  1.00  0.00    -0.200 F 
ATOM     50  C   UNL A   1      40.311  26.981  27.246  1.00  0.00     0.200 A 
ATOM     51  F   UNL A   1      41.704  28.624  26.280  1.00  0.00    -0.200 F 
ATOM     52  F   UNL A   1      40.358  26.257  26.119  1.00  0.00    -0.200 F 
ENDBRANCH  28  42
BRANCH  29  53
ATOM     53  C   UNL A   1      40.432  33.884  38.162  1.00  0.00     0.064 A 
ATOM     54  C   UNL A   1      41.219  35.041  38.239  1.00  0.00     0.173 A 
ATOM     55  C   UNL A   1      39.683  33.535  39.297  1.00  0.00     0.173 A 
ATOM     56  F   UNL A   1      41.973  35.410  37.193  1.00  0.00    -0.203 F 
ATOM     57  C   UNL A   1      41.260  35.811  39.403  1.00  0.00     0.198 A 
ATOM     58  C   UNL A   1      39.701  34.320  40.448  1.00  0.00     0.198 A 
ATOM     59  F   UNL A   1      38.916  32.434  39.284  1.00  0.00    -0.203 F 
ATOM     60  F   UNL A   1      42.051  36.892  39.460  1.00  0.00    -0.200 F 
ATOM     61  C   UNL A   1      40.495  35.455  40.502  1.00  0.00     0.200 A 
ATOM     62  F   UNL A   1      38.948  33.978  41.502  1.00  0.00    -0.200 F 
ATOM     63  F   UNL A   1      40.527  36.200  41.616  1.00  0.00    -0.200 F 
ENDBRANCH  29  53
BRANCH  41  64
ATOM     64  C   UNL A   1      44.272  28.611  35.670  1.00  0.00     0.064 A 
ATOM     65  C   UNL A   1      45.576  29.073  35.445  1.00  0.00     0.173 A 
ATOM     66  C   UNL A   1      44.099  27.476  36.477  1.00  0.00     0.173 A 
ATOM     67  F   UNL A   1      45.787  30.146  34.669  1.00  0.00    -0.203 F 
ATOM     68  C   UNL A   1      46.668  28.407  35.991  1.00  0.00     0.198 A 
ATOM     69  C   UNL A   1      45.192  26.832  37.045  1.00  0.00     0.198 A 
ATOM     70  F   UNL A   1      42.867  27.005  36.726  1.00  0.00    -0.203 F 
ATOM     71  F   UNL A   1      47.910  28.837  35.727  1.00  0.00    -0.200 F 
ATOM     72  C   UNL A   1      46.476  27.294  36.796  1.00  0.00     0.200 A 
ATOM     73  F   UNL A   1      45.003  25.767  37.835  1.00  0.00    -0.200 F 
ATOM     74  F   UNL A   1      47.529  26.661  37.328  1.00  0.00    -0.200 F 
ENDBRANCH  41  64
ENDBRANCH  15  16
ENDBRANCH   8  10
ENDBRANCH   7   8
ENDBRANCH   6   7
ENDBRANCH   5   6
ENDBRANCH   4   5
ENDBRANCH   3   4
ENDBRANCH   2   3
ENDBRANCH   1   2
BRANCH   1  75
ATOM     75  C   UNL A   1      34.886  31.228  28.122  1.00  0.00     0.188 C 
BRANCH  75  76
ATOM     76  C   UNL A   1      34.037  30.402  27.136  1.00  0.00     0.188 C 
BRANCH  76  77
ATOM     77  O   UNL A   1      32.633  30.567  27.278  1.00  0.00    -0.376 OA
BRANCH  77  78
ATOM     78  C   UNL A   1      31.849  29.494  26.767  1.00  0.00     0.202 C 
BRANCH  78  79
ATOM     79  C   UNL A   1      31.899  28.204  27.597  1.00  0.00     0.261 C 
BRANCH  79  80
ATOM     80  O   UNL A   1      31.711  26.971  26.878  1.00  0.00    -0.459 OA
BRANCH  80  81
ATOM     81  C   UNL A   1      32.769  26.431  26.203  1.00  0.00     0.370 C 
ATOM     82  O   UNL A   1      33.892  26.918  26.225  1.00  0.00    -0.245 OA
BRANCH  81  83
ATOM     83  C   UNL A   1      32.313  25.137  25.464  1.00  0.00     0.328 C 
BRANCH  83  84
ATOM     84  N   UNL A   1      32.200  25.241  23.987  1.00  0.00    -0.316 N 
ATOM     85  C   UNL A   1      30.849  24.904  23.482  1.00  0.00     0.284 C 
ATOM     86  C   UNL A   1      32.620  26.510  23.380  1.00  0.00     0.284 C 
ATOM     87  H   UNL A   1      32.880  24.541  23.690  1.00  0.00     0.349 HD
ATOM     88  C   UNL A   1      29.769  26.016  23.584  1.00  0.00     0.178 C 
ATOM     89  C   UNL A   1      31.676  27.691  23.627  1.00  0.00     0.178 C 
ATOM     90  N   UNL A   1      30.294  27.349  23.268  1.00  0.00    -0.360 N 
BRANCH  90  91
ATOM     91  C   UNL A   1      29.416  28.429  23.280  1.00  0.00     0.037 A 
ATOM     92  C   UNL A   1      28.031  28.294  23.120  1.00  0.00     0.026 A 
ATOM     93  C   UNL A   1      29.935  29.713  23.491  1.00  0.00     0.026 A 
ATOM     94  C   UNL A   1      27.196  29.415  23.135  1.00  0.00     0.002 A 
ATOM     95  C   UNL A   1      29.107  30.834  23.502  1.00  0.00     0.002 A 
ATOM     96  C   UNL A   1      27.735  30.686  23.315  1.00  0.00     0.000 A 
ENDBRANCH  90  91
ENDBRANCH  83  84
BRANCH  83  97
ATOM     97  C   UNL A   1      33.112  23.909  25.916  1.00  0.00     0.046 A 
ATOM     98  C   UNL A   1      32.778  23.029  26.936  1.00  0.00     0.094 A 
ATOM     99  C   UNL A   1      34.314  23.370  25.317  1.00  0.00     0.009 A 
ATOM    100  N   UNL A   1      33.736  22.059  27.027  1.00  0.00    -0.361 N 
ATOM    101  C   UNL A   1      34.672  22.225  26.039  1.00  0.00     0.049 A 
ATOM    102  C   UNL A   1      35.118  23.726  24.209  1.00  0.00     0.014 A 
ATOM    103  H   UNL A   1      33.752  21.345  27.704  1.00  0.00     0.166 HD
ATOM    104  C   UNL A   1      35.794  21.445  25.733  1.00  0.00     0.065 A 
ATOM    105  C   UNL A   1      36.230  22.939  23.871  1.00  0.00     0.040 A 
ATOM    106  C   UNL A   1      36.556  21.827  24.633  1.00  0.00     0.125 A 
ATOM    107  F   UNL A   1      37.627  21.093  24.299  1.00  0.00    -0.207 F 
ENDBRANCH  83  97
ENDBRANCH  81  83
ENDBRANCH  80  81
ENDBRANCH  79  80
ENDBRANCH  78  79
ENDBRANCH  77  78
ENDBRANCH  76  77
ENDBRANCH  75  76
ENDBRANCH   1  75
TORSDOF 23
ENDMDL
MODEL 3
REMARK VINA RESULT:     -11.6      0.916      2.000
REMARK SMILES O=C(OCCOCCOCCOCCOC(=O)[C@H](c1c[nH]c2cc(F)ccc12)[NH+]1CCN(c2ccccc2)CC1)c1ccc(-c2c3nc(c(-c4c(F)c(F)c(F)c(F)c4F)c4ccc([nH]4)c(-c4c(F)c(F)c(F)c(F)c4F)c4nc(c(-c5c(F)c(F)c(F)c(F)c5F)c5ccc2[nH]5)C=C4)C=C3)cc1
REMARK SMILES IDX 9 1 8 2 7 3 6 4 5 5 4 6 3 7 2 8 1 9 41 10 42 11 103 12 43 13
REMARK SMILES IDX 102 14 44 15 45 16 46 17 96 18 47 19 101 20 95 21 97 22
REMARK SMILES IDX 48 23 100 24 94 25 93 26 49 28 81 29 61 30 80 31 62 32 65 33
REMARK SMILES IDX 79 34 98 35 63 36 64 37 78 39 99 40 66 41 50 42 51 43 59 44
REMARK SMILES IDX 52 45 53 46 57 47 60 48 54 49 55 50 58 51 56 52 82 53 83 54
REMARK SMILES IDX 91 55 84 56 85 57 89 58 92 59 86 60 87 61 90 62 88 63 67 64
REMARK SMILES IDX 68 65 76 66 69 67 70 68 74 69 77 70 71 71 72 72 75 73 73 74
REMARK SMILES IDX 10 75 11 76 12 77 13 78 14 79 15 80 16 81 17 82 18 83 29 84
REMARK SMILES IDX 30 85 40 86 31 88 39 89 32 90 33 91 34 92 38 93 35 94 37 95
REMARK SMILES IDX 36 96 19 97 20 98 28 99 21 100 22 101 27 102 23 104 26 105
REMARK SMILES IDX 24 106 25 107
REMARK H PARENT 97 27 65 38 29 87 21 103
REMARK Flexibility Score: inf
ROOT
ATOM      1  O   UNL A   1      35.344  32.407  27.635  1.00  0.00    -0.377 OA
ENDROOT
BRANCH   1   2
ATOM      2  C   UNL A   1      35.284  33.714  28.207  1.00  0.00     0.188 C 
BRANCH   2   3
ATOM      3  C   UNL A   1      33.864  34.239  28.410  1.00  0.00     0.188 C 
BRANCH   3   4
ATOM      4  O   UNL A   1      33.909  35.663  28.511  1.00  0.00    -0.376 OA
BRANCH   4   5
ATOM      5  C   UNL A   1      32.784  36.277  29.132  1.00  0.00     0.202 C 
BRANCH   5   6
ATOM      6  C   UNL A   1      33.183  37.227  30.252  1.00  0.00     0.261 C 
BRANCH   6   7
ATOM      7  O   UNL A   1      32.619  36.849  31.515  1.00  0.00    -0.460 OA
BRANCH   7   8
ATOM      8  C   UNL A   1      32.684  35.644  32.134  1.00  0.00     0.338 C 
ATOM      9  O   UNL A   1      31.671  35.232  32.706  1.00  0.00    -0.246 OA
BRANCH   8  10
ATOM     10  C   UNL A   1      33.866  34.726  32.096  1.00  0.00     0.060 A 
ATOM     11  C   UNL A   1      33.845  33.333  32.216  1.00  0.00     0.016 A 
ATOM     12  C   UNL A   1      35.108  35.342  31.858  1.00  0.00     0.016 A 
ATOM     13  C   UNL A   1      35.012  32.580  32.180  1.00  0.00     0.010 A 
ATOM     14  C   UNL A   1      36.291  34.598  31.820  1.00  0.00     0.010 A 
ATOM     15  C   UNL A   1      36.241  33.217  32.036  1.00  0.00    -0.014 A 
BRANCH  15  16
ATOM     16  C   UNL A   1      37.446  32.465  32.426  1.00  0.00     0.031 A 
ATOM     17  C   UNL A   1      37.970  32.701  33.813  1.00  0.00     0.074 A 
ATOM     18  C   UNL A   1      37.939  31.497  31.638  1.00  0.00     0.049 A 
ATOM     19  N   UNL A   1      39.033  32.223  34.399  1.00  0.00    -0.248 NA
ATOM     20  C   UNL A   1      37.167  33.597  34.665  1.00  0.00     0.031 C 
ATOM     21  C   UNL A   1      37.376  31.092  30.349  1.00  0.00     0.029 A 
ATOM     22  N   UNL A   1      38.998  30.652  31.825  1.00  0.00    -0.354 N 
ATOM     23  C   UNL A   1      39.048  32.797  35.665  1.00  0.00     0.074 A 
ATOM     24  C   UNL A   1      37.890  33.651  35.769  1.00  0.00     0.031 C 
ATOM     25  C   UNL A   1      38.086  30.055  29.872  1.00  0.00     0.029 A 
ATOM     26  C   UNL A   1      39.188  29.776  30.786  1.00  0.00     0.049 A 
ATOM     27  H   UNL A   1      39.568  30.671  32.627  1.00  0.00     0.167 HD
ATOM     28  C   UNL A   1      39.964  32.629  36.644  1.00  0.00     0.037 A 
ATOM     29  C   UNL A   1      40.172  28.876  30.600  1.00  0.00     0.037 A 
ATOM     30  C   UNL A   1      41.097  31.759  36.505  1.00  0.00     0.049 A 
ATOM     31  C   UNL A   1      41.237  28.773  31.661  1.00  0.00     0.074 A 
ATOM     32  C   UNL A   1      42.147  31.546  37.376  1.00  0.00     0.029 A 
ATOM     33  N   UNL A   1      41.316  30.944  35.399  1.00  0.00    -0.354 N 
ATOM     34  N   UNL A   1      41.315  29.392  32.817  1.00  0.00    -0.248 NA
ATOM     35  C   UNL A   1      42.358  27.867  31.388  1.00  0.00     0.031 C 
ATOM     36  C   UNL A   1      43.024  30.635  36.776  1.00  0.00     0.029 A 
ATOM     37  C   UNL A   1      42.492  30.237  35.557  1.00  0.00     0.049 A 
ATOM     38  H   UNL A   1      40.720  30.881  34.618  1.00  0.00     0.167 HD
ATOM     39  C   UNL A   1      42.479  28.937  33.419  1.00  0.00     0.074 A 
ATOM     40  C   UNL A   1      43.066  27.978  32.503  1.00  0.00     0.031 C 
ATOM     41  C   UNL A   1      43.021  29.278  34.616  1.00  0.00     0.037 A 
BRANCH  28  42
ATOM     42  C   UNL A   1      39.809  33.481  37.871  1.00  0.00     0.064 A 
ATOM     43  C   UNL A   1      38.901  33.167  38.894  1.00  0.00     0.173 A 
ATOM     44  C   UNL A   1      40.521  34.686  37.977  1.00  0.00     0.173 A 
ATOM     45  F   UNL A   1      38.166  32.046  38.825  1.00  0.00    -0.203 F 
ATOM     46  C   UNL A   1      38.679  34.048  39.951  1.00  0.00     0.198 A 
ATOM     47  C   UNL A   1      40.319  35.549  39.050  1.00  0.00     0.198 A 
ATOM     48  F   UNL A   1      41.393  35.042  37.021  1.00  0.00    -0.203 F 
ATOM     49  F   UNL A   1      37.746  33.766  40.873  1.00  0.00    -0.200 F 
ATOM     50  C   UNL A   1      39.388  35.238  40.029  1.00  0.00     0.200 A 
ATOM     51  F   UNL A   1      41.005  36.699  39.122  1.00  0.00    -0.200 F 
ATOM     52  F   UNL A   1      39.157  36.094  41.034  1.00  0.00    -0.200 F 
ENDBRANCH  28  42
BRANCH  29  53
ATOM     53  C   UNL A   1      40.211  28.049  29.363  1.00  0.00     0.064 A 
ATOM     54  C   UNL A   1      39.497  26.847  29.267  1.00  0.00     0.173 A 
ATOM     55  C   UNL A   1      40.963  28.444  28.245  1.00  0.00     0.173 A 
ATOM     56  F   UNL A   1      38.780  26.408  30.312  1.00  0.00    -0.203 F 
ATOM     57  C   UNL A   1      39.536  26.072  28.107  1.00  0.00     0.198 A 
ATOM     58  C   UNL A   1      40.979  27.686  27.076  1.00  0.00     0.198 A 
ATOM     59  F   UNL A   1      41.673  29.582  28.281  1.00  0.00    -0.203 F 
ATOM     60  F   UNL A   1      38.872  24.909  28.057  1.00  0.00    -0.200 F 
ATOM     61  C   UNL A   1      40.270  26.497  27.010  1.00  0.00     0.200 A 
ATOM     62  F   UNL A   1      41.678  28.109  26.014  1.00  0.00    -0.200 F 
ATOM     63  F   UNL A   1      40.301  25.757  25.892  1.00  0.00    -0.200 F 
ENDBRANCH  29  53
BRANCH  41  64
ATOM     64  C   UNL A   1      44.279  28.569  35.014  1.00  0.00     0.064 A 
ATOM     65  C   UNL A   1      44.252  27.349  35.702  1.00  0.00     0.173 A 
ATOM     66  C   UNL A   1      45.527  29.099  34.651  1.00  0.00     0.173 A 
ATOM     67  F   UNL A   1      43.082  26.813  36.080  1.00  0.00    -0.203 F 
ATOM     68  C   UNL A   1      45.433  26.695  36.035  1.00  0.00     0.198 A 
ATOM     69  C   UNL A   1      46.704  28.427  34.959  1.00  0.00     0.198 A 
ATOM     70  F   UNL A   1      45.600  30.261  33.983  1.00  0.00    -0.203 F 
ATOM     71  F   UNL A   1      45.389  25.552  36.733  1.00  0.00    -0.200 F 
ATOM     72  C   UNL A   1      46.656  27.229  35.656  1.00  0.00     0.200 A 
ATOM     73  F   UNL A   1      47.883  28.936  34.578  1.00  0.00    -0.200 F 
ATOM     74  F   UNL A   1      47.793  26.592  35.969  1.00  0.00    -0.200 F 
ENDBRANCH  41  64
ENDBRANCH  15  16
ENDBRANCH   8  10
ENDBRANCH   7   8
ENDBRANCH   6   7
ENDBRANCH   5   6
ENDBRANCH   4   5
ENDBRANCH   3   4
ENDBRANCH   2   3
ENDBRANCH   1   2
BRANCH   1  75
ATOM     75  C   UNL A   1      34.359  31.484  28.081  1.00  0.00     0.188 C 
BRANCH  75  76
ATOM     76  C   UNL A   1      33.701  30.528  27.067  1.00  0.00     0.188 C 
BRANCH  76  77
ATOM     77  O   UNL A   1      32.419  30.934  26.611  1.00  0.00    -0.376 OA
BRANCH  77  78
ATOM     78  C   UNL A   1      31.657  29.912  25.977  1.00  0.00     0.202 C 
BRANCH  78  79
ATOM     79  C   UNL A   1      31.753  28.530  26.636  1.00  0.00     0.261 C 
BRANCH  79  80
ATOM     80  O   UNL A   1      31.150  27.434  25.922  1.00  0.00    -0.459 OA
BRANCH  80  81
ATOM     81  C   UNL A   1      31.819  26.887  24.864  1.00  0.00     0.370 C 
ATOM     82  O   UNL A   1      33.014  27.063  24.668  1.00  0.00    -0.245 OA
BRANCH  81  83
ATOM     83  C   UNL A   1      30.838  26.023  24.015  1.00  0.00     0.328 C 
BRANCH  83  84
ATOM     84  N   UNL A   1      30.614  24.637  24.497  1.00  0.00    -0.316 N 
ATOM     85  C   UNL A   1      31.022  23.607  23.514  1.00  0.00     0.284 C 
ATOM     86  C   UNL A   1      31.192  24.290  25.801  1.00  0.00     0.284 C 
ATOM     87  H   UNL A   1      29.602  24.635  24.621  1.00  0.00     0.349 HD
ATOM     88  C   UNL A   1      32.538  23.274  23.441  1.00  0.00     0.178 C 
ATOM     89  C   UNL A   1      32.717  24.147  25.818  1.00  0.00     0.178 C 
ATOM     90  N   UNL A   1      33.176  23.237  24.761  1.00  0.00    -0.360 N 
BRANCH  90  91
ATOM     91  C   UNL A   1      34.526  22.906  24.838  1.00  0.00     0.037 A 
ATOM     92  C   UNL A   1      34.994  21.585  24.839  1.00  0.00     0.026 A 
ATOM     93  C   UNL A   1      35.469  23.941  24.888  1.00  0.00     0.026 A 
ATOM     94  C   UNL A   1      36.361  21.310  24.923  1.00  0.00     0.002 A 
ATOM     95  C   UNL A   1      36.834  23.671  24.978  1.00  0.00     0.002 A 
ATOM     96  C   UNL A   1      37.281  22.353  25.004  1.00  0.00     0.000 A 
ENDBRANCH  90  91
ENDBRANCH  83  84
BRANCH  83  97
ATOM     97  C   UNL A   1      29.531  26.769  23.717  1.00  0.00     0.046 A 
ATOM     98  C   UNL A   1      28.258  26.416  24.137  1.00  0.00     0.094 A 
ATOM     99  C   UNL A   1      29.375  28.030  23.024  1.00  0.00     0.009 A 
ATOM    100  N   UNL A   1      27.359  27.336  23.677  1.00  0.00    -0.361 N 
ATOM    101  C   UNL A   1      28.012  28.344  23.017  1.00  0.00     0.049 A 
ATOM    102  C   UNL A   1      30.266  28.954  22.429  1.00  0.00     0.014 A 
ATOM    103  H   UNL A   1      26.384  27.282  23.801  1.00  0.00     0.166 HD
ATOM    104  C   UNL A   1      27.495  29.505  22.426  1.00  0.00     0.065 A 
ATOM    105  C   UNL A   1      29.768  30.135  21.858  1.00  0.00     0.040 A 
ATOM    106  C   UNL A   1      28.404  30.389  21.855  1.00  0.00     0.125 A 
ATOM    107  F   UNL A   1      27.948  31.519  21.297  1.00  0.00    -0.207 F 
ENDBRANCH  83  97
ENDBRANCH  81  83
ENDBRANCH  80  81
ENDBRANCH  79  80
ENDBRANCH  78  79
ENDBRANCH  77  78
ENDBRANCH  76  77
ENDBRANCH  75  76
ENDBRANCH   1  75
TORSDOF 23
ENDMDL
