MODEL 1
REMARK VINA RESULT:      -9.9      0.000      0.000
REMARK SMILES CNS(=O)(=O)c1ccc(Oc2csc(C(=O)OCCOCCOCCOCCOC(=O)c3ccc(-c4c5nc(c(-c6c(F)c(F)c(F)c(F)c6F)c6ccc([nH]6)c(-c6c(F)c(F)c(F)c(F)c6F)c6nc(c(-c7c(F)c(F)c(F)c(F)c7F)c7ccc4[nH]7)C=C6)C=C5)cc3)c2)cc1
REMARK SMILES IDX 22 1 21 2 20 3 19 4 18 5 17 6 15 7 16 8 14 9 11 10 12 11
REMARK SMILES IDX 95 12 13 13 10 14 9 15 6 16 7 17 97 18 8 19 96 20 3 21 4 22
REMARK SMILES IDX 5 23 2 24 1 25 23 27 24 28 25 29 26 30 27 31 28 32 29 33
REMARK SMILES IDX 30 34 31 35 32 36 33 37 94 38 34 39 93 40 35 41 36 42 37 43
REMARK SMILES IDX 87 44 38 45 92 46 86 47 88 48 39 49 91 50 85 51 84 52 40 54
REMARK SMILES IDX 72 55 52 56 71 57 53 58 56 59 70 60 89 61 54 62 55 63 69 65
REMARK SMILES IDX 90 66 57 67 41 68 42 69 50 70 43 71 44 72 48 73 51 74 45 75
REMARK SMILES IDX 46 76 49 77 47 78 73 79 74 80 82 81 75 82 76 83 80 84 83 85
REMARK SMILES IDX 77 86 78 87 81 88 79 89 58 90 59 91 67 92 60 93 61 94 65 95
REMARK SMILES IDX 68 96 62 97 63 98 66 99 64 100
REMARK H PARENT 2 26 88 53 56 64
REMARK Flexibility Score: inf
ROOT
ATOM      1  C   UNL A   1      35.942  29.750  29.617  1.00  0.00     0.188 C 
ENDROOT
BRANCH   1   2
ATOM      2  C   UNL A   1      36.536  29.823  28.197  1.00  0.00     0.188 C 
BRANCH   2   3
ATOM      3  O   UNL A   1      35.553  29.691  27.185  1.00  0.00    -0.376 OA
BRANCH   3   4
ATOM      4  C   UNL A   1      34.217  29.383  27.534  1.00  0.00     0.202 C 
BRANCH   4   5
ATOM      5  C   UNL A   1      33.396  28.375  26.712  1.00  0.00     0.261 C 
BRANCH   5   6
ATOM      6  O   UNL A   1      31.988  28.604  26.614  1.00  0.00    -0.459 OA
BRANCH   6   7
ATOM      7  C   UNL A   1      31.507  29.201  25.493  1.00  0.00     0.348 C 
ATOM      8  O   UNL A   1      31.420  30.411  25.339  1.00  0.00    -0.245 OA
BRANCH   7   9
ATOM      9  C   UNL A   1      31.264  28.167  24.502  1.00  0.00     0.116 A 
ATOM     10  C   UNL A   1      30.836  26.101  23.505  1.00  0.00     0.138 A 
ATOM     11  C   UNL A   1      31.213  26.842  22.409  1.00  0.00     0.112 A 
ATOM     12  C   UNL A   1      30.858  26.860  24.705  1.00  0.00     0.074 A 
ATOM     13  S   UNL A   1      31.579  28.464  22.844  1.00  0.00    -0.133 S 
BRANCH  10  14
ATOM     14  O   UNL A   1      30.349  24.844  23.470  1.00  0.00    -0.456 OA
BRANCH  14  15
ATOM     15  C   UNL A   1      31.040  23.709  23.805  1.00  0.00     0.127 A 
ATOM     16  C   UNL A   1      32.430  21.521  24.842  1.00  0.00     0.082 A 
ATOM     17  C   UNL A   1      31.520  22.206  25.649  1.00  0.00     0.025 A 
ATOM     18  C   UNL A   1      32.662  21.932  23.525  1.00  0.00     0.025 A 
ATOM     19  C   UNL A   1      30.821  23.288  25.122  1.00  0.00     0.048 A 
ATOM     20  C   UNL A   1      31.968  23.036  23.007  1.00  0.00     0.048 A 
BRANCH  16  21
ATOM     21  S   UNL A   1      33.345  20.176  25.551  1.00  0.00     0.240 S 
ATOM     22  O   UNL A   1      33.675  20.507  26.916  1.00  0.00    -0.207 OA
ATOM     23  O   UNL A   1      34.365  19.776  24.602  1.00  0.00    -0.207 OA
BRANCH  21  24
ATOM     24  N   UNL A   1      32.211  18.934  25.569  1.00  0.00    -0.214 NA
ATOM     25  C   UNL A   1      32.492  17.721  24.808  1.00  0.00     0.120 C 
ATOM     26  H   UNL A   1      32.083  18.658  26.542  1.00  0.00     0.141 HD
ENDBRANCH  21  24
ENDBRANCH  16  21
ENDBRANCH  14  15
ENDBRANCH  10  14
ENDBRANCH   7   9
ENDBRANCH   6   7
ENDBRANCH   5   6
ENDBRANCH   4   5
ENDBRANCH   3   4
ENDBRANCH   2   3
ENDBRANCH   1   2
BRANCH   1  27
ATOM     27  O   UNL A   1      35.976  30.961  30.358  1.00  0.00    -0.377 OA
BRANCH  27  28
ATOM     28  C   UNL A   1      35.365  32.134  29.815  1.00  0.00     0.188 C 
BRANCH  28  29
ATOM     29  C   UNL A   1      34.399  33.044  30.618  1.00  0.00     0.188 C 
BRANCH  29  30
ATOM     30  O   UNL A   1      34.131  32.612  31.940  1.00  0.00    -0.376 OA
BRANCH  30  31
ATOM     31  C   UNL A   1      34.356  33.528  32.997  1.00  0.00     0.202 C 
BRANCH  31  32
ATOM     32  C   UNL A   1      35.674  33.354  33.762  1.00  0.00     0.261 C 
BRANCH  32  33
ATOM     33  O   UNL A   1      36.346  32.101  33.570  1.00  0.00    -0.460 OA
BRANCH  33  34
ATOM     34  C   UNL A   1      37.579  31.974  34.108  1.00  0.00     0.338 C 
ATOM     35  O   UNL A   1      37.897  32.125  35.273  1.00  0.00    -0.246 OA
BRANCH  34  36
ATOM     36  C   UNL A   1      38.471  31.437  33.058  1.00  0.00     0.060 A 
ATOM     37  C   UNL A   1      39.327  30.373  33.369  1.00  0.00     0.016 A 
ATOM     38  C   UNL A   1      38.453  31.981  31.773  1.00  0.00     0.016 A 
ATOM     39  C   UNL A   1      40.195  29.870  32.399  1.00  0.00     0.010 A 
ATOM     40  C   UNL A   1      39.336  31.488  30.807  1.00  0.00     0.010 A 
ATOM     41  C   UNL A   1      40.233  30.453  31.124  1.00  0.00    -0.014 A 
BRANCH  41  42
ATOM     42  C   UNL A   1      41.327  30.108  30.183  1.00  0.00     0.031 A 
ATOM     43  C   UNL A   1      41.295  28.759  29.515  1.00  0.00     0.074 A 
ATOM     44  C   UNL A   1      42.325  30.970  29.917  1.00  0.00     0.049 A 
ATOM     45  N   UNL A   1      42.169  28.204  28.715  1.00  0.00    -0.248 NA
ATOM     46  C   UNL A   1      40.116  27.920  29.791  1.00  0.00     0.031 C 
ATOM     47  C   UNL A   1      42.449  32.316  30.472  1.00  0.00     0.029 A 
ATOM     48  N   UNL A   1      43.437  30.828  29.123  1.00  0.00    -0.354 N 
ATOM     49  C   UNL A   1      41.654  26.951  28.407  1.00  0.00     0.074 A 
ATOM     50  C   UNL A   1      40.403  26.816  29.118  1.00  0.00     0.031 C 
ATOM     51  C   UNL A   1      43.587  32.872  30.016  1.00  0.00     0.029 A 
ATOM     52  C   UNL A   1      44.287  31.907  29.169  1.00  0.00     0.049 A 
ATOM     53  H   UNL A   1      43.608  30.030  28.573  1.00  0.00     0.167 HD
ATOM     54  C   UNL A   1      42.179  26.001  27.599  1.00  0.00     0.037 A 
ATOM     55  C   UNL A   1      45.507  32.076  28.618  1.00  0.00     0.037 A 
ATOM     56  C   UNL A   1      43.418  26.143  26.881  1.00  0.00     0.049 A 
ATOM     57  C   UNL A   1      46.095  30.971  27.772  1.00  0.00     0.074 A 
ATOM     58  C   UNL A   1      44.012  25.250  26.005  1.00  0.00     0.029 A 
ATOM     59  N   UNL A   1      44.258  27.242  26.964  1.00  0.00    -0.354 N 
ATOM     60  N   UNL A   1      45.582  29.808  27.448  1.00  0.00    -0.248 NA
ATOM     61  C   UNL A   1      47.435  31.204  27.212  1.00  0.00     0.031 C 
ATOM     62  C   UNL A   1      45.243  25.780  25.611  1.00  0.00     0.029 A 
ATOM     63  C   UNL A   1      45.382  27.035  26.183  1.00  0.00     0.049 A 
ATOM     64  H   UNL A   1      44.082  28.050  27.499  1.00  0.00     0.167 HD
ATOM     65  C   UNL A   1      46.515  29.194  26.620  1.00  0.00     0.074 A 
ATOM     66  C   UNL A   1      47.618  30.118  26.476  1.00  0.00     0.031 C 
ATOM     67  C   UNL A   1      46.463  27.973  26.031  1.00  0.00     0.037 A 
BRANCH  54  68
ATOM     68  C   UNL A   1      41.438  24.704  27.460  1.00  0.00     0.064 A 
ATOM     69  C   UNL A   1      40.245  24.608  26.729  1.00  0.00     0.173 A 
ATOM     70  C   UNL A   1      41.979  23.525  27.995  1.00  0.00     0.173 A 
ATOM     71  F   UNL A   1      39.679  25.708  26.210  1.00  0.00    -0.203 F 
ATOM     72  C   UNL A   1      39.617  23.378  26.546  1.00  0.00     0.198 A 
ATOM     73  C   UNL A   1      41.364  22.294  27.784  1.00  0.00     0.198 A 
ATOM     74  F   UNL A   1      43.120  23.562  28.699  1.00  0.00    -0.203 F 
ATOM     75  F   UNL A   1      38.462  23.312  25.868  1.00  0.00    -0.200 F 
ATOM     76  C   UNL A   1      40.182  22.222  27.062  1.00  0.00     0.200 A 
ATOM     77  F   UNL A   1      41.921  21.177  28.271  1.00  0.00    -0.200 F 
ATOM     78  F   UNL A   1      39.589  21.037  26.863  1.00  0.00    -0.200 F 
ENDBRANCH  54  68
BRANCH  55  79
ATOM     79  C   UNL A   1      46.284  33.322  28.867  1.00  0.00     0.064 A 
ATOM     80  C   UNL A   1      47.233  33.395  29.898  1.00  0.00     0.173 A 
ATOM     81  C   UNL A   1      46.042  34.489  28.127  1.00  0.00     0.173 A 
ATOM     82  F   UNL A   1      47.483  32.316  30.655  1.00  0.00    -0.203 F 
ATOM     83  C   UNL A   1      47.874  34.594  30.207  1.00  0.00     0.198 A 
ATOM     84  C   UNL A   1      46.712  35.677  28.411  1.00  0.00     0.198 A 
ATOM     85  F   UNL A   1      45.143  34.479  27.131  1.00  0.00    -0.203 F 
ATOM     86  F   UNL A   1      48.715  34.652  31.247  1.00  0.00    -0.200 F 
ATOM     87  C   UNL A   1      47.615  35.733  29.460  1.00  0.00     0.200 A 
ATOM     88  F   UNL A   1      46.468  36.773  27.679  1.00  0.00    -0.200 F 
ATOM     89  F   UNL A   1      48.223  36.888  29.763  1.00  0.00    -0.200 F 
ENDBRANCH  55  79
BRANCH  67  90
ATOM     90  C   UNL A   1      47.603  27.586  25.131  1.00  0.00     0.064 A 
ATOM     91  C   UNL A   1      48.743  26.927  25.616  1.00  0.00     0.173 A 
ATOM     92  C   UNL A   1      47.530  27.836  23.751  1.00  0.00     0.173 A 
ATOM     93  F   UNL A   1      48.869  26.673  26.927  1.00  0.00    -0.203 F 
ATOM     94  C   UNL A   1      49.779  26.565  24.760  1.00  0.00     0.198 A 
ATOM     95  C   UNL A   1      48.551  27.439  22.893  1.00  0.00     0.198 A 
ATOM     96  F   UNL A   1      46.458  28.452  23.231  1.00  0.00    -0.203 F 
ATOM     97  F   UNL A   1      50.883  25.987  25.255  1.00  0.00    -0.200 F 
ATOM     98  C   UNL A   1      49.679  26.812  23.399  1.00  0.00     0.200 A 
ATOM     99  F   UNL A   1      48.443  27.661  21.576  1.00  0.00    -0.200 F 
ATOM    100  F   UNL A   1      50.674  26.453  22.576  1.00  0.00    -0.200 F 
ENDBRANCH  67  90
ENDBRANCH  41  42
ENDBRANCH  34  36
ENDBRANCH  33  34
ENDBRANCH  32  33
ENDBRANCH  31  32
ENDBRANCH  30  31
ENDBRANCH  29  30
ENDBRANCH  28  29
ENDBRANCH  27  28
ENDBRANCH   1  27
TORSDOF 24
ENDMDL
MODEL 2
REMARK VINA RESULT:      -9.4      6.934     12.401
REMARK SMILES CNS(=O)(=O)c1ccc(Oc2csc(C(=O)OCCOCCOCCOCCOC(=O)c3ccc(-c4c5nc(c(-c6c(F)c(F)c(F)c(F)c6F)c6ccc([nH]6)c(-c6c(F)c(F)c(F)c(F)c6F)c6nc(c(-c7c(F)c(F)c(F)c(F)c7F)c7ccc4[nH]7)C=C6)C=C5)cc3)c2)cc1
REMARK SMILES IDX 22 1 21 2 20 3 19 4 18 5 17 6 15 7 16 8 14 9 11 10 12 11
REMARK SMILES IDX 95 12 13 13 10 14 9 15 6 16 7 17 97 18 8 19 96 20 3 21 4 22
REMARK SMILES IDX 5 23 2 24 1 25 23 27 24 28 25 29 26 30 27 31 28 32 29 33
REMARK SMILES IDX 30 34 31 35 32 36 33 37 94 38 34 39 93 40 35 41 36 42 37 43
REMARK SMILES IDX 87 44 38 45 92 46 86 47 88 48 39 49 91 50 85 51 84 52 40 54
REMARK SMILES IDX 72 55 52 56 71 57 53 58 56 59 70 60 89 61 54 62 55 63 69 65
REMARK SMILES IDX 90 66 57 67 41 68 42 69 50 70 43 71 44 72 48 73 51 74 45 75
REMARK SMILES IDX 46 76 49 77 47 78 73 79 74 80 82 81 75 82 76 83 80 84 83 85
REMARK SMILES IDX 77 86 78 87 81 88 79 89 58 90 59 91 67 92 60 93 61 94 65 95
REMARK SMILES IDX 68 96 62 97 63 98 66 99 64 100
REMARK H PARENT 2 26 88 53 56 64
REMARK Flexibility Score: inf
ROOT
ATOM      1  C   UNL A   1      35.303  33.219  27.953  1.00  0.00     0.188 C 
ENDROOT
BRANCH   1   2
ATOM      2  C   UNL A   1      36.256  32.536  28.953  1.00  0.00     0.188 C 
BRANCH   2   3
ATOM      3  O   UNL A   1      35.578  31.686  29.861  1.00  0.00    -0.376 OA
BRANCH   3   4
ATOM      4  C   UNL A   1      35.658  31.930  31.252  1.00  0.00     0.202 C 
BRANCH   4   5
ATOM      5  C   UNL A   1      36.273  30.891  32.205  1.00  0.00     0.261 C 
BRANCH   5   6
ATOM      6  O   UNL A   1      36.419  29.557  31.712  1.00  0.00    -0.459 OA
BRANCH   6   7
ATOM      7  C   UNL A   1      37.514  28.845  32.089  1.00  0.00     0.348 C 
ATOM      8  O   UNL A   1      37.595  28.203  33.126  1.00  0.00    -0.245 OA
BRANCH   7   9
ATOM      9  C   UNL A   1      38.470  28.881  30.997  1.00  0.00     0.116 A 
ATOM     10  C   UNL A   1      39.709  28.296  29.108  1.00  0.00     0.138 A 
ATOM     11  C   UNL A   1      40.441  29.363  29.575  1.00  0.00     0.112 A 
ATOM     12  C   UNL A   1      38.575  28.022  29.917  1.00  0.00     0.074 A 
ATOM     13  S   UNL A   1      39.737  30.035  30.991  1.00  0.00    -0.133 S 
BRANCH  10  14
ATOM     14  O   UNL A   1      39.919  27.654  27.941  1.00  0.00    -0.456 OA
BRANCH  14  15
ATOM     15  C   UNL A   1      40.384  26.372  27.805  1.00  0.00     0.127 A 
ATOM     16  C   UNL A   1      40.981  23.671  27.428  1.00  0.00     0.082 A 
ATOM     17  C   UNL A   1      39.940  24.255  26.707  1.00  0.00     0.025 A 
ATOM     18  C   UNL A   1      41.717  24.424  28.350  1.00  0.00     0.025 A 
ATOM     19  C   UNL A   1      39.654  25.604  26.890  1.00  0.00     0.048 A 
ATOM     20  C   UNL A   1      41.412  25.780  28.543  1.00  0.00     0.048 A 
BRANCH  16  21
ATOM     21  S   UNL A   1      41.293  21.937  27.214  1.00  0.00     0.240 S 
ATOM     22  O   UNL A   1      40.907  21.557  25.876  1.00  0.00    -0.207 OA
ATOM     23  O   UNL A   1      40.779  21.240  28.376  1.00  0.00    -0.207 OA
BRANCH  21  24
ATOM     24  N   UNL A   1      42.970  21.854  27.322  1.00  0.00    -0.214 NA
ATOM     25  C   UNL A   1      43.754  21.962  26.096  1.00  0.00     0.120 C 
ATOM     26  H   UNL A   1      43.269  22.608  27.940  1.00  0.00     0.141 HD
ENDBRANCH  21  24
ENDBRANCH  16  21
ENDBRANCH  14  15
ENDBRANCH  10  14
ENDBRANCH   7   9
ENDBRANCH   6   7
ENDBRANCH   5   6
ENDBRANCH   4   5
ENDBRANCH   3   4
ENDBRANCH   2   3
ENDBRANCH   1   2
BRANCH   1  27
ATOM     27  O   UNL A   1      34.098  33.728  28.504  1.00  0.00    -0.377 OA
BRANCH  27  28
ATOM     28  C   UNL A   1      34.157  34.769  29.481  1.00  0.00     0.188 C 
BRANCH  28  29
ATOM     29  C   UNL A   1      33.261  36.034  29.438  1.00  0.00     0.188 C 
BRANCH  29  30
ATOM     30  O   UNL A   1      32.716  36.425  30.687  1.00  0.00    -0.376 OA
BRANCH  30  31
ATOM     31  C   UNL A   1      33.279  37.552  31.333  1.00  0.00     0.202 C 
BRANCH  31  32
ATOM     32  C   UNL A   1      33.819  37.310  32.748  1.00  0.00     0.261 C 
BRANCH  32  33
ATOM     33  O   UNL A   1      34.898  36.368  32.850  1.00  0.00    -0.460 OA
BRANCH  33  34
ATOM     34  C   UNL A   1      34.578  35.102  33.198  1.00  0.00     0.338 C 
ATOM     35  O   UNL A   1      33.554  34.499  32.933  1.00  0.00    -0.246 OA
BRANCH  34  36
ATOM     36  C   UNL A   1      35.775  34.492  33.814  1.00  0.00     0.060 A 
ATOM     37  C   UNL A   1      35.640  33.794  35.021  1.00  0.00     0.016 A 
ATOM     38  C   UNL A   1      37.022  34.607  33.197  1.00  0.00     0.016 A 
ATOM     39  C   UNL A   1      36.763  33.234  35.632  1.00  0.00     0.010 A 
ATOM     40  C   UNL A   1      38.148  34.062  33.819  1.00  0.00     0.010 A 
ATOM     41  C   UNL A   1      38.030  33.402  35.055  1.00  0.00    -0.014 A 
BRANCH  41  42
ATOM     42  C   UNL A   1      39.249  33.048  35.825  1.00  0.00     0.031 A 
ATOM     43  C   UNL A   1      39.834  34.082  36.749  1.00  0.00     0.074 A 
ATOM     44  C   UNL A   1      39.824  31.838  35.714  1.00  0.00     0.049 A 
ATOM     45  N   UNL A   1      40.926  34.035  37.467  1.00  0.00    -0.248 NA
ATOM     46  C   UNL A   1      39.083  35.343  36.879  1.00  0.00     0.031 C 
ATOM     47  C   UNL A   1      39.334  30.741  34.881  1.00  0.00     0.029 A 
ATOM     48  N   UNL A   1      40.963  31.335  36.296  1.00  0.00    -0.354 N 
ATOM     49  C   UNL A   1      41.001  35.260  38.118  1.00  0.00     0.074 A 
ATOM     50  C   UNL A   1      39.858  36.038  37.698  1.00  0.00     0.031 C 
ATOM     51  C   UNL A   1      40.180  29.700  34.990  1.00  0.00     0.029 A 
ATOM     52  C   UNL A   1      41.288  30.070  35.870  1.00  0.00     0.049 A 
ATOM     53  H   UNL A   1      41.496  31.835  36.957  1.00  0.00     0.167 HD
ATOM     54  C   UNL A   1      41.941  35.694  38.990  1.00  0.00     0.037 A 
ATOM     55  C   UNL A   1      42.374  29.316  36.135  1.00  0.00     0.037 A 
ATOM     56  C   UNL A   1      43.071  34.912  39.417  1.00  0.00     0.049 A 
ATOM     57  C   UNL A   1      43.438  29.853  37.064  1.00  0.00     0.074 A 
ATOM     58  C   UNL A   1      44.055  35.251  40.330  1.00  0.00     0.029 A 
ATOM     59  N   UNL A   1      43.374  33.642  38.953  1.00  0.00    -0.354 N 
ATOM     60  N   UNL A   1      43.479  30.993  37.710  1.00  0.00    -0.248 NA
ATOM     61  C   UNL A   1      44.608  28.995  37.301  1.00  0.00     0.031 C 
ATOM     62  C   UNL A   1      44.990  34.213  40.368  1.00  0.00     0.029 A 
ATOM     63  C   UNL A   1      44.550  33.197  39.534  1.00  0.00     0.049 A 
ATOM     64  H   UNL A   1      42.835  33.132  38.307  1.00  0.00     0.167 HD
ATOM     65  C   UNL A   1      44.652  30.969  38.457  1.00  0.00     0.074 A 
ATOM     66  C   UNL A   1      45.286  29.697  38.197  1.00  0.00     0.031 C 
ATOM     67  C   UNL A   1      45.159  31.918  39.283  1.00  0.00     0.037 A 
BRANCH  54  68
ATOM     68  C   UNL A   1      41.813  37.087  39.531  1.00  0.00     0.064 A 
ATOM     69  C   UNL A   1      40.920  37.401  40.565  1.00  0.00     0.173 A 
ATOM     70  C   UNL A   1      42.661  38.102  39.063  1.00  0.00     0.173 A 
ATOM     71  F   UNL A   1      40.077  36.470  41.037  1.00  0.00    -0.203 F 
ATOM     72  C   UNL A   1      40.875  38.684  41.105  1.00  0.00     0.198 A 
ATOM     73  C   UNL A   1      42.635  39.375  39.626  1.00  0.00     0.198 A 
ATOM     74  F   UNL A   1      43.537  37.852  38.078  1.00  0.00    -0.203 F 
ATOM     75  F   UNL A   1      39.994  38.971  42.074  1.00  0.00    -0.200 F 
ATOM     76  C   UNL A   1      41.740  39.665  40.645  1.00  0.00     0.200 A 
ATOM     77  F   UNL A   1      43.482  40.316  39.190  1.00  0.00    -0.200 F 
ATOM     78  F   UNL A   1      41.713  40.892  41.184  1.00  0.00    -0.200 F 
ENDBRANCH  54  68
BRANCH  55  79
ATOM     79  C   UNL A   1      42.546  27.983  35.492  1.00  0.00     0.064 A 
ATOM     80  C   UNL A   1      41.945  26.833  36.027  1.00  0.00     0.173 A 
ATOM     81  C   UNL A   1      43.376  27.818  34.373  1.00  0.00     0.173 A 
ATOM     82  F   UNL A   1      41.164  26.930  37.113  1.00  0.00    -0.203 F 
ATOM     83  C   UNL A   1      42.201  25.571  35.496  1.00  0.00     0.198 A 
ATOM     84  C   UNL A   1      43.601  26.560  33.819  1.00  0.00     0.198 A 
ATOM     85  F   UNL A   1      43.980  28.881  33.822  1.00  0.00    -0.203 F 
ATOM     86  F   UNL A   1      41.675  24.483  36.076  1.00  0.00    -0.200 F 
ATOM     87  C   UNL A   1      43.026  25.435  34.390  1.00  0.00     0.200 A 
ATOM     88  F   UNL A   1      44.389  26.435  32.742  1.00  0.00    -0.200 F 
ATOM     89  F   UNL A   1      43.281  24.220  33.885  1.00  0.00    -0.200 F 
ENDBRANCH  55  79
BRANCH  67  90
ATOM     90  C   UNL A   1      46.434  31.596  40.013  1.00  0.00     0.064 A 
ATOM     91  C   UNL A   1      46.435  30.934  41.250  1.00  0.00     0.173 A 
ATOM     92  C   UNL A   1      47.675  31.913  39.439  1.00  0.00     0.173 A 
ATOM     93  F   UNL A   1      45.277  30.619  41.848  1.00  0.00    -0.203 F 
ATOM     94  C   UNL A   1      47.629  30.634  41.900  1.00  0.00     0.198 A 
ATOM     95  C   UNL A   1      48.867  31.577  40.073  1.00  0.00     0.198 A 
ATOM     96  F   UNL A   1      47.733  32.534  38.251  1.00  0.00    -0.203 F 
ATOM     97  F   UNL A   1      47.605  30.053  43.107  1.00  0.00    -0.200 F 
ATOM     98  C   UNL A   1      48.844  30.946  41.307  1.00  0.00     0.200 A 
ATOM     99  F   UNL A   1      50.039  31.862  39.489  1.00  0.00    -0.200 F 
ATOM    100  F   UNL A   1      49.993  30.646  41.930  1.00  0.00    -0.200 F 
ENDBRANCH  67  90
ENDBRANCH  41  42
ENDBRANCH  34  36
ENDBRANCH  33  34
ENDBRANCH  32  33
ENDBRANCH  31  32
ENDBRANCH  30  31
ENDBRANCH  29  30
ENDBRANCH  28  29
ENDBRANCH  27  28
ENDBRANCH   1  27
TORSDOF 24
ENDMDL
MODEL 3
REMARK VINA RESULT:      -9.3      5.180      7.431
REMARK SMILES CNS(=O)(=O)c1ccc(Oc2csc(C(=O)OCCOCCOCCOCCOC(=O)c3ccc(-c4c5nc(c(-c6c(F)c(F)c(F)c(F)c6F)c6ccc([nH]6)c(-c6c(F)c(F)c(F)c(F)c6F)c6nc(c(-c7c(F)c(F)c(F)c(F)c7F)c7ccc4[nH]7)C=C6)C=C5)cc3)c2)cc1
REMARK SMILES IDX 22 1 21 2 20 3 19 4 18 5 17 6 15 7 16 8 14 9 11 10 12 11
REMARK SMILES IDX 95 12 13 13 10 14 9 15 6 16 7 17 97 18 8 19 96 20 3 21 4 22
REMARK SMILES IDX 5 23 2 24 1 25 23 27 24 28 25 29 26 30 27 31 28 32 29 33
REMARK SMILES IDX 30 34 31 35 32 36 33 37 94 38 34 39 93 40 35 41 36 42 37 43
REMARK SMILES IDX 87 44 38 45 92 46 86 47 88 48 39 49 91 50 85 51 84 52 40 54
REMARK SMILES IDX 72 55 52 56 71 57 53 58 56 59 70 60 89 61 54 62 55 63 69 65
REMARK SMILES IDX 90 66 57 67 41 68 42 69 50 70 43 71 44 72 48 73 51 74 45 75
REMARK SMILES IDX 46 76 49 77 47 78 73 79 74 80 82 81 75 82 76 83 80 84 83 85
REMARK SMILES IDX 77 86 78 87 81 88 79 89 58 90 59 91 67 92 60 93 61 94 65 95
REMARK SMILES IDX 68 96 62 97 63 98 66 99 64 100
REMARK H PARENT 2 26 88 53 56 64
REMARK Flexibility Score: inf
ROOT
ATOM      1  C   UNL A   1      36.905  30.622  29.995  1.00  0.00     0.188 C 
ENDROOT
BRANCH   1   2
ATOM      2  C   UNL A   1      36.348  29.987  28.707  1.00  0.00     0.188 C 
BRANCH   2   3
ATOM      3  O   UNL A   1      37.353  29.361  27.927  1.00  0.00    -0.376 OA
BRANCH   3   4
ATOM      4  C   UNL A   1      38.430  28.701  28.562  1.00  0.00     0.202 C 
BRANCH   4   5
ATOM      5  C   UNL A   1      39.407  27.826  27.758  1.00  0.00     0.261 C 
BRANCH   5   6
ATOM      6  O   UNL A   1      40.798  28.147  27.847  1.00  0.00    -0.459 OA
BRANCH   6   7
ATOM      7  C   UNL A   1      41.566  27.450  28.725  1.00  0.00     0.348 C 
ATOM      8  O   UNL A   1      41.333  27.357  29.922  1.00  0.00    -0.245 OA
BRANCH   7   9
ATOM      9  C   UNL A   1      42.591  26.753  27.970  1.00  0.00     0.116 A 
ATOM     10  C   UNL A   1      43.661  25.410  26.389  1.00  0.00     0.138 A 
ATOM     11  C   UNL A   1      44.682  25.609  27.290  1.00  0.00     0.112 A 
ATOM     12  C   UNL A   1      42.464  26.070  26.773  1.00  0.00     0.074 A 
ATOM     13  S   UNL A   1      44.182  26.610  28.594  1.00  0.00    -0.133 S 
BRANCH  10  14
ATOM     14  O   UNL A   1      43.780  24.796  25.195  1.00  0.00    -0.456 OA
BRANCH  14  15
ATOM     15  C   UNL A   1      44.241  23.521  24.993  1.00  0.00     0.127 A 
ATOM     16  C   UNL A   1      45.035  20.846  24.917  1.00  0.00     0.082 A 
ATOM     17  C   UNL A   1      43.917  21.213  25.667  1.00  0.00     0.025 A 
ATOM     18  C   UNL A   1      45.770  21.809  24.218  1.00  0.00     0.025 A 
ATOM     19  C   UNL A   1      43.519  22.546  25.691  1.00  0.00     0.048 A 
ATOM     20  C   UNL A   1      45.374  23.155  24.261  1.00  0.00     0.048 A 
BRANCH  16  21
ATOM     21  S   UNL A   1      45.552  19.148  24.943  1.00  0.00     0.240 S 
ATOM     22  O   UNL A   1      44.412  18.320  25.254  1.00  0.00    -0.207 OA
ATOM     23  O   UNL A   1      46.780  19.063  25.709  1.00  0.00    -0.207 OA
BRANCH  21  24
ATOM     24  N   UNL A   1      45.981  18.875  23.340  1.00  0.00    -0.214 NA
ATOM     25  C   UNL A   1      44.924  18.819  22.335  1.00  0.00     0.120 C 
ATOM     26  H   UNL A   1      46.617  19.624  23.067  1.00  0.00     0.141 HD
ENDBRANCH  21  24
ENDBRANCH  16  21
ENDBRANCH  14  15
ENDBRANCH  10  14
ENDBRANCH   7   9
ENDBRANCH   6   7
ENDBRANCH   5   6
ENDBRANCH   4   5
ENDBRANCH   3   4
ENDBRANCH   2   3
ENDBRANCH   1   2
BRANCH   1  27
ATOM     27  O   UNL A   1      37.327  31.973  29.880  1.00  0.00    -0.377 OA
BRANCH  27  28
ATOM     28  C   UNL A   1      36.396  32.963  29.436  1.00  0.00     0.188 C 
BRANCH  28  29
ATOM     29  C   UNL A   1      35.456  33.741  30.394  1.00  0.00     0.188 C 
BRANCH  29  30
ATOM     30  O   UNL A   1      34.396  32.977  30.943  1.00  0.00    -0.376 OA
BRANCH  30  31
ATOM     31  C   UNL A   1      34.393  32.754  32.341  1.00  0.00     0.202 C 
BRANCH  31  32
ATOM     32  C   UNL A   1      35.725  33.001  33.061  1.00  0.00     0.261 C 
BRANCH  32  33
ATOM     33  O   UNL A   1      36.470  31.826  33.413  1.00  0.00    -0.460 OA
BRANCH  33  34
ATOM     34  C   UNL A   1      37.373  31.946  34.412  1.00  0.00     0.338 C 
ATOM     35  O   UNL A   1      37.184  32.385  35.531  1.00  0.00    -0.246 OA
BRANCH  34  36
ATOM     36  C   UNL A   1      38.616  31.279  33.971  1.00  0.00     0.060 A 
ATOM     37  C   UNL A   1      39.846  31.731  34.467  1.00  0.00     0.016 A 
ATOM     38  C   UNL A   1      38.563  30.208  33.078  1.00  0.00     0.016 A 
ATOM     39  C   UNL A   1      41.032  31.131  34.043  1.00  0.00     0.010 A 
ATOM     40  C   UNL A   1      39.753  29.619  32.639  1.00  0.00     0.010 A 
ATOM     41  C   UNL A   1      40.994  30.099  33.095  1.00  0.00    -0.014 A 
BRANCH  41  42
ATOM     42  C   UNL A   1      42.247  29.643  32.443  1.00  0.00     0.031 A 
ATOM     43  C   UNL A   1      42.961  28.451  33.023  1.00  0.00     0.074 A 
ATOM     44  C   UNL A   1      42.742  30.264  31.357  1.00  0.00     0.049 A 
ATOM     45  N   UNL A   1      44.101  27.912  32.677  1.00  0.00    -0.248 NA
ATOM     46  C   UNL A   1      42.296  27.776  34.152  1.00  0.00     0.031 C 
ATOM     47  C   UNL A   1      42.126  31.404  30.681  1.00  0.00     0.029 A 
ATOM     48  N   UNL A   1      43.892  30.030  30.643  1.00  0.00    -0.354 N 
ATOM     49  C   UNL A   1      44.297  26.851  33.551  1.00  0.00     0.074 A 
ATOM     50  C   UNL A   1      43.171  26.830  34.457  1.00  0.00     0.031 C 
ATOM     51  C   UNL A   1      42.917  31.784  29.660  1.00  0.00     0.029 A 
ATOM     52  C   UNL A   1      44.109  30.938  29.635  1.00  0.00     0.049 A 
ATOM     53  H   UNL A   1      44.502  29.281  30.834  1.00  0.00     0.167 HD
ATOM     54  C   UNL A   1      45.325  25.971  33.591  1.00  0.00     0.037 A 
ATOM     55  C   UNL A   1      45.168  31.087  28.813  1.00  0.00     0.037 A 
ATOM     56  C   UNL A   1      46.438  25.986  32.679  1.00  0.00     0.049 A 
ATOM     57  C   UNL A   1      46.330  30.127  28.923  1.00  0.00     0.074 A 
ATOM     58  C   UNL A   1      47.508  25.110  32.615  1.00  0.00     0.029 A 
ATOM     59  N   UNL A   1      46.631  26.929  31.682  1.00  0.00    -0.354 N 
ATOM     60  N   UNL A   1      46.486  29.099  29.722  1.00  0.00    -0.248 NA
ATOM     61  C   UNL A   1      47.464  30.349  28.013  1.00  0.00     0.031 C 
ATOM     62  C   UNL A   1      48.383  25.563  31.623  1.00  0.00     0.029 A 
ATOM     63  C   UNL A   1      47.821  26.677  31.020  1.00  0.00     0.049 A 
ATOM     64  H   UNL A   1      46.014  27.668  31.476  1.00  0.00     0.167 HD
ATOM     65  C   UNL A   1      47.710  28.533  29.383  1.00  0.00     0.074 A 
ATOM     66  C   UNL A   1      48.249  29.321  28.297  1.00  0.00     0.031 C 
ATOM     67  C   UNL A   1      48.335  27.457  29.925  1.00  0.00     0.037 A 
BRANCH  54  68
ATOM     68  C   UNL A   1      45.320  24.927  34.668  1.00  0.00     0.064 A 
ATOM     69  C   UNL A   1      44.872  23.620  34.430  1.00  0.00     0.173 A 
ATOM     70  C   UNL A   1      45.852  25.220  35.932  1.00  0.00     0.173 A 
ATOM     71  F   UNL A   1      44.341  23.293  33.242  1.00  0.00    -0.203 F 
ATOM     72  C   UNL A   1      44.951  22.646  35.422  1.00  0.00     0.198 A 
ATOM     73  C   UNL A   1      45.957  24.236  36.912  1.00  0.00     0.198 A 
ATOM     74  F   UNL A   1      46.297  26.455  36.210  1.00  0.00    -0.203 F 
ATOM     75  F   UNL A   1      44.492  21.409  35.183  1.00  0.00    -0.200 F 
ATOM     76  C   UNL A   1      45.504  22.951  36.656  1.00  0.00     0.200 A 
ATOM     77  F   UNL A   1      46.506  24.531  38.098  1.00  0.00    -0.200 F 
ATOM     78  F   UNL A   1      45.602  22.006  37.601  1.00  0.00    -0.200 F 
ENDBRANCH  54  68
BRANCH  55  79
ATOM     79  C   UNL A   1      45.212  32.205  27.830  1.00  0.00     0.064 A 
ATOM     80  C   UNL A   1      45.899  33.396  28.111  1.00  0.00     0.173 A 
ATOM     81  C   UNL A   1      44.506  32.136  26.619  1.00  0.00     0.173 A 
ATOM     82  F   UNL A   1      46.567  33.526  29.267  1.00  0.00    -0.203 F 
ATOM     83  C   UNL A   1      45.842  34.485  27.244  1.00  0.00     0.198 A 
ATOM     84  C   UNL A   1      44.482  33.211  25.734  1.00  0.00     0.198 A 
ATOM     85  F   UNL A   1      43.829  31.023  26.299  1.00  0.00    -0.203 F 
ATOM     86  F   UNL A   1      46.442  35.636  27.576  1.00  0.00    -0.200 F 
ATOM     87  C   UNL A   1      45.136  34.391  26.054  1.00  0.00     0.200 A 
ATOM     88  F   UNL A   1      43.809  33.111  24.579  1.00  0.00    -0.200 F 
ATOM     89  F   UNL A   1      45.072  35.441  25.225  1.00  0.00    -0.200 F 
ENDBRANCH  55  79
BRANCH  67  90
ATOM     90  C   UNL A   1      49.641  27.030  29.316  1.00  0.00     0.064 A 
ATOM     91  C   UNL A   1      49.704  26.114  28.255  1.00  0.00     0.173 A 
ATOM     92  C   UNL A   1      50.847  27.586  29.773  1.00  0.00     0.173 A 
ATOM     93  F   UNL A   1      48.583  25.545  27.789  1.00  0.00    -0.203 F 
ATOM     94  C   UNL A   1      50.925  25.746  27.698  1.00  0.00     0.198 A 
ATOM     95  C   UNL A   1      52.063  27.244  29.188  1.00  0.00     0.198 A 
ATOM     96  F   UNL A   1      50.845  28.477  30.776  1.00  0.00    -0.203 F 
ATOM     97  F   UNL A   1      50.965  24.827  26.724  1.00  0.00    -0.200 F 
ATOM     98  C   UNL A   1      52.103  26.318  28.158  1.00  0.00     0.200 A 
ATOM     99  F   UNL A   1      53.197  27.813  29.621  1.00  0.00    -0.200 F 
ATOM    100  F   UNL A   1      53.277  25.969  27.613  1.00  0.00    -0.200 F 
ENDBRANCH  67  90
ENDBRANCH  41  42
ENDBRANCH  34  36
ENDBRANCH  33  34
ENDBRANCH  32  33
ENDBRANCH  31  32
ENDBRANCH  30  31
ENDBRANCH  29  30
ENDBRANCH  28  29
ENDBRANCH  27  28
ENDBRANCH   1  27
TORSDOF 24
ENDMDL
