MODEL 1
REMARK VINA RESULT:      -9.0      0.000      0.000
REMARK SMILES COc1cc(C(=O)OCCOCCOCCOCCOC(=O)c2ccc(-c3c4nc(c(-c5c(F)c(F)c(F)c(F)c5F)c5ccc([nH]5)c(-c5c(F)c(F)c(F)c(F)c5F)c5nc(c(-c6c(F)c(F)c(F)c(F)c6F)c6ccc3[nH]6)C=C5)C=C4)cc2)ccc1OCC(=O)N[C@H]1CCCC[C@H]1C
REMARK SMILES IDX 13 1 12 2 11 3 10 4 9 5 8 6 6 7 7 8 5 9 3 10 4 11 88 12
REMARK SMILES IDX 87 13 86 14 2 15 1 16 89 17 90 18 91 19 92 20 93 21 94 23
REMARK SMILES IDX 95 24 99 25 96 26 98 27 100 28 97 29 14 30 15 31 16 32 17 33
REMARK SMILES IDX 18 34 19 35 20 36 21 37 22 38 23 39 24 40 85 41 25 42 84 43
REMARK SMILES IDX 26 44 27 45 28 46 78 47 29 48 83 49 77 50 79 51 30 52 82 53
REMARK SMILES IDX 76 54 75 55 31 57 63 58 43 59 62 60 44 61 47 62 61 63 80 64
REMARK SMILES IDX 45 65 46 66 60 68 81 69 48 70 32 71 33 72 41 73 34 74 35 75
REMARK SMILES IDX 39 76 42 77 36 78 37 79 40 80 38 81 64 82 65 83 73 84 66 85
REMARK SMILES IDX 67 86 71 87 74 88 68 89 69 90 72 91 70 92 49 93 50 94 58 95
REMARK SMILES IDX 51 96 52 97 56 98 59 99 53 100 54 101 57 102 55 103
REMARK H PARENT 93 22 79 56 47 67
REMARK Flexibility Score: inf
ROOT
ATOM      1  C   UNL A   1      37.594  23.646  26.451  1.00  0.00     0.188 C 
ENDROOT
BRANCH   1   2
ATOM      2  C   UNL A   1      37.136  22.654  25.360  1.00  0.00     0.188 C 
BRANCH   2   3
ATOM      3  O   UNL A   1      36.056  21.824  25.760  1.00  0.00    -0.376 OA
BRANCH   3   4
ATOM      4  C   UNL A   1      34.740  22.294  25.531  1.00  0.00     0.202 C 
BRANCH   4   5
ATOM      5  C   UNL A   1      33.928  21.632  24.406  1.00  0.00     0.261 C 
BRANCH   5   6
ATOM      6  O   UNL A   1      33.217  22.523  23.536  1.00  0.00    -0.460 OA
BRANCH   6   7
ATOM      7  C   UNL A   1      33.893  23.587  23.048  1.00  0.00     0.338 C 
ATOM      8  O   UNL A   1      35.068  23.621  22.729  1.00  0.00    -0.246 OA
BRANCH   7   9
ATOM      9  C   UNL A   1      32.903  24.644  22.731  1.00  0.00     0.064 A 
ATOM     10  C   UNL A   1      30.817  25.738  23.333  1.00  0.00     0.161 A 
ATOM     11  C   UNL A   1      31.719  24.676  23.478  1.00  0.00     0.066 A 
ATOM     12  C   UNL A   1      31.061  26.733  22.376  1.00  0.00     0.161 A 
ATOM     13  C   UNL A   1      32.260  26.696  21.645  1.00  0.00     0.051 A 
ATOM     14  C   UNL A   1      33.189  25.669  21.829  1.00  0.00     0.020 A 
BRANCH  10  15
ATOM     15  O   UNL A   1      29.791  25.902  24.225  1.00  0.00    -0.493 OA
ATOM     16  C   UNL A   1      30.150  25.710  25.592  1.00  0.00     0.278 C 
ENDBRANCH  10  15
BRANCH  12  17
ATOM     17  O   UNL A   1      30.261  27.790  22.037  1.00  0.00    -0.480 OA
BRANCH  17  18
ATOM     18  C   UNL A   1      29.461  28.415  23.027  1.00  0.00     0.329 C 
BRANCH  18  19
ATOM     19  C   UNL A   1      29.818  29.816  23.563  1.00  0.00     0.258 C 
ATOM     20  O   UNL A   1      29.058  30.779  23.426  1.00  0.00    -0.271 OA
ATOM     21  N   UNL A   1      30.971  30.021  24.267  1.00  0.00    -0.350 N 
ATOM     22  H   UNL A   1      31.361  30.923  24.229  1.00  0.00     0.163 HD
BRANCH  21  23
ATOM     23  C   UNL A   1      31.678  29.033  25.069  1.00  0.00     0.085 C 
ATOM     24  C   UNL A   1      33.105  28.824  24.543  1.00  0.00     0.025 C 
ATOM     25  C   UNL A   1      31.672  29.457  26.557  1.00  0.00     0.008 C 
ATOM     26  C   UNL A   1      33.886  27.834  25.406  1.00  0.00     0.002 C 
ATOM     27  C   UNL A   1      32.436  28.426  27.394  1.00  0.00     0.005 C 
ATOM     28  C   UNL A   1      32.214  30.878  26.782  1.00  0.00     0.010 C 
ATOM     29  C   UNL A   1      33.858  28.195  26.890  1.00  0.00     0.000 C 
ENDBRANCH  21  23
ENDBRANCH  18  19
ENDBRANCH  17  18
ENDBRANCH  12  17
ENDBRANCH   7   9
ENDBRANCH   6   7
ENDBRANCH   5   6
ENDBRANCH   4   5
ENDBRANCH   3   4
ENDBRANCH   2   3
ENDBRANCH   1   2
BRANCH   1  30
ATOM     30  O   UNL A   1      38.786  24.389  26.242  1.00  0.00    -0.377 OA
BRANCH  30  31
ATOM     31  C   UNL A   1      40.026  23.882  26.723  1.00  0.00     0.188 C 
BRANCH  31  32
ATOM     32  C   UNL A   1      40.162  22.440  27.273  1.00  0.00     0.188 C 
BRANCH  32  33
ATOM     33  O   UNL A   1      40.906  21.557  26.452  1.00  0.00    -0.376 OA
BRANCH  33  34
ATOM     34  C   UNL A   1      41.988  22.095  25.714  1.00  0.00     0.202 C 
BRANCH  34  35
ATOM     35  C   UNL A   1      43.399  21.705  26.175  1.00  0.00     0.261 C 
BRANCH  35  36
ATOM     36  O   UNL A   1      44.119  22.703  26.914  1.00  0.00    -0.460 OA
BRANCH  36  37
ATOM     37  C   UNL A   1      43.651  23.039  28.135  1.00  0.00     0.338 C 
ATOM     38  O   UNL A   1      43.292  22.290  29.027  1.00  0.00    -0.246 OA
BRANCH  37  39
ATOM     39  C   UNL A   1      43.810  24.500  28.269  1.00  0.00     0.060 A 
ATOM     40  C   UNL A   1      44.195  25.048  29.502  1.00  0.00     0.016 A 
ATOM     41  C   UNL A   1      43.605  25.320  27.159  1.00  0.00     0.016 A 
ATOM     42  C   UNL A   1      44.357  26.428  29.630  1.00  0.00     0.010 A 
ATOM     43  C   UNL A   1      43.741  26.701  27.295  1.00  0.00     0.010 A 
ATOM     44  C   UNL A   1      44.088  27.263  28.537  1.00  0.00    -0.014 A 
BRANCH  44  45
ATOM     45  C   UNL A   1      43.940  28.725  28.722  1.00  0.00     0.031 A 
ATOM     46  C   UNL A   1      45.162  29.578  28.536  1.00  0.00     0.074 A 
ATOM     47  C   UNL A   1      42.770  29.281  29.083  1.00  0.00     0.049 A 
ATOM     48  N   UNL A   1      45.346  30.846  28.797  1.00  0.00    -0.248 NA
ATOM     49  C   UNL A   1      46.348  28.897  27.989  1.00  0.00     0.031 C 
ATOM     50  C   UNL A   1      41.508  28.567  29.248  1.00  0.00     0.029 A 
ATOM     51  N   UNL A   1      42.469  30.583  29.404  1.00  0.00    -0.354 N 
ATOM     52  C   UNL A   1      46.666  31.110  28.459  1.00  0.00     0.074 A 
ATOM     53  C   UNL A   1      47.248  29.867  28.004  1.00  0.00     0.031 C 
ATOM     54  C   UNL A   1      40.571  29.435  29.673  1.00  0.00     0.029 A 
ATOM     55  C   UNL A   1      41.182  30.751  29.851  1.00  0.00     0.049 A 
ATOM     56  H   UNL A   1      43.114  31.322  29.321  1.00  0.00     0.167 HD
ATOM     57  C   UNL A   1      47.331  32.286  28.517  1.00  0.00     0.037 A 
ATOM     58  C   UNL A   1      40.585  31.837  30.384  1.00  0.00     0.037 A 
ATOM     59  C   UNL A   1      46.749  33.516  28.984  1.00  0.00     0.049 A 
ATOM     60  C   UNL A   1      41.371  33.119  30.523  1.00  0.00     0.074 A 
ATOM     61  C   UNL A   1      47.336  34.763  29.088  1.00  0.00     0.029 A 
ATOM     62  N   UNL A   1      45.443  33.646  29.433  1.00  0.00    -0.354 N 
ATOM     63  N   UNL A   1      42.616  33.369  30.195  1.00  0.00    -0.248 NA
ATOM     64  C   UNL A   1      40.669  34.270  31.111  1.00  0.00     0.031 C 
ATOM     65  C   UNL A   1      46.402  35.638  29.653  1.00  0.00     0.029 A 
ATOM     66  C   UNL A   1      45.211  34.951  29.835  1.00  0.00     0.049 A 
ATOM     67  H   UNL A   1      44.779  32.920  29.462  1.00  0.00     0.167 HD
ATOM     68  C   UNL A   1      42.832  34.709  30.496  1.00  0.00     0.074 A 
ATOM     69  C   UNL A   1      41.590  35.221  31.030  1.00  0.00     0.031 C 
ATOM     70  C   UNL A   1      43.959  35.450  30.341  1.00  0.00     0.037 A 
BRANCH  57  71
ATOM     71  C   UNL A   1      48.770  32.289  28.092  1.00  0.00     0.064 A 
ATOM     72  C   UNL A   1      49.791  31.841  28.945  1.00  0.00     0.173 A 
ATOM     73  C   UNL A   1      49.131  32.724  26.809  1.00  0.00     0.173 A 
ATOM     74  F   UNL A   1      49.502  31.432  30.189  1.00  0.00    -0.203 F 
ATOM     75  C   UNL A   1      51.123  31.854  28.537  1.00  0.00     0.198 A 
ATOM     76  C   UNL A   1      50.460  32.702  26.391  1.00  0.00     0.198 A 
ATOM     77  F   UNL A   1      48.195  33.161  25.953  1.00  0.00    -0.203 F 
ATOM     78  F   UNL A   1      52.085  31.471  29.386  1.00  0.00    -0.200 F 
ATOM     79  C   UNL A   1      51.454  32.276  27.258  1.00  0.00     0.200 A 
ATOM     80  F   UNL A   1      50.776  33.098  25.151  1.00  0.00    -0.200 F 
ATOM     81  F   UNL A   1      52.735  32.280  26.864  1.00  0.00    -0.200 F 
ENDBRANCH  57  71
BRANCH  58  82
ATOM     82  C   UNL A   1      39.177  31.757  30.861  1.00  0.00     0.064 A 
ATOM     83  C   UNL A   1      38.877  31.362  32.172  1.00  0.00     0.173 A 
ATOM     84  C   UNL A   1      38.102  32.042  30.006  1.00  0.00     0.173 A 
ATOM     85  F   UNL A   1      39.867  31.051  33.021  1.00  0.00    -0.203 F 
ATOM     86  C   UNL A   1      37.556  31.229  32.600  1.00  0.00     0.198 A 
ATOM     87  C   UNL A   1      36.784  31.942  30.445  1.00  0.00     0.198 A 
ATOM     88  F   UNL A   1      38.332  32.422  28.740  1.00  0.00    -0.203 F 
ATOM     89  F   UNL A   1      37.298  30.792  33.840  1.00  0.00    -0.200 F 
ATOM     90  C   UNL A   1      36.511  31.525  31.738  1.00  0.00     0.200 A 
ATOM     91  F   UNL A   1      35.777  32.242  29.612  1.00  0.00    -0.200 F 
ATOM     92  F   UNL A   1      35.243  31.397  32.151  1.00  0.00    -0.200 F 
ENDBRANCH  58  82
BRANCH  70  93
ATOM     93  C   UNL A   1      43.891  36.909  30.691  1.00  0.00     0.064 A 
ATOM     94  C   UNL A   1      44.146  37.375  31.989  1.00  0.00     0.173 A 
ATOM     95  C   UNL A   1      43.641  37.861  29.689  1.00  0.00     0.173 A 
ATOM     96  F   UNL A   1      44.380  36.507  32.985  1.00  0.00    -0.203 F 
ATOM     97  C   UNL A   1      44.136  38.739  32.274  1.00  0.00     0.198 A 
ATOM     98  C   UNL A   1      43.664  39.223  29.971  1.00  0.00     0.198 A 
ATOM     99  F   UNL A   1      43.400  37.468  28.429  1.00  0.00    -0.203 F 
ATOM    100  F   UNL A   1      44.344  39.160  33.529  1.00  0.00    -0.200 F 
ATOM    101  C   UNL A   1      43.907  39.661  31.264  1.00  0.00     0.200 A 
ATOM    102  F   UNL A   1      43.460  40.112  28.989  1.00  0.00    -0.200 F 
ATOM    103  F   UNL A   1      43.915  40.973  31.537  1.00  0.00    -0.200 F 
ENDBRANCH  70  93
ENDBRANCH  44  45
ENDBRANCH  37  39
ENDBRANCH  36  37
ENDBRANCH  35  36
ENDBRANCH  34  35
ENDBRANCH  33  34
ENDBRANCH  32  33
ENDBRANCH  31  32
ENDBRANCH  30  31
ENDBRANCH   1  30
TORSDOF 25
ENDMDL
MODEL 2
REMARK VINA RESULT:      -8.8      3.753      9.250
REMARK SMILES COc1cc(C(=O)OCCOCCOCCOCCOC(=O)c2ccc(-c3c4nc(c(-c5c(F)c(F)c(F)c(F)c5F)c5ccc([nH]5)c(-c5c(F)c(F)c(F)c(F)c5F)c5nc(c(-c6c(F)c(F)c(F)c(F)c6F)c6ccc3[nH]6)C=C5)C=C4)cc2)ccc1OCC(=O)N[C@H]1CCCC[C@H]1C
REMARK SMILES IDX 13 1 12 2 11 3 10 4 9 5 8 6 6 7 7 8 5 9 3 10 4 11 88 12
REMARK SMILES IDX 87 13 86 14 2 15 1 16 89 17 90 18 91 19 92 20 93 21 94 23
REMARK SMILES IDX 95 24 99 25 96 26 98 27 100 28 97 29 14 30 15 31 16 32 17 33
REMARK SMILES IDX 18 34 19 35 20 36 21 37 22 38 23 39 24 40 85 41 25 42 84 43
REMARK SMILES IDX 26 44 27 45 28 46 78 47 29 48 83 49 77 50 79 51 30 52 82 53
REMARK SMILES IDX 76 54 75 55 31 57 63 58 43 59 62 60 44 61 47 62 61 63 80 64
REMARK SMILES IDX 45 65 46 66 60 68 81 69 48 70 32 71 33 72 41 73 34 74 35 75
REMARK SMILES IDX 39 76 42 77 36 78 37 79 40 80 38 81 64 82 65 83 73 84 66 85
REMARK SMILES IDX 67 86 71 87 74 88 68 89 69 90 72 91 70 92 49 93 50 94 58 95
REMARK SMILES IDX 51 96 52 97 56 98 59 99 53 100 54 101 57 102 55 103
REMARK H PARENT 93 22 79 56 47 67
REMARK Flexibility Score: inf
ROOT
ATOM      1  C   UNL A   1      33.723  30.815  27.456  1.00  0.00     0.188 C 
ENDROOT
BRANCH   1   2
ATOM      2  C   UNL A   1      32.316  30.913  26.829  1.00  0.00     0.188 C 
BRANCH   2   3
ATOM      3  O   UNL A   1      32.127  30.055  25.714  1.00  0.00    -0.376 OA
BRANCH   3   4
ATOM      4  C   UNL A   1      31.918  28.678  25.966  1.00  0.00     0.202 C 
BRANCH   4   5
ATOM      5  C   UNL A   1      30.938  27.922  25.055  1.00  0.00     0.261 C 
BRANCH   5   6
ATOM      6  O   UNL A   1      31.295  26.571  24.729  1.00  0.00    -0.460 OA
BRANCH   6   7
ATOM      7  C   UNL A   1      31.556  25.732  25.756  1.00  0.00     0.338 C 
ATOM      8  O   UNL A   1      30.870  25.557  26.747  1.00  0.00    -0.246 OA
BRANCH   7   9
ATOM      9  C   UNL A   1      32.697  24.874  25.358  1.00  0.00     0.064 A 
ATOM     10  C   UNL A   1      33.435  22.822  24.282  1.00  0.00     0.161 A 
ATOM     11  C   UNL A   1      32.412  23.614  24.818  1.00  0.00     0.066 A 
ATOM     12  C   UNL A   1      34.766  23.259  24.360  1.00  0.00     0.161 A 
ATOM     13  C   UNL A   1      35.036  24.531  24.890  1.00  0.00     0.051 A 
ATOM     14  C   UNL A   1      34.010  25.348  25.372  1.00  0.00     0.020 A 
BRANCH  10  15
ATOM     15  O   UNL A   1      33.136  21.711  23.541  1.00  0.00    -0.493 OA
ATOM     16  C   UNL A   1      32.920  20.524  24.301  1.00  0.00     0.278 C 
ENDBRANCH  10  15
BRANCH  12  17
ATOM     17  O   UNL A   1      35.895  22.591  23.971  1.00  0.00    -0.480 OA
BRANCH  17  18
ATOM     18  C   UNL A   1      37.129  22.858  24.617  1.00  0.00     0.329 C 
BRANCH  18  19
ATOM     19  C   UNL A   1      37.861  21.756  25.411  1.00  0.00     0.258 C 
ATOM     20  O   UNL A   1      37.725  20.560  25.142  1.00  0.00    -0.271 OA
ATOM     21  N   UNL A   1      38.738  22.081  26.408  1.00  0.00    -0.350 N 
ATOM     22  H   UNL A   1      38.854  21.422  27.130  1.00  0.00     0.163 HD
BRANCH  21  23
ATOM     23  C   UNL A   1      39.517  23.305  26.505  1.00  0.00     0.085 C 
ATOM     24  C   UNL A   1      38.955  24.225  27.599  1.00  0.00     0.025 C 
ATOM     25  C   UNL A   1      41.007  22.967  26.751  1.00  0.00     0.008 C 
ATOM     26  C   UNL A   1      39.795  25.492  27.759  1.00  0.00     0.002 C 
ATOM     27  C   UNL A   1      41.821  24.260  26.874  1.00  0.00     0.005 C 
ATOM     28  C   UNL A   1      41.225  22.046  27.962  1.00  0.00     0.010 C 
ATOM     29  C   UNL A   1      41.280  25.194  27.953  1.00  0.00     0.000 C 
ENDBRANCH  21  23
ENDBRANCH  18  19
ENDBRANCH  17  18
ENDBRANCH  12  17
ENDBRANCH   7   9
ENDBRANCH   6   7
ENDBRANCH   5   6
ENDBRANCH   4   5
ENDBRANCH   3   4
ENDBRANCH   2   3
ENDBRANCH   1   2
BRANCH   1  30
ATOM     30  O   UNL A   1      34.459  32.010  27.676  1.00  0.00    -0.377 OA
BRANCH  30  31
ATOM     31  C   UNL A   1      33.793  33.166  28.172  1.00  0.00     0.188 C 
BRANCH  31  32
ATOM     32  C   UNL A   1      34.351  33.983  29.364  1.00  0.00     0.188 C 
BRANCH  32  33
ATOM     33  O   UNL A   1      34.015  33.475  30.643  1.00  0.00    -0.376 OA
BRANCH  33  34
ATOM     34  C   UNL A   1      35.043  32.863  31.401  1.00  0.00     0.202 C 
BRANCH  34  35
ATOM     35  C   UNL A   1      36.461  32.924  30.817  1.00  0.00     0.261 C 
BRANCH  35  36
ATOM     36  O   UNL A   1      37.071  34.223  30.778  1.00  0.00    -0.460 OA
BRANCH  36  37
ATOM     37  C   UNL A   1      38.011  34.502  31.704  1.00  0.00     0.338 C 
ATOM     38  O   UNL A   1      37.867  34.584  32.912  1.00  0.00    -0.246 OA
BRANCH  37  39
ATOM     39  C   UNL A   1      39.310  34.527  31.004  1.00  0.00     0.060 A 
ATOM     40  C   UNL A   1      40.491  34.269  31.718  1.00  0.00     0.016 A 
ATOM     41  C   UNL A   1      39.349  34.776  29.632  1.00  0.00     0.016 A 
ATOM     42  C   UNL A   1      41.720  34.282  31.057  1.00  0.00     0.010 A 
ATOM     43  C   UNL A   1      40.580  34.815  28.978  1.00  0.00     0.010 A 
ATOM     44  C   UNL A   1      41.772  34.597  29.693  1.00  0.00    -0.014 A 
BRANCH  44  45
ATOM     45  C   UNL A   1      43.061  34.929  29.043  1.00  0.00     0.031 A 
ATOM     46  C   UNL A   1      44.002  33.797  28.745  1.00  0.00     0.074 A 
ATOM     47  C   UNL A   1      43.409  36.197  28.759  1.00  0.00     0.049 A 
ATOM     48  N   UNL A   1      45.245  33.827  28.340  1.00  0.00    -0.248 NA
ATOM     49  C   UNL A   1      43.465  32.441  28.945  1.00  0.00     0.031 C 
ATOM     50  C   UNL A   1      42.565  37.371  28.957  1.00  0.00     0.029 A 
ATOM     51  N   UNL A   1      44.587  36.704  28.267  1.00  0.00    -0.354 N 
ATOM     52  C   UNL A   1      45.640  32.499  28.249  1.00  0.00     0.074 A 
ATOM     53  C   UNL A   1      44.520  31.689  28.671  1.00  0.00     0.031 C 
ATOM     54  C   UNL A   1      43.265  38.470  28.621  1.00  0.00     0.029 A 
ATOM     55  C   UNL A   1      44.617  38.076  28.228  1.00  0.00     0.049 A 
ATOM     56  H   UNL A   1      45.336  36.138  27.970  1.00  0.00     0.167 HD
ATOM     57  C   UNL A   1      46.831  32.001  27.844  1.00  0.00     0.037 A 
ATOM     58  C   UNL A   1      45.637  38.913  27.948  1.00  0.00     0.037 A 
ATOM     59  C   UNL A   1      47.946  32.815  27.440  1.00  0.00     0.049 A 
ATOM     60  C   UNL A   1      46.986  38.337  27.585  1.00  0.00     0.074 A 
ATOM     61  C   UNL A   1      49.200  32.412  27.016  1.00  0.00     0.029 A 
ATOM     62  N   UNL A   1      47.941  34.202  27.418  1.00  0.00    -0.354 N 
ATOM     63  N   UNL A   1      47.355  37.082  27.491  1.00  0.00    -0.248 NA
ATOM     64  C   UNL A   1      48.061  39.297  27.290  1.00  0.00     0.031 C 
ATOM     65  C   UNL A   1      49.971  33.555  26.790  1.00  0.00     0.029 A 
ATOM     66  C   UNL A   1      49.177  34.671  27.007  1.00  0.00     0.049 A 
ATOM     67  H   UNL A   1      47.173  34.768  27.658  1.00  0.00     0.167 HD
ATOM     68  C   UNL A   1      48.686  37.101  27.089  1.00  0.00     0.074 A 
ATOM     69  C   UNL A   1      49.060  38.492  26.953  1.00  0.00     0.031 C 
ATOM     70  C   UNL A   1      49.523  36.060  26.852  1.00  0.00     0.037 A 
BRANCH  57  71
ATOM     71  C   UNL A   1      46.995  30.510  27.849  1.00  0.00     0.064 A 
ATOM     72  C   UNL A   1      46.694  29.732  26.719  1.00  0.00     0.173 A 
ATOM     73  C   UNL A   1      47.480  29.851  28.988  1.00  0.00     0.173 A 
ATOM     74  F   UNL A   1      46.210  30.310  25.610  1.00  0.00    -0.203 F 
ATOM     75  C   UNL A   1      46.849  28.348  26.741  1.00  0.00     0.198 A 
ATOM     76  C   UNL A   1      47.666  28.471  28.994  1.00  0.00     0.198 A 
ATOM     77  F   UNL A   1      47.784  30.547  30.095  1.00  0.00    -0.203 F 
ATOM     78  F   UNL A   1      46.505  27.622  25.669  1.00  0.00    -0.200 F 
ATOM     79  C   UNL A   1      47.342  27.721  27.875  1.00  0.00     0.200 A 
ATOM     80  F   UNL A   1      48.156  27.869  30.087  1.00  0.00    -0.200 F 
ATOM     81  F   UNL A   1      47.498  26.390  27.891  1.00  0.00    -0.200 F 
ENDBRANCH  57  71
BRANCH  58  82
ATOM     82  C   UNL A   1      45.441  40.385  28.034  1.00  0.00     0.064 A 
ATOM     83  C   UNL A   1      45.740  41.090  29.209  1.00  0.00     0.173 A 
ATOM     84  C   UNL A   1      44.919  41.114  26.955  1.00  0.00     0.173 A 
ATOM     85  F   UNL A   1      46.215  40.436  30.280  1.00  0.00    -0.203 F 
ATOM     86  C   UNL A   1      45.499  42.460  29.309  1.00  0.00     0.198 A 
ATOM     87  C   UNL A   1      44.711  42.488  27.044  1.00  0.00     0.198 A 
ATOM     88  F   UNL A   1      44.612  40.490  25.808  1.00  0.00    -0.203 F 
ATOM     89  F   UNL A   1      45.738  43.097  30.463  1.00  0.00    -0.200 F 
ATOM     90  C   UNL A   1      44.990  43.159  28.225  1.00  0.00     0.200 A 
ATOM     91  F   UNL A   1      44.231  43.162  25.990  1.00  0.00    -0.200 F 
ATOM     92  F   UNL A   1      44.760  44.475  28.322  1.00  0.00    -0.200 F 
ENDBRANCH  58  82
BRANCH  70  93
ATOM     93  C   UNL A   1      50.907  36.372  26.357  1.00  0.00     0.064 A 
ATOM     94  C   UNL A   1      51.186  36.550  24.994  1.00  0.00     0.173 A 
ATOM     95  C   UNL A   1      51.953  36.571  27.273  1.00  0.00     0.173 A 
ATOM     96  F   UNL A   1      50.225  36.362  24.077  1.00  0.00    -0.203 F 
ATOM     97  C   UNL A   1      52.465  36.899  24.566  1.00  0.00     0.198 A 
ATOM     98  C   UNL A   1      53.220  36.951  26.844  1.00  0.00     0.198 A 
ATOM     99  F   UNL A   1      51.737  36.422  28.588  1.00  0.00    -0.203 F 
ATOM    100  F   UNL A   1      52.719  37.026  23.257  1.00  0.00    -0.200 F 
ATOM    101  C   UNL A   1      53.477  37.110  25.490  1.00  0.00     0.200 A 
ATOM    102  F   UNL A   1      54.191  37.172  27.740  1.00  0.00    -0.200 F 
ATOM    103  F   UNL A   1      54.702  37.463  25.077  1.00  0.00    -0.200 F 
ENDBRANCH  70  93
ENDBRANCH  44  45
ENDBRANCH  37  39
ENDBRANCH  36  37
ENDBRANCH  35  36
ENDBRANCH  34  35
ENDBRANCH  33  34
ENDBRANCH  32  33
ENDBRANCH  31  32
ENDBRANCH  30  31
ENDBRANCH   1  30
TORSDOF 25
ENDMDL
MODEL 3
REMARK VINA RESULT:      -8.5      4.900      8.421
REMARK SMILES COc1cc(C(=O)OCCOCCOCCOCCOC(=O)c2ccc(-c3c4nc(c(-c5c(F)c(F)c(F)c(F)c5F)c5ccc([nH]5)c(-c5c(F)c(F)c(F)c(F)c5F)c5nc(c(-c6c(F)c(F)c(F)c(F)c6F)c6ccc3[nH]6)C=C5)C=C4)cc2)ccc1OCC(=O)N[C@H]1CCCC[C@H]1C
REMARK SMILES IDX 13 1 12 2 11 3 10 4 9 5 8 6 6 7 7 8 5 9 3 10 4 11 88 12
REMARK SMILES IDX 87 13 86 14 2 15 1 16 89 17 90 18 91 19 92 20 93 21 94 23
REMARK SMILES IDX 95 24 99 25 96 26 98 27 100 28 97 29 14 30 15 31 16 32 17 33
REMARK SMILES IDX 18 34 19 35 20 36 21 37 22 38 23 39 24 40 85 41 25 42 84 43
REMARK SMILES IDX 26 44 27 45 28 46 78 47 29 48 83 49 77 50 79 51 30 52 82 53
REMARK SMILES IDX 76 54 75 55 31 57 63 58 43 59 62 60 44 61 47 62 61 63 80 64
REMARK SMILES IDX 45 65 46 66 60 68 81 69 48 70 32 71 33 72 41 73 34 74 35 75
REMARK SMILES IDX 39 76 42 77 36 78 37 79 40 80 38 81 64 82 65 83 73 84 66 85
REMARK SMILES IDX 67 86 71 87 74 88 68 89 69 90 72 91 70 92 49 93 50 94 58 95
REMARK SMILES IDX 51 96 52 97 56 98 59 99 53 100 54 101 57 102 55 103
REMARK H PARENT 93 22 79 56 47 67
REMARK Flexibility Score: inf
ROOT
ATOM      1  C   UNL A   1      43.269  24.144  28.304  1.00  0.00     0.188 C 
ENDROOT
BRANCH   1   2
ATOM      2  C   UNL A   1      42.233  25.238  27.968  1.00  0.00     0.188 C 
BRANCH   2   3
ATOM      3  O   UNL A   1      41.321  24.866  26.946  1.00  0.00    -0.376 OA
BRANCH   3   4
ATOM      4  C   UNL A   1      40.440  25.858  26.451  1.00  0.00     0.202 C 
BRANCH   4   5
ATOM      5  C   UNL A   1      40.755  27.326  26.781  1.00  0.00     0.261 C 
BRANCH   5   6
ATOM      6  O   UNL A   1      39.814  27.995  27.633  1.00  0.00    -0.460 OA
BRANCH   6   7
ATOM      7  C   UNL A   1      40.287  28.980  28.428  1.00  0.00     0.338 C 
ATOM      8  O   UNL A   1      41.438  29.371  28.500  1.00  0.00    -0.246 OA
BRANCH   7   9
ATOM      9  C   UNL A   1      39.122  29.677  29.023  1.00  0.00     0.064 A 
ATOM     10  C   UNL A   1      38.326  31.368  30.579  1.00  0.00     0.161 A 
ATOM     11  C   UNL A   1      39.360  30.566  30.079  1.00  0.00     0.066 A 
ATOM     12  C   UNL A   1      37.026  31.222  30.075  1.00  0.00     0.161 A 
ATOM     13  C   UNL A   1      36.805  30.339  29.006  1.00  0.00     0.051 A 
ATOM     14  C   UNL A   1      37.846  29.580  28.466  1.00  0.00     0.020 A 
BRANCH  10  15
ATOM     15  O   UNL A   1      38.603  32.402  31.433  1.00  0.00    -0.493 OA
ATOM     16  C   UNL A   1      39.439  33.421  30.888  1.00  0.00     0.278 C 
ENDBRANCH  10  15
BRANCH  12  17
ATOM     17  O   UNL A   1      35.885  31.851  30.493  1.00  0.00    -0.480 OA
BRANCH  17  18
ATOM     18  C   UNL A   1      34.885  32.198  29.550  1.00  0.00     0.329 C 
BRANCH  18  19
ATOM     19  C   UNL A   1      34.898  33.574  28.852  1.00  0.00     0.258 C 
ATOM     20  O   UNL A   1      34.974  33.681  27.626  1.00  0.00    -0.271 OA
ATOM     21  N   UNL A   1      34.763  34.725  29.577  1.00  0.00    -0.350 N 
ATOM     22  H   UNL A   1      35.174  35.536  29.203  1.00  0.00     0.163 HD
BRANCH  21  23
ATOM     23  C   UNL A   1      34.070  34.866  30.848  1.00  0.00     0.085 C 
ATOM     24  C   UNL A   1      35.038  35.320  31.951  1.00  0.00     0.025 C 
ATOM     25  C   UNL A   1      32.878  35.840  30.697  1.00  0.00     0.008 C 
ATOM     26  C   UNL A   1      34.319  35.533  33.283  1.00  0.00     0.002 C 
ATOM     27  C   UNL A   1      32.164  36.004  32.042  1.00  0.00     0.005 C 
ATOM     28  C   UNL A   1      33.281  37.201  30.105  1.00  0.00     0.010 C 
ATOM     29  C   UNL A   1      33.105  36.451  33.157  1.00  0.00     0.000 C 
ENDBRANCH  21  23
ENDBRANCH  18  19
ENDBRANCH  17  18
ENDBRANCH  12  17
ENDBRANCH   7   9
ENDBRANCH   6   7
ENDBRANCH   5   6
ENDBRANCH   4   5
ENDBRANCH   3   4
ENDBRANCH   2   3
ENDBRANCH   1   2
BRANCH   1  30
ATOM     30  O   UNL A   1      42.916  22.783  28.105  1.00  0.00    -0.377 OA
BRANCH  30  31
ATOM     31  C   UNL A   1      43.415  22.084  26.970  1.00  0.00     0.188 C 
BRANCH  31  32
ATOM     32  C   UNL A   1      43.610  22.781  25.601  1.00  0.00     0.188 C 
BRANCH  32  33
ATOM     33  O   UNL A   1      44.859  23.429  25.435  1.00  0.00    -0.376 OA
BRANCH  33  34
ATOM     34  C   UNL A   1      44.851  24.777  24.999  1.00  0.00     0.202 C 
BRANCH  34  35
ATOM     35  C   UNL A   1      46.204  25.499  24.968  1.00  0.00     0.261 C 
BRANCH  35  36
ATOM     36  O   UNL A   1      46.228  26.764  24.290  1.00  0.00    -0.460 OA
BRANCH  36  37
ATOM     37  C   UNL A   1      47.075  27.708  24.751  1.00  0.00     0.338 C 
ATOM     38  O   UNL A   1      48.040  28.186  24.181  1.00  0.00    -0.246 OA
BRANCH  37  39
ATOM     39  C   UNL A   1      46.522  28.193  26.031  1.00  0.00     0.060 A 
ATOM     40  C   UNL A   1      45.135  28.352  26.173  1.00  0.00     0.016 A 
ATOM     41  C   UNL A   1      47.382  28.458  27.097  1.00  0.00     0.016 A 
ATOM     42  C   UNL A   1      44.607  28.801  27.385  1.00  0.00     0.010 A 
ATOM     43  C   UNL A   1      46.855  28.931  28.298  1.00  0.00     0.010 A 
ATOM     44  C   UNL A   1      45.470  29.133  28.438  1.00  0.00    -0.014 A 
BRANCH  44  45
ATOM     45  C   UNL A   1      44.977  29.902  29.605  1.00  0.00     0.031 A 
ATOM     46  C   UNL A   1      44.654  29.136  30.856  1.00  0.00     0.074 A 
ATOM     47  C   UNL A   1      44.783  31.231  29.550  1.00  0.00     0.049 A 
ATOM     48  N   UNL A   1      44.058  29.535  31.949  1.00  0.00    -0.248 NA
ATOM     49  C   UNL A   1      45.050  27.718  30.867  1.00  0.00     0.031 C 
ATOM     50  C   UNL A   1      45.102  32.087  28.411  1.00  0.00     0.029 A 
ATOM     51  N   UNL A   1      44.238  32.086  30.476  1.00  0.00    -0.354 N 
ATOM     52  C   UNL A   1      43.997  28.416  32.770  1.00  0.00     0.074 A 
ATOM     53  C   UNL A   1      44.587  27.316  32.040  1.00  0.00     0.031 C 
ATOM     54  C   UNL A   1      44.715  33.345  28.693  1.00  0.00     0.029 A 
ATOM     55  C   UNL A   1      44.083  33.369  30.011  1.00  0.00     0.049 A 
ATOM     56  H   UNL A   1      43.983  31.806  31.385  1.00  0.00     0.167 HD
ATOM     57  C   UNL A   1      43.499  28.318  34.024  1.00  0.00     0.037 A 
ATOM     58  C   UNL A   1      43.462  34.425  30.574  1.00  0.00     0.037 A 
ATOM     59  C   UNL A   1      42.901  29.414  34.739  1.00  0.00     0.049 A 
ATOM     60  C   UNL A   1      42.833  34.272  31.939  1.00  0.00     0.074 A 
ATOM     61  C   UNL A   1      42.361  29.421  36.012  1.00  0.00     0.029 A 
ATOM     62  N   UNL A   1      42.759  30.698  34.233  1.00  0.00    -0.354 N 
ATOM     63  N   UNL A   1      42.784  33.217  32.717  1.00  0.00    -0.248 NA
ATOM     64  C   UNL A   1      42.169  35.457  32.503  1.00  0.00     0.031 C 
ATOM     65  C   UNL A   1      41.842  30.696  36.257  1.00  0.00     0.029 A 
ATOM     66  C   UNL A   1      42.120  31.501  35.163  1.00  0.00     0.049 A 
ATOM     67  H   UNL A   1      43.066  30.994  33.346  1.00  0.00     0.167 HD
ATOM     68  C   UNL A   1      42.125  33.620  33.872  1.00  0.00     0.074 A 
ATOM     69  C   UNL A   1      41.795  35.018  33.697  1.00  0.00     0.031 C 
ATOM     70  C   UNL A   1      41.822  32.898  34.981  1.00  0.00     0.037 A 
BRANCH  57  71
ATOM     71  C   UNL A   1      43.554  26.973  34.687  1.00  0.00     0.064 A 
ATOM     72  C   UNL A   1      42.424  26.145  34.769  1.00  0.00     0.173 A 
ATOM     73  C   UNL A   1      44.757  26.496  35.227  1.00  0.00     0.173 A 
ATOM     74  F   UNL A   1      41.244  26.561  34.284  1.00  0.00    -0.203 F 
ATOM     75  C   UNL A   1      42.491  24.901  35.391  1.00  0.00     0.198 A 
ATOM     76  C   UNL A   1      44.829  25.237  35.817  1.00  0.00     0.198 A 
ATOM     77  F   UNL A   1      45.869  27.246  35.174  1.00  0.00    -0.203 F 
ATOM     78  F   UNL A   1      41.387  24.151  35.505  1.00  0.00    -0.200 F 
ATOM     79  C   UNL A   1      43.695  24.445  35.907  1.00  0.00     0.200 A 
ATOM     80  F   UNL A   1      45.997  24.793  36.303  1.00  0.00    -0.200 F 
ATOM     81  F   UNL A   1      43.760  23.244  36.497  1.00  0.00    -0.200 F 
ENDBRANCH  57  71
BRANCH  58  82
ATOM     82  C   UNL A   1      43.368  35.716  29.839  1.00  0.00     0.064 A 
ATOM     83  C   UNL A   1      42.368  35.935  28.882  1.00  0.00     0.173 A 
ATOM     84  C   UNL A   1      44.298  36.744  30.053  1.00  0.00     0.173 A 
ATOM     85  F   UNL A   1      41.471  34.973  28.618  1.00  0.00    -0.203 F 
ATOM     86  C   UNL A   1      42.318  37.121  28.150  1.00  0.00     0.198 A 
ATOM     87  C   UNL A   1      44.226  37.943  29.346  1.00  0.00     0.198 A 
ATOM     88  F   UNL A   1      45.279  36.587  30.955  1.00  0.00    -0.203 F 
ATOM     89  F   UNL A   1      41.387  37.279  27.200  1.00  0.00    -0.200 F 
ATOM     90  C   UNL A   1      43.243  38.126  28.387  1.00  0.00     0.200 A 
ATOM     91  F   UNL A   1      45.115  38.916  29.588  1.00  0.00    -0.200 F 
ATOM     92  F   UNL A   1      43.193  39.265  27.683  1.00  0.00    -0.200 F 
ENDBRANCH  58  82
BRANCH  70  93
ATOM     93  C   UNL A   1      41.157  33.614  36.122  1.00  0.00     0.064 A 
ATOM     94  C   UNL A   1      41.875  34.431  37.007  1.00  0.00     0.173 A 
ATOM     95  C   UNL A   1      39.764  33.537  36.283  1.00  0.00     0.173 A 
ATOM     96  F   UNL A   1      43.209  34.530  36.904  1.00  0.00    -0.203 F 
ATOM     97  C   UNL A   1      41.225  35.132  38.021  1.00  0.00     0.198 A 
ATOM     98  C   UNL A   1      39.115  34.264  37.276  1.00  0.00     0.198 A 
ATOM     99  F   UNL A   1      39.029  32.776  35.458  1.00  0.00    -0.203 F 
ATOM    100  F   UNL A   1      41.935  35.876  38.879  1.00  0.00    -0.200 F 
ATOM    101  C   UNL A   1      39.846  35.057  38.147  1.00  0.00     0.200 A 
ATOM    102  F   UNL A   1      37.780  34.204  37.384  1.00  0.00    -0.200 F 
ATOM    103  F   UNL A   1      39.221  35.745  39.112  1.00  0.00    -0.200 F 
ENDBRANCH  70  93
ENDBRANCH  44  45
ENDBRANCH  37  39
ENDBRANCH  36  37
ENDBRANCH  35  36
ENDBRANCH  34  35
ENDBRANCH  33  34
ENDBRANCH  32  33
ENDBRANCH  31  32
ENDBRANCH  30  31
ENDBRANCH   1  30
TORSDOF 25
ENDMDL
