MODEL 1
REMARK VINA RESULT:     -10.8      0.000      0.000
REMARK SMILES COc1ccc(CNC(=O)[C@H]2CC(C)=C(C)C[C@@H]2C(=O)OCCOCCOCCOCCOC(=O)c2ccc(-c3c4nc(c(-c5c(F)c(F)c(F)c(F)c5F)c5ccc([nH]5)c(-c5c(F)c(F)c(F)c(F)c5F)c5nc(c(-c6c(F)c(F)c(F)c(F)c6F)c6ccc3[nH]6)C=C5)C=C4)cc2)cc1OC
REMARK SMILES IDX 26 1 25 2 24 3 23 4 22 5 21 6 19 7 20 8 18 9 11 10 12 11
REMARK SMILES IDX 13 12 17 13 14 14 15 15 16 16 9 17 8 18 10 20 7 21 6 22 3 23
REMARK SMILES IDX 4 24 100 25 5 26 99 27 2 28 1 29 101 30 102 31 27 32 28 33
REMARK SMILES IDX 29 34 30 35 31 36 32 37 33 38 34 39 35 40 36 41 37 42 98 43
REMARK SMILES IDX 38 44 97 45 39 46 40 47 41 48 91 49 42 50 96 51 90 52 92 53
REMARK SMILES IDX 43 54 95 55 89 56 88 57 44 59 76 60 56 61 75 62 57 63 60 64
REMARK SMILES IDX 74 65 93 66 58 67 59 68 73 70 94 71 61 72 45 73 46 74 54 75
REMARK SMILES IDX 47 76 48 77 52 78 55 79 49 80 50 81 53 82 51 83 77 84 78 85
REMARK SMILES IDX 86 86 79 87 80 88 84 89 87 90 81 91 82 92 85 93 83 94 62 95
REMARK SMILES IDX 63 96 71 97 64 98 65 99 69 100 72 101 66 102 67 103 70 104
REMARK SMILES IDX 68 105
REMARK H PARENT 8 19 92 58 60 69
REMARK Flexibility Score: inf
ROOT
ATOM      1  C   UNL A   1      39.353  21.974  26.126  1.00  0.00     0.188 C 
ENDROOT
BRANCH   1   2
ATOM      2  C   UNL A   1      38.972  23.354  26.594  1.00  0.00     0.188 C 
BRANCH   2   3
ATOM      3  O   UNL A   1      38.089  24.172  25.841  1.00  0.00    -0.376 OA
BRANCH   3   4
ATOM      4  C   UNL A   1      36.721  23.733  26.031  1.00  0.00     0.202 C 
BRANCH   4   5
ATOM      5  C   UNL A   1      35.888  23.520  24.736  1.00  0.00     0.261 C 
BRANCH   5   6
ATOM      6  O   UNL A   1      34.538  24.058  24.753  1.00  0.00    -0.463 OA
BRANCH   6   7
ATOM      7  C   UNL A   1      33.736  23.878  23.661  1.00  0.00     0.310 C 
ATOM      8  O   UNL A   1      34.145  23.902  22.509  1.00  0.00    -0.252 OA
BRANCH   7   9
ATOM      9  C   UNL A   1      32.349  23.375  24.110  1.00  0.00     0.116 C 
ATOM     10  C   UNL A   1      32.349  22.954  25.602  1.00  0.00     0.097 C 
ATOM     11  C   UNL A   1      32.439  21.431  25.787  1.00  0.00     0.045 C 
ATOM     12  C   UNL A   1      32.487  20.558  24.541  1.00  0.00    -0.074 C 
ATOM     13  C   UNL A   1      31.739  22.418  23.104  1.00  0.00     0.046 C 
ATOM     14  C   UNL A   1      32.882  19.132  24.812  1.00  0.00     0.039 C 
ATOM     15  C   UNL A   1      32.168  21.006  23.309  1.00  0.00    -0.073 C 
ATOM     16  C   UNL A   1      32.155  20.160  22.062  1.00  0.00     0.039 C 
BRANCH  10  17
ATOM     17  C   UNL A   1      31.108  23.520  26.314  1.00  0.00     0.224 C 
ATOM     18  N   UNL A   1      30.847  24.861  26.406  1.00  0.00    -0.352 N 
ATOM     19  H   UNL A   1      29.925  25.058  26.689  1.00  0.00     0.163 HD
ATOM     20  O   UNL A   1      30.260  22.755  26.782  1.00  0.00    -0.275 OA
BRANCH  18  21
ATOM     21  C   UNL A   1      31.647  26.064  26.173  1.00  0.00     0.151 C 
BRANCH  21  22
ATOM     22  C   UNL A   1      31.222  26.830  24.929  1.00  0.00    -0.025 A 
ATOM     23  C   UNL A   1      30.311  28.321  22.667  1.00  0.00     0.160 A 
ATOM     24  C   UNL A   1      29.445  27.501  23.390  1.00  0.00     0.051 A 
ATOM     25  C   UNL A   1      31.667  28.340  23.032  1.00  0.00     0.161 A 
ATOM     26  C   UNL A   1      29.906  26.736  24.471  1.00  0.00     0.009 A 
ATOM     27  C   UNL A   1      32.101  27.634  24.181  1.00  0.00     0.056 A 
BRANCH  23  28
ATOM     28  O   UNL A   1      29.903  29.142  21.653  1.00  0.00    -0.493 OA
ATOM     29  C   UNL A   1      29.186  30.325  21.980  1.00  0.00     0.278 C 
ENDBRANCH  23  28
BRANCH  25  30
ATOM     30  O   UNL A   1      32.671  29.006  22.365  1.00  0.00    -0.493 OA
ATOM     31  C   UNL A   1      34.009  28.727  22.785  1.00  0.00     0.278 C 
ENDBRANCH  25  30
ENDBRANCH  21  22
ENDBRANCH  18  21
ENDBRANCH  10  17
ENDBRANCH   7   9
ENDBRANCH   6   7
ENDBRANCH   5   6
ENDBRANCH   4   5
ENDBRANCH   3   4
ENDBRANCH   2   3
ENDBRANCH   1   2
BRANCH   1  32
ATOM     32  O   UNL A   1      39.739  21.154  27.211  1.00  0.00    -0.377 OA
BRANCH  32  33
ATOM     33  C   UNL A   1      41.034  21.438  27.711  1.00  0.00     0.188 C 
BRANCH  33  34
ATOM     34  C   UNL A   1      42.082  20.328  27.539  1.00  0.00     0.188 C 
BRANCH  34  35
ATOM     35  O   UNL A   1      41.960  19.347  26.509  1.00  0.00    -0.376 OA
BRANCH  35  36
ATOM     36  C   UNL A   1      42.897  18.285  26.367  1.00  0.00     0.202 C 
BRANCH  36  37
ATOM     37  C   UNL A   1      43.568  18.299  25.001  1.00  0.00     0.261 C 
BRANCH  37  38
ATOM     38  O   UNL A   1      44.977  18.478  25.194  1.00  0.00    -0.460 OA
BRANCH  38  39
ATOM     39  C   UNL A   1      45.566  19.362  24.351  1.00  0.00     0.338 C 
ATOM     40  O   UNL A   1      46.162  19.127  23.325  1.00  0.00    -0.246 OA
BRANCH  39  41
ATOM     41  C   UNL A   1      45.188  20.728  24.787  1.00  0.00     0.060 A 
ATOM     42  C   UNL A   1      44.643  21.598  23.828  1.00  0.00     0.016 A 
ATOM     43  C   UNL A   1      45.304  21.130  26.122  1.00  0.00     0.016 A 
ATOM     44  C   UNL A   1      44.278  22.893  24.183  1.00  0.00     0.010 A 
ATOM     45  C   UNL A   1      44.963  22.430  26.475  1.00  0.00     0.010 A 
ATOM     46  C   UNL A   1      44.511  23.326  25.493  1.00  0.00    -0.014 A 
BRANCH  46  47
ATOM     47  C   UNL A   1      44.652  24.767  25.773  1.00  0.00     0.031 A 
ATOM     48  C   UNL A   1      46.027  25.348  25.596  1.00  0.00     0.074 A 
ATOM     49  C   UNL A   1      43.628  25.499  26.233  1.00  0.00     0.049 A 
ATOM     50  N   UNL A   1      46.496  26.509  25.963  1.00  0.00    -0.248 NA
ATOM     51  C   UNL A   1      47.019  24.480  24.933  1.00  0.00     0.031 C 
ATOM     52  C   UNL A   1      42.254  25.032  26.394  1.00  0.00     0.029 A 
ATOM     53  N   UNL A   1      43.604  26.792  26.684  1.00  0.00    -0.354 N 
ATOM     54  C   UNL A   1      47.836  26.497  25.599  1.00  0.00     0.074 A 
ATOM     55  C   UNL A   1      48.115  25.214  25.002  1.00  0.00     0.031 C 
ATOM     56  C   UNL A   1      41.523  26.018  26.943  1.00  0.00     0.029 A 
ATOM     57  C   UNL A   1      42.392  27.163  27.209  1.00  0.00     0.049 A 
ATOM     58  H   UNL A   1      44.380  27.397  26.636  1.00  0.00     0.167 HD
ATOM     59  C   UNL A   1      48.754  27.476  25.758  1.00  0.00     0.037 A 
ATOM     60  C   UNL A   1      42.053  28.287  27.869  1.00  0.00     0.037 A 
ATOM     61  C   UNL A   1      48.456  28.740  26.369  1.00  0.00     0.049 A 
ATOM     62  C   UNL A   1      43.107  29.344  28.090  1.00  0.00     0.074 A 
ATOM     63  C   UNL A   1      49.296  29.816  26.583  1.00  0.00     0.029 A 
ATOM     64  N   UNL A   1      47.210  29.089  26.871  1.00  0.00    -0.354 N 
ATOM     65  N   UNL A   1      44.371  29.342  27.733  1.00  0.00    -0.248 NA
ATOM     66  C   UNL A   1      42.692  30.557  28.806  1.00  0.00     0.031 C 
ATOM     67  C   UNL A   1      48.567  30.800  27.257  1.00  0.00     0.029 A 
ATOM     68  C   UNL A   1      47.260  30.360  27.410  1.00  0.00     0.049 A 
ATOM     69  H   UNL A   1      46.410  28.516  26.846  1.00  0.00     0.167 HD
ATOM     70  C   UNL A   1      44.889  30.563  28.144  1.00  0.00     0.074 A 
ATOM     71  C   UNL A   1      43.803  31.281  28.780  1.00  0.00     0.031 C 
ATOM     72  C   UNL A   1      46.146  31.053  28.005  1.00  0.00     0.037 A 
BRANCH  59  73
ATOM     73  C   UNL A   1      50.154  27.194  25.301  1.00  0.00     0.064 A 
ATOM     74  C   UNL A   1      51.140  26.728  26.185  1.00  0.00     0.173 A 
ATOM     75  C   UNL A   1      50.517  27.396  23.961  1.00  0.00     0.173 A 
ATOM     76  F   UNL A   1      50.852  26.545  27.482  1.00  0.00    -0.203 F 
ATOM     77  C   UNL A   1      52.442  26.499  25.748  1.00  0.00     0.198 A 
ATOM     78  C   UNL A   1      51.812  27.136  23.522  1.00  0.00     0.198 A 
ATOM     79  F   UNL A   1      49.615  27.848  23.077  1.00  0.00    -0.203 F 
ATOM     80  F   UNL A   1      53.380  26.107  26.621  1.00  0.00    -0.200 F 
ATOM     81  C   UNL A   1      52.774  26.695  24.416  1.00  0.00     0.200 A 
ATOM     82  F   UNL A   1      52.129  27.318  22.233  1.00  0.00    -0.200 F 
ATOM     83  F   UNL A   1      54.027  26.469  23.997  1.00  0.00    -0.200 F 
ENDBRANCH  59  73
BRANCH  60  84
ATOM     84  C   UNL A   1      40.669  28.464  28.378  1.00  0.00     0.064 A 
ATOM     85  C   UNL A   1      39.658  28.972  27.550  1.00  0.00     0.173 A 
ATOM     86  C   UNL A   1      40.324  28.134  29.697  1.00  0.00     0.173 A 
ATOM     87  F   UNL A   1      39.940  29.323  26.287  1.00  0.00    -0.203 F 
ATOM     88  C   UNL A   1      38.361  29.159  28.026  1.00  0.00     0.198 A 
ATOM     89  C   UNL A   1      39.021  28.295  30.164  1.00  0.00     0.198 A 
ATOM     90  F   UNL A   1      41.252  27.644  30.531  1.00  0.00    -0.203 F 
ATOM     91  F   UNL A   1      37.425  29.685  27.225  1.00  0.00    -0.200 F 
ATOM     92  C   UNL A   1      38.042  28.814  29.331  1.00  0.00     0.200 A 
ATOM     93  F   UNL A   1      38.714  27.948  31.422  1.00  0.00    -0.200 F 
ATOM     94  F   UNL A   1      36.794  28.989  29.787  1.00  0.00    -0.200 F 
ENDBRANCH  60  84
BRANCH  72  95
ATOM     95  C   UNL A   1      46.402  32.451  28.481  1.00  0.00     0.064 A 
ATOM     96  C   UNL A   1      46.212  33.561  27.648  1.00  0.00     0.173 A 
ATOM     97  C   UNL A   1      46.749  32.680  29.822  1.00  0.00     0.173 A 
ATOM     98  F   UNL A   1      45.890  33.391  26.357  1.00  0.00    -0.203 F 
ATOM     99  C   UNL A   1      46.373  34.854  28.139  1.00  0.00     0.198 A 
ATOM    100  C   UNL A   1      46.880  33.973  30.316  1.00  0.00     0.198 A 
ATOM    101  F   UNL A   1      46.929  31.647  30.659  1.00  0.00    -0.203 F 
ATOM    102  F   UNL A   1      46.215  35.903  27.320  1.00  0.00    -0.200 F 
ATOM    103  C   UNL A   1      46.694  35.058  29.474  1.00  0.00     0.200 A 
ATOM    104  F   UNL A   1      47.172  34.168  31.608  1.00  0.00    -0.200 F 
ATOM    105  F   UNL A   1      46.826  36.305  29.948  1.00  0.00    -0.200 F 
ENDBRANCH  72  95
ENDBRANCH  46  47
ENDBRANCH  39  41
ENDBRANCH  38  39
ENDBRANCH  37  38
ENDBRANCH  36  37
ENDBRANCH  35  36
ENDBRANCH  34  35
ENDBRANCH  33  34
ENDBRANCH  32  33
ENDBRANCH   1  32
TORSDOF 25
ENDMDL
MODEL 2
REMARK VINA RESULT:      -9.8      4.787      7.510
REMARK SMILES COc1ccc(CNC(=O)[C@H]2CC(C)=C(C)C[C@@H]2C(=O)OCCOCCOCCOCCOC(=O)c2ccc(-c3c4nc(c(-c5c(F)c(F)c(F)c(F)c5F)c5ccc([nH]5)c(-c5c(F)c(F)c(F)c(F)c5F)c5nc(c(-c6c(F)c(F)c(F)c(F)c6F)c6ccc3[nH]6)C=C5)C=C4)cc2)cc1OC
REMARK SMILES IDX 26 1 25 2 24 3 23 4 22 5 21 6 19 7 20 8 18 9 11 10 12 11
REMARK SMILES IDX 13 12 17 13 14 14 15 15 16 16 9 17 8 18 10 20 7 21 6 22 3 23
REMARK SMILES IDX 4 24 100 25 5 26 99 27 2 28 1 29 101 30 102 31 27 32 28 33
REMARK SMILES IDX 29 34 30 35 31 36 32 37 33 38 34 39 35 40 36 41 37 42 98 43
REMARK SMILES IDX 38 44 97 45 39 46 40 47 41 48 91 49 42 50 96 51 90 52 92 53
REMARK SMILES IDX 43 54 95 55 89 56 88 57 44 59 76 60 56 61 75 62 57 63 60 64
REMARK SMILES IDX 74 65 93 66 58 67 59 68 73 70 94 71 61 72 45 73 46 74 54 75
REMARK SMILES IDX 47 76 48 77 52 78 55 79 49 80 50 81 53 82 51 83 77 84 78 85
REMARK SMILES IDX 86 86 79 87 80 88 84 89 87 90 81 91 82 92 85 93 83 94 62 95
REMARK SMILES IDX 63 96 71 97 64 98 65 99 69 100 72 101 66 102 67 103 70 104
REMARK SMILES IDX 68 105
REMARK H PARENT 8 19 92 58 60 69
REMARK Flexibility Score: inf
ROOT
ATOM      1  C   UNL A   1      39.299  22.674  25.999  1.00  0.00     0.188 C 
ENDROOT
BRANCH   1   2
ATOM      2  C   UNL A   1      38.263  23.558  26.644  1.00  0.00     0.188 C 
BRANCH   2   3
ATOM      3  O   UNL A   1      37.174  24.085  25.900  1.00  0.00    -0.376 OA
BRANCH   3   4
ATOM      4  C   UNL A   1      36.237  23.027  25.577  1.00  0.00     0.202 C 
BRANCH   4   5
ATOM      5  C   UNL A   1      35.891  22.861  24.070  1.00  0.00     0.261 C 
BRANCH   5   6
ATOM      6  O   UNL A   1      34.686  22.102  23.775  1.00  0.00    -0.463 OA
BRANCH   6   7
ATOM      7  C   UNL A   1      33.737  22.653  22.961  1.00  0.00     0.310 C 
ATOM      8  O   UNL A   1      33.996  23.263  21.934  1.00  0.00    -0.252 OA
BRANCH   7   9
ATOM      9  C   UNL A   1      32.339  22.152  23.379  1.00  0.00     0.116 C 
ATOM     10  C   UNL A   1      32.200  22.065  24.921  1.00  0.00     0.097 C 
ATOM     11  C   UNL A   1      32.354  20.630  25.449  1.00  0.00     0.045 C 
ATOM     12  C   UNL A   1      32.585  19.514  24.439  1.00  0.00    -0.074 C 
ATOM     13  C   UNL A   1      31.896  20.956  22.560  1.00  0.00     0.046 C 
ATOM     14  C   UNL A   1      33.027  18.216  25.057  1.00  0.00     0.039 C 
ATOM     15  C   UNL A   1      32.378  19.659  23.114  1.00  0.00    -0.073 C 
ATOM     16  C   UNL A   1      32.548  18.565  22.092  1.00  0.00     0.039 C 
BRANCH  10  17
ATOM     17  C   UNL A   1      30.860  22.673  25.369  1.00  0.00     0.224 C 
ATOM     18  N   UNL A   1      30.373  23.855  24.876  1.00  0.00    -0.352 N 
ATOM     19  H   UNL A   1      29.423  24.001  25.087  1.00  0.00     0.163 HD
ATOM     20  O   UNL A   1      30.137  22.063  26.163  1.00  0.00    -0.275 OA
BRANCH  18  21
ATOM     21  C   UNL A   1      30.967  24.947  24.103  1.00  0.00     0.151 C 
BRANCH  21  22
ATOM     22  C   UNL A   1      31.813  25.884  24.952  1.00  0.00    -0.025 A 
ATOM     23  C   UNL A   1      33.510  27.629  26.449  1.00  0.00     0.160 A 
ATOM     24  C   UNL A   1      33.952  26.375  26.029  1.00  0.00     0.051 A 
ATOM     25  C   UNL A   1      32.179  27.988  26.184  1.00  0.00     0.161 A 
ATOM     26  C   UNL A   1      33.101  25.503  25.334  1.00  0.00     0.009 A 
ATOM     27  C   UNL A   1      31.359  27.138  25.401  1.00  0.00     0.056 A 
BRANCH  23  28
ATOM     28  O   UNL A   1      34.317  28.547  27.065  1.00  0.00    -0.493 OA
ATOM     29  C   UNL A   1      35.295  29.225  26.288  1.00  0.00     0.278 C 
ENDBRANCH  23  28
BRANCH  25  30
ATOM     30  O   UNL A   1      31.553  29.136  26.617  1.00  0.00    -0.493 OA
ATOM     31  C   UNL A   1      31.645  30.274  25.757  1.00  0.00     0.278 C 
ENDBRANCH  25  30
ENDBRANCH  21  22
ENDBRANCH  18  21
ENDBRANCH  10  17
ENDBRANCH   7   9
ENDBRANCH   6   7
ENDBRANCH   5   6
ENDBRANCH   4   5
ENDBRANCH   3   4
ENDBRANCH   2   3
ENDBRANCH   1   2
BRANCH   1  32
ATOM     32  O   UNL A   1      39.686  21.626  26.864  1.00  0.00    -0.377 OA
BRANCH  32  33
ATOM     33  C   UNL A   1      40.709  21.986  27.777  1.00  0.00     0.188 C 
BRANCH  33  34
ATOM     34  C   UNL A   1      42.009  21.172  27.688  1.00  0.00     0.188 C 
BRANCH  34  35
ATOM     35  O   UNL A   1      42.519  20.724  26.433  1.00  0.00    -0.376 OA
BRANCH  35  36
ATOM     36  C   UNL A   1      43.574  21.404  25.763  1.00  0.00     0.202 C 
BRANCH  36  37
ATOM     37  C   UNL A   1      43.206  22.845  25.440  1.00  0.00     0.261 C 
BRANCH  37  38
ATOM     38  O   UNL A   1      44.039  23.709  26.225  1.00  0.00    -0.460 OA
BRANCH  38  39
ATOM     39  C   UNL A   1      44.170  24.971  25.746  1.00  0.00     0.338 C 
ATOM     40  O   UNL A   1      44.726  25.327  24.732  1.00  0.00    -0.246 OA
BRANCH  39  41
ATOM     41  C   UNL A   1      43.331  25.864  26.582  1.00  0.00     0.060 A 
ATOM     42  C   UNL A   1      43.289  27.229  26.248  1.00  0.00     0.016 A 
ATOM     43  C   UNL A   1      42.551  25.368  27.630  1.00  0.00     0.016 A 
ATOM     44  C   UNL A   1      42.523  28.111  27.004  1.00  0.00     0.010 A 
ATOM     45  C   UNL A   1      41.804  26.250  28.402  1.00  0.00     0.010 A 
ATOM     46  C   UNL A   1      41.843  27.626  28.125  1.00  0.00    -0.014 A 
BRANCH  46  47
ATOM     47  C   UNL A   1      41.485  28.548  29.219  1.00  0.00     0.031 A 
ATOM     48  C   UNL A   1      42.294  28.430  30.480  1.00  0.00     0.074 A 
ATOM     49  C   UNL A   1      40.446  29.390  29.121  1.00  0.00     0.049 A 
ATOM     50  N   UNL A   1      42.081  28.945  31.661  1.00  0.00    -0.248 NA
ATOM     51  C   UNL A   1      43.502  27.587  30.400  1.00  0.00     0.031 C 
ATOM     52  C   UNL A   1      39.634  29.601  27.926  1.00  0.00     0.029 A 
ATOM     53  N   UNL A   1      39.878  30.200  30.069  1.00  0.00    -0.354 N 
ATOM     54  C   UNL A   1      43.110  28.468  32.462  1.00  0.00     0.074 A 
ATOM     55  C   UNL A   1      43.936  27.610  31.648  1.00  0.00     0.031 C 
ATOM     56  C   UNL A   1      38.645  30.463  28.222  1.00  0.00     0.029 A 
ATOM     57  C   UNL A   1      38.734  30.822  29.637  1.00  0.00     0.049 A 
ATOM     58  H   UNL A   1      40.254  30.324  30.971  1.00  0.00     0.167 HD
ATOM     59  C   UNL A   1      43.338  28.724  33.769  1.00  0.00     0.037 A 
ATOM     60  C   UNL A   1      37.846  31.559  30.331  1.00  0.00     0.037 A 
ATOM     61  C   UNL A   1      42.494  29.571  34.563  1.00  0.00     0.049 A 
ATOM     62  C   UNL A   1      38.086  31.784  31.804  1.00  0.00     0.074 A 
ATOM     63  C   UNL A   1      42.620  29.913  35.895  1.00  0.00     0.029 A 
ATOM     64  N   UNL A   1      41.354  30.202  34.085  1.00  0.00    -0.354 N 
ATOM     65  N   UNL A   1      39.067  31.348  32.561  1.00  0.00    -0.248 NA
ATOM     66  C   UNL A   1      37.098  32.600  32.521  1.00  0.00     0.031 C 
ATOM     67  C   UNL A   1      41.529  30.718  36.235  1.00  0.00     0.029 A 
ATOM     68  C   UNL A   1      40.756  30.923  35.101  1.00  0.00     0.049 A 
ATOM     69  H   UNL A   1      41.021  30.145  33.160  1.00  0.00     0.167 HD
ATOM     70  C   UNL A   1      38.835  31.867  33.828  1.00  0.00     0.074 A 
ATOM     71  C   UNL A   1      37.619  32.650  33.739  1.00  0.00     0.031 C 
ATOM     72  C   UNL A   1      39.563  31.717  34.963  1.00  0.00     0.037 A 
BRANCH  59  73
ATOM     73  C   UNL A   1      44.515  28.052  34.412  1.00  0.00     0.064 A 
ATOM     74  C   UNL A   1      44.418  26.769  34.971  1.00  0.00     0.173 A 
ATOM     75  C   UNL A   1      45.757  28.702  34.472  1.00  0.00     0.173 A 
ATOM     76  F   UNL A   1      43.245  26.116  34.964  1.00  0.00    -0.203 F 
ATOM     77  C   UNL A   1      45.514  26.172  35.588  1.00  0.00     0.198 A 
ATOM     78  C   UNL A   1      46.858  28.089  35.063  1.00  0.00     0.198 A 
ATOM     79  F   UNL A   1      45.902  29.933  33.960  1.00  0.00    -0.203 F 
ATOM     80  F   UNL A   1      45.383  24.969  36.165  1.00  0.00    -0.200 F 
ATOM     81  C   UNL A   1      46.734  26.829  35.627  1.00  0.00     0.200 A 
ATOM     82  F   UNL A   1      48.039  28.723  35.091  1.00  0.00    -0.200 F 
ATOM     83  F   UNL A   1      47.789  26.251  36.218  1.00  0.00    -0.200 F 
ENDBRANCH  59  73
BRANCH  60  84
ATOM     84  C   UNL A   1      36.650  32.121  29.652  1.00  0.00     0.064 A 
ATOM     85  C   UNL A   1      36.570  33.487  29.351  1.00  0.00     0.173 A 
ATOM     86  C   UNL A   1      35.563  31.310  29.293  1.00  0.00     0.173 A 
ATOM     87  F   UNL A   1      37.574  34.308  29.692  1.00  0.00    -0.203 F 
ATOM     88  C   UNL A   1      35.442  34.024  28.731  1.00  0.00     0.198 A 
ATOM     89  C   UNL A   1      34.448  31.843  28.648  1.00  0.00     0.198 A 
ATOM     90  F   UNL A   1      35.588  29.996  29.558  1.00  0.00    -0.203 F 
ATOM     91  F   UNL A   1      35.375  35.340  28.493  1.00  0.00    -0.200 F 
ATOM     92  C   UNL A   1      34.385  33.200  28.375  1.00  0.00     0.200 A 
ATOM     93  F   UNL A   1      33.434  31.041  28.294  1.00  0.00    -0.200 F 
ATOM     94  F   UNL A   1      33.304  33.716  27.774  1.00  0.00    -0.200 F 
ENDBRANCH  60  84
BRANCH  72  95
ATOM     95  C   UNL A   1      39.111  32.467  36.180  1.00  0.00     0.064 A 
ATOM     96  C   UNL A   1      38.271  31.882  37.137  1.00  0.00     0.173 A 
ATOM     97  C   UNL A   1      39.609  33.754  36.433  1.00  0.00     0.173 A 
ATOM     98  F   UNL A   1      37.762  30.658  36.934  1.00  0.00    -0.203 F 
ATOM     99  C   UNL A   1      37.935  32.569  38.302  1.00  0.00     0.198 A 
ATOM    100  C   UNL A   1      39.295  34.424  37.610  1.00  0.00     0.198 A 
ATOM    101  F   UNL A   1      40.426  34.348  35.550  1.00  0.00    -0.203 F 
ATOM    102  F   UNL A   1      37.107  32.005  39.192  1.00  0.00    -0.200 F 
ATOM    103  C   UNL A   1      38.458  33.832  38.542  1.00  0.00     0.200 A 
ATOM    104  F   UNL A   1      39.815  35.635  37.849  1.00  0.00    -0.200 F 
ATOM    105  F   UNL A   1      38.149  34.480  39.674  1.00  0.00    -0.200 F 
ENDBRANCH  72  95
ENDBRANCH  46  47
ENDBRANCH  39  41
ENDBRANCH  38  39
ENDBRANCH  37  38
ENDBRANCH  36  37
ENDBRANCH  35  36
ENDBRANCH  34  35
ENDBRANCH  33  34
ENDBRANCH  32  33
ENDBRANCH   1  32
TORSDOF 25
ENDMDL
MODEL 3
REMARK VINA RESULT:      -9.1      5.813     11.280
REMARK SMILES COc1ccc(CNC(=O)[C@H]2CC(C)=C(C)C[C@@H]2C(=O)OCCOCCOCCOCCOC(=O)c2ccc(-c3c4nc(c(-c5c(F)c(F)c(F)c(F)c5F)c5ccc([nH]5)c(-c5c(F)c(F)c(F)c(F)c5F)c5nc(c(-c6c(F)c(F)c(F)c(F)c6F)c6ccc3[nH]6)C=C5)C=C4)cc2)cc1OC
REMARK SMILES IDX 26 1 25 2 24 3 23 4 22 5 21 6 19 7 20 8 18 9 11 10 12 11
REMARK SMILES IDX 13 12 17 13 14 14 15 15 16 16 9 17 8 18 10 20 7 21 6 22 3 23
REMARK SMILES IDX 4 24 100 25 5 26 99 27 2 28 1 29 101 30 102 31 27 32 28 33
REMARK SMILES IDX 29 34 30 35 31 36 32 37 33 38 34 39 35 40 36 41 37 42 98 43
REMARK SMILES IDX 38 44 97 45 39 46 40 47 41 48 91 49 42 50 96 51 90 52 92 53
REMARK SMILES IDX 43 54 95 55 89 56 88 57 44 59 76 60 56 61 75 62 57 63 60 64
REMARK SMILES IDX 74 65 93 66 58 67 59 68 73 70 94 71 61 72 45 73 46 74 54 75
REMARK SMILES IDX 47 76 48 77 52 78 55 79 49 80 50 81 53 82 51 83 77 84 78 85
REMARK SMILES IDX 86 86 79 87 80 88 84 89 87 90 81 91 82 92 85 93 83 94 62 95
REMARK SMILES IDX 63 96 71 97 64 98 65 99 69 100 72 101 66 102 67 103 70 104
REMARK SMILES IDX 68 105
REMARK H PARENT 8 19 92 58 60 69
REMARK Flexibility Score: inf
ROOT
ATOM      1  C   UNL A   1      33.874  24.502  25.779  1.00  0.00     0.188 C 
ENDROOT
BRANCH   1   2
ATOM      2  C   UNL A   1      34.434  23.469  24.835  1.00  0.00     0.188 C 
BRANCH   2   3
ATOM      3  O   UNL A   1      35.683  23.660  24.188  1.00  0.00    -0.376 OA
BRANCH   3   4
ATOM      4  C   UNL A   1      36.743  23.750  25.172  1.00  0.00     0.202 C 
BRANCH   4   5
ATOM      5  C   UNL A   1      37.394  22.404  25.597  1.00  0.00     0.261 C 
BRANCH   5   6
ATOM      6  O   UNL A   1      38.754  22.487  26.104  1.00  0.00    -0.463 OA
BRANCH   6   7
ATOM      7  C   UNL A   1      39.492  21.343  26.219  1.00  0.00     0.310 C 
ATOM      8  O   UNL A   1      39.368  20.379  25.477  1.00  0.00    -0.252 OA
BRANCH   7   9
ATOM      9  C   UNL A   1      40.652  21.569  27.210  1.00  0.00     0.116 C 
ATOM     10  C   UNL A   1      41.540  22.768  26.787  1.00  0.00     0.097 C 
ATOM     11  C   UNL A   1      42.840  22.326  26.097  1.00  0.00     0.045 C 
ATOM     12  C   UNL A   1      43.101  20.834  25.944  1.00  0.00    -0.074 C 
ATOM     13  C   UNL A   1      41.343  20.272  27.581  1.00  0.00     0.046 C 
ATOM     14  C   UNL A   1      44.224  20.506  24.999  1.00  0.00     0.039 C 
ATOM     15  C   UNL A   1      42.417  19.889  26.622  1.00  0.00    -0.073 C 
ATOM     16  C   UNL A   1      42.680  18.408  26.534  1.00  0.00     0.039 C 
BRANCH  10  17
ATOM     17  C   UNL A   1      41.840  23.662  28.003  1.00  0.00     0.224 C 
ATOM     18  N   UNL A   1      41.028  24.693  28.391  1.00  0.00    -0.352 N 
ATOM     19  H   UNL A   1      41.229  25.025  29.296  1.00  0.00     0.163 HD
ATOM     20  O   UNL A   1      42.820  23.427  28.717  1.00  0.00    -0.275 OA
BRANCH  18  21
ATOM     21  C   UNL A   1      39.924  25.407  27.747  1.00  0.00     0.151 C 
BRANCH  21  22
ATOM     22  C   UNL A   1      39.499  26.654  28.506  1.00  0.00    -0.025 A 
ATOM     23  C   UNL A   1      38.823  28.987  30.012  1.00  0.00     0.160 A 
ATOM     24  C   UNL A   1      39.193  27.801  30.644  1.00  0.00     0.051 A 
ATOM     25  C   UNL A   1      38.716  28.989  28.612  1.00  0.00     0.161 A 
ATOM     26  C   UNL A   1      39.480  26.645  29.903  1.00  0.00     0.009 A 
ATOM     27  C   UNL A   1      39.098  27.844  27.871  1.00  0.00     0.056 A 
BRANCH  23  28
ATOM     28  O   UNL A   1      38.603  30.162  30.678  1.00  0.00    -0.493 OA
ATOM     29  C   UNL A   1      39.529  30.561  31.680  1.00  0.00     0.278 C 
ENDBRANCH  23  28
BRANCH  25  30
ATOM     30  O   UNL A   1      38.265  30.037  27.840  1.00  0.00    -0.493 OA
ATOM     31  C   UNL A   1      36.884  30.007  27.471  1.00  0.00     0.278 C 
ENDBRANCH  25  30
ENDBRANCH  21  22
ENDBRANCH  18  21
ENDBRANCH  10  17
ENDBRANCH   7   9
ENDBRANCH   6   7
ENDBRANCH   5   6
ENDBRANCH   4   5
ENDBRANCH   3   4
ENDBRANCH   2   3
ENDBRANCH   1   2
BRANCH   1  32
ATOM     32  O   UNL A   1      33.105  25.464  25.087  1.00  0.00    -0.377 OA
BRANCH  32  33
ATOM     33  C   UNL A   1      33.400  26.801  25.450  1.00  0.00     0.188 C 
BRANCH  33  34
ATOM     34  C   UNL A   1      32.454  27.876  24.893  1.00  0.00     0.188 C 
BRANCH  34  35
ATOM     35  O   UNL A   1      32.539  29.234  25.324  1.00  0.00    -0.376 OA
BRANCH  35  36
ATOM     36  C   UNL A   1      33.279  29.612  26.480  1.00  0.00     0.202 C 
BRANCH  36  37
ATOM     37  C   UNL A   1      32.781  30.924  27.069  1.00  0.00     0.261 C 
BRANCH  37  38
ATOM     38  O   UNL A   1      33.904  31.626  27.618  1.00  0.00    -0.460 OA
BRANCH  38  39
ATOM     39  C   UNL A   1      33.622  32.844  28.142  1.00  0.00     0.338 C 
ATOM     40  O   UNL A   1      32.708  33.583  27.854  1.00  0.00    -0.246 OA
BRANCH  39  41
ATOM     41  C   UNL A   1      34.520  33.061  29.302  1.00  0.00     0.060 A 
ATOM     42  C   UNL A   1      34.561  34.345  29.871  1.00  0.00     0.016 A 
ATOM     43  C   UNL A   1      35.258  32.014  29.863  1.00  0.00     0.016 A 
ATOM     44  C   UNL A   1      35.392  34.604  30.957  1.00  0.00     0.010 A 
ATOM     45  C   UNL A   1      36.108  32.275  30.932  1.00  0.00     0.010 A 
ATOM     46  C   UNL A   1      36.219  33.581  31.434  1.00  0.00    -0.014 A 
BRANCH  46  47
ATOM     47  C   UNL A   1      37.448  33.920  32.176  1.00  0.00     0.031 A 
ATOM     48  C   UNL A   1      38.678  34.169  31.348  1.00  0.00     0.074 A 
ATOM     49  C   UNL A   1      37.482  33.930  33.516  1.00  0.00     0.049 A 
ATOM     50  N   UNL A   1      39.925  34.274  31.717  1.00  0.00    -0.248 NA
ATOM     51  C   UNL A   1      38.468  34.288  29.893  1.00  0.00     0.031 C 
ATOM     52  C   UNL A   1      36.333  33.743  34.396  1.00  0.00     0.029 A 
ATOM     53  N   UNL A   1      38.547  34.070  34.367  1.00  0.00    -0.354 N 
ATOM     54  C   UNL A   1      40.644  34.445  30.541  1.00  0.00     0.074 A 
ATOM     55  C   UNL A   1      39.706  34.411  29.446  1.00  0.00     0.031 C 
ATOM     56  C   UNL A   1      36.760  33.747  35.672  1.00  0.00     0.029 A 
ATOM     57  C   UNL A   1      38.215  33.890  35.686  1.00  0.00     0.049 A 
ATOM     58  H   UNL A   1      39.460  34.281  34.062  1.00  0.00     0.167 HD
ATOM     59  C   UNL A   1      41.977  34.611  30.394  1.00  0.00     0.037 A 
ATOM     60  C   UNL A   1      39.015  33.808  36.766  1.00  0.00     0.037 A 
ATOM     61  C   UNL A   1      42.894  34.627  31.498  1.00  0.00     0.049 A 
ATOM     62  C   UNL A   1      40.508  33.935  36.574  1.00  0.00     0.074 A 
ATOM     63  C   UNL A   1      44.265  34.793  31.480  1.00  0.00     0.029 A 
ATOM     64  N   UNL A   1      42.519  34.462  32.824  1.00  0.00    -0.354 N 
ATOM     65  N   UNL A   1      41.189  34.113  35.465  1.00  0.00    -0.248 NA
ATOM     66  C   UNL A   1      41.342  33.848  37.778  1.00  0.00     0.031 C 
ATOM     67  C   UNL A   1      44.726  34.682  32.796  1.00  0.00     0.029 A 
ATOM     68  C   UNL A   1      43.635  34.507  33.636  1.00  0.00     0.049 A 
ATOM     69  H   UNL A   1      41.594  34.333  33.139  1.00  0.00     0.167 HD
ATOM     70  C   UNL A   1      42.522  34.199  35.842  1.00  0.00     0.074 A 
ATOM     71  C   UNL A   1      42.556  34.051  37.283  1.00  0.00     0.031 C 
ATOM     72  C   UNL A   1      43.622  34.388  35.072  1.00  0.00     0.037 A 
BRANCH  59  73
ATOM     73  C   UNL A   1      42.508  34.746  28.998  1.00  0.00     0.064 A 
ATOM     74  C   UNL A   1      43.195  33.698  28.364  1.00  0.00     0.173 A 
ATOM     75  C   UNL A   1      42.331  35.941  28.284  1.00  0.00     0.173 A 
ATOM     76  F   UNL A   1      43.414  32.545  29.013  1.00  0.00    -0.203 F 
ATOM     77  C   UNL A   1      43.705  33.852  27.078  1.00  0.00     0.198 A 
ATOM     78  C   UNL A   1      42.816  36.079  26.986  1.00  0.00     0.198 A 
ATOM     79  F   UNL A   1      41.689  36.975  28.846  1.00  0.00    -0.203 F 
ATOM     80  F   UNL A   1      44.405  32.857  26.514  1.00  0.00    -0.200 F 
ATOM     81  C   UNL A   1      43.509  35.038  26.388  1.00  0.00     0.200 A 
ATOM     82  F   UNL A   1      42.617  37.223  26.318  1.00  0.00    -0.200 F 
ATOM     83  F   UNL A   1      43.997  35.182  25.148  1.00  0.00    -0.200 F 
ENDBRANCH  59  73
BRANCH  60  84
ATOM     84  C   UNL A   1      38.431  33.581  38.112  1.00  0.00     0.064 A 
ATOM     85  C   UNL A   1      38.409  34.605  39.069  1.00  0.00     0.173 A 
ATOM     86  C   UNL A   1      37.884  32.341  38.474  1.00  0.00     0.173 A 
ATOM     87  F   UNL A   1      38.938  35.803  38.779  1.00  0.00    -0.203 F 
ATOM     88  C   UNL A   1      37.878  34.393  40.341  1.00  0.00     0.198 A 
ATOM     89  C   UNL A   1      37.329  32.138  39.736  1.00  0.00     0.198 A 
ATOM     90  F   UNL A   1      37.879  31.327  37.597  1.00  0.00    -0.203 F 
ATOM     91  F   UNL A   1      37.909  35.377  41.249  1.00  0.00    -0.200 F 
ATOM     92  C   UNL A   1      37.333  33.162  40.671  1.00  0.00     0.200 A 
ATOM     93  F   UNL A   1      36.791  30.951  40.047  1.00  0.00    -0.200 F 
ATOM     94  F   UNL A   1      36.819  32.960  41.892  1.00  0.00    -0.200 F 
ENDBRANCH  60  84
BRANCH  72  95
ATOM     95  C   UNL A   1      44.943  34.519  35.768  1.00  0.00     0.064 A 
ATOM     96  C   UNL A   1      45.781  33.416  35.975  1.00  0.00     0.173 A 
ATOM     97  C   UNL A   1      45.412  35.788  36.144  1.00  0.00     0.173 A 
ATOM     98  F   UNL A   1      45.372  32.183  35.641  1.00  0.00    -0.203 F 
ATOM     99  C   UNL A   1      47.041  33.578  36.546  1.00  0.00     0.198 A 
ATOM    100  C   UNL A   1      46.682  35.949  36.687  1.00  0.00     0.198 A 
ATOM    101  F   UNL A   1      44.648  36.874  35.953  1.00  0.00    -0.203 F 
ATOM    102  F   UNL A   1      47.817  32.507  36.763  1.00  0.00    -0.200 F 
ATOM    103  C   UNL A   1      47.493  34.844  36.889  1.00  0.00     0.200 A 
ATOM    104  F   UNL A   1      47.124  37.173  37.001  1.00  0.00    -0.200 F 
ATOM    105  F   UNL A   1      48.715  34.998  37.419  1.00  0.00    -0.200 F 
ENDBRANCH  72  95
ENDBRANCH  46  47
ENDBRANCH  39  41
ENDBRANCH  38  39
ENDBRANCH  37  38
ENDBRANCH  36  37
ENDBRANCH  35  36
ENDBRANCH  34  35
ENDBRANCH  33  34
ENDBRANCH  32  33
ENDBRANCH   1  32
TORSDOF 25
ENDMDL
