MODEL 1
REMARK VINA RESULT:     -10.1      0.000      0.000
REMARK SMILES CC(C)[C@H](NC(N)=O)C(=O)N[C@H](C)C(=O)OCCOCCOCCOCCOC(=O)c1ccc(-c2c3nc(c(-c4c(F)c(F)c(F)c(F)c4F)c4ccc([nH]4)c(-c4c(F)c(F)c(F)c(F)c4F)c4nc(c(-c5c(F)c(F)c(F)c(F)c5F)c5ccc2[nH]5)C=C4)C=C3)cc1
REMARK SMILES IDX 21 1 20 2 19 3 18 4 17 5 16 6 14 7 15 8 12 9 13 10 11 11
REMARK SMILES IDX 9 12 10 13 4 15 2 16 1 17 3 18 5 19 6 20 7 22 8 23 22 26
REMARK SMILES IDX 23 27 24 28 25 29 26 30 27 31 28 32 29 33 30 34 31 35 32 36
REMARK SMILES IDX 93 37 33 38 92 39 34 40 35 41 36 42 86 43 37 44 91 45 85 46
REMARK SMILES IDX 87 47 38 48 90 49 84 50 83 51 39 53 71 54 51 55 70 56 52 57
REMARK SMILES IDX 55 58 69 59 88 60 53 61 54 62 68 64 89 65 56 66 40 67 41 68
REMARK SMILES IDX 49 69 42 70 43 71 47 72 50 73 44 74 45 75 48 76 46 77 72 78
REMARK SMILES IDX 73 79 81 80 74 81 75 82 79 83 82 84 76 85 77 86 80 87 78 88
REMARK SMILES IDX 57 89 58 90 66 91 59 92 60 93 64 94 67 95 61 96 62 97 65 98
REMARK SMILES IDX 63 99
REMARK H PARENT 11 14 5 21 7 24 7 25 87 52 55 63
REMARK Flexibility Score: inf
ROOT
ATOM      1  C   UNL A   1      37.658  21.901  25.611  1.00  0.00     0.188 C 
ENDROOT
BRANCH   1   2
ATOM      2  C   UNL A   1      36.714  20.855  24.994  1.00  0.00     0.188 C 
BRANCH   2   3
ATOM      3  O   UNL A   1      35.367  20.979  25.416  1.00  0.00    -0.376 OA
BRANCH   3   4
ATOM      4  C   UNL A   1      34.458  20.021  24.923  1.00  0.00     0.202 C 
BRANCH   4   5
ATOM      5  C   UNL A   1      33.099  19.916  25.611  1.00  0.00     0.261 C 
BRANCH   5   6
ATOM      6  O   UNL A   1      31.947  20.723  25.221  1.00  0.00    -0.462 OA
BRANCH   6   7
ATOM      7  C   UNL A   1      31.930  21.893  24.533  1.00  0.00     0.328 C 
ATOM      8  O   UNL A   1      31.903  22.016  23.318  1.00  0.00    -0.250 OA
BRANCH   7   9
ATOM      9  C   UNL A   1      32.127  23.081  25.485  1.00  0.00     0.189 C 
ATOM     10  C   UNL A   1      31.291  23.073  26.759  1.00  0.00     0.043 C 
BRANCH   9  11
ATOM     11  N   UNL A   1      33.528  23.475  25.684  1.00  0.00    -0.341 N 
ATOM     12  C   UNL A   1      34.292  24.555  25.364  1.00  0.00     0.243 C 
ATOM     13  O   UNL A   1      35.498  24.434  25.615  1.00  0.00    -0.273 OA
ATOM     14  H   UNL A   1      34.041  22.788  26.166  1.00  0.00     0.164 HD
BRANCH  12  15
ATOM     15  C   UNL A   1      33.749  25.931  24.909  1.00  0.00     0.175 C 
BRANCH  15  16
ATOM     16  C   UNL A   1      33.304  26.904  26.066  1.00  0.00     0.015 C 
ATOM     17  C   UNL A   1      34.055  28.197  26.373  1.00  0.00     0.010 C 
ATOM     18  C   UNL A   1      31.871  27.391  25.817  1.00  0.00     0.010 C 
ENDBRANCH  15  16
BRANCH  15  19
ATOM     19  N   UNL A   1      32.847  25.782  23.767  1.00  0.00    -0.326 N 
ATOM     20  C   UNL A   1      33.148  25.103  22.626  1.00  0.00     0.312 C 
ATOM     21  H   UNL A   1      31.959  26.202  23.828  1.00  0.00     0.166 HD
ATOM     22  N   UNL A   1      32.053  24.847  21.864  1.00  0.00    -0.352 N 
ATOM     23  O   UNL A   1      34.258  24.730  22.285  1.00  0.00    -0.249 OA
ATOM     24  H   UNL A   1      31.165  25.158  22.157  1.00  0.00     0.161 HD
ATOM     25  H   UNL A   1      32.147  24.352  21.018  1.00  0.00     0.161 HD
ENDBRANCH  15  19
ENDBRANCH  12  15
ENDBRANCH   9  11
ENDBRANCH   7   9
ENDBRANCH   6   7
ENDBRANCH   5   6
ENDBRANCH   4   5
ENDBRANCH   3   4
ENDBRANCH   2   3
ENDBRANCH   1   2
BRANCH   1  26
ATOM     26  O   UNL A   1      38.954  21.455  25.995  1.00  0.00    -0.377 OA
BRANCH  26  27
ATOM     27  C   UNL A   1      39.368  20.119  25.703  1.00  0.00     0.188 C 
BRANCH  27  28
ATOM     28  C   UNL A   1      40.743  19.579  26.137  1.00  0.00     0.188 C 
BRANCH  28  29
ATOM     29  O   UNL A   1      41.240  20.166  27.321  1.00  0.00    -0.376 OA
BRANCH  29  30
ATOM     30  C   UNL A   1      42.283  21.115  27.194  1.00  0.00     0.202 C 
BRANCH  30  31
ATOM     31  C   UNL A   1      42.716  21.521  25.775  1.00  0.00     0.261 C 
BRANCH  31  32
ATOM     32  O   UNL A   1      42.288  22.807  25.280  1.00  0.00    -0.460 OA
BRANCH  32  33
ATOM     33  C   UNL A   1      43.143  23.851  25.271  1.00  0.00     0.338 C 
ATOM     34  O   UNL A   1      44.105  24.010  24.540  1.00  0.00    -0.246 OA
BRANCH  33  35
ATOM     35  C   UNL A   1      42.578  24.899  26.159  1.00  0.00     0.060 A 
ATOM     36  C   UNL A   1      43.051  26.219  26.066  1.00  0.00     0.016 A 
ATOM     37  C   UNL A   1      41.558  24.587  27.059  1.00  0.00     0.016 A 
ATOM     38  C   UNL A   1      42.526  27.219  26.891  1.00  0.00     0.010 A 
ATOM     39  C   UNL A   1      41.060  25.580  27.908  1.00  0.00     0.010 A 
ATOM     40  C   UNL A   1      41.561  26.893  27.850  1.00  0.00    -0.014 A 
BRANCH  40  41
ATOM     41  C   UNL A   1      41.234  27.845  28.943  1.00  0.00     0.031 A 
ATOM     42  C   UNL A   1      42.039  27.763  30.211  1.00  0.00     0.074 A 
ATOM     43  C   UNL A   1      40.243  28.747  28.831  1.00  0.00     0.049 A 
ATOM     44  N   UNL A   1      41.865  28.376  31.354  1.00  0.00    -0.248 NA
ATOM     45  C   UNL A   1      43.198  26.857  30.183  1.00  0.00     0.031 C 
ATOM     46  C   UNL A   1      39.433  28.977  27.638  1.00  0.00     0.029 A 
ATOM     47  N   UNL A   1      39.738  29.629  29.758  1.00  0.00    -0.354 N 
ATOM     48  C   UNL A   1      42.883  27.919  32.182  1.00  0.00     0.074 A 
ATOM     49  C   UNL A   1      43.656  26.962  31.421  1.00  0.00     0.031 C 
ATOM     50  C   UNL A   1      38.513  29.918  27.912  1.00  0.00     0.029 A 
ATOM     51  C   UNL A   1      38.641  30.325  29.313  1.00  0.00     0.049 A 
ATOM     52  H   UNL A   1      40.127  29.751  30.654  1.00  0.00     0.167 HD
ATOM     53  C   UNL A   1      43.148  28.266  33.464  1.00  0.00     0.037 A 
ATOM     54  C   UNL A   1      37.816  31.161  29.974  1.00  0.00     0.037 A 
ATOM     55  C   UNL A   1      42.375  29.213  34.221  1.00  0.00     0.049 A 
ATOM     56  C   UNL A   1      38.069  31.454  31.434  1.00  0.00     0.074 A 
ATOM     57  C   UNL A   1      42.570  29.645  35.521  1.00  0.00     0.029 A 
ATOM     58  N   UNL A   1      41.245  29.865  33.749  1.00  0.00    -0.354 N 
ATOM     59  N   UNL A   1      39.038  31.032  32.210  1.00  0.00    -0.248 NA
ATOM     60  C   UNL A   1      37.107  32.338  32.111  1.00  0.00     0.031 C 
ATOM     61  C   UNL A   1      41.524  30.509  35.856  1.00  0.00     0.029 A 
ATOM     62  C   UNL A   1      40.711  30.667  34.745  1.00  0.00     0.049 A 
ATOM     63  H   UNL A   1      40.877  29.772  32.841  1.00  0.00     0.167 HD
ATOM     64  C   UNL A   1      38.817  31.614  33.454  1.00  0.00     0.074 A 
ATOM     65  C   UNL A   1      37.632  32.436  33.325  1.00  0.00     0.031 C 
ATOM     66  C   UNL A   1      39.530  31.481  34.601  1.00  0.00     0.037 A 
BRANCH  53  67
ATOM     67  C   UNL A   1      44.302  27.585  34.142  1.00  0.00     0.064 A 
ATOM     68  C   UNL A   1      45.586  28.150  34.166  1.00  0.00     0.173 A 
ATOM     69  C   UNL A   1      44.111  26.361  34.802  1.00  0.00     0.173 A 
ATOM     70  F   UNL A   1      45.826  29.309  33.535  1.00  0.00    -0.203 F 
ATOM     71  C   UNL A   1      46.642  27.500  34.801  1.00  0.00     0.198 A 
ATOM     72  C   UNL A   1      45.162  25.732  35.464  1.00  0.00     0.198 A 
ATOM     73  F   UNL A   1      42.904  25.779  34.811  1.00  0.00    -0.203 F 
ATOM     74  F   UNL A   1      47.872  28.033  34.766  1.00  0.00    -0.200 F 
ATOM     75  C   UNL A   1      46.428  26.297  35.456  1.00  0.00     0.200 A 
ATOM     76  F   UNL A   1      44.949  24.575  36.107  1.00  0.00    -0.200 F 
ATOM     77  F   UNL A   1      47.442  25.678  36.074  1.00  0.00    -0.200 F 
ENDBRANCH  53  67
BRANCH  54  78
ATOM     78  C   UNL A   1      36.641  31.756  29.279  1.00  0.00     0.064 A 
ATOM     79  C   UNL A   1      36.600  33.120  28.960  1.00  0.00     0.173 A 
ATOM     80  C   UNL A   1      35.515  30.981  28.956  1.00  0.00     0.173 A 
ATOM     81  F   UNL A   1      37.635  33.913  29.280  1.00  0.00    -0.203 F 
ATOM     82  C   UNL A   1      35.476  33.690  28.365  1.00  0.00     0.198 A 
ATOM     83  C   UNL A   1      34.403  31.545  28.334  1.00  0.00     0.198 A 
ATOM     84  F   UNL A   1      35.496  29.672  29.250  1.00  0.00    -0.203 F 
ATOM     85  F   UNL A   1      35.443  35.009  28.126  1.00  0.00    -0.200 F 
ATOM     86  C   UNL A   1      34.380  32.901  28.047  1.00  0.00     0.200 A 
ATOM     87  F   UNL A   1      33.347  30.778  28.033  1.00  0.00    -0.200 F 
ATOM     88  F   UNL A   1      33.296  33.453  27.484  1.00  0.00    -0.200 F 
ENDBRANCH  54  78
BRANCH  66  89
ATOM     89  C   UNL A   1      39.067  32.255  35.803  1.00  0.00     0.064 A 
ATOM     90  C   UNL A   1      38.284  31.664  36.806  1.00  0.00     0.173 A 
ATOM     91  C   UNL A   1      39.456  33.593  35.981  1.00  0.00     0.173 A 
ATOM     92  F   UNL A   1      37.876  30.392  36.680  1.00  0.00    -0.203 F 
ATOM     93  C   UNL A   1      37.888  32.388  37.928  1.00  0.00     0.198 A 
ATOM     94  C   UNL A   1      39.088  34.304  37.120  1.00  0.00     0.198 A 
ATOM     95  F   UNL A   1      40.214  34.206  35.059  1.00  0.00    -0.203 F 
ATOM     96  F   UNL A   1      37.102  31.815  38.849  1.00  0.00    -0.200 F 
ATOM     97  C   UNL A   1      38.298  33.703  38.089  1.00  0.00     0.200 A 
ATOM     98  F   UNL A   1      39.500  35.568  37.282  1.00  0.00    -0.200 F 
ATOM     99  F   UNL A   1      37.926  34.394  39.175  1.00  0.00    -0.200 F 
ENDBRANCH  66  89
ENDBRANCH  40  41
ENDBRANCH  33  35
ENDBRANCH  32  33
ENDBRANCH  31  32
ENDBRANCH  30  31
ENDBRANCH  29  30
ENDBRANCH  28  29
ENDBRANCH  27  28
ENDBRANCH  26  27
ENDBRANCH   1  26
TORSDOF 24
ENDMDL
MODEL 2
REMARK VINA RESULT:      -8.6      1.927      2.726
REMARK SMILES CC(C)[C@H](NC(N)=O)C(=O)N[C@H](C)C(=O)OCCOCCOCCOCCOC(=O)c1ccc(-c2c3nc(c(-c4c(F)c(F)c(F)c(F)c4F)c4ccc([nH]4)c(-c4c(F)c(F)c(F)c(F)c4F)c4nc(c(-c5c(F)c(F)c(F)c(F)c5F)c5ccc2[nH]5)C=C4)C=C3)cc1
REMARK SMILES IDX 21 1 20 2 19 3 18 4 17 5 16 6 14 7 15 8 12 9 13 10 11 11
REMARK SMILES IDX 9 12 10 13 4 15 2 16 1 17 3 18 5 19 6 20 7 22 8 23 22 26
REMARK SMILES IDX 23 27 24 28 25 29 26 30 27 31 28 32 29 33 30 34 31 35 32 36
REMARK SMILES IDX 93 37 33 38 92 39 34 40 35 41 36 42 86 43 37 44 91 45 85 46
REMARK SMILES IDX 87 47 38 48 90 49 84 50 83 51 39 53 71 54 51 55 70 56 52 57
REMARK SMILES IDX 55 58 69 59 88 60 53 61 54 62 68 64 89 65 56 66 40 67 41 68
REMARK SMILES IDX 49 69 42 70 43 71 47 72 50 73 44 74 45 75 48 76 46 77 72 78
REMARK SMILES IDX 73 79 81 80 74 81 75 82 79 83 82 84 76 85 77 86 80 87 78 88
REMARK SMILES IDX 57 89 58 90 66 91 59 92 60 93 64 94 67 95 61 96 62 97 65 98
REMARK SMILES IDX 63 99
REMARK H PARENT 11 14 5 21 7 24 7 25 87 52 55 63
REMARK Flexibility Score: inf
ROOT
ATOM      1  C   UNL A   1      39.330  21.678  26.510  1.00  0.00     0.188 C 
ENDROOT
BRANCH   1   2
ATOM      2  C   UNL A   1      39.339  23.216  26.504  1.00  0.00     0.188 C 
BRANCH   2   3
ATOM      3  O   UNL A   1      38.049  23.797  26.443  1.00  0.00    -0.376 OA
BRANCH   3   4
ATOM      4  C   UNL A   1      37.105  23.157  25.614  1.00  0.00     0.202 C 
BRANCH   4   5
ATOM      5  C   UNL A   1      35.840  23.933  25.254  1.00  0.00     0.261 C 
BRANCH   5   6
ATOM      6  O   UNL A   1      34.718  24.096  26.173  1.00  0.00    -0.462 OA
BRANCH   6   7
ATOM      7  C   UNL A   1      33.697  23.236  26.418  1.00  0.00     0.328 C 
ATOM      8  O   UNL A   1      33.767  22.194  27.052  1.00  0.00    -0.250 OA
BRANCH   7   9
ATOM      9  C   UNL A   1      32.442  23.653  25.638  1.00  0.00     0.189 C 
ATOM     10  C   UNL A   1      31.599  22.523  25.060  1.00  0.00     0.043 C 
BRANCH   9  11
ATOM     11  N   UNL A   1      31.664  24.727  26.269  1.00  0.00    -0.341 N 
ATOM     12  C   UNL A   1      31.302  25.996  25.933  1.00  0.00     0.243 C 
ATOM     13  O   UNL A   1      30.728  26.629  26.828  1.00  0.00    -0.273 OA
ATOM     14  H   UNL A   1      31.320  24.466  27.153  1.00  0.00     0.164 HD
BRANCH  12  15
ATOM     15  C   UNL A   1      31.386  26.602  24.510  1.00  0.00     0.175 C 
BRANCH  15  16
ATOM     16  C   UNL A   1      32.812  27.102  24.066  1.00  0.00     0.015 C 
ATOM     17  C   UNL A   1      33.933  27.354  25.072  1.00  0.00     0.010 C 
ATOM     18  C   UNL A   1      33.441  26.094  23.096  1.00  0.00     0.010 C 
ENDBRANCH  15  16
BRANCH  15  19
ATOM     19  N   UNL A   1      30.250  27.488  24.256  1.00  0.00    -0.326 N 
ATOM     20  C   UNL A   1      29.842  27.889  23.021  1.00  0.00     0.312 C 
ATOM     21  H   UNL A   1      29.743  27.816  25.034  1.00  0.00     0.166 HD
ATOM     22  N   UNL A   1      28.600  28.441  23.033  1.00  0.00    -0.352 N 
ATOM     23  O   UNL A   1      30.475  27.777  21.985  1.00  0.00    -0.249 OA
ATOM     24  H   UNL A   1      28.105  28.523  23.880  1.00  0.00     0.161 HD
ATOM     25  H   UNL A   1      28.195  28.760  22.194  1.00  0.00     0.161 HD
ENDBRANCH  15  19
ENDBRANCH  12  15
ENDBRANCH   9  11
ENDBRANCH   7   9
ENDBRANCH   6   7
ENDBRANCH   5   6
ENDBRANCH   4   5
ENDBRANCH   3   4
ENDBRANCH   2   3
ENDBRANCH   1   2
BRANCH   1  26
ATOM     26  O   UNL A   1      40.445  21.023  25.915  1.00  0.00    -0.377 OA
BRANCH  26  27
ATOM     27  C   UNL A   1      41.551  20.616  26.722  1.00  0.00     0.188 C 
BRANCH  27  28
ATOM     28  C   UNL A   1      42.904  20.216  26.107  1.00  0.00     0.188 C 
BRANCH  28  29
ATOM     29  O   UNL A   1      43.278  20.995  24.990  1.00  0.00    -0.376 OA
BRANCH  29  30
ATOM     30  C   UNL A   1      44.558  21.600  25.011  1.00  0.00     0.202 C 
BRANCH  30  31
ATOM     31  C   UNL A   1      44.637  23.123  24.820  1.00  0.00     0.261 C 
BRANCH  31  32
ATOM     32  O   UNL A   1      45.645  23.846  25.558  1.00  0.00    -0.460 OA
BRANCH  32  33
ATOM     33  C   UNL A   1      45.912  25.135  25.260  1.00  0.00     0.338 C 
ATOM     34  O   UNL A   1      46.575  25.554  24.326  1.00  0.00    -0.246 OA
BRANCH  33  35
ATOM     35  C   UNL A   1      45.063  25.981  26.136  1.00  0.00     0.060 A 
ATOM     36  C   UNL A   1      44.912  27.349  25.850  1.00  0.00     0.016 A 
ATOM     37  C   UNL A   1      44.389  25.420  27.222  1.00  0.00     0.016 A 
ATOM     38  C   UNL A   1      44.112  28.159  26.662  1.00  0.00     0.010 A 
ATOM     39  C   UNL A   1      43.619  26.237  28.055  1.00  0.00     0.010 A 
ATOM     40  C   UNL A   1      43.500  27.615  27.798  1.00  0.00    -0.014 A 
BRANCH  40  41
ATOM     41  C   UNL A   1      42.930  28.504  28.843  1.00  0.00     0.031 A 
ATOM     42  C   UNL A   1      43.749  28.748  30.081  1.00  0.00     0.074 A 
ATOM     43  C   UNL A   1      41.715  29.067  28.717  1.00  0.00     0.049 A 
ATOM     44  N   UNL A   1      43.427  29.361  31.191  1.00  0.00    -0.248 NA
ATOM     45  C   UNL A   1      45.123  28.220  30.062  1.00  0.00     0.031 C 
ATOM     46  C   UNL A   1      40.850  28.967  27.546  1.00  0.00     0.029 A 
ATOM     47  N   UNL A   1      40.993  29.825  29.608  1.00  0.00    -0.354 N 
ATOM     48  C   UNL A   1      44.550  29.279  32.004  1.00  0.00     0.074 A 
ATOM     49  C   UNL A   1      45.555  28.540  31.272  1.00  0.00     0.031 C 
ATOM     50  C   UNL A   1      39.699  29.615  27.799  1.00  0.00     0.029 A 
ATOM     51  C   UNL A   1      39.731  30.138  29.166  1.00  0.00     0.049 A 
ATOM     52  H   UNL A   1      41.347  30.117  30.480  1.00  0.00     0.167 HD
ATOM     53  C   UNL A   1      44.728  29.777  33.251  1.00  0.00     0.037 A 
ATOM     54  C   UNL A   1      38.709  30.739  29.808  1.00  0.00     0.037 A 
ATOM     55  C   UNL A   1      43.726  30.507  33.980  1.00  0.00     0.049 A 
ATOM     56  C   UNL A   1      38.895  31.194  31.237  1.00  0.00     0.074 A 
ATOM     57  C   UNL A   1      43.812  31.066  35.242  1.00  0.00     0.029 A 
ATOM     58  N   UNL A   1      42.445  30.766  33.515  1.00  0.00    -0.354 N 
ATOM     59  N   UNL A   1      39.961  31.128  31.998  1.00  0.00    -0.248 NA
ATOM     60  C   UNL A   1      37.731  31.803  31.898  1.00  0.00     0.031 C 
ATOM     61  C   UNL A   1      42.565  31.608  35.566  1.00  0.00     0.029 A 
ATOM     62  C   UNL A   1      41.719  31.444  34.481  1.00  0.00     0.049 A 
ATOM     63  H   UNL A   1      42.102  30.507  32.630  1.00  0.00     0.167 HD
ATOM     64  C   UNL A   1      39.605  31.705  33.212  1.00  0.00     0.074 A 
ATOM     65  C   UNL A   1      38.228  32.134  33.081  1.00  0.00     0.031 C 
ATOM     66  C   UNL A   1      40.349  31.865  34.336  1.00  0.00     0.037 A 
BRANCH  53  67
ATOM     67  C   UNL A   1      46.045  29.511  33.922  1.00  0.00     0.064 A 
ATOM     68  C   UNL A   1      47.176  30.303  33.675  1.00  0.00     0.173 A 
ATOM     69  C   UNL A   1      46.166  28.464  34.849  1.00  0.00     0.173 A 
ATOM     70  F   UNL A   1      47.118  31.305  32.784  1.00  0.00    -0.203 F 
ATOM     71  C   UNL A   1      48.387  30.038  34.309  1.00  0.00     0.198 A 
ATOM     72  C   UNL A   1      47.370  28.224  35.505  1.00  0.00     0.198 A 
ATOM     73  F   UNL A   1      45.116  27.678  35.123  1.00  0.00    -0.203 F 
ATOM     74  F   UNL A   1      49.469  30.774  34.017  1.00  0.00    -0.200 F 
ATOM     75  C   UNL A   1      48.482  29.005  35.229  1.00  0.00     0.200 A 
ATOM     76  F   UNL A   1      47.455  27.233  36.404  1.00  0.00    -0.200 F 
ATOM     77  F   UNL A   1      49.646  28.757  35.844  1.00  0.00    -0.200 F 
ENDBRANCH  53  67
BRANCH  54  78
ATOM     78  C   UNL A   1      37.398  30.915  29.126  1.00  0.00     0.064 A 
ATOM     79  C   UNL A   1      36.534  29.830  28.923  1.00  0.00     0.173 A 
ATOM     80  C   UNL A   1      36.998  32.164  28.625  1.00  0.00     0.173 A 
ATOM     81  F   UNL A   1      36.884  28.607  29.351  1.00  0.00    -0.203 F 
ATOM     82  C   UNL A   1      35.334  29.982  28.232  1.00  0.00     0.198 A 
ATOM     83  C   UNL A   1      35.785  32.322  27.959  1.00  0.00     0.198 A 
ATOM     84  F   UNL A   1      37.793  33.234  28.781  1.00  0.00    -0.203 F 
ATOM     85  F   UNL A   1      34.556  28.914  28.001  1.00  0.00    -0.200 F 
ATOM     86  C   UNL A   1      34.956  31.228  27.755  1.00  0.00     0.200 A 
ATOM     87  F   UNL A   1      35.428  33.528  27.498  1.00  0.00    -0.200 F 
ATOM     88  F   UNL A   1      33.807  31.370  27.081  1.00  0.00    -0.200 F 
ENDBRANCH  54  78
BRANCH  66  89
ATOM     89  C   UNL A   1      39.703  32.552  35.507  1.00  0.00     0.064 A 
ATOM     90  C   UNL A   1      38.927  31.848  36.440  1.00  0.00     0.173 A 
ATOM     91  C   UNL A   1      39.908  33.923  35.729  1.00  0.00     0.173 A 
ATOM     92  F   UNL A   1      38.690  30.538  36.268  1.00  0.00    -0.203 F 
ATOM     93  C   UNL A   1      38.360  32.495  37.535  1.00  0.00     0.198 A 
ATOM     94  C   UNL A   1      39.368  34.560  36.844  1.00  0.00     0.198 A 
ATOM     95  F   UNL A   1      40.650  34.644  34.875  1.00  0.00    -0.203 F 
ATOM     96  F   UNL A   1      37.583  31.810  38.386  1.00  0.00    -0.200 F 
ATOM     97  C   UNL A   1      38.588  33.847  37.742  1.00  0.00     0.200 A 
ATOM     98  F   UNL A   1      39.606  35.862  37.051  1.00  0.00    -0.200 F 
ATOM     99  F   UNL A   1      38.053  34.465  38.803  1.00  0.00    -0.200 F 
ENDBRANCH  66  89
ENDBRANCH  40  41
ENDBRANCH  33  35
ENDBRANCH  32  33
ENDBRANCH  31  32
ENDBRANCH  30  31
ENDBRANCH  29  30
ENDBRANCH  28  29
ENDBRANCH  27  28
ENDBRANCH  26  27
ENDBRANCH   1  26
TORSDOF 24
ENDMDL
MODEL 3
REMARK VINA RESULT:      -8.6      5.005     10.123
REMARK SMILES CC(C)[C@H](NC(N)=O)C(=O)N[C@H](C)C(=O)OCCOCCOCCOCCOC(=O)c1ccc(-c2c3nc(c(-c4c(F)c(F)c(F)c(F)c4F)c4ccc([nH]4)c(-c4c(F)c(F)c(F)c(F)c4F)c4nc(c(-c5c(F)c(F)c(F)c(F)c5F)c5ccc2[nH]5)C=C4)C=C3)cc1
REMARK SMILES IDX 21 1 20 2 19 3 18 4 17 5 16 6 14 7 15 8 12 9 13 10 11 11
REMARK SMILES IDX 9 12 10 13 4 15 2 16 1 17 3 18 5 19 6 20 7 22 8 23 22 26
REMARK SMILES IDX 23 27 24 28 25 29 26 30 27 31 28 32 29 33 30 34 31 35 32 36
REMARK SMILES IDX 93 37 33 38 92 39 34 40 35 41 36 42 86 43 37 44 91 45 85 46
REMARK SMILES IDX 87 47 38 48 90 49 84 50 83 51 39 53 71 54 51 55 70 56 52 57
REMARK SMILES IDX 55 58 69 59 88 60 53 61 54 62 68 64 89 65 56 66 40 67 41 68
REMARK SMILES IDX 49 69 42 70 43 71 47 72 50 73 44 74 45 75 48 76 46 77 72 78
REMARK SMILES IDX 73 79 81 80 74 81 75 82 79 83 82 84 76 85 77 86 80 87 78 88
REMARK SMILES IDX 57 89 58 90 66 91 59 92 60 93 64 94 67 95 61 96 62 97 65 98
REMARK SMILES IDX 63 99
REMARK H PARENT 11 14 5 21 7 24 7 25 87 52 55 63
REMARK Flexibility Score: inf
ROOT
ATOM      1  C   UNL A   1      34.821  30.704  28.211  1.00  0.00     0.188 C 
ENDROOT
BRANCH   1   2
ATOM      2  C   UNL A   1      34.722  29.573  27.174  1.00  0.00     0.188 C 
BRANCH   2   3
ATOM      3  O   UNL A   1      33.393  29.245  26.807  1.00  0.00    -0.376 OA
BRANCH   3   4
ATOM      4  C   UNL A   1      33.118  29.165  25.427  1.00  0.00     0.202 C 
BRANCH   4   5
ATOM      5  C   UNL A   1      33.729  27.999  24.652  1.00  0.00     0.261 C 
BRANCH   5   6
ATOM      6  O   UNL A   1      33.393  27.706  23.262  1.00  0.00    -0.462 OA
BRANCH   6   7
ATOM      7  C   UNL A   1      33.169  26.498  22.685  1.00  0.00     0.328 C 
ATOM      8  O   UNL A   1      33.812  26.003  21.772  1.00  0.00    -0.250 OA
BRANCH   7   9
ATOM      9  C   UNL A   1      31.868  25.880  23.217  1.00  0.00     0.189 C 
ATOM     10  C   UNL A   1      30.610  26.729  23.078  1.00  0.00     0.043 C 
BRANCH   9  11
ATOM     11  N   UNL A   1      31.683  24.464  22.873  1.00  0.00    -0.341 N 
ATOM     12  C   UNL A   1      32.062  23.273  23.411  1.00  0.00     0.243 C 
ATOM     13  O   UNL A   1      31.795  22.281  22.722  1.00  0.00    -0.273 OA
ATOM     14  H   UNL A   1      31.155  24.348  22.051  1.00  0.00     0.164 HD
BRANCH  12  15
ATOM     15  C   UNL A   1      32.605  23.073  24.847  1.00  0.00     0.175 C 
BRANCH  15  16
ATOM     16  C   UNL A   1      34.064  22.487  24.948  1.00  0.00     0.015 C 
ATOM     17  C   UNL A   1      34.356  21.000  24.761  1.00  0.00     0.010 C 
ATOM     18  C   UNL A   1      34.967  23.149  23.899  1.00  0.00     0.010 C 
ENDBRANCH  15  16
BRANCH  15  19
ATOM     19  N   UNL A   1      31.581  22.488  25.713  1.00  0.00    -0.326 N 
ATOM     20  C   UNL A   1      30.628  23.199  26.375  1.00  0.00     0.312 C 
ATOM     21  H   UNL A   1      31.581  21.510  25.824  1.00  0.00     0.166 HD
ATOM     22  N   UNL A   1      29.624  22.416  26.849  1.00  0.00    -0.352 N 
ATOM     23  O   UNL A   1      30.621  24.408  26.542  1.00  0.00    -0.249 OA
ATOM     24  H   UNL A   1      29.648  21.443  26.704  1.00  0.00     0.161 HD
ATOM     25  H   UNL A   1      28.872  22.822  27.338  1.00  0.00     0.161 HD
ENDBRANCH  15  19
ENDBRANCH  12  15
ENDBRANCH   9  11
ENDBRANCH   7   9
ENDBRANCH   6   7
ENDBRANCH   5   6
ENDBRANCH   4   5
ENDBRANCH   3   4
ENDBRANCH   2   3
ENDBRANCH   1   2
BRANCH   1  26
ATOM     26  O   UNL A   1      34.801  32.038  27.715  1.00  0.00    -0.377 OA
BRANCH  26  27
ATOM     27  C   UNL A   1      33.702  32.899  28.017  1.00  0.00     0.188 C 
BRANCH  27  28
ATOM     28  C   UNL A   1      33.894  34.405  28.273  1.00  0.00     0.188 C 
BRANCH  28  29
ATOM     29  O   UNL A   1      32.773  35.033  28.861  1.00  0.00    -0.376 OA
BRANCH  29  30
ATOM     30  C   UNL A   1      33.009  35.914  29.943  1.00  0.00     0.202 C 
BRANCH  30  31
ATOM     31  C   UNL A   1      33.076  35.313  31.358  1.00  0.00     0.261 C 
BRANCH  31  32
ATOM     32  O   UNL A   1      34.352  34.830  31.827  1.00  0.00    -0.460 OA
BRANCH  32  33
ATOM     33  C   UNL A   1      34.448  33.612  32.399  1.00  0.00     0.338 C 
ATOM     34  O   UNL A   1      33.560  32.982  32.948  1.00  0.00    -0.246 OA
BRANCH  33  35
ATOM     35  C   UNL A   1      35.779  33.055  32.045  1.00  0.00     0.060 A 
ATOM     36  C   UNL A   1      36.491  32.298  32.991  1.00  0.00     0.016 A 
ATOM     37  C   UNL A   1      36.309  33.251  30.769  1.00  0.00     0.016 A 
ATOM     38  C   UNL A   1      37.743  31.763  32.672  1.00  0.00     0.010 A 
ATOM     39  C   UNL A   1      37.576  32.745  30.463  1.00  0.00     0.010 A 
ATOM     40  C   UNL A   1      38.313  32.025  31.421  1.00  0.00    -0.014 A 
BRANCH  40  41
ATOM     41  C   UNL A   1      39.754  31.756  31.179  1.00  0.00     0.031 A 
ATOM     42  C   UNL A   1      40.742  32.825  31.561  1.00  0.00     0.074 A 
ATOM     43  C   UNL A   1      40.183  30.611  30.621  1.00  0.00     0.049 A 
ATOM     44  N   UNL A   1      42.027  32.898  31.329  1.00  0.00    -0.248 NA
ATOM     45  C   UNL A   1      40.198  33.973  32.305  1.00  0.00     0.031 C 
ATOM     46  C   UNL A   1      39.342  29.471  30.267  1.00  0.00     0.029 A 
ATOM     47  N   UNL A   1      41.448  30.231  30.236  1.00  0.00    -0.354 N 
ATOM     48  C   UNL A   1      42.440  34.103  31.884  1.00  0.00     0.074 A 
ATOM     49  C   UNL A   1      41.268  34.739  32.444  1.00  0.00     0.031 C 
ATOM     50  C   UNL A   1      40.108  28.529  29.690  1.00  0.00     0.029 A 
ATOM     51  C   UNL A   1      41.485  29.017  29.595  1.00  0.00     0.049 A 
ATOM     52  H   UNL A   1      42.249  30.777  30.405  1.00  0.00     0.167 HD
ATOM     53  C   UNL A   1      43.686  34.632  31.922  1.00  0.00     0.037 A 
ATOM     54  C   UNL A   1      42.505  28.396  28.970  1.00  0.00     0.037 A 
ATOM     55  C   UNL A   1      44.849  34.001  31.358  1.00  0.00     0.049 A 
ATOM     56  C   UNL A   1      43.865  29.053  28.934  1.00  0.00     0.074 A 
ATOM     57  C   UNL A   1      46.159  34.447  31.358  1.00  0.00     0.029 A 
ATOM     58  N   UNL A   1      44.839  32.792  30.680  1.00  0.00    -0.354 N 
ATOM     59  N   UNL A   1      44.256  30.185  29.471  1.00  0.00    -0.248 NA
ATOM     60  C   UNL A   1      44.926  28.347  28.198  1.00  0.00     0.031 C 
ATOM     61  C   UNL A   1      46.929  33.540  30.625  1.00  0.00     0.029 A 
ATOM     62  C   UNL A   1      46.113  32.495  30.223  1.00  0.00     0.049 A 
ATOM     63  H   UNL A   1      44.044  32.228  30.542  1.00  0.00     0.167 HD
ATOM     64  C   UNL A   1      45.605  30.313  29.160  1.00  0.00     0.074 A 
ATOM     65  C   UNL A   1      45.972  29.135  28.403  1.00  0.00     0.031 C 
ATOM     66  C   UNL A   1      46.464  31.317  29.471  1.00  0.00     0.037 A 
BRANCH  53  67
ATOM     67  C   UNL A   1      43.847  35.982  32.561  1.00  0.00     0.064 A 
ATOM     68  C   UNL A   1      44.025  36.130  33.945  1.00  0.00     0.173 A 
ATOM     69  C   UNL A   1      43.851  37.141  31.771  1.00  0.00     0.173 A 
ATOM     70  F   UNL A   1      44.011  35.055  34.747  1.00  0.00    -0.203 F 
ATOM     71  C   UNL A   1      44.173  37.391  34.516  1.00  0.00     0.198 A 
ATOM     72  C   UNL A   1      44.032  38.398  32.343  1.00  0.00     0.198 A 
ATOM     73  F   UNL A   1      43.686  37.056  30.443  1.00  0.00    -0.203 F 
ATOM     74  F   UNL A   1      44.288  37.513  35.847  1.00  0.00    -0.200 F 
ATOM     75  C   UNL A   1      44.185  38.523  33.715  1.00  0.00     0.200 A 
ATOM     76  F   UNL A   1      44.056  39.489  31.564  1.00  0.00    -0.200 F 
ATOM     77  F   UNL A   1      44.335  39.735  34.266  1.00  0.00    -0.200 F 
ENDBRANCH  53  67
BRANCH  54  78
ATOM     78  C   UNL A   1      42.280  27.092  28.286  1.00  0.00     0.064 A 
ATOM     79  C   UNL A   1      41.720  27.034  27.002  1.00  0.00     0.173 A 
ATOM     80  C   UNL A   1      42.580  25.876  28.919  1.00  0.00     0.173 A 
ATOM     81  F   UNL A   1      41.381  28.167  26.368  1.00  0.00    -0.203 F 
ATOM     82  C   UNL A   1      41.453  25.813  26.386  1.00  0.00     0.198 A 
ATOM     83  C   UNL A   1      42.340  24.656  28.290  1.00  0.00     0.198 A 
ATOM     84  F   UNL A   1      43.106  25.874  30.154  1.00  0.00    -0.203 F 
ATOM     85  F   UNL A   1      40.863  25.787  25.182  1.00  0.00    -0.200 F 
ATOM     86  C   UNL A   1      41.769  24.624  27.028  1.00  0.00     0.200 A 
ATOM     87  F   UNL A   1      42.644  23.511  28.918  1.00  0.00    -0.200 F 
ATOM     88  F   UNL A   1      41.501  23.451  26.438  1.00  0.00    -0.200 F 
ENDBRANCH  54  78
BRANCH  66  89
ATOM     89  C   UNL A   1      47.890  31.179  29.017  1.00  0.00     0.064 A 
ATOM     90  C   UNL A   1      48.356  31.796  27.846  1.00  0.00     0.173 A 
ATOM     91  C   UNL A   1      48.817  30.464  29.793  1.00  0.00     0.173 A 
ATOM     92  F   UNL A   1      47.509  32.481  27.063  1.00  0.00    -0.203 F 
ATOM     93  C   UNL A   1      49.688  31.681  27.456  1.00  0.00     0.198 A 
ATOM     94  C   UNL A   1      50.156  30.381  29.418  1.00  0.00     0.198 A 
ATOM     95  F   UNL A   1      48.430  29.863  30.927  1.00  0.00    -0.203 F 
ATOM     96  F   UNL A   1      50.098  32.241  26.309  1.00  0.00    -0.200 F 
ATOM     97  C   UNL A   1      50.589  30.983  28.246  1.00  0.00     0.200 A 
ATOM     98  F   UNL A   1      51.028  29.720  30.192  1.00  0.00    -0.200 F 
ATOM     99  F   UNL A   1      51.872  30.885  27.875  1.00  0.00    -0.200 F 
ENDBRANCH  66  89
ENDBRANCH  40  41
ENDBRANCH  33  35
ENDBRANCH  32  33
ENDBRANCH  31  32
ENDBRANCH  30  31
ENDBRANCH  29  30
ENDBRANCH  28  29
ENDBRANCH  27  28
ENDBRANCH  26  27
ENDBRANCH   1  26
TORSDOF 24
ENDMDL
