MODEL 1
REMARK VINA RESULT:      -7.9      0.000      0.000
REMARK SMILES Cc1c(NCc2ccccn2)cccc1C(=O)N1CCOC[C@@H]1CC(=O)OCCOCCOCCOCCOC(=O)c1ccc(-c2c3nc(c(-c4c(F)c(F)c(F)c(F)c4F)c4ccc([nH]4)c(-c4c(F)c(F)c(F)c(F)c4F)c4nc(c(-c5c(F)c(F)c(F)c(F)c5F)c5ccc2[nH]5)C=C4)C=C3)cc1
REMARK SMILES IDX 31 1 30 2 29 3 28 4 27 5 25 6 26 7 24 8 23 9 18 10 19 11
REMARK SMILES IDX 20 12 22 13 21 14 16 15 17 16 15 17 1 18 2 19 3 20 12 21
REMARK SMILES IDX 14 22 13 23 4 24 5 26 6 27 7 28 11 29 8 30 10 31 9 32 32 33
REMARK SMILES IDX 33 34 34 35 35 36 36 37 37 38 38 39 39 40 40 41 41 42 42 43
REMARK SMILES IDX 43 44 104 45 44 46 103 47 45 48 46 49 47 50 97 51 48 52
REMARK SMILES IDX 102 53 96 54 98 55 49 56 101 57 95 58 94 59 50 61 82 62
REMARK SMILES IDX 62 63 81 64 63 65 66 66 80 67 99 68 64 69 65 70 79 72 100 73
REMARK SMILES IDX 67 74 51 75 52 76 60 77 53 78 54 79 58 80 61 81 55 82 56 83
REMARK SMILES IDX 59 84 57 85 83 86 84 87 92 88 85 89 86 90 90 91 93 92 87 93
REMARK SMILES IDX 88 94 91 95 89 96 68 97 69 98 77 99 70 100 71 101 75 102
REMARK SMILES IDX 78 103 72 104 73 105 76 106 74 107
REMARK H PARENT 4 25 98 60 66 71
REMARK Flexibility Score: inf
ROOT
ATOM      1  C   UNL A   1      44.451  35.959  32.529  1.00  0.00     0.188 C 
ENDROOT
BRANCH   1   2
ATOM      2  O   UNL A   1      44.036  36.672  31.376  1.00  0.00    -0.376 OA
BRANCH   2   3
ATOM      3  C   UNL A   1      44.687  36.256  30.220  1.00  0.00     0.202 C 
BRANCH   3   4
ATOM      4  C   UNL A   1      45.390  37.248  29.357  1.00  0.00     0.261 C 
BRANCH   4   5
ATOM      5  O   UNL A   1      45.190  37.070  27.985  1.00  0.00    -0.463 OA
BRANCH   5   6
ATOM      6  C   UNL A   1      46.286  37.019  27.208  1.00  0.00     0.308 C 
ATOM      7  O   UNL A   1      47.167  37.866  27.134  1.00  0.00    -0.252 OA
BRANCH   6   8
ATOM      8  C   UNL A   1      46.145  35.983  26.170  1.00  0.00     0.150 C 
BRANCH   8   9
ATOM      9  C   UNL A   1      45.760  34.580  26.623  1.00  0.00     0.122 C 
ATOM     10  N   UNL A   1      46.788  33.432  26.784  1.00  0.00    -0.330 N 
ATOM     11  C   UNL A   1      46.048  32.306  27.402  1.00  0.00     0.148 C 
ATOM     12  C   UNL A   1      44.787  31.914  26.581  1.00  0.00     0.181 C 
ATOM     13  C   UNL A   1      44.479  34.128  25.855  1.00  0.00     0.185 C 
ATOM     14  O   UNL A   1      43.861  33.003  26.484  1.00  0.00    -0.377 OA
BRANCH  10  15
ATOM     15  C   UNL A   1      48.184  33.733  27.141  1.00  0.00     0.254 C 
ATOM     16  O   UNL A   1      48.372  33.650  28.359  1.00  0.00    -0.269 OA
BRANCH  15  17
ATOM     17  C   UNL A   1      49.503  34.332  26.056  1.00  0.00     0.045 A 
ATOM     18  C   UNL A   1      50.997  31.898  26.727  1.00  0.00     0.047 C 
ATOM     19  C   UNL A   1      50.676  32.977  25.718  1.00  0.00    -0.015 A 
ATOM     20  C   UNL A   1      52.187  33.304  24.847  1.00  0.00     0.038 A 
ATOM     21  C   UNL A   1      52.718  34.940  24.395  1.00  0.00     0.026 A 
ATOM     22  C   UNL A   1      50.160  36.186  25.481  1.00  0.00     0.014 A 
ATOM     23  C   UNL A   1      51.766  36.372  24.690  1.00  0.00     0.003 A 
BRANCH  20  24
ATOM     24  N   UNL A   1      52.767  32.186  24.229  1.00  0.00    -0.379 N 
ATOM     25  H   UNL A   1      53.412  31.646  24.742  1.00  0.00     0.160 HD
BRANCH  24  26
ATOM     26  C   UNL A   1      52.463  31.786  22.864  1.00  0.00     0.169 C 
BRANCH  26  27
ATOM     27  C   UNL A   1      52.483  30.286  22.683  1.00  0.00     0.059 A 
ATOM     28  C   UNL A   1      52.956  29.436  23.687  1.00  0.00     0.026 A 
ATOM     29  N   UNL A   1      52.072  29.811  21.484  1.00  0.00    -0.259 NA
ATOM     30  C   UNL A   1      53.083  28.082  23.447  1.00  0.00     0.004 A 
ATOM     31  C   UNL A   1      52.156  28.476  21.293  1.00  0.00     0.111 A 
ATOM     32  C   UNL A   1      52.669  27.587  22.225  1.00  0.00     0.020 A 
ENDBRANCH  26  27
ENDBRANCH  24  26
ENDBRANCH  20  24
ENDBRANCH  15  17
ENDBRANCH  10  15
ENDBRANCH   8   9
ENDBRANCH   6   8
ENDBRANCH   5   6
ENDBRANCH   4   5
ENDBRANCH   3   4
ENDBRANCH   2   3
ENDBRANCH   1   2
BRANCH   1  33
ATOM     33  C   UNL A   1      43.478  34.927  33.173  1.00  0.00     0.188 C 
BRANCH  33  34
ATOM     34  O   UNL A   1      43.274  33.724  32.457  1.00  0.00    -0.377 OA
BRANCH  34  35
ATOM     35  C   UNL A   1      42.477  33.601  31.289  1.00  0.00     0.188 C 
BRANCH  35  36
ATOM     36  C   UNL A   1      41.082  34.094  31.293  1.00  0.00     0.188 C 
BRANCH  36  37
ATOM     37  O   UNL A   1      40.281  33.004  31.666  1.00  0.00    -0.376 OA
BRANCH  37  38
ATOM     38  C   UNL A   1      39.417  32.736  30.579  1.00  0.00     0.202 C 
BRANCH  38  39
ATOM     39  C   UNL A   1      38.021  33.236  31.020  1.00  0.00     0.261 C 
BRANCH  39  40
ATOM     40  O   UNL A   1      37.111  32.056  31.226  1.00  0.00    -0.460 OA
BRANCH  40  41
ATOM     41  C   UNL A   1      36.523  31.417  30.147  1.00  0.00     0.338 C 
ATOM     42  O   UNL A   1      35.371  31.646  29.796  1.00  0.00    -0.246 OA
BRANCH  41  43
ATOM     43  C   UNL A   1      37.273  30.154  29.611  1.00  0.00     0.060 A 
ATOM     44  C   UNL A   1      37.691  29.101  30.474  1.00  0.00     0.016 A 
ATOM     45  C   UNL A   1      37.890  30.161  28.373  1.00  0.00     0.016 A 
ATOM     46  C   UNL A   1      38.812  28.201  30.201  1.00  0.00     0.010 A 
ATOM     47  C   UNL A   1      39.008  29.299  28.129  1.00  0.00     0.010 A 
ATOM     48  C   UNL A   1      39.570  28.322  29.035  1.00  0.00    -0.014 A 
BRANCH  48  49
ATOM     49  C   UNL A   1      41.073  27.791  28.723  1.00  0.00     0.031 A 
ATOM     50  C   UNL A   1      42.156  28.803  28.993  1.00  0.00     0.074 A 
ATOM     51  C   UNL A   1      41.610  26.484  28.597  1.00  0.00     0.049 A 
ATOM     52  N   UNL A   1      43.399  28.643  28.673  1.00  0.00    -0.248 NA
ATOM     53  C   UNL A   1      41.950  30.120  29.600  1.00  0.00     0.031 C 
ATOM     54  C   UNL A   1      42.873  25.994  29.230  1.00  0.00     0.029 A 
ATOM     55  N   UNL A   1      41.111  25.229  28.234  1.00  0.00    -0.354 N 
ATOM     56  C   UNL A   1      44.122  29.482  29.491  1.00  0.00     0.074 A 
ATOM     57  C   UNL A   1      43.202  30.536  29.798  1.00  0.00     0.031 C 
ATOM     58  C   UNL A   1      43.113  24.677  29.036  1.00  0.00     0.029 A 
ATOM     59  C   UNL A   1      42.019  24.121  28.270  1.00  0.00     0.049 A 
ATOM     60  H   UNL A   1      40.171  25.111  27.964  1.00  0.00     0.167 HD
ATOM     61  C   UNL A   1      45.328  29.070  29.986  1.00  0.00     0.037 A 
ATOM     62  C   UNL A   1      42.027  22.950  27.524  1.00  0.00     0.037 A 
ATOM     63  C   UNL A   1      45.697  27.713  29.494  1.00  0.00     0.049 A 
ATOM     64  C   UNL A   1      43.140  23.328  26.542  1.00  0.00     0.074 A 
ATOM     65  C   UNL A   1      46.089  26.529  30.104  1.00  0.00     0.029 A 
ATOM     66  N   UNL A   1      45.442  27.355  28.162  1.00  0.00    -0.354 N 
ATOM     67  N   UNL A   1      43.624  24.544  26.586  1.00  0.00    -0.248 NA
ATOM     68  C   UNL A   1      43.923  22.506  25.616  1.00  0.00     0.031 C 
ATOM     69  C   UNL A   1      46.169  25.507  29.104  1.00  0.00     0.029 A 
ATOM     70  C   UNL A   1      45.747  26.034  27.888  1.00  0.00     0.049 A 
ATOM     71  H   UNL A   1      45.082  27.979  27.490  1.00  0.00     0.167 HD
ATOM     72  C   UNL A   1      44.886  24.548  26.140  1.00  0.00     0.074 A 
ATOM     73  C   UNL A   1      44.968  23.328  25.356  1.00  0.00     0.031 C 
ATOM     74  C   UNL A   1      45.742  25.541  26.505  1.00  0.00     0.037 A 
BRANCH  61  75
ATOM     75  C   UNL A   1      46.163  29.822  31.036  1.00  0.00     0.064 A 
ATOM     76  C   UNL A   1      47.326  30.523  30.638  1.00  0.00     0.173 A 
ATOM     77  C   UNL A   1      45.890  29.942  32.421  1.00  0.00     0.173 A 
ATOM     78  F   UNL A   1      47.766  30.497  29.375  1.00  0.00    -0.203 F 
ATOM     79  C   UNL A   1      48.093  31.304  31.513  1.00  0.00     0.198 A 
ATOM     80  C   UNL A   1      46.622  30.771  33.283  1.00  0.00     0.198 A 
ATOM     81  F   UNL A   1      44.940  29.240  33.039  1.00  0.00    -0.203 F 
ATOM     82  F   UNL A   1      49.192  31.920  31.059  1.00  0.00    -0.200 F 
ATOM     83  C   UNL A   1      47.719  31.460  32.828  1.00  0.00     0.200 A 
ATOM     84  F   UNL A   1      46.247  30.888  34.567  1.00  0.00    -0.200 F 
ATOM     85  F   UNL A   1      48.415  32.257  33.649  1.00  0.00    -0.200 F 
ENDBRANCH  61  75
BRANCH  62  86
ATOM     86  C   UNL A   1      40.638  22.347  27.224  1.00  0.00     0.064 A 
ATOM     87  C   UNL A   1      39.124  23.078  26.524  1.00  0.00     0.173 A 
ATOM     88  C   UNL A   1      40.974  20.690  27.004  1.00  0.00     0.173 A 
ATOM     89  F   UNL A   1      38.878  24.388  26.707  1.00  0.00    -0.203 F 
ATOM     90  C   UNL A   1      37.925  22.161  25.518  1.00  0.00     0.198 A 
ATOM     91  C   UNL A   1      40.019  19.706  25.967  1.00  0.00     0.198 A 
ATOM     92  F   UNL A   1      41.752  20.053  27.900  1.00  0.00    -0.203 F 
ATOM     93  F   UNL A   1      36.871  22.750  24.939  1.00  0.00    -0.200 F 
ATOM     94  C   UNL A   1      38.287  20.408  25.182  1.00  0.00     0.200 A 
ATOM     95  F   UNL A   1      40.624  18.480  25.949  1.00  0.00    -0.200 F 
ATOM     96  F   UNL A   1      37.363  19.788  24.408  1.00  0.00    -0.200 F 
ENDBRANCH  62  86
BRANCH  74  97
ATOM     97  C   UNL A   1      46.706  26.114  25.537  1.00  0.00     0.064 A 
ATOM     98  C   UNL A   1      46.354  27.137  24.647  1.00  0.00     0.173 A 
ATOM     99  C   UNL A   1      48.072  25.767  25.591  1.00  0.00     0.173 A 
ATOM    100  F   UNL A   1      45.138  27.704  24.659  1.00  0.00    -0.203 F 
ATOM    101  C   UNL A   1      47.270  27.641  23.740  1.00  0.00     0.198 A 
ATOM    102  C   UNL A   1      49.003  26.347  24.752  1.00  0.00     0.198 A 
ATOM    103  F   UNL A   1      48.561  24.879  26.468  1.00  0.00    -0.203 F 
ATOM    104  F   UNL A   1      46.864  28.524  22.820  1.00  0.00    -0.200 F 
ATOM    105  C   UNL A   1      48.592  27.240  23.788  1.00  0.00     0.200 A 
ATOM    106  F   UNL A   1      50.297  26.029  24.886  1.00  0.00    -0.200 F 
ATOM    107  F   UNL A   1      49.475  27.726  22.910  1.00  0.00    -0.200 F 
ENDBRANCH  74  97
ENDBRANCH  48  49
ENDBRANCH  41  43
ENDBRANCH  40  41
ENDBRANCH  39  40
ENDBRANCH  38  39
ENDBRANCH  37  38
ENDBRANCH  36  37
ENDBRANCH  35  36
ENDBRANCH  34  35
ENDBRANCH  33  34
ENDBRANCH   1  33
TORSDOF 26
ENDMDL
MODEL 2
REMARK VINA RESULT:      -7.6      3.595      9.206
REMARK SMILES Cc1c(NCc2ccccn2)cccc1C(=O)N1CCOC[C@@H]1CC(=O)OCCOCCOCCOCCOC(=O)c1ccc(-c2c3nc(c(-c4c(F)c(F)c(F)c(F)c4F)c4ccc([nH]4)c(-c4c(F)c(F)c(F)c(F)c4F)c4nc(c(-c5c(F)c(F)c(F)c(F)c5F)c5ccc2[nH]5)C=C4)C=C3)cc1
REMARK SMILES IDX 31 1 30 2 29 3 28 4 27 5 25 6 26 7 24 8 23 9 18 10 19 11
REMARK SMILES IDX 20 12 22 13 21 14 16 15 17 16 15 17 1 18 2 19 3 20 12 21
REMARK SMILES IDX 14 22 13 23 4 24 5 26 6 27 7 28 11 29 8 30 10 31 9 32 32 33
REMARK SMILES IDX 33 34 34 35 35 36 36 37 37 38 38 39 39 40 40 41 41 42 42 43
REMARK SMILES IDX 43 44 104 45 44 46 103 47 45 48 46 49 47 50 97 51 48 52
REMARK SMILES IDX 102 53 96 54 98 55 49 56 101 57 95 58 94 59 50 61 82 62
REMARK SMILES IDX 62 63 81 64 63 65 66 66 80 67 99 68 64 69 65 70 79 72 100 73
REMARK SMILES IDX 67 74 51 75 52 76 60 77 53 78 54 79 58 80 61 81 55 82 56 83
REMARK SMILES IDX 59 84 57 85 83 86 84 87 92 88 85 89 86 90 90 91 93 92 87 93
REMARK SMILES IDX 88 94 91 95 89 96 68 97 69 98 77 99 70 100 71 101 75 102
REMARK SMILES IDX 78 103 72 104 73 105 76 106 74 107
REMARK H PARENT 4 25 98 60 66 71
REMARK Flexibility Score: inf
ROOT
ATOM      1  C   UNL A   1      45.873  34.804  31.448  1.00  0.00     0.188 C 
ENDROOT
BRANCH   1   2
ATOM      2  O   UNL A   1      45.243  35.994  31.893  1.00  0.00    -0.376 OA
BRANCH   2   3
ATOM      3  C   UNL A   1      44.346  35.774  32.932  1.00  0.00     0.202 C 
BRANCH   3   4
ATOM      4  C   UNL A   1      44.815  35.809  34.347  1.00  0.00     0.261 C 
BRANCH   4   5
ATOM      5  O   UNL A   1      43.921  35.260  35.271  1.00  0.00    -0.463 OA
BRANCH   5   6
ATOM      6  C   UNL A   1      43.191  34.207  34.864  1.00  0.00     0.308 C 
ATOM      7  O   UNL A   1      42.021  34.228  34.501  1.00  0.00    -0.252 OA
BRANCH   6   8
ATOM      8  C   UNL A   1      43.842  32.940  35.239  1.00  0.00     0.150 C 
BRANCH   8   9
ATOM      9  C   UNL A   1      44.837  32.341  34.252  1.00  0.00     0.122 C 
ATOM     10  N   UNL A   1      44.632  30.960  33.579  1.00  0.00    -0.330 N 
ATOM     11  C   UNL A   1      45.714  30.831  32.574  1.00  0.00     0.148 C 
ATOM     12  C   UNL A   1      47.123  31.025  33.204  1.00  0.00     0.181 C 
ATOM     13  C   UNL A   1      46.283  32.523  34.809  1.00  0.00     0.185 C 
ATOM     14  O   UNL A   1      47.265  32.325  33.789  1.00  0.00    -0.377 OA
BRANCH  10  15
ATOM     15  C   UNL A   1      43.272  30.455  33.326  1.00  0.00     0.254 C 
ATOM     16  O   UNL A   1      43.163  29.264  33.635  1.00  0.00    -0.269 OA
BRANCH  15  17
ATOM     17  C   UNL A   1      41.904  31.312  32.509  1.00  0.00     0.045 A 
ATOM     18  C   UNL A   1      40.180  30.397  34.700  1.00  0.00     0.047 C 
ATOM     19  C   UNL A   1      40.496  31.449  33.660  1.00  0.00    -0.015 A 
ATOM     20  C   UNL A   1      38.933  32.062  33.087  1.00  0.00     0.038 A 
ATOM     21  C   UNL A   1      38.595  32.427  31.379  1.00  0.00     0.026 A 
ATOM     22  C   UNL A   1      41.457  31.779  30.564  1.00  0.00     0.014 A 
ATOM     23  C   UNL A   1      39.792  32.297  30.118  1.00  0.00     0.003 A 
BRANCH  20  24
ATOM     24  N   UNL A   1      38.094  32.573  34.090  1.00  0.00    -0.379 N 
ATOM     25  H   UNL A   1      37.773  31.961  34.791  1.00  0.00     0.160 HD
BRANCH  24  26
ATOM     26  C   UNL A   1      37.676  33.964  34.141  1.00  0.00     0.169 C 
BRANCH  26  27
ATOM     27  C   UNL A   1      36.228  34.147  33.746  1.00  0.00     0.059 A 
ATOM     28  C   UNL A   1      35.403  33.053  33.473  1.00  0.00     0.026 A 
ATOM     29  N   UNL A   1      35.787  35.421  33.619  1.00  0.00    -0.259 NA
ATOM     30  C   UNL A   1      34.124  33.252  32.990  1.00  0.00     0.004 A 
ATOM     31  C   UNL A   1      34.515  35.588  33.196  1.00  0.00     0.111 A 
ATOM     32  C   UNL A   1      33.664  34.548  32.854  1.00  0.00     0.020 A 
ENDBRANCH  26  27
ENDBRANCH  24  26
ENDBRANCH  20  24
ENDBRANCH  15  17
ENDBRANCH  10  15
ENDBRANCH   8   9
ENDBRANCH   6   8
ENDBRANCH   5   6
ENDBRANCH   4   5
ENDBRANCH   3   4
ENDBRANCH   2   3
ENDBRANCH   1   2
BRANCH   1  33
ATOM     33  C   UNL A   1      47.382  34.843  31.062  1.00  0.00     0.188 C 
BRANCH  33  34
ATOM     34  O   UNL A   1      47.849  36.040  30.469  1.00  0.00    -0.377 OA
BRANCH  34  35
ATOM     35  C   UNL A   1      47.576  36.444  29.136  1.00  0.00     0.188 C 
BRANCH  35  36
ATOM     36  C   UNL A   1      47.338  37.873  28.833  1.00  0.00     0.188 C 
BRANCH  36  37
ATOM     37  O   UNL A   1      45.980  38.109  29.094  1.00  0.00    -0.376 OA
BRANCH  37  38
ATOM     38  C   UNL A   1      45.245  37.436  28.090  1.00  0.00     0.202 C 
BRANCH  38  39
ATOM     39  C   UNL A   1      43.755  37.701  28.414  1.00  0.00     0.261 C 
BRANCH  39  40
ATOM     40  O   UNL A   1      42.954  36.461  28.122  1.00  0.00    -0.460 OA
BRANCH  40  41
ATOM     41  C   UNL A   1      43.200  35.708  26.986  1.00  0.00     0.338 C 
ATOM     42  O   UNL A   1      42.519  35.808  25.972  1.00  0.00    -0.246 OA
BRANCH  41  43
ATOM     43  C   UNL A   1      44.167  34.493  27.168  1.00  0.00     0.060 A 
ATOM     44  C   UNL A   1      44.680  33.763  26.057  1.00  0.00     0.016 A 
ATOM     45  C   UNL A   1      44.275  33.840  28.383  1.00  0.00     0.016 A 
ATOM     46  C   UNL A   1      45.109  32.366  26.111  1.00  0.00     0.010 A 
ATOM     47  C   UNL A   1      44.663  32.462  28.419  1.00  0.00     0.010 A 
ATOM     48  C   UNL A   1      45.042  31.632  27.296  1.00  0.00    -0.014 A 
BRANCH  48  49
ATOM     49  C   UNL A   1      45.010  30.022  27.512  1.00  0.00     0.031 A 
ATOM     50  C   UNL A   1      46.329  29.338  27.264  1.00  0.00     0.074 A 
ATOM     51  C   UNL A   1      44.118  29.179  28.222  1.00  0.00     0.049 A 
ATOM     52  N   UNL A   1      46.489  28.055  27.231  1.00  0.00    -0.248 NA
ATOM     53  C   UNL A   1      47.593  30.018  26.972  1.00  0.00     0.031 C 
ATOM     54  C   UNL A   1      44.512  28.078  29.154  1.00  0.00     0.029 A 
ATOM     55  N   UNL A   1      42.771  29.238  28.598  1.00  0.00    -0.354 N 
ATOM     56  C   UNL A   1      47.821  27.823  27.487  1.00  0.00     0.074 A 
ATOM     57  C   UNL A   1      48.470  29.014  27.028  1.00  0.00     0.031 C 
ATOM     58  C   UNL A   1      43.470  27.487  29.782  1.00  0.00     0.029 A 
ATOM     59  C   UNL A   1      42.251  28.145  29.365  1.00  0.00     0.049 A 
ATOM     60  H   UNL A   1      42.204  30.002  28.346  1.00  0.00     0.167 HD
ATOM     61  C   UNL A   1      48.186  26.752  28.256  1.00  0.00     0.037 A 
ATOM     62  C   UNL A   1      40.958  27.642  29.437  1.00  0.00     0.037 A 
ATOM     63  C   UNL A   1      47.008  25.946  28.680  1.00  0.00     0.049 A 
ATOM     64  C   UNL A   1      41.156  26.413  28.544  1.00  0.00     0.074 A 
ATOM     65  C   UNL A   1      46.534  25.480  29.899  1.00  0.00     0.029 A 
ATOM     66  N   UNL A   1      45.957  25.708  27.781  1.00  0.00    -0.354 N 
ATOM     67  N   UNL A   1      42.304  26.265  27.930  1.00  0.00    -0.248 NA
ATOM     68  C   UNL A   1      40.325  25.222  28.354  1.00  0.00     0.031 C 
ATOM     69  C   UNL A   1      45.255  24.872  29.688  1.00  0.00     0.029 A 
ATOM     70  C   UNL A   1      44.896  25.032  28.355  1.00  0.00     0.049 A 
ATOM     71  H   UNL A   1      45.974  25.992  26.838  1.00  0.00     0.167 HD
ATOM     72  C   UNL A   1      42.535  24.967  27.704  1.00  0.00     0.074 A 
ATOM     73  C   UNL A   1      41.212  24.373  27.782  1.00  0.00     0.031 C 
ATOM     74  C   UNL A   1      43.805  24.516  27.518  1.00  0.00     0.037 A 
BRANCH  61  75
ATOM     75  C   UNL A   1      49.609  26.464  28.762  1.00  0.00     0.064 A 
ATOM     76  C   UNL A   1      50.620  26.098  27.843  1.00  0.00     0.173 A 
ATOM     77  C   UNL A   1      50.078  26.554  30.096  1.00  0.00     0.173 A 
ATOM     78  F   UNL A   1      50.361  25.926  26.542  1.00  0.00    -0.203 F 
ATOM     79  C   UNL A   1      51.960  25.903  28.207  1.00  0.00     0.198 A 
ATOM     80  C   UNL A   1      51.428  26.419  30.451  1.00  0.00     0.198 A 
ATOM     81  F   UNL A   1      49.270  26.729  31.141  1.00  0.00    -0.203 F 
ATOM     82  F   UNL A   1      52.852  25.538  27.277  1.00  0.00    -0.200 F 
ATOM     83  C   UNL A   1      52.372  26.102  29.505  1.00  0.00     0.200 A 
ATOM     84  F   UNL A   1      51.799  26.597  31.729  1.00  0.00    -0.200 F 
ATOM     85  F   UNL A   1      53.663  25.979  29.842  1.00  0.00    -0.200 F 
ENDBRANCH  61  75
BRANCH  62  86
ATOM     86  C   UNL A   1      39.835  28.699  29.392  1.00  0.00     0.064 A 
ATOM     87  C   UNL A   1      38.865  29.380  28.010  1.00  0.00     0.173 A 
ATOM     88  C   UNL A   1      39.161  28.614  30.956  1.00  0.00     0.173 A 
ATOM     89  F   UNL A   1      39.414  29.437  26.784  1.00  0.00    -0.203 F 
ATOM     90  C   UNL A   1      37.147  29.943  28.156  1.00  0.00     0.198 A 
ATOM     91  C   UNL A   1      37.505  28.975  31.245  1.00  0.00     0.198 A 
ATOM     92  F   UNL A   1      39.979  28.616  32.026  1.00  0.00    -0.203 F 
ATOM     93  F   UNL A   1      36.431  30.350  27.100  1.00  0.00    -0.200 F 
ATOM     94  C   UNL A   1      36.354  29.789  29.788  1.00  0.00     0.200 A 
ATOM     95  F   UNL A   1      37.286  28.708  32.568  1.00  0.00    -0.200 F 
ATOM     96  F   UNL A   1      35.066  30.207  29.823  1.00  0.00    -0.200 F 
ENDBRANCH  62  86
BRANCH  74  97
ATOM     97  C   UNL A   1      44.108  23.475  26.508  1.00  0.00     0.064 A 
ATOM     98  C   UNL A   1      43.674  22.151  26.645  1.00  0.00     0.173 A 
ATOM     99  C   UNL A   1      44.704  23.821  25.277  1.00  0.00     0.173 A 
ATOM    100  F   UNL A   1      42.904  21.756  27.671  1.00  0.00    -0.203 F 
ATOM    101  C   UNL A   1      43.989  21.195  25.695  1.00  0.00     0.198 A 
ATOM    102  C   UNL A   1      44.925  22.883  24.288  1.00  0.00     0.198 A 
ATOM    103  F   UNL A   1      45.071  25.074  24.975  1.00  0.00    -0.203 F 
ATOM    104  F   UNL A   1      43.671  19.915  25.923  1.00  0.00    -0.200 F 
ATOM    105  C   UNL A   1      44.620  21.559  24.521  1.00  0.00     0.200 A 
ATOM    106  F   UNL A   1      45.436  23.273  23.114  1.00  0.00    -0.200 F 
ATOM    107  F   UNL A   1      44.925  20.635  23.605  1.00  0.00    -0.200 F 
ENDBRANCH  74  97
ENDBRANCH  48  49
ENDBRANCH  41  43
ENDBRANCH  40  41
ENDBRANCH  39  40
ENDBRANCH  38  39
ENDBRANCH  37  38
ENDBRANCH  36  37
ENDBRANCH  35  36
ENDBRANCH  34  35
ENDBRANCH  33  34
ENDBRANCH   1  33
TORSDOF 26
ENDMDL
MODEL 3
REMARK VINA RESULT:      -6.9      4.011      9.155
REMARK SMILES Cc1c(NCc2ccccn2)cccc1C(=O)N1CCOC[C@@H]1CC(=O)OCCOCCOCCOCCOC(=O)c1ccc(-c2c3nc(c(-c4c(F)c(F)c(F)c(F)c4F)c4ccc([nH]4)c(-c4c(F)c(F)c(F)c(F)c4F)c4nc(c(-c5c(F)c(F)c(F)c(F)c5F)c5ccc2[nH]5)C=C4)C=C3)cc1
REMARK SMILES IDX 31 1 30 2 29 3 28 4 27 5 25 6 26 7 24 8 23 9 18 10 19 11
REMARK SMILES IDX 20 12 22 13 21 14 16 15 17 16 15 17 1 18 2 19 3 20 12 21
REMARK SMILES IDX 14 22 13 23 4 24 5 26 6 27 7 28 11 29 8 30 10 31 9 32 32 33
REMARK SMILES IDX 33 34 34 35 35 36 36 37 37 38 38 39 39 40 40 41 41 42 42 43
REMARK SMILES IDX 43 44 104 45 44 46 103 47 45 48 46 49 47 50 97 51 48 52
REMARK SMILES IDX 102 53 96 54 98 55 49 56 101 57 95 58 94 59 50 61 82 62
REMARK SMILES IDX 62 63 81 64 63 65 66 66 80 67 99 68 64 69 65 70 79 72 100 73
REMARK SMILES IDX 67 74 51 75 52 76 60 77 53 78 54 79 58 80 61 81 55 82 56 83
REMARK SMILES IDX 59 84 57 85 83 86 84 87 92 88 85 89 86 90 90 91 93 92 87 93
REMARK SMILES IDX 88 94 91 95 89 96 68 97 69 98 77 99 70 100 71 101 75 102
REMARK SMILES IDX 78 103 72 104 73 105 76 106 74 107
REMARK H PARENT 4 25 98 60 66 71
REMARK Flexibility Score: inf
ROOT
ATOM      1  C   UNL A   1      46.684  42.678  28.822  1.00  0.00     0.188 C 
ENDROOT
BRANCH   1   2
ATOM      2  O   UNL A   1      47.220  41.587  28.093  1.00  0.00    -0.376 OA
BRANCH   2   3
ATOM      3  C   UNL A   1      47.989  40.737  28.880  1.00  0.00     0.202 C 
BRANCH   3   4
ATOM      4  C   UNL A   1      49.370  40.366  28.456  1.00  0.00     0.261 C 
BRANCH   4   5
ATOM      5  O   UNL A   1      49.460  39.159  27.758  1.00  0.00    -0.463 OA
BRANCH   5   6
ATOM      6  C   UNL A   1      50.682  38.612  27.635  1.00  0.00     0.308 C 
ATOM      7  O   UNL A   1      51.664  39.131  27.119  1.00  0.00    -0.252 OA
BRANCH   6   8
ATOM      8  C   UNL A   1      50.634  37.159  27.874  1.00  0.00     0.150 C 
BRANCH   8   9
ATOM      9  C   UNL A   1      50.658  36.244  26.655  1.00  0.00     0.122 C 
ATOM     10  N   UNL A   1      50.135  34.786  26.683  1.00  0.00    -0.330 N 
ATOM     11  C   UNL A   1      50.171  34.312  25.280  1.00  0.00     0.148 C 
ATOM     12  C   UNL A   1      51.585  34.465  24.647  1.00  0.00     0.181 C 
ATOM     13  C   UNL A   1      52.045  36.366  25.951  1.00  0.00     0.185 C 
ATOM     14  O   UNL A   1      52.007  35.834  24.625  1.00  0.00    -0.377 OA
BRANCH  10  15
ATOM     15  C   UNL A   1      49.050  34.406  27.604  1.00  0.00     0.254 C 
ATOM     16  O   UNL A   1      49.475  34.180  28.741  1.00  0.00    -0.269 OA
BRANCH  15  17
ATOM     17  C   UNL A   1      47.311  34.102  27.204  1.00  0.00     0.045 A 
ATOM     18  C   UNL A   1      46.748  36.834  28.114  1.00  0.00     0.047 C 
ATOM     19  C   UNL A   1      46.402  35.683  27.196  1.00  0.00    -0.015 A 
ATOM     20  C   UNL A   1      44.635  35.694  27.035  1.00  0.00     0.038 A 
ATOM     21  C   UNL A   1      43.648  34.215  27.027  1.00  0.00     0.026 A 
ATOM     22  C   UNL A   1      46.117  32.438  27.158  1.00  0.00     0.014 A 
ATOM     23  C   UNL A   1      44.326  32.610  27.091  1.00  0.00     0.003 A 
BRANCH  20  24
ATOM     24  N   UNL A   1      44.091  36.900  26.566  1.00  0.00    -0.379 N 
ATOM     25  H   UNL A   1      44.255  37.157  25.629  1.00  0.00     0.160 HD
BRANCH  24  26
ATOM     26  C   UNL A   1      43.298  37.789  27.399  1.00  0.00     0.169 C 
BRANCH  26  27
ATOM     27  C   UNL A   1      43.133  39.161  26.786  1.00  0.00     0.059 A 
ATOM     28  C   UNL A   1      41.869  39.723  26.586  1.00  0.00     0.026 A 
ATOM     29  N   UNL A   1      44.263  39.793  26.392  1.00  0.00    -0.259 NA
ATOM     30  C   UNL A   1      41.741  40.919  25.907  1.00  0.00     0.004 A 
ATOM     31  C   UNL A   1      44.114  40.987  25.779  1.00  0.00     0.111 A 
ATOM     32  C   UNL A   1      42.889  41.572  25.499  1.00  0.00     0.020 A 
ENDBRANCH  26  27
ENDBRANCH  24  26
ENDBRANCH  20  24
ENDBRANCH  15  17
ENDBRANCH  10  15
ENDBRANCH   8   9
ENDBRANCH   6   8
ENDBRANCH   5   6
ENDBRANCH   4   5
ENDBRANCH   3   4
ENDBRANCH   2   3
ENDBRANCH   1   2
BRANCH   1  33
ATOM     33  C   UNL A   1      45.172  43.024  28.667  1.00  0.00     0.188 C 
BRANCH  33  34
ATOM     34  O   UNL A   1      44.254  42.043  29.108  1.00  0.00    -0.377 OA
BRANCH  34  35
ATOM     35  C   UNL A   1      43.312  42.226  30.155  1.00  0.00     0.188 C 
BRANCH  35  36
ATOM     36  C   UNL A   1      43.447  43.377  31.075  1.00  0.00     0.188 C 
BRANCH  36  37
ATOM     37  O   UNL A   1      43.122  42.897  32.353  1.00  0.00    -0.376 OA
BRANCH  37  38
ATOM     38  C   UNL A   1      43.741  41.632  32.488  1.00  0.00     0.202 C 
BRANCH  38  39
ATOM     39  C   UNL A   1      42.940  40.890  33.585  1.00  0.00     0.261 C 
BRANCH  39  40
ATOM     40  O   UNL A   1      42.984  39.410  33.318  1.00  0.00    -0.460 OA
BRANCH  40  41
ATOM     41  C   UNL A   1      44.087  38.656  33.685  1.00  0.00     0.338 C 
ATOM     42  O   UNL A   1      44.923  39.061  34.484  1.00  0.00    -0.246 OA
BRANCH  41  43
ATOM     43  C   UNL A   1      44.395  37.414  32.785  1.00  0.00     0.060 A 
ATOM     44  C   UNL A   1      43.756  37.218  31.527  1.00  0.00     0.016 A 
ATOM     45  C   UNL A   1      44.994  36.282  33.308  1.00  0.00     0.016 A 
ATOM     46  C   UNL A   1      43.552  35.913  30.897  1.00  0.00     0.010 A 
ATOM     47  C   UNL A   1      44.757  35.007  32.702  1.00  0.00     0.010 A 
ATOM     48  C   UNL A   1      43.984  34.737  31.510  1.00  0.00    -0.014 A 
BRANCH  48  49
ATOM     49  C   UNL A   1      43.493  33.207  31.268  1.00  0.00     0.031 A 
ATOM     50  C   UNL A   1      44.589  32.264  30.842  1.00  0.00     0.074 A 
ATOM     51  C   UNL A   1      42.348  32.499  31.712  1.00  0.00     0.049 A 
ATOM     52  N   UNL A   1      44.391  31.047  30.453  1.00  0.00    -0.248 NA
ATOM     53  C   UNL A   1      46.010  32.605  30.755  1.00  0.00     0.031 C 
ATOM     54  C   UNL A   1      42.346  31.123  32.301  1.00  0.00     0.029 A 
ATOM     55  N   UNL A   1      41.044  32.839  32.087  1.00  0.00    -0.354 N 
ATOM     56  C   UNL A   1      45.583  30.382  30.638  1.00  0.00     0.074 A 
ATOM     57  C   UNL A   1      46.570  31.414  30.531  1.00  0.00     0.031 C 
ATOM     58  C   UNL A   1      41.133  30.712  32.737  1.00  0.00     0.029 A 
ATOM     59  C   UNL A   1      40.181  31.779  32.517  1.00  0.00     0.049 A 
ATOM     60  H   UNL A   1      40.731  33.772  32.056  1.00  0.00     0.167 HD
ATOM     61  C   UNL A   1      45.573  29.088  31.079  1.00  0.00     0.037 A 
ATOM     62  C   UNL A   1      38.799  31.668  32.443  1.00  0.00     0.037 A 
ATOM     63  C   UNL A   1      44.188  28.571  31.258  1.00  0.00     0.049 A 
ATOM     64  C   UNL A   1      38.723  30.718  31.243  1.00  0.00     0.074 A 
ATOM     65  C   UNL A   1      43.506  27.954  32.298  1.00  0.00     0.029 A 
ATOM     66  N   UNL A   1      43.191  28.893  30.326  1.00  0.00    -0.354 N 
ATOM     67  N   UNL A   1      39.832  30.416  30.615  1.00  0.00    -0.248 NA
ATOM     68  C   UNL A   1      37.615  29.913  30.726  1.00  0.00     0.031 C 
ATOM     69  C   UNL A   1      42.131  27.818  31.923  1.00  0.00     0.029 A 
ATOM     70  C   UNL A   1      41.941  28.424  30.686  1.00  0.00     0.049 A 
ATOM     71  H   UNL A   1      43.363  29.401  29.500  1.00  0.00     0.167 HD
ATOM     72  C   UNL A   1      39.715  29.215  30.037  1.00  0.00     0.074 A 
ATOM     73  C   UNL A   1      38.278  29.028  29.942  1.00  0.00     0.031 C 
ATOM     74  C   UNL A   1      40.822  28.485  29.736  1.00  0.00     0.037 A 
BRANCH  61  75
ATOM     75  C   UNL A   1      46.816  28.279  31.488  1.00  0.00     0.064 A 
ATOM     76  C   UNL A   1      47.245  27.196  30.685  1.00  0.00     0.173 A 
ATOM     77  C   UNL A   1      47.655  28.505  32.607  1.00  0.00     0.173 A 
ATOM     78  F   UNL A   1      46.559  26.806  29.604  1.00  0.00    -0.203 F 
ATOM     79  C   UNL A   1      48.413  26.464  30.937  1.00  0.00     0.198 A 
ATOM     80  C   UNL A   1      48.855  27.813  32.825  1.00  0.00     0.198 A 
ATOM     81  F   UNL A   1      47.355  29.367  33.578  1.00  0.00    -0.203 F 
ATOM     82  F   UNL A   1      48.738  25.439  30.136  1.00  0.00    -0.200 F 
ATOM     83  C   UNL A   1      49.239  26.797  31.986  1.00  0.00     0.200 A 
ATOM     84  F   UNL A   1      49.632  28.145  33.869  1.00  0.00    -0.200 F 
ATOM     85  F   UNL A   1      50.388  26.139  32.190  1.00  0.00    -0.200 F 
ENDBRANCH  61  75
BRANCH  62  86
ATOM     86  C   UNL A   1      38.017  32.975  32.691  1.00  0.00     0.064 A 
ATOM     87  C   UNL A   1      36.820  33.886  31.666  1.00  0.00     0.173 A 
ATOM     88  C   UNL A   1      37.929  33.056  34.393  1.00  0.00     0.173 A 
ATOM     89  F   UNL A   1      36.906  33.809  30.326  1.00  0.00    -0.203 F 
ATOM     90  C   UNL A   1      35.448  34.866  32.335  1.00  0.00     0.198 A 
ATOM     91  C   UNL A   1      36.614  33.824  35.192  1.00  0.00     0.198 A 
ATOM     92  F   UNL A   1      39.043  32.846  35.119  1.00  0.00    -0.203 F 
ATOM     93  F   UNL A   1      34.529  35.446  31.552  1.00  0.00    -0.200 F 
ATOM     94  C   UNL A   1      35.260  34.909  34.146  1.00  0.00     0.200 A 
ATOM     95  F   UNL A   1      36.812  33.614  36.528  1.00  0.00    -0.200 F 
ATOM     96  F   UNL A   1      34.203  35.640  34.578  1.00  0.00    -0.200 F 
ENDBRANCH  62  86
BRANCH  74  97
ATOM     97  C   UNL A   1      40.910  27.710  28.476  1.00  0.00     0.064 A 
ATOM     98  C   UNL A   1      40.296  26.460  28.323  1.00  0.00     0.173 A 
ATOM     99  C   UNL A   1      41.476  28.282  27.317  1.00  0.00     0.173 A 
ATOM    100  F   UNL A   1      39.539  25.916  29.288  1.00  0.00    -0.203 F 
ATOM    101  C   UNL A   1      40.411  25.749  27.141  1.00  0.00     0.198 A 
ATOM    102  C   UNL A   1      41.498  27.610  26.112  1.00  0.00     0.198 A 
ATOM    103  F   UNL A   1      42.003  29.514  27.300  1.00  0.00    -0.203 F 
ATOM    104  F   UNL A   1      39.923  24.504  27.075  1.00  0.00    -0.200 F 
ATOM    105  C   UNL A   1      41.018  26.321  26.039  1.00  0.00     0.200 A 
ATOM    106  F   UNL A   1      41.989  28.221  25.027  1.00  0.00    -0.200 F 
ATOM    107  F   UNL A   1      41.130  25.632  24.899  1.00  0.00    -0.200 F 
ENDBRANCH  74  97
ENDBRANCH  48  49
ENDBRANCH  41  43
ENDBRANCH  40  41
ENDBRANCH  39  40
ENDBRANCH  38  39
ENDBRANCH  37  38
ENDBRANCH  36  37
ENDBRANCH  35  36
ENDBRANCH  34  35
ENDBRANCH  33  34
ENDBRANCH   1  33
TORSDOF 26
ENDMDL
