MODEL 1
REMARK VINA RESULT:     -10.6      0.000      0.000
REMARK SMILES O=C(Nc1ccsc1C(=O)OCCOCCOCCOCCOC(=O)c1ccc(-c2c3nc(c(-c4c(F)c(F)c(F)c(F)c4F)c4ccc([nH]4)c(-c4c(F)c(F)c(F)c(F)c4F)c4nc(c(-c5c(F)c(F)c(F)c(F)c5F)c5ccc2[nH]5)C=C4)C=C3)cc1)c1ccc(Br)nc1
REMARK SMILES IDX 17 1 16 2 15 3 14 4 13 5 12 6 11 7 9 8 10 9 8 10 4 11 5 12
REMARK SMILES IDX 6 13 7 14 3 15 1 16 2 17 89 19 90 20 95 21 91 22 94 23 92 24
REMARK SMILES IDX 93 25 18 26 19 27 20 28 21 29 22 30 23 31 24 32 25 33 26 34
REMARK SMILES IDX 27 35 88 36 28 37 87 38 29 39 30 40 31 41 81 42 32 43 86 44
REMARK SMILES IDX 80 45 82 46 33 47 85 48 79 49 78 50 34 52 66 53 46 54 65 55
REMARK SMILES IDX 47 56 50 57 64 58 83 59 48 60 49 61 63 63 84 64 51 65 35 66
REMARK SMILES IDX 36 67 44 68 37 69 38 70 42 71 45 72 39 73 40 74 43 75 41 76
REMARK SMILES IDX 67 77 68 78 76 79 69 80 70 81 74 82 77 83 71 84 72 85 75 86
REMARK SMILES IDX 73 87 52 88 53 89 61 90 54 91 55 92 59 93 62 94 56 95 57 96
REMARK SMILES IDX 60 97 58 98
REMARK H PARENT 3 18 82 51 50 62
REMARK Flexibility Score: inf
ROOT
ATOM      1  O   UNL A   1      33.667  31.706  27.634  1.00  0.00    -0.377 OA
ENDROOT
BRANCH   1   2
ATOM      2  C   UNL A   1      33.822  30.474  26.945  1.00  0.00     0.188 C 
BRANCH   2   3
ATOM      3  C   UNL A   1      32.938  29.355  27.515  1.00  0.00     0.188 C 
BRANCH   3   4
ATOM      4  O   UNL A   1      32.264  28.605  26.504  1.00  0.00    -0.376 OA
BRANCH   4   5
ATOM      5  C   UNL A   1      31.817  29.342  25.370  1.00  0.00     0.202 C 
BRANCH   5   6
ATOM      6  C   UNL A   1      30.968  28.552  24.361  1.00  0.00     0.261 C 
BRANCH   6   7
ATOM      7  O   UNL A   1      30.382  27.340  24.871  1.00  0.00    -0.459 OA
BRANCH   7   8
ATOM      8  C   UNL A   1      30.150  26.333  23.989  1.00  0.00     0.350 C 
ATOM      9  O   UNL A   1      29.040  26.067  23.540  1.00  0.00    -0.245 OA
BRANCH   8  10
ATOM     10  C   UNL A   1      31.414  25.725  23.602  1.00  0.00     0.136 A 
ATOM     11  C   UNL A   1      32.414  25.117  24.364  1.00  0.00     0.067 A 
ATOM     12  C   UNL A   1      33.504  24.708  23.532  1.00  0.00     0.039 A 
ATOM     13  C   UNL A   1      33.348  25.072  22.216  1.00  0.00     0.068 A 
ATOM     14  S   UNL A   1      31.850  25.826  21.941  1.00  0.00    -0.135 S 
BRANCH  11  15
ATOM     15  N   UNL A   1      32.283  24.931  25.742  1.00  0.00    -0.320 N 
ATOM     16  O   UNL A   1      31.762  23.840  27.658  1.00  0.00    -0.269 OA
ATOM     17  C   UNL A   1      32.175  23.788  26.500  1.00  0.00     0.257 C 
ATOM     18  H   UNL A   1      32.265  25.766  26.262  1.00  0.00     0.170 HD
BRANCH  17  19
ATOM     19  C   UNL A   1      32.610  22.484  25.988  1.00  0.00     0.058 A 
ATOM     20  C   UNL A   1      33.956  22.128  25.999  1.00  0.00     0.018 A 
ATOM     21  C   UNL A   1      31.697  21.611  25.414  1.00  0.00     0.126 A 
ATOM     22  C   UNL A   1      34.330  20.882  25.497  1.00  0.00     0.037 A 
ATOM     23  N   UNL A   1      32.032  20.391  24.927  1.00  0.00    -0.249 NA
ATOM     24  C   UNL A   1      33.341  20.051  24.984  1.00  0.00     0.106 A 
ATOM     25  Br  UNL A   1      33.830  18.338  24.334  1.00  0.00    -0.029 Br
ENDBRANCH  17  19
ENDBRANCH  11  15
ENDBRANCH   8  10
ENDBRANCH   7   8
ENDBRANCH   6   7
ENDBRANCH   5   6
ENDBRANCH   4   5
ENDBRANCH   3   4
ENDBRANCH   2   3
ENDBRANCH   1   2
BRANCH   1  26
ATOM     26  C   UNL A   1      34.860  32.412  27.982  1.00  0.00     0.188 C 
BRANCH  26  27
ATOM     27  C   UNL A   1      34.817  33.914  28.338  1.00  0.00     0.188 C 
BRANCH  27  28
ATOM     28  O   UNL A   1      35.235  34.195  29.673  1.00  0.00    -0.376 OA
BRANCH  28  29
ATOM     29  C   UNL A   1      34.215  34.590  30.586  1.00  0.00     0.202 C 
BRANCH  29  30
ATOM     30  C   UNL A   1      34.180  33.747  31.868  1.00  0.00     0.261 C 
BRANCH  30  31
ATOM     31  O   UNL A   1      34.840  32.476  31.761  1.00  0.00    -0.460 OA
BRANCH  31  32
ATOM     32  C   UNL A   1      35.822  32.218  32.651  1.00  0.00     0.338 C 
ATOM     33  O   UNL A   1      35.820  32.452  33.845  1.00  0.00    -0.246 OA
BRANCH  32  34
ATOM     34  C   UNL A   1      36.859  31.424  31.967  1.00  0.00     0.060 A 
ATOM     35  C   UNL A   1      37.901  30.880  32.729  1.00  0.00     0.016 A 
ATOM     36  C   UNL A   1      36.816  31.235  30.583  1.00  0.00     0.016 A 
ATOM     37  C   UNL A   1      38.932  30.186  32.098  1.00  0.00     0.010 A 
ATOM     38  C   UNL A   1      37.856  30.553  29.952  1.00  0.00     0.010 A 
ATOM     39  C   UNL A   1      38.936  30.059  30.702  1.00  0.00    -0.014 A 
BRANCH  39  40
ATOM     40  C   UNL A   1      40.156  29.590  30.006  1.00  0.00     0.031 A 
ATOM     41  C   UNL A   1      41.279  30.568  29.801  1.00  0.00     0.074 A 
ATOM     42  C   UNL A   1      40.263  28.328  29.561  1.00  0.00     0.049 A 
ATOM     43  N   UNL A   1      42.420  30.407  29.180  1.00  0.00    -0.248 NA
ATOM     44  C   UNL A   1      41.084  31.912  30.368  1.00  0.00     0.031 C 
ATOM     45  C   UNL A   1      39.253  27.286  29.717  1.00  0.00     0.029 A 
ATOM     46  N   UNL A   1      41.280  27.716  28.869  1.00  0.00    -0.354 N 
ATOM     47  C   UNL A   1      43.078  31.624  29.289  1.00  0.00     0.074 A 
ATOM     48  C   UNL A   1      42.199  32.524  30.002  1.00  0.00     0.031 C 
ATOM     49  C   UNL A   1      39.690  26.164  29.118  1.00  0.00     0.029 A 
ATOM     50  C   UNL A   1      41.000  26.419  28.519  1.00  0.00     0.049 A 
ATOM     51  H   UNL A   1      42.126  28.165  28.645  1.00  0.00     0.167 HD
ATOM     52  C   UNL A   1      44.311  31.960  28.842  1.00  0.00     0.037 A 
ATOM     53  C   UNL A   1      41.714  25.549  27.779  1.00  0.00     0.037 A 
ATOM     54  C   UNL A   1      45.178  31.073  28.115  1.00  0.00     0.049 A 
ATOM     55  C   UNL A   1      43.057  25.966  27.233  1.00  0.00     0.074 A 
ATOM     56  C   UNL A   1      46.448  31.316  27.623  1.00  0.00     0.029 A 
ATOM     57  N   UNL A   1      44.855  29.769  27.768  1.00  0.00    -0.354 N 
ATOM     58  N   UNL A   1      43.688  27.106  27.367  1.00  0.00    -0.248 NA
ATOM     59  C   UNL A   1      43.787  24.969  26.436  1.00  0.00     0.031 C 
ATOM     60  C   UNL A   1      46.877  30.173  26.940  1.00  0.00     0.029 A 
ATOM     61  C   UNL A   1      45.894  29.202  27.049  1.00  0.00     0.049 A 
ATOM     62  H   UNL A   1      44.014  29.314  27.999  1.00  0.00     0.167 HD
ATOM     63  C   UNL A   1      44.895  26.959  26.695  1.00  0.00     0.074 A 
ATOM     64  C   UNL A   1      44.914  25.612  26.162  1.00  0.00     0.031 C 
ATOM     65  C   UNL A   1      45.898  27.857  26.532  1.00  0.00     0.037 A 
BRANCH  52  66
ATOM     66  C   UNL A   1      44.781  33.357  29.114  1.00  0.00     0.064 A 
ATOM     67  C   UNL A   1      45.543  33.664  30.251  1.00  0.00     0.173 A 
ATOM     68  C   UNL A   1      44.474  34.398  28.226  1.00  0.00     0.173 A 
ATOM     69  F   UNL A   1      45.846  32.706  31.140  1.00  0.00    -0.203 F 
ATOM     70  C   UNL A   1      45.962  34.968  30.501  1.00  0.00     0.198 A 
ATOM     71  C   UNL A   1      44.915  35.696  28.466  1.00  0.00     0.198 A 
ATOM     72  F   UNL A   1      43.747  34.155  27.125  1.00  0.00    -0.203 F 
ATOM     73  F   UNL A   1      46.648  35.248  31.618  1.00  0.00    -0.200 F 
ATOM     74  C   UNL A   1      45.652  35.981  29.606  1.00  0.00     0.200 A 
ATOM     75  F   UNL A   1      44.622  36.673  27.597  1.00  0.00    -0.200 F 
ATOM     76  F   UNL A   1      46.055  37.236  29.848  1.00  0.00    -0.200 F 
ENDBRANCH  52  66
BRANCH  53  77
ATOM     77  C   UNL A   1      41.171  24.196  27.498  1.00  0.00     0.064 A 
ATOM     78  C   UNL A   1      41.734  23.054  28.083  1.00  0.00     0.173 A 
ATOM     79  C   UNL A   1      40.086  24.017  26.628  1.00  0.00     0.173 A 
ATOM     80  F   UNL A   1      42.791  23.174  28.901  1.00  0.00    -0.203 F 
ATOM     81  C   UNL A   1      41.244  21.782  27.796  1.00  0.00     0.198 A 
ATOM     82  C   UNL A   1      39.580  22.747  26.360  1.00  0.00     0.198 A 
ATOM     83  F   UNL A   1      39.518  25.078  26.037  1.00  0.00    -0.203 F 
ATOM     84  F   UNL A   1      41.828  20.704  28.335  1.00  0.00    -0.200 F 
ATOM     85  C   UNL A   1      40.163  21.630  26.939  1.00  0.00     0.200 A 
ATOM     86  F   UNL A   1      38.533  22.604  25.536  1.00  0.00    -0.200 F 
ATOM     87  F   UNL A   1      39.691  20.407  26.664  1.00  0.00    -0.200 F 
ENDBRANCH  53  77
BRANCH  65  88
ATOM     88  C   UNL A   1      47.112  27.407  25.775  1.00  0.00     0.064 A 
ATOM     89  C   UNL A   1      47.240  27.624  24.395  1.00  0.00     0.173 A 
ATOM     90  C   UNL A   1      48.183  26.799  26.448  1.00  0.00     0.173 A 
ATOM     91  F   UNL A   1      46.239  28.190  23.705  1.00  0.00    -0.203 F 
ATOM     92  C   UNL A   1      48.389  27.230  23.714  1.00  0.00     0.198 A 
ATOM     93  C   UNL A   1      49.340  26.430  25.768  1.00  0.00     0.198 A 
ATOM     94  F   UNL A   1      48.112  26.576  27.769  1.00  0.00    -0.203 F 
ATOM     95  F   UNL A   1      48.475  27.411  22.389  1.00  0.00    -0.200 F 
ATOM     96  C   UNL A   1      49.440  26.640  24.401  1.00  0.00     0.200 A 
ATOM     97  F   UNL A   1      50.359  25.872  26.436  1.00  0.00    -0.200 F 
ATOM     98  F   UNL A   1      50.548  26.269  23.744  1.00  0.00    -0.200 F 
ENDBRANCH  65  88
ENDBRANCH  39  40
ENDBRANCH  32  34
ENDBRANCH  31  32
ENDBRANCH  30  31
ENDBRANCH  29  30
ENDBRANCH  28  29
ENDBRANCH  27  28
ENDBRANCH  26  27
ENDBRANCH   1  26
TORSDOF 22
ENDMDL
MODEL 2
REMARK VINA RESULT:     -10.4      1.047      2.007
REMARK SMILES O=C(Nc1ccsc1C(=O)OCCOCCOCCOCCOC(=O)c1ccc(-c2c3nc(c(-c4c(F)c(F)c(F)c(F)c4F)c4ccc([nH]4)c(-c4c(F)c(F)c(F)c(F)c4F)c4nc(c(-c5c(F)c(F)c(F)c(F)c5F)c5ccc2[nH]5)C=C4)C=C3)cc1)c1ccc(Br)nc1
REMARK SMILES IDX 17 1 16 2 15 3 14 4 13 5 12 6 11 7 9 8 10 9 8 10 4 11 5 12
REMARK SMILES IDX 6 13 7 14 3 15 1 16 2 17 89 19 90 20 95 21 91 22 94 23 92 24
REMARK SMILES IDX 93 25 18 26 19 27 20 28 21 29 22 30 23 31 24 32 25 33 26 34
REMARK SMILES IDX 27 35 88 36 28 37 87 38 29 39 30 40 31 41 81 42 32 43 86 44
REMARK SMILES IDX 80 45 82 46 33 47 85 48 79 49 78 50 34 52 66 53 46 54 65 55
REMARK SMILES IDX 47 56 50 57 64 58 83 59 48 60 49 61 63 63 84 64 51 65 35 66
REMARK SMILES IDX 36 67 44 68 37 69 38 70 42 71 45 72 39 73 40 74 43 75 41 76
REMARK SMILES IDX 67 77 68 78 76 79 69 80 70 81 74 82 77 83 71 84 72 85 75 86
REMARK SMILES IDX 73 87 52 88 53 89 61 90 54 91 55 92 59 93 62 94 56 95 57 96
REMARK SMILES IDX 60 97 58 98
REMARK H PARENT 3 18 82 51 50 62
REMARK Flexibility Score: inf
ROOT
ATOM      1  O   UNL A   1      34.246  32.736  28.452  1.00  0.00    -0.377 OA
ENDROOT
BRANCH   1   2
ATOM      2  C   UNL A   1      35.104  31.915  27.675  1.00  0.00     0.188 C 
BRANCH   2   3
ATOM      3  C   UNL A   1      34.784  30.419  27.811  1.00  0.00     0.188 C 
BRANCH   3   4
ATOM      4  O   UNL A   1      34.251  29.851  26.614  1.00  0.00    -0.376 OA
BRANCH   4   5
ATOM      5  C   UNL A   1      32.856  30.043  26.395  1.00  0.00     0.202 C 
BRANCH   5   6
ATOM      6  C   UNL A   1      31.927  29.129  27.211  1.00  0.00     0.261 C 
BRANCH   6   7
ATOM      7  O   UNL A   1      31.328  28.051  26.471  1.00  0.00    -0.459 OA
BRANCH   7   8
ATOM      8  C   UNL A   1      32.147  27.064  26.021  1.00  0.00     0.350 C 
ATOM      9  O   UNL A   1      33.211  26.770  26.556  1.00  0.00    -0.245 OA
BRANCH   8  10
ATOM     10  C   UNL A   1      31.513  26.375  24.908  1.00  0.00     0.136 A 
ATOM     11  C   UNL A   1      30.673  25.260  24.874  1.00  0.00     0.067 A 
ATOM     12  C   UNL A   1      30.337  24.921  23.524  1.00  0.00     0.039 A 
ATOM     13  C   UNL A   1      30.971  25.712  22.594  1.00  0.00     0.068 A 
ATOM     14  S   UNL A   1      31.902  26.930  23.326  1.00  0.00    -0.135 S 
BRANCH  11  15
ATOM     15  N   UNL A   1      30.228  24.634  26.040  1.00  0.00    -0.320 N 
ATOM     16  O   UNL A   1      29.880  22.925  27.486  1.00  0.00    -0.269 OA
ATOM     17  C   UNL A   1      30.598  23.450  26.636  1.00  0.00     0.257 C 
ATOM     18  H   UNL A   1      29.526  25.127  26.520  1.00  0.00     0.170 HD
BRANCH  17  19
ATOM     19  C   UNL A   1      31.884  22.809  26.336  1.00  0.00     0.058 A 
ATOM     20  C   UNL A   1      32.982  22.993  27.172  1.00  0.00     0.018 A 
ATOM     21  C   UNL A   1      32.049  22.069  25.175  1.00  0.00     0.126 A 
ATOM     22  C   UNL A   1      34.188  22.372  26.849  1.00  0.00     0.037 A 
ATOM     23  N   UNL A   1      33.207  21.447  24.842  1.00  0.00    -0.249 NA
ATOM     24  C   UNL A   1      34.250  21.609  25.689  1.00  0.00     0.106 A 
ATOM     25  Br  UNL A   1      35.873  20.727  25.259  1.00  0.00    -0.029 Br
ENDBRANCH  17  19
ENDBRANCH  11  15
ENDBRANCH   8  10
ENDBRANCH   7   8
ENDBRANCH   6   7
ENDBRANCH   5   6
ENDBRANCH   4   5
ENDBRANCH   3   4
ENDBRANCH   2   3
ENDBRANCH   1   2
BRANCH   1  26
ATOM     26  C   UNL A   1      34.863  33.720  29.285  1.00  0.00     0.188 C 
BRANCH  26  27
ATOM     27  C   UNL A   1      34.013  34.656  30.171  1.00  0.00     0.188 C 
BRANCH  27  28
ATOM     28  O   UNL A   1      34.558  34.856  31.475  1.00  0.00    -0.376 OA
BRANCH  28  29
ATOM     29  C   UNL A   1      33.734  34.470  32.571  1.00  0.00     0.202 C 
BRANCH  29  30
ATOM     30  C   UNL A   1      34.099  33.099  33.158  1.00  0.00     0.261 C 
BRANCH  30  31
ATOM     31  O   UNL A   1      35.206  32.451  32.512  1.00  0.00    -0.460 OA
BRANCH  31  32
ATOM     32  C   UNL A   1      36.325  32.272  33.247  1.00  0.00     0.338 C 
ATOM     33  O   UNL A   1      36.490  32.540  34.422  1.00  0.00    -0.246 OA
BRANCH  32  34
ATOM     34  C   UNL A   1      37.289  31.513  32.428  1.00  0.00     0.060 A 
ATOM     35  C   UNL A   1      38.229  30.703  33.077  1.00  0.00     0.016 A 
ATOM     36  C   UNL A   1      37.279  31.617  31.035  1.00  0.00     0.016 A 
ATOM     37  C   UNL A   1      39.197  30.032  32.332  1.00  0.00     0.010 A 
ATOM     38  C   UNL A   1      38.257  30.957  30.291  1.00  0.00     0.010 A 
ATOM     39  C   UNL A   1      39.242  30.193  30.940  1.00  0.00    -0.014 A 
BRANCH  39  40
ATOM     40  C   UNL A   1      40.426  29.731  30.180  1.00  0.00     0.031 A 
ATOM     41  C   UNL A   1      41.539  30.709  29.931  1.00  0.00     0.074 A 
ATOM     42  C   UNL A   1      40.510  28.473  29.716  1.00  0.00     0.049 A 
ATOM     43  N   UNL A   1      42.649  30.555  29.255  1.00  0.00    -0.248 NA
ATOM     44  C   UNL A   1      41.374  32.047  30.523  1.00  0.00     0.031 C 
ATOM     45  C   UNL A   1      39.507  27.431  29.909  1.00  0.00     0.029 A 
ATOM     46  N   UNL A   1      41.491  27.869  28.969  1.00  0.00    -0.354 N 
ATOM     47  C   UNL A   1      43.313  31.770  29.344  1.00  0.00     0.074 A 
ATOM     48  C   UNL A   1      42.471  32.663  30.110  1.00  0.00     0.031 C 
ATOM     49  C   UNL A   1      39.913  26.315  29.277  1.00  0.00     0.029 A 
ATOM     50  C   UNL A   1      41.193  26.576  28.618  1.00  0.00     0.049 A 
ATOM     51  H   UNL A   1      42.326  28.319  28.709  1.00  0.00     0.167 HD
ATOM     52  C   UNL A   1      44.523  32.110  28.842  1.00  0.00     0.037 A 
ATOM     53  C   UNL A   1      41.869  25.714  27.835  1.00  0.00     0.037 A 
ATOM     54  C   UNL A   1      45.353  31.230  28.065  1.00  0.00     0.049 A 
ATOM     55  C   UNL A   1      43.184  26.136  27.230  1.00  0.00     0.074 A 
ATOM     56  C   UNL A   1      46.597  31.478  27.514  1.00  0.00     0.029 A 
ATOM     57  N   UNL A   1      45.012  29.931  27.719  1.00  0.00    -0.354 N 
ATOM     58  N   UNL A   1      43.823  27.274  27.346  1.00  0.00    -0.248 NA
ATOM     59  C   UNL A   1      43.873  25.146  26.387  1.00  0.00     0.031 C 
ATOM     60  C   UNL A   1      46.992  30.342  26.798  1.00  0.00     0.029 A 
ATOM     61  C   UNL A   1      46.014  29.371  26.944  1.00  0.00     0.049 A 
ATOM     62  H   UNL A   1      44.182  29.474  27.986  1.00  0.00     0.167 HD
ATOM     63  C   UNL A   1      44.996  27.133  26.613  1.00  0.00     0.074 A 
ATOM     64  C   UNL A   1      44.987  25.792  26.066  1.00  0.00     0.031 C 
ATOM     65  C   UNL A   1      45.990  28.032  26.412  1.00  0.00     0.037 A 
BRANCH  52  66
ATOM     66  C   UNL A   1      45.008  33.503  29.107  1.00  0.00     0.064 A 
ATOM     67  C   UNL A   1      44.695  34.562  28.242  1.00  0.00     0.173 A 
ATOM     68  C   UNL A   1      45.784  33.786  30.240  1.00  0.00     0.173 A 
ATOM     69  F   UNL A   1      43.972  34.339  27.134  1.00  0.00    -0.203 F 
ATOM     70  C   UNL A   1      45.163  35.850  28.489  1.00  0.00     0.198 A 
ATOM     71  C   UNL A   1      46.229  35.079  30.498  1.00  0.00     0.198 A 
ATOM     72  F   UNL A   1      46.109  32.806  31.097  1.00  0.00    -0.203 F 
ATOM     73  F   UNL A   1      44.893  36.838  27.624  1.00  0.00    -0.200 F 
ATOM     74  C   UNL A   1      45.925  36.108  29.620  1.00  0.00     0.200 A 
ATOM     75  F   UNL A   1      46.958  35.328  31.594  1.00  0.00    -0.200 F 
ATOM     76  F   UNL A   1      46.375  37.347  29.857  1.00  0.00    -0.200 F 
ENDBRANCH  52  66
BRANCH  53  77
ATOM     77  C   UNL A   1      41.311  24.365  27.566  1.00  0.00     0.064 A 
ATOM     78  C   UNL A   1      41.888  23.217  28.126  1.00  0.00     0.173 A 
ATOM     79  C   UNL A   1      40.197  24.194  26.731  1.00  0.00     0.173 A 
ATOM     80  F   UNL A   1      42.972  23.328  28.909  1.00  0.00    -0.203 F 
ATOM     81  C   UNL A   1      41.383  21.949  27.850  1.00  0.00     0.198 A 
ATOM     82  C   UNL A   1      39.678  22.927  26.474  1.00  0.00     0.198 A 
ATOM     83  F   UNL A   1      39.614  25.261  26.164  1.00  0.00    -0.203 F 
ATOM     84  F   UNL A   1      41.980  20.866  28.363  1.00  0.00    -0.200 F 
ATOM     85  C   UNL A   1      40.274  21.805  27.029  1.00  0.00     0.200 A 
ATOM     86  F   UNL A   1      38.603  22.793  25.685  1.00  0.00    -0.200 F 
ATOM     87  F   UNL A   1      39.788  20.586  26.763  1.00  0.00    -0.200 F 
ENDBRANCH  53  77
BRANCH  65  88
ATOM     88  C   UNL A   1      47.166  27.590  25.592  1.00  0.00     0.064 A 
ATOM     89  C   UNL A   1      48.250  26.912  26.168  1.00  0.00     0.173 A 
ATOM     90  C   UNL A   1      47.183  27.801  24.205  1.00  0.00     0.173 A 
ATOM     91  F   UNL A   1      48.287  26.698  27.491  1.00  0.00    -0.203 F 
ATOM     92  C   UNL A   1      49.318  26.479  25.387  1.00  0.00     0.198 A 
ATOM     93  C   UNL A   1      48.241  27.343  23.423  1.00  0.00     0.198 A 
ATOM     94  F   UNL A   1      46.166  28.438  23.604  1.00  0.00    -0.203 F 
ATOM     95  F   UNL A   1      50.363  25.868  25.962  1.00  0.00    -0.200 F 
ATOM     96  C   UNL A   1      49.310  26.688  24.015  1.00  0.00     0.200 A 
ATOM     97  F   UNL A   1      48.224  27.536  22.097  1.00  0.00    -0.200 F 
ATOM     98  F   UNL A   1      50.335  26.263  23.264  1.00  0.00    -0.200 F 
ENDBRANCH  65  88
ENDBRANCH  39  40
ENDBRANCH  32  34
ENDBRANCH  31  32
ENDBRANCH  30  31
ENDBRANCH  29  30
ENDBRANCH  28  29
ENDBRANCH  27  28
ENDBRANCH  26  27
ENDBRANCH   1  26
TORSDOF 22
ENDMDL
MODEL 3
REMARK VINA RESULT:     -10.2      2.249      3.597
REMARK SMILES O=C(Nc1ccsc1C(=O)OCCOCCOCCOCCOC(=O)c1ccc(-c2c3nc(c(-c4c(F)c(F)c(F)c(F)c4F)c4ccc([nH]4)c(-c4c(F)c(F)c(F)c(F)c4F)c4nc(c(-c5c(F)c(F)c(F)c(F)c5F)c5ccc2[nH]5)C=C4)C=C3)cc1)c1ccc(Br)nc1
REMARK SMILES IDX 17 1 16 2 15 3 14 4 13 5 12 6 11 7 9 8 10 9 8 10 4 11 5 12
REMARK SMILES IDX 6 13 7 14 3 15 1 16 2 17 89 19 90 20 95 21 91 22 94 23 92 24
REMARK SMILES IDX 93 25 18 26 19 27 20 28 21 29 22 30 23 31 24 32 25 33 26 34
REMARK SMILES IDX 27 35 88 36 28 37 87 38 29 39 30 40 31 41 81 42 32 43 86 44
REMARK SMILES IDX 80 45 82 46 33 47 85 48 79 49 78 50 34 52 66 53 46 54 65 55
REMARK SMILES IDX 47 56 50 57 64 58 83 59 48 60 49 61 63 63 84 64 51 65 35 66
REMARK SMILES IDX 36 67 44 68 37 69 38 70 42 71 45 72 39 73 40 74 43 75 41 76
REMARK SMILES IDX 67 77 68 78 76 79 69 80 70 81 74 82 77 83 71 84 72 85 75 86
REMARK SMILES IDX 73 87 52 88 53 89 61 90 54 91 55 92 59 93 62 94 56 95 57 96
REMARK SMILES IDX 60 97 58 98
REMARK H PARENT 3 18 82 51 50 62
REMARK Flexibility Score: inf
ROOT
ATOM      1  O   UNL A   1      33.809  32.298  28.433  1.00  0.00    -0.377 OA
ENDROOT
BRANCH   1   2
ATOM      2  C   UNL A   1      34.440  31.485  27.455  1.00  0.00     0.188 C 
BRANCH   2   3
ATOM      3  C   UNL A   1      34.284  29.983  27.735  1.00  0.00     0.188 C 
BRANCH   3   4
ATOM      4  O   UNL A   1      33.604  29.287  26.689  1.00  0.00    -0.376 OA
BRANCH   4   5
ATOM      5  C   UNL A   1      32.183  29.249  26.782  1.00  0.00     0.202 C 
BRANCH   5   6
ATOM      6  C   UNL A   1      31.592  27.936  27.320  1.00  0.00     0.261 C 
BRANCH   6   7
ATOM      7  O   UNL A   1      31.076  27.041  26.318  1.00  0.00    -0.459 OA
BRANCH   7   8
ATOM      8  C   UNL A   1      31.935  26.134  25.782  1.00  0.00     0.350 C 
ATOM      9  O   UNL A   1      32.423  25.206  26.418  1.00  0.00    -0.245 OA
BRANCH   8  10
ATOM     10  C   UNL A   1      32.077  26.384  24.356  1.00  0.00     0.136 A 
ATOM     11  C   UNL A   1      31.163  26.275  23.307  1.00  0.00     0.067 A 
ATOM     12  C   UNL A   1      31.788  26.586  22.057  1.00  0.00     0.039 A 
ATOM     13  C   UNL A   1      33.135  26.838  22.174  1.00  0.00     0.068 A 
ATOM     14  S   UNL A   1      33.649  26.798  23.793  1.00  0.00    -0.135 S 
BRANCH  11  15
ATOM     15  N   UNL A   1      29.824  25.943  23.524  1.00  0.00    -0.320 N 
ATOM     16  O   UNL A   1      27.699  26.224  24.257  1.00  0.00    -0.269 OA
ATOM     17  C   UNL A   1      28.724  26.724  23.797  1.00  0.00     0.257 C 
ATOM     18  H   UNL A   1      29.633  24.979  23.474  1.00  0.00     0.170 HD
BRANCH  17  19
ATOM     19  C   UNL A   1      28.707  28.158  23.487  1.00  0.00     0.058 A 
ATOM     20  C   UNL A   1      27.631  28.726  22.808  1.00  0.00     0.018 A 
ATOM     21  C   UNL A   1      29.794  28.961  23.800  1.00  0.00     0.126 A 
ATOM     22  C   UNL A   1      27.656  30.092  22.527  1.00  0.00     0.037 A 
ATOM     23  N   UNL A   1      29.839  30.291  23.546  1.00  0.00    -0.249 NA
ATOM     24  C   UNL A   1      28.767  30.830  22.920  1.00  0.00     0.106 A 
ATOM     25  Br  UNL A   1      28.795  32.694  22.578  1.00  0.00    -0.029 Br
ENDBRANCH  17  19
ENDBRANCH  11  15
ENDBRANCH   8  10
ENDBRANCH   7   8
ENDBRANCH   6   7
ENDBRANCH   5   6
ENDBRANCH   4   5
ENDBRANCH   3   4
ENDBRANCH   2   3
ENDBRANCH   1   2
BRANCH   1  26
ATOM     26  C   UNL A   1      34.618  33.277  29.088  1.00  0.00     0.188 C 
BRANCH  26  27
ATOM     27  C   UNL A   1      33.977  34.413  29.913  1.00  0.00     0.188 C 
BRANCH  27  28
ATOM     28  O   UNL A   1      34.674  34.700  31.126  1.00  0.00    -0.376 OA
BRANCH  28  29
ATOM     29  C   UNL A   1      33.939  34.529  32.334  1.00  0.00     0.202 C 
BRANCH  29  30
ATOM     30  C   UNL A   1      34.234  33.204  33.048  1.00  0.00     0.261 C 
BRANCH  30  31
ATOM     31  O   UNL A   1      35.274  32.420  32.442  1.00  0.00    -0.460 OA
BRANCH  31  32
ATOM     32  C   UNL A   1      36.381  32.193  33.182  1.00  0.00     0.338 C 
ATOM     33  O   UNL A   1      36.534  32.406  34.370  1.00  0.00    -0.246 OA
BRANCH  32  34
ATOM     34  C   UNL A   1      37.345  31.458  32.343  1.00  0.00     0.060 A 
ATOM     35  C   UNL A   1      38.301  30.649  32.970  1.00  0.00     0.016 A 
ATOM     36  C   UNL A   1      37.321  31.583  30.952  1.00  0.00     0.016 A 
ATOM     37  C   UNL A   1      39.269  29.999  32.206  1.00  0.00     0.010 A 
ATOM     38  C   UNL A   1      38.299  30.945  30.189  1.00  0.00     0.010 A 
ATOM     39  C   UNL A   1      39.299  30.183  30.816  1.00  0.00    -0.014 A 
BRANCH  39  40
ATOM     40  C   UNL A   1      40.481  29.746  30.038  1.00  0.00     0.031 A 
ATOM     41  C   UNL A   1      41.556  30.756  29.749  1.00  0.00     0.074 A 
ATOM     42  C   UNL A   1      40.596  28.484  29.594  1.00  0.00     0.049 A 
ATOM     43  N   UNL A   1      42.655  30.626  29.050  1.00  0.00    -0.248 NA
ATOM     44  C   UNL A   1      41.360  32.098  30.321  1.00  0.00     0.031 C 
ATOM     45  C   UNL A   1      39.632  27.413  29.827  1.00  0.00     0.029 A 
ATOM     46  N   UNL A   1      41.580  27.898  28.835  1.00  0.00    -0.354 N 
ATOM     47  C   UNL A   1      43.281  31.862  29.105  1.00  0.00     0.074 A 
ATOM     48  C   UNL A   1      42.427  32.741  29.873  1.00  0.00     0.031 C 
ATOM     49  C   UNL A   1      40.061  26.301  29.204  1.00  0.00     0.029 A 
ATOM     50  C   UNL A   1      41.317  26.591  28.513  1.00  0.00     0.049 A 
ATOM     51  H   UNL A   1      42.394  28.371  28.550  1.00  0.00     0.167 HD
ATOM     52  C   UNL A   1      44.469  32.232  28.571  1.00  0.00     0.037 A 
ATOM     53  C   UNL A   1      42.003  25.737  27.730  1.00  0.00     0.037 A 
ATOM     54  C   UNL A   1      45.310  31.366  27.790  1.00  0.00     0.049 A 
ATOM     55  C   UNL A   1      43.291  26.191  27.088  1.00  0.00     0.074 A 
ATOM     56  C   UNL A   1      46.533  31.644  27.208  1.00  0.00     0.029 A 
ATOM     57  N   UNL A   1      45.004  30.051  27.473  1.00  0.00    -0.354 N 
ATOM     58  N   UNL A   1      43.894  27.351  27.171  1.00  0.00    -0.248 NA
ATOM     59  C   UNL A   1      43.993  25.210  26.247  1.00  0.00     0.031 C 
ATOM     60  C   UNL A   1      46.949  30.510  26.503  1.00  0.00     0.029 A 
ATOM     61  C   UNL A   1      46.006  29.510  26.686  1.00  0.00     0.049 A 
ATOM     62  H   UNL A   1      44.195  29.573  27.766  1.00  0.00     0.167 HD
ATOM     63  C   UNL A   1      45.055  27.235  26.416  1.00  0.00     0.074 A 
ATOM     64  C   UNL A   1      45.078  25.885  25.891  1.00  0.00     0.031 C 
ATOM     65  C   UNL A   1      46.015  28.162  26.177  1.00  0.00     0.037 A 
BRANCH  52  66
ATOM     66  C   UNL A   1      44.913  33.645  28.801  1.00  0.00     0.064 A 
ATOM     67  C   UNL A   1      44.510  34.686  27.951  1.00  0.00     0.173 A 
ATOM     68  C   UNL A   1      45.742  33.964  29.886  1.00  0.00     0.173 A 
ATOM     69  F   UNL A   1      43.732  34.428  26.889  1.00  0.00    -0.203 F 
ATOM     70  C   UNL A   1      44.940  35.992  28.166  1.00  0.00     0.198 A 
ATOM     71  C   UNL A   1      46.150  35.275  30.112  1.00  0.00     0.198 A 
ATOM     72  F   UNL A   1      46.155  33.003  30.726  1.00  0.00    -0.203 F 
ATOM     73  F   UNL A   1      44.582  36.963  27.315  1.00  0.00    -0.200 F 
ATOM     74  C   UNL A   1      45.756  36.286  29.249  1.00  0.00     0.200 A 
ATOM     75  F   UNL A   1      46.932  35.560  31.163  1.00  0.00    -0.200 F 
ATOM     76  F   UNL A   1      46.170  37.544  29.455  1.00  0.00    -0.200 F 
ENDBRANCH  52  66
BRANCH  53  77
ATOM     77  C   UNL A   1      41.484  24.366  27.496  1.00  0.00     0.064 A 
ATOM     78  C   UNL A   1      40.342  24.149  26.711  1.00  0.00     0.173 A 
ATOM     79  C   UNL A   1      42.109  23.247  28.064  1.00  0.00     0.173 A 
ATOM     80  F   UNL A   1      39.695  25.191  26.170  1.00  0.00    -0.203 F 
ATOM     81  C   UNL A   1      39.837  22.866  26.516  1.00  0.00     0.198 A 
ATOM     82  C   UNL A   1      41.616  21.961  27.848  1.00  0.00     0.198 A 
ATOM     83  F   UNL A   1      43.199  23.404  28.829  1.00  0.00    -0.203 F 
ATOM     84  F   UNL A   1      38.720  22.690  25.799  1.00  0.00    -0.200 F 
ATOM     85  C   UNL A   1      40.478  21.772  27.080  1.00  0.00     0.200 A 
ATOM     86  F   UNL A   1      42.242  20.907  28.390  1.00  0.00    -0.200 F 
ATOM     87  F   UNL A   1      39.992  20.538  26.892  1.00  0.00    -0.200 F 
ENDBRANCH  53  77
BRANCH  65  88
ATOM     88  C   UNL A   1      47.187  27.744  25.339  1.00  0.00     0.064 A 
ATOM     89  C   UNL A   1      47.153  27.818  23.940  1.00  0.00     0.173 A 
ATOM     90  C   UNL A   1      48.376  27.312  25.947  1.00  0.00     0.173 A 
ATOM     91  F   UNL A   1      46.036  28.212  23.311  1.00  0.00    -0.203 F 
ATOM     92  C   UNL A   1      48.261  27.457  23.178  1.00  0.00     0.198 A 
ATOM     93  C   UNL A   1      49.491  26.977  25.183  1.00  0.00     0.198 A 
ATOM     94  F   UNL A   1      48.462  27.230  27.284  1.00  0.00    -0.203 F 
ATOM     95  F   UNL A   1      48.195  27.499  21.840  1.00  0.00    -0.200 F 
ATOM     96  C   UNL A   1      49.431  27.044  23.799  1.00  0.00     0.200 A 
ATOM     97  F   UNL A   1      50.623  26.590  25.786  1.00  0.00    -0.200 F 
ATOM     98  F   UNL A   1      50.499  26.705  23.065  1.00  0.00    -0.200 F 
ENDBRANCH  65  88
ENDBRANCH  39  40
ENDBRANCH  32  34
ENDBRANCH  31  32
ENDBRANCH  30  31
ENDBRANCH  29  30
ENDBRANCH  28  29
ENDBRANCH  27  28
ENDBRANCH  26  27
ENDBRANCH   1  26
TORSDOF 22
ENDMDL
