MODEL 1
REMARK VINA RESULT:      -9.4      0.000      0.000
REMARK SMILES CC(C)[C@H](CO)NS(=O)(=O)c1ccc(C(=O)OCCOCCOCCOCCOC(=O)c2ccc(-c3c4nc(c(-c5c(F)c(F)c(F)c(F)c5F)c5ccc([nH]5)c(-c5c(F)c(F)c(F)c(F)c5F)c5nc(c(-c6c(F)c(F)c(F)c(F)c6F)c6ccc3[nH]6)C=C5)C=C4)cc2)cn1
REMARK SMILES IDX 21 1 20 2 19 3 18 4 17 5 15 6 16 7 14 8 11 9 12 10 96 11
REMARK SMILES IDX 13 12 95 13 8 14 9 15 10 16 7 17 4 19 2 20 1 21 3 22 5 23
REMARK SMILES IDX 6 24 22 26 23 27 24 28 25 29 26 30 27 31 28 32 29 33 30 34
REMARK SMILES IDX 31 35 32 36 33 37 94 38 34 39 93 40 35 41 36 42 37 43 87 44
REMARK SMILES IDX 38 45 92 46 86 47 88 48 39 49 91 50 85 51 84 52 40 54 72 55
REMARK SMILES IDX 52 56 71 57 53 58 56 59 70 60 89 61 54 62 55 63 69 65 90 66
REMARK SMILES IDX 57 67 41 68 42 69 50 70 43 71 44 72 48 73 51 74 45 75 46 76
REMARK SMILES IDX 49 77 47 78 73 79 74 80 82 81 75 82 76 83 80 84 83 85 77 86
REMARK SMILES IDX 78 87 81 88 79 89 58 90 59 91 67 92 60 93 61 94 65 95 68 96
REMARK SMILES IDX 62 97 63 98 66 99 64 100
REMARK H PARENT 7 18 6 25 88 53 56 64
REMARK Flexibility Score: inf
ROOT
ATOM      1  C   UNL A   1      32.949  28.646  25.244  1.00  0.00     0.188 C 
ENDROOT
BRANCH   1   2
ATOM      2  O   UNL A   1      33.381  29.319  24.072  1.00  0.00    -0.376 OA
BRANCH   2   3
ATOM      3  C   UNL A   1      33.064  28.795  22.795  1.00  0.00     0.202 C 
BRANCH   3   4
ATOM      4  C   UNL A   1      31.648  28.947  22.215  1.00  0.00     0.261 C 
BRANCH   4   5
ATOM      5  O   UNL A   1      30.857  27.755  22.164  1.00  0.00    -0.460 OA
BRANCH   5   6
ATOM      6  C   UNL A   1      29.821  27.658  23.019  1.00  0.00     0.339 C 
ATOM      7  O   UNL A   1      28.779  28.287  22.979  1.00  0.00    -0.246 OA
BRANCH   6   8
ATOM      8  C   UNL A   1      30.076  26.516  23.923  1.00  0.00     0.078 A 
ATOM      9  C   UNL A   1      30.746  24.425  25.532  1.00  0.00     0.170 A 
ATOM     10  C   UNL A   1      29.661  25.211  25.904  1.00  0.00     0.043 A 
ATOM     11  N   UNL A   1      31.533  24.656  24.451  1.00  0.00    -0.243 NA
ATOM     12  C   UNL A   1      29.295  26.250  25.055  1.00  0.00     0.020 A 
ATOM     13  C   UNL A   1      31.195  25.724  23.690  1.00  0.00     0.128 A 
BRANCH   9  14
ATOM     14  S   UNL A   1      31.113  22.939  26.468  1.00  0.00     0.258 S 
ATOM     15  O   UNL A   1      29.921  22.133  26.465  1.00  0.00    -0.205 OA
ATOM     16  O   UNL A   1      31.758  23.308  27.717  1.00  0.00    -0.205 OA
BRANCH  14  17
ATOM     17  N   UNL A   1      32.327  22.146  25.571  1.00  0.00    -0.204 NA
ATOM     18  H   UNL A   1      31.843  21.573  24.879  1.00  0.00     0.141 HD
BRANCH  17  19
ATOM     19  C   UNL A   1      33.331  21.260  26.220  1.00  0.00     0.098 C 
BRANCH  19  20
ATOM     20  C   UNL A   1      34.804  21.736  26.079  1.00  0.00     0.003 C 
ATOM     21  C   UNL A   1      35.590  21.215  24.878  1.00  0.00     0.009 C 
ATOM     22  C   UNL A   1      34.854  23.274  26.073  1.00  0.00     0.009 C 
ENDBRANCH  19  20
BRANCH  19  23
ATOM     23  C   UNL A   1      33.159  19.829  25.642  1.00  0.00     0.176 C 
BRANCH  23  24
ATOM     24  O   UNL A   1      32.881  18.863  26.650  1.00  0.00    -0.395 OA
ATOM     25  H   UNL A   1      32.039  19.077  27.081  1.00  0.00     0.210 HD
ENDBRANCH  23  24
ENDBRANCH  19  23
ENDBRANCH  17  19
ENDBRANCH  14  17
ENDBRANCH   9  14
ENDBRANCH   6   8
ENDBRANCH   5   6
ENDBRANCH   4   5
ENDBRANCH   3   4
ENDBRANCH   2   3
ENDBRANCH   1   2
BRANCH   1  26
ATOM     26  C   UNL A   1      31.709  29.297  25.887  1.00  0.00     0.188 C 
BRANCH  26  27
ATOM     27  O   UNL A   1      31.474  30.646  25.514  1.00  0.00    -0.377 OA
BRANCH  27  28
ATOM     28  C   UNL A   1      31.186  31.604  26.536  1.00  0.00     0.188 C 
BRANCH  28  29
ATOM     29  C   UNL A   1      31.865  32.997  26.612  1.00  0.00     0.188 C 
BRANCH  29  30
ATOM     30  O   UNL A   1      32.251  33.401  27.915  1.00  0.00    -0.376 OA
BRANCH  30  31
ATOM     31  C   UNL A   1      33.477  34.092  28.070  1.00  0.00     0.202 C 
BRANCH  31  32
ATOM     32  C   UNL A   1      34.651  33.278  28.627  1.00  0.00     0.261 C 
BRANCH  32  33
ATOM     33  O   UNL A   1      35.127  32.212  27.791  1.00  0.00    -0.460 OA
BRANCH  33  34
ATOM     34  C   UNL A   1      34.870  30.949  28.193  1.00  0.00     0.338 C 
ATOM     35  O   UNL A   1      33.791  30.384  28.216  1.00  0.00    -0.246 OA
BRANCH  34  36
ATOM     36  C   UNL A   1      36.169  30.287  28.430  1.00  0.00     0.060 A 
ATOM     37  C   UNL A   1      36.403  29.658  29.660  1.00  0.00     0.016 A 
ATOM     38  C   UNL A   1      37.144  30.274  27.430  1.00  0.00     0.016 A 
ATOM     39  C   UNL A   1      37.629  29.034  29.903  1.00  0.00     0.010 A 
ATOM     40  C   UNL A   1      38.376  29.669  27.682  1.00  0.00     0.010 A 
ATOM     41  C   UNL A   1      38.636  29.072  28.929  1.00  0.00    -0.014 A 
BRANCH  41  42
ATOM     42  C   UNL A   1      40.015  28.647  29.266  1.00  0.00     0.031 A 
ATOM     43  C   UNL A   1      40.870  29.574  30.082  1.00  0.00     0.074 A 
ATOM     44  C   UNL A   1      40.504  27.464  28.854  1.00  0.00     0.049 A 
ATOM     45  N   UNL A   1      42.129  29.468  30.422  1.00  0.00    -0.248 NA
ATOM     46  C   UNL A   1      40.213  30.794  30.579  1.00  0.00     0.031 C 
ATOM     47  C   UNL A   1      39.761  26.459  28.097  1.00  0.00     0.029 A 
ATOM     48  N   UNL A   1      41.756  26.918  29.003  1.00  0.00    -0.354 N 
ATOM     49  C   UNL A   1      42.415  30.608  31.162  1.00  0.00     0.074 A 
ATOM     50  C   UNL A   1      41.211  31.407  31.198  1.00  0.00     0.031 C 
ATOM     51  C   UNL A   1      40.577  25.424  27.832  1.00  0.00     0.029 A 
ATOM     52  C   UNL A   1      41.908  25.713  28.364  1.00  0.00     0.049 A 
ATOM     53  H   UNL A   1      42.474  27.349  29.519  1.00  0.00     0.167 HD
ATOM     54  C   UNL A   1      43.579  30.953  31.763  1.00  0.00     0.037 A 
ATOM     55  C   UNL A   1      43.008  24.949  28.201  1.00  0.00     0.037 A 
ATOM     56  C   UNL A   1      44.778  30.158  31.719  1.00  0.00     0.049 A 
ATOM     57  C   UNL A   1      44.316  25.400  28.804  1.00  0.00     0.074 A 
ATOM     58  C   UNL A   1      46.004  30.410  32.309  1.00  0.00     0.029 A 
ATOM     59  N   UNL A   1      44.904  28.958  31.033  1.00  0.00    -0.354 N 
ATOM     60  N   UNL A   1      44.576  26.464  29.523  1.00  0.00    -0.248 NA
ATOM     61  C   UNL A   1      45.485  24.539  28.569  1.00  0.00     0.031 C 
ATOM     62  C   UNL A   1      46.890  29.399  31.926  1.00  0.00     0.029 A 
ATOM     63  C   UNL A   1      46.199  28.476  31.157  1.00  0.00     0.049 A 
ATOM     64  H   UNL A   1      44.183  28.514  30.532  1.00  0.00     0.167 HD
ATOM     65  C   UNL A   1      45.924  26.386  29.852  1.00  0.00     0.074 A 
ATOM     66  C   UNL A   1      46.424  25.159  29.267  1.00  0.00     0.031 C 
ATOM     67  C   UNL A   1      46.681  27.250  30.573  1.00  0.00     0.037 A 
BRANCH  54  68
ATOM     68  C   UNL A   1      43.623  32.267  32.489  1.00  0.00     0.064 A 
ATOM     69  C   UNL A   1      43.292  32.374  33.850  1.00  0.00     0.173 A 
ATOM     70  C   UNL A   1      44.031  33.432  31.822  1.00  0.00     0.173 A 
ATOM     71  F   UNL A   1      42.882  31.293  34.532  1.00  0.00    -0.203 F 
ATOM     72  C   UNL A   1      43.342  33.601  34.505  1.00  0.00     0.198 A 
ATOM     73  C   UNL A   1      44.112  34.651  32.488  1.00  0.00     0.198 A 
ATOM     74  F   UNL A   1      44.359  33.386  30.522  1.00  0.00    -0.203 F 
ATOM     75  F   UNL A   1      42.972  33.689  35.790  1.00  0.00    -0.200 F 
ATOM     76  C   UNL A   1      43.761  34.736  33.826  1.00  0.00     0.200 A 
ATOM     77  F   UNL A   1      44.530  35.743  31.834  1.00  0.00    -0.200 F 
ATOM     78  F   UNL A   1      43.816  35.916  34.461  1.00  0.00    -0.200 F 
ENDBRANCH  54  68
BRANCH  55  79
ATOM     79  C   UNL A   1      42.931  23.688  27.414  1.00  0.00     0.064 A 
ATOM     80  C   UNL A   1      42.489  22.494  27.999  1.00  0.00     0.173 A 
ATOM     81  C   UNL A   1      43.328  23.644  26.069  1.00  0.00     0.173 A 
ATOM     82  F   UNL A   1      42.125  22.477  29.290  1.00  0.00    -0.203 F 
ATOM     83  C   UNL A   1      42.467  21.302  27.278  1.00  0.00     0.198 A 
ATOM     84  C   UNL A   1      43.274  22.459  25.339  1.00  0.00     0.198 A 
ATOM     85  F   UNL A   1      43.764  24.757  25.459  1.00  0.00    -0.203 F 
ATOM     86  F   UNL A   1      42.092  20.165  27.880  1.00  0.00    -0.200 F 
ATOM     87  C   UNL A   1      42.853  21.286  25.947  1.00  0.00     0.200 A 
ATOM     88  F   UNL A   1      43.634  22.453  24.048  1.00  0.00    -0.200 F 
ATOM     89  F   UNL A   1      42.828  20.141  25.252  1.00  0.00    -0.200 F 
ENDBRANCH  55  79
BRANCH  67  90
ATOM     90  C   UNL A   1      48.121  26.884  30.809  1.00  0.00     0.064 A 
ATOM     91  C   UNL A   1      49.154  27.385  30.003  1.00  0.00     0.173 A 
ATOM     92  C   UNL A   1      48.474  26.050  31.882  1.00  0.00     0.173 A 
ATOM     93  F   UNL A   1      48.872  28.175  28.956  1.00  0.00    -0.203 F 
ATOM     94  C   UNL A   1      50.482  27.041  30.244  1.00  0.00     0.198 A 
ATOM     95  C   UNL A   1      49.806  25.739  32.142  1.00  0.00     0.198 A 
ATOM     96  F   UNL A   1      47.528  25.550  32.691  1.00  0.00    -0.203 F 
ATOM     97  F   UNL A   1      51.447  27.487  29.427  1.00  0.00    -0.200 F 
ATOM     98  C   UNL A   1      50.808  26.226  31.319  1.00  0.00     0.200 A 
ATOM     99  F   UNL A   1      50.119  24.966  33.192  1.00  0.00    -0.200 F 
ATOM    100  F   UNL A   1      52.087  25.903  31.554  1.00  0.00    -0.200 F 
ENDBRANCH  67  90
ENDBRANCH  41  42
ENDBRANCH  34  36
ENDBRANCH  33  34
ENDBRANCH  32  33
ENDBRANCH  31  32
ENDBRANCH  30  31
ENDBRANCH  29  30
ENDBRANCH  28  29
ENDBRANCH  27  28
ENDBRANCH  26  27
ENDBRANCH   1  26
TORSDOF 26
ENDMDL
MODEL 2
REMARK VINA RESULT:      -8.5      4.374      8.846
REMARK SMILES CC(C)[C@H](CO)NS(=O)(=O)c1ccc(C(=O)OCCOCCOCCOCCOC(=O)c2ccc(-c3c4nc(c(-c5c(F)c(F)c(F)c(F)c5F)c5ccc([nH]5)c(-c5c(F)c(F)c(F)c(F)c5F)c5nc(c(-c6c(F)c(F)c(F)c(F)c6F)c6ccc3[nH]6)C=C5)C=C4)cc2)cn1
REMARK SMILES IDX 21 1 20 2 19 3 18 4 17 5 15 6 16 7 14 8 11 9 12 10 96 11
REMARK SMILES IDX 13 12 95 13 8 14 9 15 10 16 7 17 4 19 2 20 1 21 3 22 5 23
REMARK SMILES IDX 6 24 22 26 23 27 24 28 25 29 26 30 27 31 28 32 29 33 30 34
REMARK SMILES IDX 31 35 32 36 33 37 94 38 34 39 93 40 35 41 36 42 37 43 87 44
REMARK SMILES IDX 38 45 92 46 86 47 88 48 39 49 91 50 85 51 84 52 40 54 72 55
REMARK SMILES IDX 52 56 71 57 53 58 56 59 70 60 89 61 54 62 55 63 69 65 90 66
REMARK SMILES IDX 57 67 41 68 42 69 50 70 43 71 44 72 48 73 51 74 45 75 46 76
REMARK SMILES IDX 49 77 47 78 73 79 74 80 82 81 75 82 76 83 80 84 83 85 77 86
REMARK SMILES IDX 78 87 81 88 79 89 58 90 59 91 67 92 60 93 61 94 65 95 68 96
REMARK SMILES IDX 62 97 63 98 66 99 64 100
REMARK H PARENT 7 18 6 25 88 53 56 64
REMARK Flexibility Score: inf
ROOT
ATOM      1  C   UNL A   1      33.930  31.393  27.608  1.00  0.00     0.188 C 
ENDROOT
BRANCH   1   2
ATOM      2  O   UNL A   1      33.506  30.040  27.607  1.00  0.00    -0.376 OA
BRANCH   2   3
ATOM      3  C   UNL A   1      32.272  29.682  27.010  1.00  0.00     0.202 C 
BRANCH   3   4
ATOM      4  C   UNL A   1      31.994  30.005  25.532  1.00  0.00     0.261 C 
BRANCH   4   5
ATOM      5  O   UNL A   1      32.214  28.939  24.603  1.00  0.00    -0.460 OA
BRANCH   5   6
ATOM      6  C   UNL A   1      31.130  28.318  24.099  1.00  0.00     0.339 C 
ATOM      7  O   UNL A   1      30.365  28.752  23.256  1.00  0.00    -0.246 OA
BRANCH   6   8
ATOM      8  C   UNL A   1      31.118  26.929  24.606  1.00  0.00     0.078 A 
ATOM      9  C   UNL A   1      31.118  24.450  25.730  1.00  0.00     0.170 A 
ATOM     10  C   UNL A   1      30.430  24.623  24.535  1.00  0.00     0.043 A 
ATOM     11  N   UNL A   1      31.748  25.442  26.410  1.00  0.00    -0.243 NA
ATOM     12  C   UNL A   1      30.471  25.880  23.941  1.00  0.00     0.020 A 
ATOM     13  C   UNL A   1      31.701  26.671  25.842  1.00  0.00     0.128 A 
BRANCH   9  14
ATOM     14  S   UNL A   1      31.288  22.800  26.413  1.00  0.00     0.258 S 
ATOM     15  O   UNL A   1      30.068  22.094  26.119  1.00  0.00    -0.205 OA
ATOM     16  O   UNL A   1      31.781  22.895  27.777  1.00  0.00    -0.205 OA
BRANCH  14  17
ATOM     17  N   UNL A   1      32.568  22.093  25.537  1.00  0.00    -0.204 NA
ATOM     18  H   UNL A   1      32.811  21.232  26.029  1.00  0.00     0.141 HD
BRANCH  17  19
ATOM     19  C   UNL A   1      33.848  22.813  25.299  1.00  0.00     0.098 C 
BRANCH  19  20
ATOM     20  C   UNL A   1      34.054  23.306  23.839  1.00  0.00     0.003 C 
ATOM     21  C   UNL A   1      35.459  23.178  23.255  1.00  0.00     0.009 C 
ATOM     22  C   UNL A   1      33.065  22.588  22.905  1.00  0.00     0.009 C 
ENDBRANCH  19  20
BRANCH  19  23
ATOM     23  C   UNL A   1      35.014  21.885  25.734  1.00  0.00     0.176 C 
BRANCH  23  24
ATOM     24  O   UNL A   1      34.557  20.668  26.313  1.00  0.00    -0.395 OA
ATOM     25  H   UNL A   1      35.318  20.147  26.615  1.00  0.00     0.210 HD
ENDBRANCH  23  24
ENDBRANCH  19  23
ENDBRANCH  17  19
ENDBRANCH  14  17
ENDBRANCH   9  14
ENDBRANCH   6   8
ENDBRANCH   5   6
ENDBRANCH   4   5
ENDBRANCH   3   4
ENDBRANCH   2   3
ENDBRANCH   1   2
BRANCH   1  26
ATOM     26  C   UNL A   1      35.416  31.556  27.985  1.00  0.00     0.188 C 
BRANCH  26  27
ATOM     27  O   UNL A   1      35.922  32.879  27.884  1.00  0.00    -0.377 OA
BRANCH  27  28
ATOM     28  C   UNL A   1      36.218  33.597  29.085  1.00  0.00     0.188 C 
BRANCH  28  29
ATOM     29  C   UNL A   1      35.126  34.231  29.988  1.00  0.00     0.188 C 
BRANCH  29  30
ATOM     30  O   UNL A   1      35.161  33.820  31.344  1.00  0.00    -0.376 OA
BRANCH  30  31
ATOM     31  C   UNL A   1      34.906  32.459  31.642  1.00  0.00     0.202 C 
BRANCH  31  32
ATOM     32  C   UNL A   1      36.040  31.690  32.331  1.00  0.00     0.261 C 
BRANCH  32  33
ATOM     33  O   UNL A   1      36.414  30.446  31.719  1.00  0.00    -0.460 OA
BRANCH  33  34
ATOM     34  C   UNL A   1      37.395  29.734  32.315  1.00  0.00     0.338 C 
ATOM     35  O   UNL A   1      37.268  28.831  33.122  1.00  0.00    -0.246 OA
BRANCH  34  36
ATOM     36  C   UNL A   1      38.670  30.113  31.673  1.00  0.00     0.060 A 
ATOM     37  C   UNL A   1      39.782  30.405  32.475  1.00  0.00     0.016 A 
ATOM     38  C   UNL A   1      38.769  30.160  30.280  1.00  0.00     0.016 A 
ATOM     39  C   UNL A   1      40.992  30.772  31.884  1.00  0.00     0.010 A 
ATOM     40  C   UNL A   1      39.974  30.548  29.691  1.00  0.00     0.010 A 
ATOM     41  C   UNL A   1      41.082  30.884  30.490  1.00  0.00    -0.014 A 
BRANCH  41  42
ATOM     42  C   UNL A   1      42.269  31.516  29.866  1.00  0.00     0.031 A 
ATOM     43  C   UNL A   1      43.396  30.630  29.415  1.00  0.00     0.074 A 
ATOM     44  C   UNL A   1      42.350  32.849  29.705  1.00  0.00     0.049 A 
ATOM     45  N   UNL A   1      44.569  30.952  28.932  1.00  0.00    -0.248 NA
ATOM     46  C   UNL A   1      43.170  29.182  29.532  1.00  0.00     0.031 C 
ATOM     47  C   UNL A   1      41.306  33.808  30.059  1.00  0.00     0.029 A 
ATOM     48  N   UNL A   1      43.372  33.625  29.215  1.00  0.00    -0.354 N 
ATOM     49  C   UNL A   1      45.220  29.748  28.696  1.00  0.00     0.074 A 
ATOM     50  C   UNL A   1      44.328  28.691  29.117  1.00  0.00     0.031 C 
ATOM     51  C   UNL A   1      41.749  35.048  29.790  1.00  0.00     0.029 A 
ATOM     52  C   UNL A   1      43.120  34.972  29.286  1.00  0.00     0.049 A 
ATOM     53  H   UNL A   1      44.205  33.251  28.848  1.00  0.00     0.167 HD
ATOM     54  C   UNL A   1      46.452  29.545  28.171  1.00  0.00     0.037 A 
ATOM     55  C   UNL A   1      43.919  36.021  29.007  1.00  0.00     0.037 A 
ATOM     56  C   UNL A   1      47.339  30.600  27.760  1.00  0.00     0.049 A 
ATOM     57  C   UNL A   1      45.321  35.769  28.507  1.00  0.00     0.074 A 
ATOM     58  C   UNL A   1      48.600  30.500  27.199  1.00  0.00     0.029 A 
ATOM     59  N   UNL A   1      47.063  31.955  27.878  1.00  0.00    -0.354 N 
ATOM     60  N   UNL A   1      45.924  34.631  28.263  1.00  0.00    -0.248 NA
ATOM     61  C   UNL A   1      46.153  36.953  28.245  1.00  0.00     0.031 C 
ATOM     62  C   UNL A   1      49.113  31.791  27.040  1.00  0.00     0.029 A 
ATOM     63  C   UNL A   1      48.144  32.700  27.433  1.00  0.00     0.049 A 
ATOM     64  H   UNL A   1      46.223  32.332  28.226  1.00  0.00     0.167 HD
ATOM     65  C   UNL A   1      47.189  34.960  27.791  1.00  0.00     0.074 A 
ATOM     66  C   UNL A   1      47.261  36.405  27.767  1.00  0.00     0.031 C 
ATOM     67  C   UNL A   1      48.200  34.140  27.410  1.00  0.00     0.037 A 
BRANCH  54  68
ATOM     68  C   UNL A   1      46.927  28.126  28.044  1.00  0.00     0.064 A 
ATOM     69  C   UNL A   1      46.715  27.373  26.878  1.00  0.00     0.173 A 
ATOM     70  C   UNL A   1      47.632  27.519  29.095  1.00  0.00     0.173 A 
ATOM     71  F   UNL A   1      46.034  27.900  25.849  1.00  0.00    -0.203 F 
ATOM     72  C   UNL A   1      47.167  26.060  26.781  1.00  0.00     0.198 A 
ATOM     73  C   UNL A   1      48.112  26.217  28.982  1.00  0.00     0.198 A 
ATOM     74  F   UNL A   1      47.863  28.193  30.231  1.00  0.00    -0.203 F 
ATOM     75  F   UNL A   1      46.908  25.344  25.678  1.00  0.00    -0.200 F 
ATOM     76  C   UNL A   1      47.872  25.486  27.829  1.00  0.00     0.200 A 
ATOM     77  F   UNL A   1      48.804  25.671  29.989  1.00  0.00    -0.200 F 
ATOM     78  F   UNL A   1      48.314  24.224  27.729  1.00  0.00    -0.200 F 
ENDBRANCH  54  68
BRANCH  55  79
ATOM     79  C   UNL A   1      43.428  37.411  29.213  1.00  0.00     0.064 A 
ATOM     80  C   UNL A   1      42.620  38.044  28.257  1.00  0.00     0.173 A 
ATOM     81  C   UNL A   1      43.780  38.146  30.355  1.00  0.00     0.173 A 
ATOM     82  F   UNL A   1      42.279  37.394  27.135  1.00  0.00    -0.203 F 
ATOM     83  C   UNL A   1      42.204  39.363  28.425  1.00  0.00     0.198 A 
ATOM     84  C   UNL A   1      43.334  39.453  30.538  1.00  0.00     0.198 A 
ATOM     85  F   UNL A   1      44.554  37.591  31.300  1.00  0.00    -0.203 F 
ATOM     86  F   UNL A   1      41.479  39.960  27.469  1.00  0.00    -0.200 F 
ATOM     87  C   UNL A   1      42.555  40.064  29.568  1.00  0.00     0.200 A 
ATOM     88  F   UNL A   1      43.664  40.122  31.651  1.00  0.00    -0.200 F 
ATOM     89  F   UNL A   1      42.150  41.331  29.731  1.00  0.00    -0.200 F 
ENDBRANCH  55  79
BRANCH  67  90
ATOM     90  C   UNL A   1      49.460  34.782  26.896  1.00  0.00     0.064 A 
ATOM     91  C   UNL A   1      49.564  35.258  25.580  1.00  0.00     0.173 A 
ATOM     92  C   UNL A   1      50.564  34.958  27.745  1.00  0.00     0.173 A 
ATOM     93  F   UNL A   1      48.543  35.103  24.723  1.00  0.00    -0.203 F 
ATOM     94  C   UNL A   1      50.736  35.858  25.126  1.00  0.00     0.198 A 
ATOM     95  C   UNL A   1      51.720  35.591  27.298  1.00  0.00     0.198 A 
ATOM     96  F   UNL A   1      50.516  34.530  29.016  1.00  0.00    -0.203 F 
ATOM     97  F   UNL A   1      50.832  36.255  23.849  1.00  0.00    -0.200 F 
ATOM     98  C   UNL A   1      51.810  36.032  25.987  1.00  0.00     0.200 A 
ATOM     99  F   UNL A   1      52.749  35.775  28.138  1.00  0.00    -0.200 F 
ATOM    100  F   UNL A   1      52.933  36.617  25.550  1.00  0.00    -0.200 F 
ENDBRANCH  67  90
ENDBRANCH  41  42
ENDBRANCH  34  36
ENDBRANCH  33  34
ENDBRANCH  32  33
ENDBRANCH  31  32
ENDBRANCH  30  31
ENDBRANCH  29  30
ENDBRANCH  28  29
ENDBRANCH  27  28
ENDBRANCH  26  27
ENDBRANCH   1  26
TORSDOF 26
ENDMDL
MODEL 3
REMARK VINA RESULT:      -8.2      4.256      7.376
REMARK SMILES CC(C)[C@H](CO)NS(=O)(=O)c1ccc(C(=O)OCCOCCOCCOCCOC(=O)c2ccc(-c3c4nc(c(-c5c(F)c(F)c(F)c(F)c5F)c5ccc([nH]5)c(-c5c(F)c(F)c(F)c(F)c5F)c5nc(c(-c6c(F)c(F)c(F)c(F)c6F)c6ccc3[nH]6)C=C5)C=C4)cc2)cn1
REMARK SMILES IDX 21 1 20 2 19 3 18 4 17 5 15 6 16 7 14 8 11 9 12 10 96 11
REMARK SMILES IDX 13 12 95 13 8 14 9 15 10 16 7 17 4 19 2 20 1 21 3 22 5 23
REMARK SMILES IDX 6 24 22 26 23 27 24 28 25 29 26 30 27 31 28 32 29 33 30 34
REMARK SMILES IDX 31 35 32 36 33 37 94 38 34 39 93 40 35 41 36 42 37 43 87 44
REMARK SMILES IDX 38 45 92 46 86 47 88 48 39 49 91 50 85 51 84 52 40 54 72 55
REMARK SMILES IDX 52 56 71 57 53 58 56 59 70 60 89 61 54 62 55 63 69 65 90 66
REMARK SMILES IDX 57 67 41 68 42 69 50 70 43 71 44 72 48 73 51 74 45 75 46 76
REMARK SMILES IDX 49 77 47 78 73 79 74 80 82 81 75 82 76 83 80 84 83 85 77 86
REMARK SMILES IDX 78 87 81 88 79 89 58 90 59 91 67 92 60 93 61 94 65 95 68 96
REMARK SMILES IDX 62 97 63 98 66 99 64 100
REMARK H PARENT 7 18 6 25 88 53 56 64
REMARK Flexibility Score: inf
ROOT
ATOM      1  C   UNL A   1      37.089  32.804  32.499  1.00  0.00     0.188 C 
ENDROOT
BRANCH   1   2
ATOM      2  O   UNL A   1      36.061  33.200  33.393  1.00  0.00    -0.376 OA
BRANCH   2   3
ATOM      3  C   UNL A   1      36.320  34.178  34.384  1.00  0.00     0.202 C 
BRANCH   3   4
ATOM      4  C   UNL A   1      36.263  33.814  35.877  1.00  0.00     0.261 C 
BRANCH   4   5
ATOM      5  O   UNL A   1      37.237  32.870  36.334  1.00  0.00    -0.460 OA
BRANCH   5   6
ATOM      6  C   UNL A   1      38.536  33.198  36.191  1.00  0.00     0.339 C 
ATOM      7  O   UNL A   1      39.119  34.124  36.725  1.00  0.00    -0.246 OA
BRANCH   6   8
ATOM      8  C   UNL A   1      39.197  32.128  35.412  1.00  0.00     0.078 A 
ATOM      9  C   UNL A   1      40.237  30.050  33.994  1.00  0.00     0.170 A 
ATOM     10  C   UNL A   1      40.727  31.325  33.736  1.00  0.00     0.043 A 
ATOM     11  N   UNL A   1      39.236  29.769  34.867  1.00  0.00    -0.243 NA
ATOM     12  C   UNL A   1      40.225  32.377  34.494  1.00  0.00     0.020 A 
ATOM     13  C   UNL A   1      38.716  30.829  35.531  1.00  0.00     0.128 A 
BRANCH   9  14
ATOM     14  S   UNL A   1      41.015  28.636  33.209  1.00  0.00     0.258 S 
ATOM     15  O   UNL A   1      42.400  28.972  33.011  1.00  0.00    -0.205 OA
ATOM     16  O   UNL A   1      40.190  28.195  32.096  1.00  0.00    -0.205 OA
BRANCH  14  17
ATOM     17  N   UNL A   1      40.901  27.381  34.357  1.00  0.00    -0.204 NA
ATOM     18  H   UNL A   1      40.264  27.713  35.082  1.00  0.00     0.141 HD
BRANCH  17  19
ATOM     19  C   UNL A   1      42.099  26.852  35.064  1.00  0.00     0.098 C 
BRANCH  19  20
ATOM     20  C   UNL A   1      42.371  25.339  34.837  1.00  0.00     0.003 C 
ATOM     21  C   UNL A   1      43.830  24.911  34.694  1.00  0.00     0.009 C 
ATOM     22  C   UNL A   1      41.725  24.520  35.967  1.00  0.00     0.009 C 
ENDBRANCH  19  20
BRANCH  19  23
ATOM     23  C   UNL A   1      41.944  27.160  36.578  1.00  0.00     0.176 C 
BRANCH  23  24
ATOM     24  O   UNL A   1      40.789  27.942  36.861  1.00  0.00    -0.395 OA
ATOM     25  H   UNL A   1      40.109  27.771  36.190  1.00  0.00     0.210 HD
ENDBRANCH  23  24
ENDBRANCH  19  23
ENDBRANCH  17  19
ENDBRANCH  14  17
ENDBRANCH   9  14
ENDBRANCH   6   8
ENDBRANCH   5   6
ENDBRANCH   4   5
ENDBRANCH   3   4
ENDBRANCH   2   3
ENDBRANCH   1   2
BRANCH   1  26
ATOM     26  C   UNL A   1      37.222  33.743  31.284  1.00  0.00     0.188 C 
BRANCH  26  27
ATOM     27  O   UNL A   1      37.995  33.233  30.208  1.00  0.00    -0.377 OA
BRANCH  27  28
ATOM     28  C   UNL A   1      37.550  33.464  28.869  1.00  0.00     0.188 C 
BRANCH  28  29
ATOM     29  C   UNL A   1      36.463  34.508  28.502  1.00  0.00     0.188 C 
BRANCH  29  30
ATOM     30  O   UNL A   1      35.353  33.988  27.790  1.00  0.00    -0.376 OA
BRANCH  30  31
ATOM     31  C   UNL A   1      34.248  33.499  28.528  1.00  0.00     0.202 C 
BRANCH  31  32
ATOM     32  C   UNL A   1      34.567  32.506  29.652  1.00  0.00     0.261 C 
BRANCH  32  33
ATOM     33  O   UNL A   1      34.330  31.122  29.351  1.00  0.00    -0.460 OA
BRANCH  33  34
ATOM     34  C   UNL A   1      34.715  30.678  28.135  1.00  0.00     0.338 C 
ATOM     35  O   UNL A   1      34.135  30.826  27.075  1.00  0.00    -0.246 OA
BRANCH  34  36
ATOM     36  C   UNL A   1      36.080  30.131  28.277  1.00  0.00     0.060 A 
ATOM     37  C   UNL A   1      36.471  29.571  29.500  1.00  0.00     0.016 A 
ATOM     38  C   UNL A   1      36.963  30.156  27.194  1.00  0.00     0.016 A 
ATOM     39  C   UNL A   1      37.760  29.056  29.652  1.00  0.00     0.010 A 
ATOM     40  C   UNL A   1      38.258  29.660  27.355  1.00  0.00     0.010 A 
ATOM     41  C   UNL A   1      38.672  29.135  28.592  1.00  0.00    -0.014 A 
BRANCH  41  42
ATOM     42  C   UNL A   1      40.106  28.833  28.817  1.00  0.00     0.031 A 
ATOM     43  C   UNL A   1      40.964  29.883  29.464  1.00  0.00     0.074 A 
ATOM     44  C   UNL A   1      40.640  27.654  28.452  1.00  0.00     0.049 A 
ATOM     45  N   UNL A   1      42.255  29.891  29.679  1.00  0.00    -0.248 NA
ATOM     46  C   UNL A   1      40.269  31.095  29.926  1.00  0.00     0.031 C 
ATOM     47  C   UNL A   1      39.903  26.540  27.859  1.00  0.00     0.029 A 
ATOM     48  N   UNL A   1      41.937  27.208  28.515  1.00  0.00    -0.354 N 
ATOM     49  C   UNL A   1      42.526  31.108  30.292  1.00  0.00     0.074 A 
ATOM     50  C   UNL A   1      41.273  31.824  30.388  1.00  0.00     0.031 C 
ATOM     51  C   UNL A   1      40.765  25.543  27.595  1.00  0.00     0.029 A 
ATOM     52  C   UNL A   1      42.117  25.964  27.962  1.00  0.00     0.049 A 
ATOM     53  H   UNL A   1      42.668  27.729  28.918  1.00  0.00     0.167 HD
ATOM     54  C   UNL A   1      43.713  31.580  30.740  1.00  0.00     0.037 A 
ATOM     55  C   UNL A   1      43.249  25.264  27.747  1.00  0.00     0.037 A 
ATOM     56  C   UNL A   1      44.958  30.866  30.636  1.00  0.00     0.049 A 
ATOM     57  C   UNL A   1      44.572  25.852  28.174  1.00  0.00     0.074 A 
ATOM     58  C   UNL A   1      46.213  31.249  31.074  1.00  0.00     0.029 A 
ATOM     59  N   UNL A   1      45.107  29.622  30.039  1.00  0.00    -0.354 N 
ATOM     60  N   UNL A   1      44.821  26.990  28.775  1.00  0.00    -0.248 NA
ATOM     61  C   UNL A   1      45.774  25.053  27.890  1.00  0.00     0.031 C 
ATOM     62  C   UNL A   1      47.131  30.270  30.684  1.00  0.00     0.029 A 
ATOM     63  C   UNL A   1      46.439  29.240  30.067  1.00  0.00     0.049 A 
ATOM     64  H   UNL A   1      44.375  29.089  29.653  1.00  0.00     0.167 HD
ATOM     65  C   UNL A   1      46.197  27.030  28.969  1.00  0.00     0.074 A 
ATOM     66  C   UNL A   1      46.728  25.793  28.435  1.00  0.00     0.031 C 
ATOM     67  C   UNL A   1      46.953  28.002  29.536  1.00  0.00     0.037 A 
BRANCH  54  68
ATOM     68  C   UNL A   1      43.729  32.952  31.350  1.00  0.00     0.064 A 
ATOM     69  C   UNL A   1      43.688  34.115  30.565  1.00  0.00     0.173 A 
ATOM     70  C   UNL A   1      43.755  33.106  32.745  1.00  0.00     0.173 A 
ATOM     71  F   UNL A   1      43.677  34.024  29.226  1.00  0.00    -0.203 F 
ATOM     72  C   UNL A   1      43.700  35.377  31.151  1.00  0.00     0.198 A 
ATOM     73  C   UNL A   1      43.732  34.370  33.330  1.00  0.00     0.198 A 
ATOM     74  F   UNL A   1      43.793  32.029  33.543  1.00  0.00    -0.203 F 
ATOM     75  F   UNL A   1      43.713  36.473  30.380  1.00  0.00    -0.200 F 
ATOM     76  C   UNL A   1      43.713  35.503  32.533  1.00  0.00     0.200 A 
ATOM     77  F   UNL A   1      43.731  34.488  34.664  1.00  0.00    -0.200 F 
ATOM     78  F   UNL A   1      43.716  36.720  33.096  1.00  0.00    -0.200 F 
ENDBRANCH  54  68
BRANCH  55  79
ATOM     79  C   UNL A   1      43.191  23.937  27.076  1.00  0.00     0.064 A 
ATOM     80  C   UNL A   1      42.719  22.803  27.752  1.00  0.00     0.173 A 
ATOM     81  C   UNL A   1      43.636  23.769  25.756  1.00  0.00     0.173 A 
ATOM     82  F   UNL A   1      42.309  22.905  29.024  1.00  0.00    -0.203 F 
ATOM     83  C   UNL A   1      42.714  21.551  27.141  1.00  0.00     0.198 A 
ATOM     84  C   UNL A   1      43.598  22.522  25.135  1.00  0.00     0.198 A 
ATOM     85  F   UNL A   1      44.102  24.820  25.064  1.00  0.00    -0.203 F 
ATOM     86  F   UNL A   1      42.309  20.475  27.829  1.00  0.00    -0.200 F 
ATOM     87  C   UNL A   1      43.147  21.412  25.831  1.00  0.00     0.200 A 
ATOM     88  F   UNL A   1      44.004  22.397  23.864  1.00  0.00    -0.200 F 
ATOM     89  F   UNL A   1      43.138  20.209  25.243  1.00  0.00    -0.200 F 
ENDBRANCH  55  79
BRANCH  67  90
ATOM     90  C   UNL A   1      48.433  27.754  29.651  1.00  0.00     0.064 A 
ATOM     91  C   UNL A   1      48.987  27.070  30.743  1.00  0.00     0.173 A 
ATOM     92  C   UNL A   1      49.303  28.174  28.632  1.00  0.00     0.173 A 
ATOM     93  F   UNL A   1      48.202  26.658  31.751  1.00  0.00    -0.203 F 
ATOM     94  C   UNL A   1      50.358  26.842  30.825  1.00  0.00     0.198 A 
ATOM     95  C   UNL A   1      50.668  27.912  28.700  1.00  0.00     0.198 A 
ATOM     96  F   UNL A   1      48.826  28.825  27.560  1.00  0.00    -0.203 F 
ATOM     97  F   UNL A   1      50.872  26.235  31.905  1.00  0.00    -0.200 F 
ATOM     98  C   UNL A   1      51.197  27.255  29.800  1.00  0.00     0.200 A 
ATOM     99  F   UNL A   1      51.473  28.296  27.699  1.00  0.00    -0.200 F 
ATOM    100  F   UNL A   1      52.515  27.028  29.877  1.00  0.00    -0.200 F 
ENDBRANCH  67  90
ENDBRANCH  41  42
ENDBRANCH  34  36
ENDBRANCH  33  34
ENDBRANCH  32  33
ENDBRANCH  31  32
ENDBRANCH  30  31
ENDBRANCH  29  30
ENDBRANCH  28  29
ENDBRANCH  27  28
ENDBRANCH  26  27
ENDBRANCH   1  26
TORSDOF 26
ENDMDL
