MODEL 1
REMARK VINA RESULT:      -9.6      0.000      0.000
REMARK SMILES C[C@@H](CC(=O)OCCOCCOCCOCCOC(=O)c1ccc(-c2c3nc(c(-c4c(F)c(F)c(F)c(F)c4F)c4ccc([nH]4)c(-c4c(F)c(F)c(F)c(F)c4F)c4nc(c(-c5c(F)c(F)c(F)c(F)c5F)c5ccc2[nH]5)C=C4)C=C3)cc1)Cc1nnc(C2C(C)(C)C2(C)C)o1
REMARK SMILES IDX 11 1 10 2 9 3 8 4 7 5 6 6 4 7 5 8 3 9 2 10 1 11 84 12 85 13
REMARK SMILES IDX 86 14 96 15 87 16 88 17 89 18 90 19 93 20 91 21 92 22 94 23
REMARK SMILES IDX 95 24 12 25 13 26 14 27 15 28 16 29 17 30 18 31 19 32 20 33
REMARK SMILES IDX 21 34 22 35 83 36 23 37 82 38 24 39 25 40 26 41 76 42 27 43
REMARK SMILES IDX 81 44 75 45 77 46 28 47 80 48 74 49 73 50 29 52 61 53 41 54
REMARK SMILES IDX 60 55 42 56 45 57 59 58 78 59 43 60 44 61 58 63 79 64 46 65
REMARK SMILES IDX 30 66 31 67 39 68 32 69 33 70 37 71 40 72 34 73 35 74 38 75
REMARK SMILES IDX 36 76 62 77 63 78 71 79 64 80 65 81 69 82 72 83 66 84 67 85
REMARK SMILES IDX 70 86 68 87 47 88 48 89 56 90 49 91 50 92 54 93 57 94 51 95
REMARK SMILES IDX 52 96 55 97 53 98
REMARK H PARENT 77 51 45 62
REMARK Flexibility Score: inf
ROOT
ATOM      1  C   UNL A   1      32.023  30.534  26.467  1.00  0.00     0.188 C 
ENDROOT
BRANCH   1   2
ATOM      2  C   UNL A   1      31.807  29.508  25.350  1.00  0.00     0.188 C 
BRANCH   2   3
ATOM      3  O   UNL A   1      32.511  28.275  25.431  1.00  0.00    -0.376 OA
BRANCH   3   4
ATOM      4  C   UNL A   1      33.534  27.998  24.472  1.00  0.00     0.202 C 
BRANCH   4   5
ATOM      5  C   UNL A   1      33.189  28.020  22.971  1.00  0.00     0.261 C 
BRANCH   5   6
ATOM      6  O   UNL A   1      32.963  26.707  22.390  1.00  0.00    -0.463 OA
BRANCH   6   7
ATOM      7  C   UNL A   1      31.740  26.480  21.865  1.00  0.00     0.306 C 
ATOM      8  O   UNL A   1      31.563  25.949  20.770  1.00  0.00    -0.252 OA
BRANCH   7   9
ATOM      9  C   UNL A   1      30.535  26.833  22.735  1.00  0.00     0.126 C 
BRANCH   9  10
ATOM     10  C   UNL A   1      29.778  25.913  23.726  1.00  0.00     0.006 C 
ATOM     11  C   UNL A   1      28.380  26.400  24.095  1.00  0.00     0.009 C 
BRANCH  10  12
ATOM     12  C   UNL A   1      30.618  25.524  24.964  1.00  0.00     0.103 C 
BRANCH  12  13
ATOM     13  C   UNL A   1      31.245  24.171  24.890  1.00  0.00     0.216 A 
ATOM     14  N   UNL A   1      30.715  22.971  25.006  1.00  0.00    -0.113 NA
ATOM     15  O   UNL A   1      32.561  24.123  24.537  1.00  0.00    -0.425 OA
ATOM     16  N   UNL A   1      31.732  22.066  24.730  1.00  0.00    -0.113 NA
ATOM     17  C   UNL A   1      32.807  22.774  24.448  1.00  0.00     0.220 A 
BRANCH  17  18
ATOM     18  C   UNL A   1      34.169  22.163  24.046  1.00  0.00     0.090 C 
ATOM     19  C   UNL A   1      35.450  23.001  24.174  1.00  0.00    -0.017 C 
ATOM     20  C   UNL A   1      35.191  21.841  25.148  1.00  0.00    -0.017 C 
ATOM     21  C   UNL A   1      36.572  22.836  23.164  1.00  0.00     0.012 C 
ATOM     22  C   UNL A   1      35.263  24.456  24.505  1.00  0.00     0.012 C 
ATOM     23  C   UNL A   1      34.798  22.049  26.597  1.00  0.00     0.012 C 
ATOM     24  C   UNL A   1      36.001  20.566  24.990  1.00  0.00     0.012 C 
ENDBRANCH  17  18
ENDBRANCH  12  13
ENDBRANCH  10  12
ENDBRANCH   9  10
ENDBRANCH   7   9
ENDBRANCH   6   7
ENDBRANCH   5   6
ENDBRANCH   4   5
ENDBRANCH   3   4
ENDBRANCH   2   3
ENDBRANCH   1   2
BRANCH   1  25
ATOM     25  O   UNL A   1      32.996  30.137  27.413  1.00  0.00    -0.377 OA
BRANCH  25  26
ATOM     26  C   UNL A   1      34.296  30.705  27.341  1.00  0.00     0.188 C 
BRANCH  26  27
ATOM     27  C   UNL A   1      34.848  31.411  28.591  1.00  0.00     0.188 C 
BRANCH  27  28
ATOM     28  O   UNL A   1      34.041  32.509  28.983  1.00  0.00    -0.376 OA
BRANCH  28  29
ATOM     29  C   UNL A   1      34.429  33.334  30.068  1.00  0.00     0.202 C 
BRANCH  29  30
ATOM     30  C   UNL A   1      35.893  33.491  30.494  1.00  0.00     0.261 C 
BRANCH  30  31
ATOM     31  O   UNL A   1      36.155  33.618  31.901  1.00  0.00    -0.460 OA
BRANCH  31  32
ATOM     32  C   UNL A   1      36.598  32.577  32.618  1.00  0.00     0.338 C 
ATOM     33  O   UNL A   1      36.246  32.245  33.741  1.00  0.00    -0.246 OA
BRANCH  32  34
ATOM     34  C   UNL A   1      37.595  31.875  31.780  1.00  0.00     0.060 A 
ATOM     35  C   UNL A   1      38.211  30.706  32.235  1.00  0.00     0.016 A 
ATOM     36  C   UNL A   1      37.947  32.403  30.536  1.00  0.00     0.016 A 
ATOM     37  C   UNL A   1      39.228  30.110  31.474  1.00  0.00     0.010 A 
ATOM     38  C   UNL A   1      38.932  31.788  29.762  1.00  0.00     0.010 A 
ATOM     39  C   UNL A   1      39.626  30.672  30.250  1.00  0.00    -0.014 A 
BRANCH  39  40
ATOM     40  C   UNL A   1      40.874  30.239  29.560  1.00  0.00     0.031 A 
ATOM     41  C   UNL A   1      40.941  28.837  29.001  1.00  0.00     0.074 A 
ATOM     42  C   UNL A   1      41.945  31.048  29.459  1.00  0.00     0.049 A 
ATOM     43  N   UNL A   1      41.929  28.224  28.397  1.00  0.00    -0.248 NA
ATOM     44  C   UNL A   1      39.741  28.002  29.175  1.00  0.00     0.031 C 
ATOM     45  C   UNL A   1      42.035  32.405  29.991  1.00  0.00     0.029 A 
ATOM     46  N   UNL A   1      43.173  30.831  28.882  1.00  0.00    -0.354 N 
ATOM     47  C   UNL A   1      41.472  26.937  28.135  1.00  0.00     0.074 A 
ATOM     48  C   UNL A   1      40.146  26.834  28.701  1.00  0.00     0.031 C 
ATOM     49  C   UNL A   1      43.254  32.902  29.714  1.00  0.00     0.029 A 
ATOM     50  C   UNL A   1      44.036  31.893  29.000  1.00  0.00     0.049 A 
ATOM     51  H   UNL A   1      43.414  29.991  28.427  1.00  0.00     0.167 HD
ATOM     52  C   UNL A   1      42.084  25.936  27.459  1.00  0.00     0.037 A 
ATOM     53  C   UNL A   1      45.309  32.034  28.579  1.00  0.00     0.037 A 
ATOM     54  C   UNL A   1      43.391  26.043  26.866  1.00  0.00     0.049 A 
ATOM     55  C   UNL A   1      45.973  30.910  27.822  1.00  0.00     0.074 A 
ATOM     56  C   UNL A   1      44.069  25.113  26.100  1.00  0.00     0.029 A 
ATOM     57  N   UNL A   1      44.218  27.150  26.980  1.00  0.00    -0.354 N 
ATOM     58  N   UNL A   1      45.497  29.730  27.504  1.00  0.00    -0.248 NA
ATOM     59  C   UNL A   1      47.347  31.145  27.353  1.00  0.00     0.031 C 
ATOM     60  C   UNL A   1      45.327  25.639  25.788  1.00  0.00     0.029 A 
ATOM     61  C   UNL A   1      45.410  26.918  26.315  1.00  0.00     0.049 A 
ATOM     62  H   UNL A   1      43.991  27.979  27.462  1.00  0.00     0.167 HD
ATOM     63  C   UNL A   1      46.495  29.098  26.773  1.00  0.00     0.074 A 
ATOM     64  C   UNL A   1      47.600  30.028  26.683  1.00  0.00     0.031 C 
ATOM     65  C   UNL A   1      46.496  27.858  26.222  1.00  0.00     0.037 A 
BRANCH  52  66
ATOM     66  C   UNL A   1      41.343  24.637  27.313  1.00  0.00     0.064 A 
ATOM     67  C   UNL A   1      40.173  24.540  26.545  1.00  0.00     0.173 A 
ATOM     68  C   UNL A   1      41.828  23.467  27.917  1.00  0.00     0.173 A 
ATOM     69  F   UNL A   1      39.659  25.630  25.955  1.00  0.00    -0.203 F 
ATOM     70  C   UNL A   1      39.499  23.329  26.414  1.00  0.00     0.198 A 
ATOM     71  C   UNL A   1      41.170  22.251  27.756  1.00  0.00     0.198 A 
ATOM     72  F   UNL A   1      42.946  23.502  28.658  1.00  0.00    -0.203 F 
ATOM     73  F   UNL A   1      38.354  23.272  25.719  1.00  0.00    -0.200 F 
ATOM     74  C   UNL A   1      40.002  22.184  27.012  1.00  0.00     0.200 A 
ATOM     75  F   UNL A   1      41.666  21.142  28.324  1.00  0.00    -0.200 F 
ATOM     76  F   UNL A   1      39.357  21.017  26.878  1.00  0.00    -0.200 F 
ENDBRANCH  52  66
BRANCH  53  77
ATOM     77  C   UNL A   1      46.040  33.305  28.833  1.00  0.00     0.064 A 
ATOM     78  C   UNL A   1      46.774  33.491  30.013  1.00  0.00     0.173 A 
ATOM     79  C   UNL A   1      46.009  34.361  27.912  1.00  0.00     0.173 A 
ATOM     80  F   UNL A   1      46.813  32.520  30.937  1.00  0.00    -0.203 F 
ATOM     81  C   UNL A   1      47.434  34.691  30.271  1.00  0.00     0.198 A 
ATOM     82  C   UNL A   1      46.692  35.552  28.158  1.00  0.00     0.198 A 
ATOM     83  F   UNL A   1      45.321  34.235  26.767  1.00  0.00    -0.203 F 
ATOM     84  F   UNL A   1      48.090  34.858  31.427  1.00  0.00    -0.200 F 
ATOM     85  C   UNL A   1      47.398  35.719  29.340  1.00  0.00     0.200 A 
ATOM     86  F   UNL A   1      46.665  36.538  27.251  1.00  0.00    -0.200 F 
ATOM     87  F   UNL A   1      48.037  36.871  29.585  1.00  0.00    -0.200 F 
ENDBRANCH  53  77
BRANCH  65  88
ATOM     88  C   UNL A   1      47.709  27.445  25.440  1.00  0.00     0.064 A 
ATOM     89  C   UNL A   1      47.823  27.703  24.066  1.00  0.00     0.173 A 
ATOM     90  C   UNL A   1      48.794  26.833  26.086  1.00  0.00     0.173 A 
ATOM     91  F   UNL A   1      46.809  28.275  23.399  1.00  0.00    -0.203 F 
ATOM     92  C   UNL A   1      48.971  27.340  23.364  1.00  0.00     0.198 A 
ATOM     93  C   UNL A   1      49.951  26.499  25.387  1.00  0.00     0.198 A 
ATOM     94  F   UNL A   1      48.739  26.575  27.402  1.00  0.00    -0.203 F 
ATOM     95  F   UNL A   1      49.041  27.556  22.043  1.00  0.00    -0.200 F 
ATOM     96  C   UNL A   1      50.035  26.748  24.026  1.00  0.00     0.200 A 
ATOM     97  F   UNL A   1      50.984  25.942  26.032  1.00  0.00    -0.200 F 
ATOM     98  F   UNL A   1      51.142  26.409  23.350  1.00  0.00    -0.200 F 
ENDBRANCH  65  88
ENDBRANCH  39  40
ENDBRANCH  32  34
ENDBRANCH  31  32
ENDBRANCH  30  31
ENDBRANCH  29  30
ENDBRANCH  28  29
ENDBRANCH  27  28
ENDBRANCH  26  27
ENDBRANCH  25  26
ENDBRANCH   1  25
TORSDOF 24
ENDMDL
MODEL 2
REMARK VINA RESULT:      -9.4      5.184     11.938
REMARK SMILES C[C@@H](CC(=O)OCCOCCOCCOCCOC(=O)c1ccc(-c2c3nc(c(-c4c(F)c(F)c(F)c(F)c4F)c4ccc([nH]4)c(-c4c(F)c(F)c(F)c(F)c4F)c4nc(c(-c5c(F)c(F)c(F)c(F)c5F)c5ccc2[nH]5)C=C4)C=C3)cc1)Cc1nnc(C2C(C)(C)C2(C)C)o1
REMARK SMILES IDX 11 1 10 2 9 3 8 4 7 5 6 6 4 7 5 8 3 9 2 10 1 11 84 12 85 13
REMARK SMILES IDX 86 14 96 15 87 16 88 17 89 18 90 19 93 20 91 21 92 22 94 23
REMARK SMILES IDX 95 24 12 25 13 26 14 27 15 28 16 29 17 30 18 31 19 32 20 33
REMARK SMILES IDX 21 34 22 35 83 36 23 37 82 38 24 39 25 40 26 41 76 42 27 43
REMARK SMILES IDX 81 44 75 45 77 46 28 47 80 48 74 49 73 50 29 52 61 53 41 54
REMARK SMILES IDX 60 55 42 56 45 57 59 58 78 59 43 60 44 61 58 63 79 64 46 65
REMARK SMILES IDX 30 66 31 67 39 68 32 69 33 70 37 71 40 72 34 73 35 74 38 75
REMARK SMILES IDX 36 76 62 77 63 78 71 79 64 80 65 81 69 82 72 83 66 84 67 85
REMARK SMILES IDX 70 86 68 87 47 88 48 89 56 90 49 91 50 92 54 93 57 94 51 95
REMARK SMILES IDX 52 96 55 97 53 98
REMARK H PARENT 77 51 45 62
REMARK Flexibility Score: inf
ROOT
ATOM      1  C   UNL A   1      45.273  23.684  28.634  1.00  0.00     0.188 C 
ENDROOT
BRANCH   1   2
ATOM      2  C   UNL A   1      44.539  23.904  29.960  1.00  0.00     0.188 C 
BRANCH   2   3
ATOM      3  O   UNL A   1      44.070  25.214  30.254  1.00  0.00    -0.376 OA
BRANCH   3   4
ATOM      4  C   UNL A   1      44.178  25.703  31.593  1.00  0.00     0.202 C 
BRANCH   4   5
ATOM      5  C   UNL A   1      45.451  26.458  32.022  1.00  0.00     0.261 C 
BRANCH   5   6
ATOM      6  O   UNL A   1      45.808  26.284  33.420  1.00  0.00    -0.463 OA
BRANCH   6   7
ATOM      7  C   UNL A   1      45.769  25.023  33.901  1.00  0.00     0.306 C 
ATOM      8  O   UNL A   1      46.729  24.256  33.862  1.00  0.00    -0.252 OA
BRANCH   7   9
ATOM      9  C   UNL A   1      44.482  24.584  34.596  1.00  0.00     0.126 C 
BRANCH   9  10
ATOM     10  C   UNL A   1      43.909  25.097  35.943  1.00  0.00     0.006 C 
ATOM     11  C   UNL A   1      44.448  24.374  37.172  1.00  0.00     0.009 C 
BRANCH  10  12
ATOM     12  C   UNL A   1      42.367  25.210  35.947  1.00  0.00     0.103 C 
BRANCH  12  13
ATOM     13  C   UNL A   1      41.845  26.608  35.890  1.00  0.00     0.216 A 
ATOM     14  N   UNL A   1      41.153  27.304  36.767  1.00  0.00    -0.113 NA
ATOM     15  O   UNL A   1      42.221  27.358  34.815  1.00  0.00    -0.425 OA
ATOM     16  N   UNL A   1      41.044  28.589  36.249  1.00  0.00    -0.113 NA
ATOM     17  C   UNL A   1      41.691  28.593  35.101  1.00  0.00     0.220 A 
BRANCH  17  18
ATOM     18  C   UNL A   1      41.852  29.839  34.199  1.00  0.00     0.090 C 
ATOM     19  C   UNL A   1      41.892  31.238  34.830  1.00  0.00    -0.017 C 
ATOM     20  C   UNL A   1      43.173  30.623  34.247  1.00  0.00    -0.017 C 
ATOM     21  C   UNL A   1      41.282  32.422  34.099  1.00  0.00     0.012 C 
ATOM     22  C   UNL A   1      41.569  31.317  36.298  1.00  0.00     0.012 C 
ATOM     23  C   UNL A   1      44.306  30.100  35.108  1.00  0.00     0.012 C 
ATOM     24  C   UNL A   1      43.705  31.165  32.932  1.00  0.00     0.012 C 
ENDBRANCH  17  18
ENDBRANCH  12  13
ENDBRANCH  10  12
ENDBRANCH   9  10
ENDBRANCH   7   9
ENDBRANCH   6   7
ENDBRANCH   5   6
ENDBRANCH   4   5
ENDBRANCH   3   4
ENDBRANCH   2   3
ENDBRANCH   1   2
BRANCH   1  25
ATOM     25  O   UNL A   1      44.437  23.196  27.604  1.00  0.00    -0.377 OA
BRANCH  25  26
ATOM     26  C   UNL A   1      45.029  22.731  26.399  1.00  0.00     0.188 C 
BRANCH  26  27
ATOM     27  C   UNL A   1      44.181  21.850  25.467  1.00  0.00     0.188 C 
BRANCH  27  28
ATOM     28  O   UNL A   1      42.816  21.830  25.850  1.00  0.00    -0.376 OA
BRANCH  28  29
ATOM     29  C   UNL A   1      42.210  20.624  26.284  1.00  0.00     0.202 C 
BRANCH  29  30
ATOM     30  C   UNL A   1      40.690  20.426  26.284  1.00  0.00     0.261 C 
BRANCH  30  31
ATOM     31  O   UNL A   1      39.913  21.319  27.099  1.00  0.00    -0.460 OA
BRANCH  31  32
ATOM     32  C   UNL A   1      39.221  22.327  26.552  1.00  0.00     0.338 C 
ATOM     33  O   UNL A   1      38.187  22.251  25.905  1.00  0.00    -0.246 OA
BRANCH  32  34
ATOM     34  C   UNL A   1      39.938  23.574  26.896  1.00  0.00     0.060 A 
ATOM     35  C   UNL A   1      40.695  23.660  28.067  1.00  0.00     0.016 A 
ATOM     36  C   UNL A   1      39.833  24.686  26.057  1.00  0.00     0.016 A 
ATOM     37  C   UNL A   1      41.285  24.881  28.430  1.00  0.00     0.010 A 
ATOM     38  C   UNL A   1      40.451  25.889  26.400  1.00  0.00     0.010 A 
ATOM     39  C   UNL A   1      41.131  26.017  27.619  1.00  0.00    -0.014 A 
BRANCH  39  40
ATOM     40  C   UNL A   1      41.496  27.378  28.103  1.00  0.00     0.031 A 
ATOM     41  C   UNL A   1      42.949  27.790  28.074  1.00  0.00     0.074 A 
ATOM     42  C   UNL A   1      40.573  28.226  28.597  1.00  0.00     0.049 A 
ATOM     43  N   UNL A   1      43.512  28.903  28.477  1.00  0.00    -0.248 NA
ATOM     44  C   UNL A   1      43.902  26.800  27.546  1.00  0.00     0.031 C 
ATOM     45  C   UNL A   1      39.147  27.943  28.728  1.00  0.00     0.029 A 
ATOM     46  N   UNL A   1      40.711  29.498  29.098  1.00  0.00    -0.354 N 
ATOM     47  C   UNL A   1      44.875  28.736  28.263  1.00  0.00     0.074 A 
ATOM     48  C   UNL A   1      45.065  27.396  27.757  1.00  0.00     0.031 C 
ATOM     49  C   UNL A   1      38.538  29.013  29.271  1.00  0.00     0.029 A 
ATOM     50  C   UNL A   1      39.534  30.049  29.542  1.00  0.00     0.049 A 
ATOM     51  H   UNL A   1      41.574  29.972  29.136  1.00  0.00     0.167 HD
ATOM     52  C   UNL A   1      45.881  29.626  28.442  1.00  0.00     0.037 A 
ATOM     53  C   UNL A   1      39.289  31.250  30.103  1.00  0.00     0.037 A 
ATOM     54  C   UNL A   1      45.694  30.971  28.915  1.00  0.00     0.049 A 
ATOM     55  C   UNL A   1      40.422  32.230  30.289  1.00  0.00     0.074 A 
ATOM     56  C   UNL A   1      46.637  31.973  29.061  1.00  0.00     0.029 A 
ATOM     57  N   UNL A   1      44.479  31.501  29.322  1.00  0.00    -0.354 N 
ATOM     58  N   UNL A   1      41.694  32.092  30.000  1.00  0.00    -0.248 NA
ATOM     59  C   UNL A   1      40.081  33.540  30.865  1.00  0.00     0.031 C 
ATOM     60  C   UNL A   1      46.001  33.095  29.601  1.00  0.00     0.029 A 
ATOM     61  C   UNL A   1      44.652  32.809  29.741  1.00  0.00     0.049 A 
ATOM     62  H   UNL A   1      43.621  31.018  29.314  1.00  0.00     0.167 HD
ATOM     63  C   UNL A   1      42.295  33.302  30.327  1.00  0.00     0.074 A 
ATOM     64  C   UNL A   1      41.248  34.168  30.825  1.00  0.00     0.031 C 
ATOM     65  C   UNL A   1      43.598  33.664  30.221  1.00  0.00     0.037 A 
BRANCH  52  66
ATOM     66  C   UNL A   1      47.276  29.176  28.114  1.00  0.00     0.064 A 
ATOM     67  C   UNL A   1      48.179  28.788  29.117  1.00  0.00     0.173 A 
ATOM     68  C   UNL A   1      47.705  29.094  26.781  1.00  0.00     0.173 A 
ATOM     69  F   UNL A   1      47.825  28.857  30.409  1.00  0.00    -0.203 F 
ATOM     70  C   UNL A   1      49.468  28.367  28.799  1.00  0.00     0.198 A 
ATOM     71  C   UNL A   1      48.983  28.641  26.465  1.00  0.00     0.198 A 
ATOM     72  F   UNL A   1      46.881  29.447  25.783  1.00  0.00    -0.203 F 
ATOM     73  F   UNL A   1      50.329  28.053  29.776  1.00  0.00    -0.200 F 
ATOM     74  C   UNL A   1      49.866  28.286  27.474  1.00  0.00     0.200 A 
ATOM     75  F   UNL A   1      49.362  28.550  25.182  1.00  0.00    -0.200 F 
ATOM     76  F   UNL A   1      51.104  27.873  27.168  1.00  0.00    -0.200 F 
ENDBRANCH  52  66
BRANCH  53  77
ATOM     77  C   UNL A   1      37.905  31.616  30.504  1.00  0.00     0.064 A 
ATOM     78  C   UNL A   1      36.967  32.043  29.552  1.00  0.00     0.173 A 
ATOM     79  C   UNL A   1      37.493  31.560  31.843  1.00  0.00     0.173 A 
ATOM     80  F   UNL A   1      37.320  32.138  28.262  1.00  0.00    -0.203 F 
ATOM     81  C   UNL A   1      35.678  32.417  29.926  1.00  0.00     0.198 A 
ATOM     82  C   UNL A   1      36.195  31.908  32.213  1.00  0.00     0.198 A 
ATOM     83  F   UNL A   1      38.351  31.158  32.793  1.00  0.00    -0.203 F 
ATOM     84  F   UNL A   1      34.818  32.864  29.001  1.00  0.00    -0.200 F 
ATOM     85  C   UNL A   1      35.291  32.344  31.256  1.00  0.00     0.200 A 
ATOM     86  F   UNL A   1      35.820  31.825  33.497  1.00  0.00    -0.200 F 
ATOM     87  F   UNL A   1      34.049  32.699  31.614  1.00  0.00    -0.200 F 
ENDBRANCH  53  77
BRANCH  65  88
ATOM     88  C   UNL A   1      43.964  35.066  30.613  1.00  0.00     0.064 A 
ATOM     89  C   UNL A   1      44.286  35.403  31.935  1.00  0.00     0.173 A 
ATOM     90  C   UNL A   1      44.047  36.075  29.639  1.00  0.00     0.173 A 
ATOM     91  F   UNL A   1      44.211  34.479  32.905  1.00  0.00    -0.203 F 
ATOM     92  C   UNL A   1      44.655  36.704  32.272  1.00  0.00     0.198 A 
ATOM     93  C   UNL A   1      44.445  37.366  29.975  1.00  0.00     0.198 A 
ATOM     94  F   UNL A   1      43.759  35.802  28.357  1.00  0.00    -0.203 F 
ATOM     95  F   UNL A   1      44.916  37.013  33.550  1.00  0.00    -0.200 F 
ATOM     96  C   UNL A   1      44.742  37.680  31.292  1.00  0.00     0.200 A 
ATOM     97  F   UNL A   1      44.544  38.304  29.023  1.00  0.00    -0.200 F 
ATOM     98  F   UNL A   1      45.106  38.928  31.618  1.00  0.00    -0.200 F 
ENDBRANCH  65  88
ENDBRANCH  39  40
ENDBRANCH  32  34
ENDBRANCH  31  32
ENDBRANCH  30  31
ENDBRANCH  29  30
ENDBRANCH  28  29
ENDBRANCH  27  28
ENDBRANCH  26  27
ENDBRANCH  25  26
ENDBRANCH   1  25
TORSDOF 24
ENDMDL
MODEL 3
REMARK VINA RESULT:      -9.2      5.409     11.354
REMARK SMILES C[C@@H](CC(=O)OCCOCCOCCOCCOC(=O)c1ccc(-c2c3nc(c(-c4c(F)c(F)c(F)c(F)c4F)c4ccc([nH]4)c(-c4c(F)c(F)c(F)c(F)c4F)c4nc(c(-c5c(F)c(F)c(F)c(F)c5F)c5ccc2[nH]5)C=C4)C=C3)cc1)Cc1nnc(C2C(C)(C)C2(C)C)o1
REMARK SMILES IDX 11 1 10 2 9 3 8 4 7 5 6 6 4 7 5 8 3 9 2 10 1 11 84 12 85 13
REMARK SMILES IDX 86 14 96 15 87 16 88 17 89 18 90 19 93 20 91 21 92 22 94 23
REMARK SMILES IDX 95 24 12 25 13 26 14 27 15 28 16 29 17 30 18 31 19 32 20 33
REMARK SMILES IDX 21 34 22 35 83 36 23 37 82 38 24 39 25 40 26 41 76 42 27 43
REMARK SMILES IDX 81 44 75 45 77 46 28 47 80 48 74 49 73 50 29 52 61 53 41 54
REMARK SMILES IDX 60 55 42 56 45 57 59 58 78 59 43 60 44 61 58 63 79 64 46 65
REMARK SMILES IDX 30 66 31 67 39 68 32 69 33 70 37 71 40 72 34 73 35 74 38 75
REMARK SMILES IDX 36 76 62 77 63 78 71 79 64 80 65 81 69 82 72 83 66 84 67 85
REMARK SMILES IDX 70 86 68 87 47 88 48 89 56 90 49 91 50 92 54 93 57 94 51 95
REMARK SMILES IDX 52 96 55 97 53 98
REMARK H PARENT 77 51 45 62
REMARK Flexibility Score: inf
ROOT
ATOM      1  C   UNL A   1      42.846  22.957  28.126  1.00  0.00     0.188 C 
ENDROOT
BRANCH   1   2
ATOM      2  C   UNL A   1      42.277  21.605  27.684  1.00  0.00     0.188 C 
BRANCH   2   3
ATOM      3  O   UNL A   1      40.869  21.419  27.751  1.00  0.00    -0.376 OA
BRANCH   3   4
ATOM      4  C   UNL A   1      40.029  22.172  26.873  1.00  0.00     0.202 C 
BRANCH   4   5
ATOM      5  C   UNL A   1      39.210  21.437  25.795  1.00  0.00     0.261 C 
BRANCH   5   6
ATOM      6  O   UNL A   1      37.998  22.129  25.389  1.00  0.00    -0.463 OA
BRANCH   6   7
ATOM      7  C   UNL A   1      37.003  21.364  24.891  1.00  0.00     0.306 C 
ATOM      8  O   UNL A   1      36.974  20.139  25.000  1.00  0.00    -0.252 OA
BRANCH   7   9
ATOM      9  C   UNL A   1      35.827  22.091  24.240  1.00  0.00     0.126 C 
BRANCH   9  10
ATOM     10  C   UNL A   1      34.409  22.314  24.825  1.00  0.00     0.006 C 
ATOM     11  C   UNL A   1      34.105  21.490  26.071  1.00  0.00     0.009 C 
BRANCH  10  12
ATOM     12  C   UNL A   1      33.289  22.223  23.763  1.00  0.00     0.103 C 
BRANCH  12  13
ATOM     13  C   UNL A   1      33.087  23.468  22.963  1.00  0.00     0.216 A 
ATOM     14  N   UNL A   1      33.654  23.872  21.846  1.00  0.00    -0.113 NA
ATOM     15  O   UNL A   1      32.081  24.297  23.363  1.00  0.00    -0.425 OA
ATOM     16  N   UNL A   1      33.004  25.045  21.480  1.00  0.00    -0.113 NA
ATOM     17  C   UNL A   1      32.075  25.265  22.388  1.00  0.00     0.220 A 
BRANCH  17  18
ATOM     18  C   UNL A   1      31.087  26.455  22.349  1.00  0.00     0.090 C 
ATOM     19  C   UNL A   1      30.307  26.841  23.614  1.00  0.00    -0.017 C 
ATOM     20  C   UNL A   1      31.446  27.741  23.109  1.00  0.00    -0.017 C 
ATOM     21  C   UNL A   1      28.888  27.371  23.502  1.00  0.00     0.012 C 
ATOM     22  C   UNL A   1      30.414  25.894  24.778  1.00  0.00     0.012 C 
ATOM     23  C   UNL A   1      32.793  27.835  23.798  1.00  0.00     0.012 C 
ATOM     24  C   UNL A   1      31.090  29.060  22.447  1.00  0.00     0.012 C 
ENDBRANCH  17  18
ENDBRANCH  12  13
ENDBRANCH  10  12
ENDBRANCH   9  10
ENDBRANCH   7   9
ENDBRANCH   6   7
ENDBRANCH   5   6
ENDBRANCH   4   5
ENDBRANCH   3   4
ENDBRANCH   2   3
ENDBRANCH   1   2
BRANCH   1  25
ATOM     25  O   UNL A   1      43.635  23.583  27.133  1.00  0.00    -0.377 OA
BRANCH  25  26
ATOM     26  C   UNL A   1      43.937  22.869  25.943  1.00  0.00     0.188 C 
BRANCH  26  27
ATOM     27  C   UNL A   1      44.019  23.657  24.626  1.00  0.00     0.188 C 
BRANCH  27  28
ATOM     28  O   UNL A   1      45.222  23.395  23.922  1.00  0.00    -0.376 OA
BRANCH  28  29
ATOM     29  C   UNL A   1      46.478  23.670  24.520  1.00  0.00     0.202 C 
BRANCH  29  30
ATOM     30  C   UNL A   1      46.866  25.072  25.001  1.00  0.00     0.261 C 
BRANCH  30  31
ATOM     31  O   UNL A   1      46.352  26.186  24.252  1.00  0.00    -0.460 OA
BRANCH  31  32
ATOM     32  C   UNL A   1      46.766  27.435  24.501  1.00  0.00     0.338 C 
ATOM     33  O   UNL A   1      47.447  28.149  23.779  1.00  0.00    -0.246 OA
BRANCH  32  34
ATOM     34  C   UNL A   1      46.225  27.809  25.826  1.00  0.00     0.060 A 
ATOM     35  C   UNL A   1      44.853  27.727  26.083  1.00  0.00     0.016 A 
ATOM     36  C   UNL A   1      47.088  28.276  26.819  1.00  0.00     0.016 A 
ATOM     37  C   UNL A   1      44.344  28.182  27.309  1.00  0.00     0.010 A 
ATOM     38  C   UNL A   1      46.584  28.693  28.052  1.00  0.00     0.010 A 
ATOM     39  C   UNL A   1      45.203  28.709  28.287  1.00  0.00    -0.014 A 
BRANCH  39  40
ATOM     40  C   UNL A   1      44.680  29.451  29.468  1.00  0.00     0.031 A 
ATOM     41  C   UNL A   1      44.413  30.932  29.332  1.00  0.00     0.074 A 
ATOM     42  C   UNL A   1      44.477  28.845  30.654  1.00  0.00     0.049 A 
ATOM     43  N   UNL A   1      43.996  31.793  30.227  1.00  0.00    -0.248 NA
ATOM     44  C   UNL A   1      44.685  31.529  28.013  1.00  0.00     0.031 C 
ATOM     45  C   UNL A   1      44.734  27.437  30.940  1.00  0.00     0.029 A 
ATOM     46  N   UNL A   1      44.020  29.353  31.846  1.00  0.00    -0.354 N 
ATOM     47  C   UNL A   1      43.970  33.025  29.582  1.00  0.00     0.074 A 
ATOM     48  C   UNL A   1      44.474  32.815  28.244  1.00  0.00     0.031 C 
ATOM     49  C   UNL A   1      44.429  27.190  32.227  1.00  0.00     0.029 A 
ATOM     50  C   UNL A   1      43.971  28.427  32.860  1.00  0.00     0.049 A 
ATOM     51  H   UNL A   1      43.753  30.293  31.965  1.00  0.00     0.167 HD
ATOM     52  C   UNL A   1      43.539  34.222  30.048  1.00  0.00     0.037 A 
ATOM     53  C   UNL A   1      43.599  28.562  34.149  1.00  0.00     0.037 A 
ATOM     54  C   UNL A   1      43.007  34.430  31.368  1.00  0.00     0.049 A 
ATOM     55  C   UNL A   1      43.116  29.902  34.647  1.00  0.00     0.074 A 
ATOM     56  C   UNL A   1      42.476  35.586  31.912  1.00  0.00     0.029 A 
ATOM     57  N   UNL A   1      42.943  33.456  32.353  1.00  0.00    -0.354 N 
ATOM     58  N   UNL A   1      43.012  31.039  34.003  1.00  0.00    -0.248 NA
ATOM     59  C   UNL A   1      42.682  29.972  36.052  1.00  0.00     0.031 C 
ATOM     60  C   UNL A   1      42.133  35.325  33.243  1.00  0.00     0.029 A 
ATOM     61  C   UNL A   1      42.401  33.991  33.510  1.00  0.00     0.049 A 
ATOM     62  H   UNL A   1      43.238  32.523  32.246  1.00  0.00     0.167 HD
ATOM     63  C   UNL A   1      42.474  31.946  34.908  1.00  0.00     0.074 A 
ATOM     64  C   UNL A   1      42.261  31.226  36.145  1.00  0.00     0.031 C 
ATOM     65  C   UNL A   1      42.181  33.259  34.730  1.00  0.00     0.037 A 
BRANCH  52  66
ATOM     66  C   UNL A   1      43.614  35.400  29.119  1.00  0.00     0.064 A 
ATOM     67  C   UNL A   1      42.505  35.815  28.365  1.00  0.00     0.173 A 
ATOM     68  C   UNL A   1      44.797  36.147  29.009  1.00  0.00     0.173 A 
ATOM     69  F   UNL A   1      41.353  35.129  28.424  1.00  0.00    -0.203 F 
ATOM     70  C   UNL A   1      42.587  36.912  27.512  1.00  0.00     0.198 A 
ATOM     71  C   UNL A   1      44.864  37.264  28.181  1.00  0.00     0.198 A 
ATOM     72  F   UNL A   1      45.885  35.799  29.712  1.00  0.00    -0.203 F 
ATOM     73  F   UNL A   1      41.531  37.257  26.762  1.00  0.00    -0.200 F 
ATOM     74  C   UNL A   1      43.763  37.641  27.426  1.00  0.00     0.200 A 
ATOM     75  F   UNL A   1      45.999  37.976  28.109  1.00  0.00    -0.200 F 
ATOM     76  F   UNL A   1      43.839  38.702  26.612  1.00  0.00    -0.200 F 
ENDBRANCH  52  66
BRANCH  53  77
ATOM     77  C   UNL A   1      43.634  27.388  35.060  1.00  0.00     0.064 A 
ATOM     78  C   UNL A   1      44.765  27.116  35.843  1.00  0.00     0.173 A 
ATOM     79  C   UNL A   1      42.548  26.506  35.158  1.00  0.00     0.173 A 
ATOM     80  F   UNL A   1      45.840  27.915  35.766  1.00  0.00    -0.203 F 
ATOM     81  C   UNL A   1      44.817  26.000  36.675  1.00  0.00     0.198 A 
ATOM     82  C   UNL A   1      42.589  25.404  36.011  1.00  0.00     0.198 A 
ATOM     83  F   UNL A   1      41.442  26.720  34.431  1.00  0.00    -0.203 F 
ATOM     84  F   UNL A   1      45.928  25.740  37.378  1.00  0.00    -0.200 F 
ATOM     85  C   UNL A   1      43.726  25.148  36.763  1.00  0.00     0.200 A 
ATOM     86  F   UNL A   1      41.530  24.590  36.103  1.00  0.00    -0.200 F 
ATOM     87  F   UNL A   1      43.773  24.077  37.567  1.00  0.00    -0.200 F 
ENDBRANCH  53  77
BRANCH  65  88
ATOM     88  C   UNL A   1      41.561  33.995  35.881  1.00  0.00     0.064 A 
ATOM     89  C   UNL A   1      40.183  33.943  36.135  1.00  0.00     0.173 A 
ATOM     90  C   UNL A   1      42.367  34.719  36.775  1.00  0.00     0.173 A 
ATOM     91  F   UNL A   1      39.369  33.274  35.305  1.00  0.00    -0.203 F 
ATOM     92  C   UNL A   1      39.632  34.607  37.228  1.00  0.00     0.198 A 
ATOM     93  C   UNL A   1      41.816  35.357  37.883  1.00  0.00     0.198 A 
ATOM     94  F   UNL A   1      43.693  34.792  36.583  1.00  0.00    -0.203 F 
ATOM     95  F   UNL A   1      38.306  34.579  37.427  1.00  0.00    -0.200 F 
ATOM     96  C   UNL A   1      40.448  35.306  38.105  1.00  0.00     0.200 A 
ATOM     97  F   UNL A   1      42.608  36.018  38.737  1.00  0.00    -0.200 F 
ATOM     98  F   UNL A   1      39.916  35.936  39.161  1.00  0.00    -0.200 F 
ENDBRANCH  65  88
ENDBRANCH  39  40
ENDBRANCH  32  34
ENDBRANCH  31  32
ENDBRANCH  30  31
ENDBRANCH  29  30
ENDBRANCH  28  29
ENDBRANCH  27  28
ENDBRANCH  26  27
ENDBRANCH  25  26
ENDBRANCH   1  25
TORSDOF 24
ENDMDL
