MODEL 1
REMARK VINA RESULT:     -11.3      0.000      0.000
REMARK SMILES CC[C@@H]1C=CCN1S(=O)(=O)c1sc2c(c1C(=O)OCCOCCOCCOCCOC(=O)c1ccc(-c3c4nc(c(-c5c(F)c(F)c(F)c(F)c5F)c5ccc([nH]5)c(-c5c(F)c(F)c(F)c(F)c5F)c5nc(c(-c6c(F)c(F)c(F)c(F)c6F)c6ccc3[nH]6)C=C5)C=C4)cc1)CC[NH2+]C2
REMARK SMILES IDX 23 1 22 2 21 3 20 4 19 5 18 6 16 7 17 8 15 9 11 10 12 11
REMARK SMILES IDX 13 12 14 13 99 14 96 15 98 16 97 17 8 20 9 21 10 22 7 23
REMARK SMILES IDX 3 24 4 25 5 26 6 27 2 28 1 29 24 30 25 31 26 32 27 33 28 34
REMARK SMILES IDX 29 35 30 36 31 37 32 38 33 39 34 40 95 41 35 42 94 43 36 44
REMARK SMILES IDX 37 45 38 46 88 47 39 48 93 49 87 50 89 51 40 52 92 53 86 54
REMARK SMILES IDX 85 55 41 57 73 58 53 59 72 60 54 61 57 62 71 63 90 64 55 65
REMARK SMILES IDX 56 66 70 68 91 69 58 70 42 71 43 72 51 73 44 74 45 75 49 76
REMARK SMILES IDX 52 77 46 78 47 79 50 80 48 81 74 82 75 83 83 84 76 85 77 86
REMARK SMILES IDX 81 87 84 88 78 89 79 90 82 91 80 92 59 93 60 94 68 95 61 96
REMARK SMILES IDX 62 97 66 98 69 99 63 100 64 101 67 102 65 103
REMARK H PARENT 98 18 98 19 89 56 57 67
REMARK Flexibility Score: inf
ROOT
ATOM      1  C   UNL A   1      40.634  19.661  26.348  1.00  0.00     0.188 C 
ENDROOT
BRANCH   1   2
ATOM      2  C   UNL A   1      40.268  21.145  26.602  1.00  0.00     0.188 C 
BRANCH   2   3
ATOM      3  O   UNL A   1      39.422  21.724  25.616  1.00  0.00    -0.376 OA
BRANCH   3   4
ATOM      4  C   UNL A   1      38.146  22.165  26.050  1.00  0.00     0.202 C 
BRANCH   4   5
ATOM      5  C   UNL A   1      37.857  23.623  25.682  1.00  0.00     0.261 C 
BRANCH   5   6
ATOM      6  O   UNL A   1      36.496  23.855  25.293  1.00  0.00    -0.460 OA
BRANCH   6   7
ATOM      7  C   UNL A   1      36.117  23.459  24.060  1.00  0.00     0.340 C 
ATOM      8  O   UNL A   1      36.894  23.312  23.121  1.00  0.00    -0.246 OA
BRANCH   7   9
ATOM      9  C   UNL A   1      34.718  23.035  24.000  1.00  0.00     0.095 A 
ATOM     10  C   UNL A   1      33.630  23.858  23.684  1.00  0.00     0.150 A 
ATOM     11  S   UNL A   1      32.195  22.923  23.508  1.00  0.00    -0.120 S 
ATOM     12  C   UNL A   1      32.941  21.499  24.001  1.00  0.00     0.064 A 
ATOM     13  C   UNL A   1      34.273  21.683  24.300  1.00  0.00    -0.007 A 
ATOM     14  C   UNL A   1      32.212  20.192  24.069  1.00  0.00     0.308 C 
ATOM     15  C   UNL A   1      35.058  20.544  24.896  1.00  0.00     0.099 C 
ATOM     16  N   UNL A   1      32.874  19.274  25.011  1.00  0.00    -0.342 N 
ATOM     17  C   UNL A   1      34.321  19.194  24.726  1.00  0.00     0.265 C 
ATOM     18  H   UNL A   1      32.738  19.614  25.963  1.00  0.00     0.346 HD
ATOM     19  H   UNL A   1      32.466  18.344  24.909  1.00  0.00     0.346 HD
BRANCH  10  20
ATOM     20  S   UNL A   1      33.432  25.606  23.277  1.00  0.00     0.254 S 
ATOM     21  O   UNL A   1      33.845  25.698  21.884  1.00  0.00    -0.206 OA
ATOM     22  O   UNL A   1      34.152  26.331  24.289  1.00  0.00    -0.206 OA
BRANCH  20  23
ATOM     23  N   UNL A   1      31.789  26.103  23.380  1.00  0.00    -0.186 NA
ATOM     24  C   UNL A   1      31.549  27.140  24.444  1.00  0.00     0.096 C 
ATOM     25  C   UNL A   1      30.856  28.246  23.705  1.00  0.00    -0.010 C 
ATOM     26  C   UNL A   1      30.605  27.910  22.441  1.00  0.00    -0.013 C 
ATOM     27  C   UNL A   1      31.173  26.581  22.111  1.00  0.00     0.130 C 
BRANCH  24  28
ATOM     28  C   UNL A   1      30.607  26.652  25.557  1.00  0.00     0.021 C 
ATOM     29  C   UNL A   1      30.651  25.169  25.878  1.00  0.00     0.006 C 
ENDBRANCH  24  28
ENDBRANCH  20  23
ENDBRANCH  10  20
ENDBRANCH   7   9
ENDBRANCH   6   7
ENDBRANCH   5   6
ENDBRANCH   4   5
ENDBRANCH   3   4
ENDBRANCH   2   3
ENDBRANCH   1   2
BRANCH   1  30
ATOM     30  O   UNL A   1      41.700  19.258  25.492  1.00  0.00    -0.377 OA
BRANCH  30  31
ATOM     31  C   UNL A   1      42.762  18.500  26.045  1.00  0.00     0.188 C 
BRANCH  31  32
ATOM     32  C   UNL A   1      44.116  18.707  25.332  1.00  0.00     0.188 C 
BRANCH  32  33
ATOM     33  O   UNL A   1      44.096  19.721  24.330  1.00  0.00    -0.376 OA
BRANCH  33  34
ATOM     34  C   UNL A   1      44.675  20.983  24.631  1.00  0.00     0.202 C 
BRANCH  34  35
ATOM     35  C   UNL A   1      43.972  21.813  25.703  1.00  0.00     0.261 C 
BRANCH  35  36
ATOM     36  O   UNL A   1      43.009  22.731  25.207  1.00  0.00    -0.460 OA
BRANCH  36  37
ATOM     37  C   UNL A   1      43.357  24.025  25.173  1.00  0.00     0.338 C 
ATOM     38  O   UNL A   1      44.306  24.531  24.595  1.00  0.00    -0.246 OA
BRANCH  37  39
ATOM     39  C   UNL A   1      42.469  24.760  26.073  1.00  0.00     0.060 A 
ATOM     40  C   UNL A   1      41.714  25.780  25.495  1.00  0.00     0.016 A 
ATOM     41  C   UNL A   1      42.665  24.659  27.460  1.00  0.00     0.016 A 
ATOM     42  C   UNL A   1      41.381  26.855  26.281  1.00  0.00     0.010 A 
ATOM     43  C   UNL A   1      42.358  25.746  28.238  1.00  0.00     0.010 A 
ATOM     44  C   UNL A   1      41.810  26.862  27.612  1.00  0.00    -0.014 A 
BRANCH  44  45
ATOM     45  C   UNL A   1      41.701  28.108  28.330  1.00  0.00     0.031 A 
ATOM     46  C   UNL A   1      42.830  29.030  28.133  1.00  0.00     0.074 A 
ATOM     47  C   UNL A   1      40.609  28.411  29.054  1.00  0.00     0.049 A 
ATOM     48  N   UNL A   1      43.636  29.494  29.028  1.00  0.00    -0.248 NA
ATOM     49  C   UNL A   1      43.159  29.409  26.752  1.00  0.00     0.031 C 
ATOM     50  C   UNL A   1      39.323  27.710  29.073  1.00  0.00     0.029 A 
ATOM     51  N   UNL A   1      40.392  29.493  29.850  1.00  0.00    -0.354 N 
ATOM     52  C   UNL A   1      44.471  30.370  28.348  1.00  0.00     0.074 A 
ATOM     53  C   UNL A   1      44.234  30.172  26.942  1.00  0.00     0.031 C 
ATOM     54  C   UNL A   1      38.402  28.498  29.671  1.00  0.00     0.029 A 
ATOM     55  C   UNL A   1      39.060  29.696  30.169  1.00  0.00     0.049 A 
ATOM     56  H   UNL A   1      41.116  30.079  30.169  1.00  0.00     0.167 HD
ATOM     57  C   UNL A   1      45.104  31.375  29.003  1.00  0.00     0.037 A 
ATOM     58  C   UNL A   1      38.533  30.815  30.721  1.00  0.00     0.037 A 
ATOM     59  C   UNL A   1      45.226  31.106  30.412  1.00  0.00     0.049 A 
ATOM     60  C   UNL A   1      39.641  31.577  31.351  1.00  0.00     0.074 A 
ATOM     61  C   UNL A   1      45.800  30.096  31.158  1.00  0.00     0.029 A 
ATOM     62  N   UNL A   1      44.413  31.793  31.278  1.00  0.00    -0.354 N 
ATOM     63  N   UNL A   1      40.273  31.211  32.430  1.00  0.00    -0.248 NA
ATOM     64  C   UNL A   1      40.307  32.603  30.559  1.00  0.00     0.031 C 
ATOM     65  C   UNL A   1      44.974  29.958  32.311  1.00  0.00     0.029 A 
ATOM     66  C   UNL A   1      43.952  30.902  32.211  1.00  0.00     0.049 A 
ATOM     67  H   UNL A   1      44.200  32.753  31.237  1.00  0.00     0.167 HD
ATOM     68  C   UNL A   1      41.579  31.634  32.234  1.00  0.00     0.074 A 
ATOM     69  C   UNL A   1      41.508  32.596  31.142  1.00  0.00     0.031 C 
ATOM     70  C   UNL A   1      42.627  30.951  32.782  1.00  0.00     0.037 A 
BRANCH  57  71
ATOM     71  C   UNL A   1      45.254  32.754  28.416  1.00  0.00     0.064 A 
ATOM     72  C   UNL A   1      44.101  33.518  28.165  1.00  0.00     0.173 A 
ATOM     73  C   UNL A   1      46.446  33.222  27.818  1.00  0.00     0.173 A 
ATOM     74  F   UNL A   1      42.913  33.142  28.660  1.00  0.00    -0.203 F 
ATOM     75  C   UNL A   1      44.128  34.627  27.317  1.00  0.00     0.198 A 
ATOM     76  C   UNL A   1      46.479  34.364  27.022  1.00  0.00     0.198 A 
ATOM     77  F   UNL A   1      47.595  32.538  27.879  1.00  0.00    -0.203 F 
ATOM     78  F   UNL A   1      42.984  35.247  27.000  1.00  0.00    -0.200 F 
ATOM     79  C   UNL A   1      45.315  35.047  26.744  1.00  0.00     0.200 A 
ATOM     80  F   UNL A   1      47.637  34.741  26.461  1.00  0.00    -0.200 F 
ATOM     81  F   UNL A   1      45.332  36.072  25.883  1.00  0.00    -0.200 F 
ENDBRANCH  57  71
BRANCH  58  82
ATOM     82  C   UNL A   1      37.184  31.392  30.518  1.00  0.00     0.064 A 
ATOM     83  C   UNL A   1      36.312  31.581  31.601  1.00  0.00     0.173 A 
ATOM     84  C   UNL A   1      36.815  32.005  29.304  1.00  0.00     0.173 A 
ATOM     85  F   UNL A   1      36.611  31.073  32.805  1.00  0.00    -0.203 F 
ATOM     86  C   UNL A   1      35.152  32.353  31.483  1.00  0.00     0.198 A 
ATOM     87  C   UNL A   1      35.649  32.759  29.182  1.00  0.00     0.198 A 
ATOM     88  F   UNL A   1      37.622  31.967  28.234  1.00  0.00    -0.203 F 
ATOM     89  F   UNL A   1      34.380  32.565  32.557  1.00  0.00    -0.200 F 
ATOM     90  C   UNL A   1      34.825  32.946  30.275  1.00  0.00     0.200 A 
ATOM     91  F   UNL A   1      35.362  33.355  28.015  1.00  0.00    -0.200 F 
ATOM     92  F   UNL A   1      33.742  33.729  30.174  1.00  0.00    -0.200 F 
ENDBRANCH  58  82
BRANCH  70  93
ATOM     93  C   UNL A   1      42.320  29.981  33.884  1.00  0.00     0.064 A 
ATOM     94  C   UNL A   1      41.855  28.672  33.671  1.00  0.00     0.173 A 
ATOM     95  C   UNL A   1      42.619  30.356  35.201  1.00  0.00     0.173 A 
ATOM     96  F   UNL A   1      41.649  28.207  32.432  1.00  0.00    -0.203 F 
ATOM     97  C   UNL A   1      41.641  27.803  34.739  1.00  0.00     0.198 A 
ATOM     98  C   UNL A   1      42.442  29.472  36.261  1.00  0.00     0.198 A 
ATOM     99  F   UNL A   1      43.124  31.574  35.457  1.00  0.00    -0.203 F 
ATOM    100  F   UNL A   1      41.172  26.566  34.515  1.00  0.00    -0.200 F 
ATOM    101  C   UNL A   1      41.939  28.201  36.032  1.00  0.00     0.200 A 
ATOM    102  F   UNL A   1      42.779  29.844  37.504  1.00  0.00    -0.200 F 
ATOM    103  F   UNL A   1      41.766  27.353  37.055  1.00  0.00    -0.200 F 
ENDBRANCH  70  93
ENDBRANCH  44  45
ENDBRANCH  37  39
ENDBRANCH  36  37
ENDBRANCH  35  36
ENDBRANCH  34  35
ENDBRANCH  33  34
ENDBRANCH  32  33
ENDBRANCH  31  32
ENDBRANCH  30  31
ENDBRANCH   1  30
TORSDOF 23
ENDMDL
MODEL 2
REMARK VINA RESULT:     -10.8      1.826      2.930
REMARK SMILES CC[C@@H]1C=CCN1S(=O)(=O)c1sc2c(c1C(=O)OCCOCCOCCOCCOC(=O)c1ccc(-c3c4nc(c(-c5c(F)c(F)c(F)c(F)c5F)c5ccc([nH]5)c(-c5c(F)c(F)c(F)c(F)c5F)c5nc(c(-c6c(F)c(F)c(F)c(F)c6F)c6ccc3[nH]6)C=C5)C=C4)cc1)CC[NH2+]C2
REMARK SMILES IDX 23 1 22 2 21 3 20 4 19 5 18 6 16 7 17 8 15 9 11 10 12 11
REMARK SMILES IDX 13 12 14 13 99 14 96 15 98 16 97 17 8 20 9 21 10 22 7 23
REMARK SMILES IDX 3 24 4 25 5 26 6 27 2 28 1 29 24 30 25 31 26 32 27 33 28 34
REMARK SMILES IDX 29 35 30 36 31 37 32 38 33 39 34 40 95 41 35 42 94 43 36 44
REMARK SMILES IDX 37 45 38 46 88 47 39 48 93 49 87 50 89 51 40 52 92 53 86 54
REMARK SMILES IDX 85 55 41 57 73 58 53 59 72 60 54 61 57 62 71 63 90 64 55 65
REMARK SMILES IDX 56 66 70 68 91 69 58 70 42 71 43 72 51 73 44 74 45 75 49 76
REMARK SMILES IDX 52 77 46 78 47 79 50 80 48 81 74 82 75 83 83 84 76 85 77 86
REMARK SMILES IDX 81 87 84 88 78 89 79 90 82 91 80 92 59 93 60 94 68 95 61 96
REMARK SMILES IDX 62 97 66 98 69 99 63 100 64 101 67 102 65 103
REMARK H PARENT 98 18 98 19 89 56 57 67
REMARK Flexibility Score: inf
ROOT
ATOM      1  C   UNL A   1      36.982  22.052  24.955  1.00  0.00     0.188 C 
ENDROOT
BRANCH   1   2
ATOM      2  C   UNL A   1      35.780  21.262  25.530  1.00  0.00     0.188 C 
BRANCH   2   3
ATOM      3  O   UNL A   1      35.510  21.512  26.904  1.00  0.00    -0.376 OA
BRANCH   3   4
ATOM      4  C   UNL A   1      34.191  21.916  27.232  1.00  0.00     0.202 C 
BRANCH   4   5
ATOM      5  C   UNL A   1      33.899  23.373  26.867  1.00  0.00     0.261 C 
BRANCH   5   6
ATOM      6  O   UNL A   1      32.615  23.829  27.315  1.00  0.00    -0.460 OA
BRANCH   6   7
ATOM      7  C   UNL A   1      31.525  23.156  26.892  1.00  0.00     0.340 C 
ATOM      8  O   UNL A   1      30.676  22.688  27.646  1.00  0.00    -0.246 OA
BRANCH   7   9
ATOM      9  C   UNL A   1      31.349  23.204  25.440  1.00  0.00     0.095 A 
ATOM     10  C   UNL A   1      30.802  24.273  24.721  1.00  0.00     0.150 A 
ATOM     11  S   UNL A   1      30.980  24.017  23.028  1.00  0.00    -0.120 S 
ATOM     12  C   UNL A   1      31.602  22.468  23.225  1.00  0.00     0.064 A 
ATOM     13  C   UNL A   1      31.700  22.108  24.551  1.00  0.00    -0.007 A 
ATOM     14  C   UNL A   1      32.019  21.615  22.065  1.00  0.00     0.308 C 
ATOM     15  C   UNL A   1      32.103  20.700  24.905  1.00  0.00     0.099 C 
ATOM     16  N   UNL A   1      31.992  20.189  22.430  1.00  0.00    -0.342 N 
ATOM     17  C   UNL A   1      32.724  19.964  23.694  1.00  0.00     0.265 C 
ATOM     18  H   UNL A   1      31.024  19.890  22.545  1.00  0.00     0.346 HD
ATOM     19  H   UNL A   1      32.442  19.650  21.689  1.00  0.00     0.346 HD
BRANCH  10  20
ATOM     20  S   UNL A   1      30.113  25.884  25.161  1.00  0.00     0.254 S 
ATOM     21  O   UNL A   1      29.538  25.678  26.482  1.00  0.00    -0.206 OA
ATOM     22  O   UNL A   1      29.270  26.267  24.062  1.00  0.00    -0.206 OA
BRANCH  20  23
ATOM     23  N   UNL A   1      31.337  27.085  25.293  1.00  0.00    -0.186 NA
ATOM     24  C   UNL A   1      32.106  27.007  26.585  1.00  0.00     0.096 C 
ATOM     25  C   UNL A   1      33.536  26.941  26.138  1.00  0.00    -0.010 C 
ATOM     26  C   UNL A   1      33.644  27.073  24.817  1.00  0.00    -0.013 C 
ATOM     27  C   UNL A   1      32.313  27.147  24.169  1.00  0.00     0.130 C 
BRANCH  24  28
ATOM     28  C   UNL A   1      31.941  28.262  27.459  1.00  0.00     0.021 C 
ATOM     29  C   UNL A   1      31.919  29.594  26.731  1.00  0.00     0.006 C 
ENDBRANCH  24  28
ENDBRANCH  20  23
ENDBRANCH  10  20
ENDBRANCH   7   9
ENDBRANCH   6   7
ENDBRANCH   5   6
ENDBRANCH   4   5
ENDBRANCH   3   4
ENDBRANCH   2   3
ENDBRANCH   1   2
BRANCH   1  30
ATOM     30  O   UNL A   1      38.339  21.677  25.179  1.00  0.00    -0.377 OA
BRANCH  30  31
ATOM     31  C   UNL A   1      38.636  20.310  25.403  1.00  0.00     0.188 C 
BRANCH  31  32
ATOM     32  C   UNL A   1      39.943  20.074  26.189  1.00  0.00     0.188 C 
BRANCH  32  33
ATOM     33  O   UNL A   1      40.760  19.031  25.660  1.00  0.00    -0.376 OA
BRANCH  33  34
ATOM     34  C   UNL A   1      42.066  18.859  26.190  1.00  0.00     0.202 C 
BRANCH  34  35
ATOM     35  C   UNL A   1      43.139  19.815  25.674  1.00  0.00     0.261 C 
BRANCH  35  36
ATOM     36  O   UNL A   1      43.242  21.035  26.391  1.00  0.00    -0.460 OA
BRANCH  36  37
ATOM     37  C   UNL A   1      42.820  22.147  25.774  1.00  0.00     0.338 C 
ATOM     38  O   UNL A   1      43.000  22.473  24.610  1.00  0.00    -0.246 OA
BRANCH  37  39
ATOM     39  C   UNL A   1      42.194  23.014  26.772  1.00  0.00     0.060 A 
ATOM     40  C   UNL A   1      41.183  23.856  26.308  1.00  0.00     0.016 A 
ATOM     41  C   UNL A   1      42.837  23.215  28.003  1.00  0.00     0.016 A 
ATOM     42  C   UNL A   1      41.004  25.055  26.950  1.00  0.00     0.010 A 
ATOM     43  C   UNL A   1      42.678  24.426  28.627  1.00  0.00     0.010 A 
ATOM     44  C   UNL A   1      41.836  25.360  28.032  1.00  0.00    -0.014 A 
BRANCH  44  45
ATOM     45  C   UNL A   1      41.825  26.723  28.504  1.00  0.00     0.031 A 
ATOM     46  C   UNL A   1      42.967  27.536  28.057  1.00  0.00     0.074 A 
ATOM     47  C   UNL A   1      40.803  27.210  29.230  1.00  0.00     0.049 A 
ATOM     48  N   UNL A   1      43.855  28.120  28.790  1.00  0.00    -0.248 NA
ATOM     49  C   UNL A   1      43.202  27.631  26.610  1.00  0.00     0.031 C 
ATOM     50  C   UNL A   1      39.498  26.588  29.471  1.00  0.00     0.029 A 
ATOM     51  N   UNL A   1      40.685  28.431  29.818  1.00  0.00    -0.354 N 
ATOM     52  C   UNL A   1      44.665  28.811  27.899  1.00  0.00     0.074 A 
ATOM     53  C   UNL A   1      44.314  28.363  26.576  1.00  0.00     0.031 C 
ATOM     54  C   UNL A   1      38.654  27.518  29.970  1.00  0.00     0.029 A 
ATOM     55  C   UNL A   1      39.390  28.755  30.183  1.00  0.00     0.049 A 
ATOM     56  H   UNL A   1      41.451  29.031  29.968  1.00  0.00     0.167 HD
ATOM     57  C   UNL A   1      45.381  29.889  28.304  1.00  0.00     0.037 A 
ATOM     58  C   UNL A   1      38.945  29.982  30.546  1.00  0.00     0.037 A 
ATOM     59  C   UNL A   1      45.601  29.884  29.727  1.00  0.00     0.049 A 
ATOM     60  C   UNL A   1      40.124  30.795  30.940  1.00  0.00     0.074 A 
ATOM     61  C   UNL A   1      46.196  29.006  30.611  1.00  0.00     0.029 A 
ATOM     62  N   UNL A   1      44.881  30.760  30.499  1.00  0.00    -0.354 N 
ATOM     63  N   UNL A   1      40.824  30.607  32.023  1.00  0.00    -0.248 NA
ATOM     64  C   UNL A   1      40.763  31.619  29.923  1.00  0.00     0.031 C 
ATOM     65  C   UNL A   1      45.456  29.128  31.823  1.00  0.00     0.029 A 
ATOM     66  C   UNL A   1      44.463  30.084  31.615  1.00  0.00     0.049 A 
ATOM     67  H   UNL A   1      44.699  31.705  30.290  1.00  0.00     0.167 HD
ATOM     68  C   UNL A   1      42.125  30.923  31.661  1.00  0.00     0.074 A 
ATOM     69  C   UNL A   1      42.004  31.664  30.412  1.00  0.00     0.031 C 
ATOM     70  C   UNL A   1      43.187  30.305  32.256  1.00  0.00     0.037 A 
BRANCH  57  71
ATOM     71  C   UNL A   1      45.533  31.124  27.456  1.00  0.00     0.064 A 
ATOM     72  C   UNL A   1      46.820  31.634  27.217  1.00  0.00     0.173 A 
ATOM     73  C   UNL A   1      44.459  31.983  27.129  1.00  0.00     0.173 A 
ATOM     74  F   UNL A   1      47.907  30.911  27.522  1.00  0.00    -0.203 F 
ATOM     75  C   UNL A   1      47.018  32.937  26.756  1.00  0.00     0.198 A 
ATOM     76  C   UNL A   1      44.660  33.260  26.612  1.00  0.00     0.198 A 
ATOM     77  F   UNL A   1      43.186  31.676  27.404  1.00  0.00    -0.203 F 
ATOM     78  F   UNL A   1      48.261  33.428  26.669  1.00  0.00    -0.200 F 
ATOM     79  C   UNL A   1      45.938  33.750  26.457  1.00  0.00     0.200 A 
ATOM     80  F   UNL A   1      43.600  34.038  26.349  1.00  0.00    -0.200 F 
ATOM     81  F   UNL A   1      46.126  35.019  26.074  1.00  0.00    -0.200 F 
ENDBRANCH  57  71
BRANCH  58  82
ATOM     82  C   UNL A   1      37.606  30.576  30.329  1.00  0.00     0.064 A 
ATOM     83  C   UNL A   1      36.817  30.987  31.414  1.00  0.00     0.173 A 
ATOM     84  C   UNL A   1      37.175  30.987  29.051  1.00  0.00     0.173 A 
ATOM     85  F   UNL A   1      37.181  30.681  32.668  1.00  0.00    -0.203 F 
ATOM     86  C   UNL A   1      35.679  31.778  31.235  1.00  0.00     0.198 A 
ATOM     87  C   UNL A   1      36.029  31.760  28.872  1.00  0.00     0.198 A 
ATOM     88  F   UNL A   1      37.905  30.729  27.957  1.00  0.00    -0.203 F 
ATOM     89  F   UNL A   1      34.989  32.206  32.301  1.00  0.00    -0.200 F 
ATOM     90  C   UNL A   1      35.288  32.168  29.965  1.00  0.00     0.200 A 
ATOM     91  F   UNL A   1      35.682  32.158  27.640  1.00  0.00    -0.200 F 
ATOM     92  F   UNL A   1      34.228  32.970  29.797  1.00  0.00    -0.200 F 
ENDBRANCH  58  82
BRANCH  70  93
ATOM     93  C   UNL A   1      42.932  29.575  33.542  1.00  0.00     0.064 A 
ATOM     94  C   UNL A   1      43.008  30.172  34.811  1.00  0.00     0.173 A 
ATOM     95  C   UNL A   1      42.482  28.249  33.475  1.00  0.00     0.173 A 
ATOM     96  F   UNL A   1      43.327  31.466  34.946  1.00  0.00    -0.203 F 
ATOM     97  C   UNL A   1      42.705  29.450  35.964  1.00  0.00     0.198 A 
ATOM     98  C   UNL A   1      42.142  27.544  34.625  1.00  0.00     0.198 A 
ATOM     99  F   UNL A   1      42.333  27.648  32.283  1.00  0.00    -0.203 F 
ATOM    100  F   UNL A   1      42.809  30.033  37.168  1.00  0.00    -0.200 F 
ATOM    101  C   UNL A   1      42.268  28.139  35.870  1.00  0.00     0.200 A 
ATOM    102  F   UNL A   1      41.672  26.292  34.526  1.00  0.00    -0.200 F 
ATOM    103  F   UNL A   1      41.944  27.456  36.977  1.00  0.00    -0.200 F 
ENDBRANCH  70  93
ENDBRANCH  44  45
ENDBRANCH  37  39
ENDBRANCH  36  37
ENDBRANCH  35  36
ENDBRANCH  34  35
ENDBRANCH  33  34
ENDBRANCH  32  33
ENDBRANCH  31  32
ENDBRANCH  30  31
ENDBRANCH   1  30
TORSDOF 23
ENDMDL
MODEL 3
REMARK VINA RESULT:     -10.8      3.856      9.710
REMARK SMILES CC[C@@H]1C=CCN1S(=O)(=O)c1sc2c(c1C(=O)OCCOCCOCCOCCOC(=O)c1ccc(-c3c4nc(c(-c5c(F)c(F)c(F)c(F)c5F)c5ccc([nH]5)c(-c5c(F)c(F)c(F)c(F)c5F)c5nc(c(-c6c(F)c(F)c(F)c(F)c6F)c6ccc3[nH]6)C=C5)C=C4)cc1)CC[NH2+]C2
REMARK SMILES IDX 23 1 22 2 21 3 20 4 19 5 18 6 16 7 17 8 15 9 11 10 12 11
REMARK SMILES IDX 13 12 14 13 99 14 96 15 98 16 97 17 8 20 9 21 10 22 7 23
REMARK SMILES IDX 3 24 4 25 5 26 6 27 2 28 1 29 24 30 25 31 26 32 27 33 28 34
REMARK SMILES IDX 29 35 30 36 31 37 32 38 33 39 34 40 95 41 35 42 94 43 36 44
REMARK SMILES IDX 37 45 38 46 88 47 39 48 93 49 87 50 89 51 40 52 92 53 86 54
REMARK SMILES IDX 85 55 41 57 73 58 53 59 72 60 54 61 57 62 71 63 90 64 55 65
REMARK SMILES IDX 56 66 70 68 91 69 58 70 42 71 43 72 51 73 44 74 45 75 49 76
REMARK SMILES IDX 52 77 46 78 47 79 50 80 48 81 74 82 75 83 83 84 76 85 77 86
REMARK SMILES IDX 81 87 84 88 78 89 79 90 82 91 80 92 59 93 60 94 68 95 61 96
REMARK SMILES IDX 62 97 66 98 69 99 63 100 64 101 67 102 65 103
REMARK H PARENT 98 18 98 19 89 56 57 67
REMARK Flexibility Score: inf
ROOT
ATOM      1  C   UNL A   1      34.095  32.545  28.628  1.00  0.00     0.188 C 
ENDROOT
BRANCH   1   2
ATOM      2  C   UNL A   1      34.907  31.587  27.721  1.00  0.00     0.188 C 
BRANCH   2   3
ATOM      3  O   UNL A   1      34.117  30.771  26.864  1.00  0.00    -0.376 OA
BRANCH   3   4
ATOM      4  C   UNL A   1      34.256  29.368  27.012  1.00  0.00     0.202 C 
BRANCH   4   5
ATOM      5  C   UNL A   1      33.833  28.587  25.766  1.00  0.00     0.261 C 
BRANCH   5   6
ATOM      6  O   UNL A   1      32.669  29.125  25.123  1.00  0.00    -0.460 OA
BRANCH   6   7
ATOM      7  C   UNL A   1      32.379  28.691  23.878  1.00  0.00     0.340 C 
ATOM      8  O   UNL A   1      33.197  28.643  22.964  1.00  0.00    -0.246 OA
BRANCH   7   9
ATOM      9  C   UNL A   1      31.044  28.100  23.774  1.00  0.00     0.095 A 
ATOM     10  C   UNL A   1      30.690  26.809  24.184  1.00  0.00     0.150 A 
ATOM     11  S   UNL A   1      28.985  26.591  24.089  1.00  0.00    -0.120 S 
ATOM     12  C   UNL A   1      28.732  28.087  23.367  1.00  0.00     0.064 A 
ATOM     13  C   UNL A   1      29.904  28.787  23.187  1.00  0.00    -0.007 A 
ATOM     14  C   UNL A   1      27.365  28.582  23.001  1.00  0.00     0.308 C 
ATOM     15  C   UNL A   1      29.878  30.086  22.423  1.00  0.00     0.099 C 
ATOM     16  N   UNL A   1      27.446  29.594  21.934  1.00  0.00    -0.342 N 
ATOM     17  C   UNL A   1      28.438  30.633  22.280  1.00  0.00     0.265 C 
ATOM     18  H   UNL A   1      27.722  29.143  21.062  1.00  0.00     0.346 HD
ATOM     19  H   UNL A   1      26.531  30.036  21.827  1.00  0.00     0.346 HD
BRANCH  10  20
ATOM     20  S   UNL A   1      31.578  25.418  24.917  1.00  0.00     0.254 S 
ATOM     21  O   UNL A   1      30.700  24.278  24.698  1.00  0.00    -0.206 OA
ATOM     22  O   UNL A   1      31.911  25.822  26.255  1.00  0.00    -0.206 OA
BRANCH  20  23
ATOM     23  N   UNL A   1      33.063  25.111  24.105  1.00  0.00    -0.186 NA
ATOM     24  C   UNL A   1      33.850  23.982  24.715  1.00  0.00     0.096 C 
ATOM     25  C   UNL A   1      34.111  23.070  23.553  1.00  0.00    -0.010 C 
ATOM     26  C   UNL A   1      33.671  23.592  22.410  1.00  0.00    -0.013 C 
ATOM     27  C   UNL A   1      32.965  24.875  22.637  1.00  0.00     0.130 C 
BRANCH  24  28
ATOM     28  C   UNL A   1      35.208  24.432  25.278  1.00  0.00     0.021 C 
ATOM     29  C   UNL A   1      36.066  23.354  25.914  1.00  0.00     0.006 C 
ENDBRANCH  24  28
ENDBRANCH  20  23
ENDBRANCH  10  20
ENDBRANCH   7   9
ENDBRANCH   6   7
ENDBRANCH   5   6
ENDBRANCH   4   5
ENDBRANCH   3   4
ENDBRANCH   2   3
ENDBRANCH   1   2
BRANCH   1  30
ATOM     30  O   UNL A   1      33.390  33.679  28.130  1.00  0.00    -0.377 OA
BRANCH  30  31
ATOM     31  C   UNL A   1      33.998  34.955  28.238  1.00  0.00     0.188 C 
BRANCH  31  32
ATOM     32  C   UNL A   1      33.250  35.926  29.177  1.00  0.00     0.188 C 
BRANCH  32  33
ATOM     33  O   UNL A   1      32.512  35.282  30.213  1.00  0.00    -0.376 OA
BRANCH  33  34
ATOM     34  C   UNL A   1      32.896  35.510  31.561  1.00  0.00     0.202 C 
BRANCH  34  35
ATOM     35  C   UNL A   1      34.217  34.885  32.005  1.00  0.00     0.261 C 
BRANCH  35  36
ATOM     36  O   UNL A   1      34.361  33.510  31.685  1.00  0.00    -0.460 OA
BRANCH  36  37
ATOM     37  C   UNL A   1      35.261  32.808  32.388  1.00  0.00     0.338 C 
ATOM     38  O   UNL A   1      35.364  32.726  33.603  1.00  0.00    -0.246 OA
BRANCH  37  39
ATOM     39  C   UNL A   1      36.225  32.232  31.451  1.00  0.00     0.060 A 
ATOM     40  C   UNL A   1      36.125  30.858  31.235  1.00  0.00     0.016 A 
ATOM     41  C   UNL A   1      37.368  32.970  31.105  1.00  0.00     0.016 A 
ATOM     42  C   UNL A   1      37.274  30.174  30.923  1.00  0.00     0.010 A 
ATOM     43  C   UNL A   1      38.521  32.284  30.822  1.00  0.00     0.010 A 
ATOM     44  C   UNL A   1      38.470  30.893  30.833  1.00  0.00    -0.014 A 
BRANCH  44  45
ATOM     45  C   UNL A   1      39.693  30.129  30.789  1.00  0.00     0.031 A 
ATOM     46  C   UNL A   1      40.374  29.986  32.086  1.00  0.00     0.074 A 
ATOM     47  C   UNL A   1      40.116  29.539  29.657  1.00  0.00     0.049 A 
ATOM     48  N   UNL A   1      41.560  30.384  32.402  1.00  0.00    -0.248 NA
ATOM     49  C   UNL A   1      39.600  29.412  33.195  1.00  0.00     0.031 C 
ATOM     50  C   UNL A   1      39.374  29.365  28.405  1.00  0.00     0.029 A 
ATOM     51  N   UNL A   1      41.277  28.866  29.432  1.00  0.00    -0.354 N 
ATOM     52  C   UNL A   1      41.755  29.950  33.706  1.00  0.00     0.074 A 
ATOM     53  C   UNL A   1      40.479  29.492  34.192  1.00  0.00     0.031 C 
ATOM     54  C   UNL A   1      40.017  28.459  27.636  1.00  0.00     0.029 A 
ATOM     55  C   UNL A   1      41.259  28.082  28.292  1.00  0.00     0.049 A 
ATOM     56  H   UNL A   1      42.058  28.930  30.028  1.00  0.00     0.167 HD
ATOM     57  C   UNL A   1      43.005  29.759  34.195  1.00  0.00     0.037 A 
ATOM     58  C   UNL A   1      42.162  27.127  27.965  1.00  0.00     0.037 A 
ATOM     59  C   UNL A   1      43.990  30.509  33.460  1.00  0.00     0.049 A 
ATOM     60  C   UNL A   1      43.394  27.375  28.758  1.00  0.00     0.074 A 
ATOM     61  C   UNL A   1      44.175  31.848  33.179  1.00  0.00     0.029 A 
ATOM     62  N   UNL A   1      44.817  29.830  32.601  1.00  0.00    -0.354 N 
ATOM     63  N   UNL A   1      44.212  28.370  28.563  1.00  0.00    -0.248 NA
ATOM     64  C   UNL A   1      43.536  26.696  30.039  1.00  0.00     0.031 C 
ATOM     65  C   UNL A   1      44.763  31.887  31.881  1.00  0.00     0.029 A 
ATOM     66  C   UNL A   1      44.918  30.569  31.451  1.00  0.00     0.049 A 
ATOM     67  H   UNL A   1      45.258  28.969  32.778  1.00  0.00     0.167 HD
ATOM     68  C   UNL A   1      44.667  28.705  29.829  1.00  0.00     0.074 A 
ATOM     69  C   UNL A   1      44.329  27.564  30.670  1.00  0.00     0.031 C 
ATOM     70  C   UNL A   1      45.013  29.991  30.132  1.00  0.00     0.037 A 
BRANCH  57  71
ATOM     71  C   UNL A   1      43.357  28.595  35.083  1.00  0.00     0.064 A 
ATOM     72  C   UNL A   1      44.018  28.838  36.299  1.00  0.00     0.173 A 
ATOM     73  C   UNL A   1      43.342  27.250  34.649  1.00  0.00     0.173 A 
ATOM     74  F   UNL A   1      44.116  30.085  36.783  1.00  0.00    -0.203 F 
ATOM     75  C   UNL A   1      44.680  27.821  36.990  1.00  0.00     0.198 A 
ATOM     76  C   UNL A   1      43.951  26.228  35.373  1.00  0.00     0.198 A 
ATOM     77  F   UNL A   1      42.846  26.886  33.460  1.00  0.00    -0.203 F 
ATOM     78  F   UNL A   1      45.409  28.121  38.072  1.00  0.00    -0.200 F 
ATOM     79  C   UNL A   1      44.648  26.519  36.525  1.00  0.00     0.200 A 
ATOM     80  F   UNL A   1      43.926  24.976  34.893  1.00  0.00    -0.200 F 
ATOM     81  F   UNL A   1      45.333  25.554  37.152  1.00  0.00    -0.200 F 
ENDBRANCH  57  71
BRANCH  58  82
ATOM     82  C   UNL A   1      41.940  25.872  27.211  1.00  0.00     0.064 A 
ATOM     83  C   UNL A   1      42.794  25.504  26.160  1.00  0.00     0.173 A 
ATOM     84  C   UNL A   1      41.044  24.883  27.664  1.00  0.00     0.173 A 
ATOM     85  F   UNL A   1      43.711  26.368  25.700  1.00  0.00    -0.203 F 
ATOM     86  C   UNL A   1      42.768  24.219  25.610  1.00  0.00     0.198 A 
ATOM     87  C   UNL A   1      41.006  23.608  27.102  1.00  0.00     0.198 A 
ATOM     88  F   UNL A   1      40.251  25.098  28.723  1.00  0.00    -0.203 F 
ATOM     89  F   UNL A   1      43.645  23.885  24.653  1.00  0.00    -0.200 F 
ATOM     90  C   UNL A   1      41.878  23.270  26.085  1.00  0.00     0.200 A 
ATOM     91  F   UNL A   1      40.162  22.690  27.595  1.00  0.00    -0.200 F 
ATOM     92  F   UNL A   1      41.889  22.023  25.595  1.00  0.00    -0.200 F 
ENDBRANCH  58  82
BRANCH  70  93
ATOM     93  C   UNL A   1      45.247  30.932  28.987  1.00  0.00     0.064 A 
ATOM     94  C   UNL A   1      44.236  31.696  28.380  1.00  0.00     0.173 A 
ATOM     95  C   UNL A   1      46.566  31.153  28.567  1.00  0.00     0.173 A 
ATOM     96  F   UNL A   1      42.967  31.618  28.802  1.00  0.00    -0.203 F 
ATOM     97  C   UNL A   1      44.530  32.594  27.356  1.00  0.00     0.198 A 
ATOM     98  C   UNL A   1      46.861  32.079  27.571  1.00  0.00     0.198 A 
ATOM     99  F   UNL A   1      47.579  30.495  29.155  1.00  0.00    -0.203 F 
ATOM    100  F   UNL A   1      43.546  33.294  26.772  1.00  0.00    -0.200 F 
ATOM    101  C   UNL A   1      45.842  32.788  26.956  1.00  0.00     0.200 A 
ATOM    102  F   UNL A   1      48.136  32.300  27.223  1.00  0.00    -0.200 F 
ATOM    103  F   UNL A   1      46.128  33.676  25.994  1.00  0.00    -0.200 F 
ENDBRANCH  70  93
ENDBRANCH  44  45
ENDBRANCH  37  39
ENDBRANCH  36  37
ENDBRANCH  35  36
ENDBRANCH  34  35
ENDBRANCH  33  34
ENDBRANCH  32  33
ENDBRANCH  31  32
ENDBRANCH  30  31
ENDBRANCH   1  30
TORSDOF 23
ENDMDL
