MODEL 1
REMARK VINA RESULT:      -8.8      0.000      0.000
REMARK SMILES C[C@@H](C(=O)OCCOCCOCCOCCOC(=O)c1ccc(-c2c3nc(c(-c4c(F)c(F)c(F)c(F)c4F)c4ccc([nH]4)c(-c4c(F)c(F)c(F)c(F)c4F)c4nc(c(-c5c(F)c(F)c(F)c(F)c5F)c5ccc2[nH]5)C=C4)C=C3)cc1)c1ccc(C[C@H]2CCCC2=O)cc1Br
REMARK SMILES IDX 10 1 9 2 8 3 7 4 6 5 5 6 3 7 4 8 2 9 1 10 83 11 84 12 95 13
REMARK SMILES IDX 85 14 94 15 96 16 86 17 87 18 88 19 89 20 92 21 90 22 91 23
REMARK SMILES IDX 93 24 11 25 12 26 13 27 14 28 15 29 16 30 17 31 18 32 19 33
REMARK SMILES IDX 20 34 21 35 82 36 22 37 81 38 23 39 24 40 25 41 75 42 26 43
REMARK SMILES IDX 80 44 74 45 76 46 27 47 79 48 73 49 72 50 28 52 60 53 40 54
REMARK SMILES IDX 59 55 41 56 44 57 58 58 77 59 42 60 43 61 57 63 78 64 45 65
REMARK SMILES IDX 29 66 30 67 38 68 31 69 32 70 36 71 39 72 33 73 34 74 37 75
REMARK SMILES IDX 35 76 61 77 62 78 70 79 63 80 64 81 68 82 71 83 65 84 66 85
REMARK SMILES IDX 69 86 67 87 46 88 47 89 55 90 48 91 49 92 53 93 56 94 50 95
REMARK SMILES IDX 51 96 54 97 52 98
REMARK H PARENT 76 51 44 62
REMARK Flexibility Score: inf
ROOT
ATOM      1  C   UNL A   1      42.020  23.822  26.072  1.00  0.00     0.188 C 
ENDROOT
BRANCH   1   2
ATOM      2  C   UNL A   1      41.804  24.409  27.477  1.00  0.00     0.188 C 
BRANCH   2   3
ATOM      3  O   UNL A   1      40.524  24.282  28.064  1.00  0.00    -0.376 OA
BRANCH   3   4
ATOM      4  C   UNL A   1      39.478  23.580  27.408  1.00  0.00     0.202 C 
BRANCH   4   5
ATOM      5  C   UNL A   1      38.497  24.185  26.379  1.00  0.00     0.261 C 
BRANCH   5   6
ATOM      6  O   UNL A   1      37.149  23.713  26.435  1.00  0.00    -0.463 OA
BRANCH   6   7
ATOM      7  C   UNL A   1      36.528  23.423  25.266  1.00  0.00     0.313 C 
ATOM      8  O   UNL A   1      37.079  23.453  24.170  1.00  0.00    -0.252 OA
BRANCH   7   9
ATOM      9  C   UNL A   1      35.069  22.968  25.468  1.00  0.00     0.127 C 
ATOM     10  C   UNL A   1      34.783  21.776  24.545  1.00  0.00     0.025 C 
BRANCH   9  11
ATOM     11  C   UNL A   1      34.066  24.136  25.612  1.00  0.00    -0.020 A 
ATOM     12  C   UNL A   1      34.619  25.441  25.588  1.00  0.00     0.006 A 
ATOM     13  C   UNL A   1      32.684  24.068  25.884  1.00  0.00     0.022 A 
ATOM     14  C   UNL A   1      33.873  26.593  25.846  1.00  0.00     0.004 A 
ATOM     15  C   UNL A   1      31.943  25.234  26.191  1.00  0.00     0.019 A 
ATOM     16  Br  UNL A   1      31.634  22.484  25.916  1.00  0.00    -0.050 Br
ATOM     17  C   UNL A   1      32.542  26.495  26.228  1.00  0.00    -0.046 A 
BRANCH  17  18
ATOM     18  C   UNL A   1      31.801  27.706  26.746  1.00  0.00     0.047 C 
BRANCH  18  19
ATOM     19  C   UNL A   1      31.385  28.734  25.678  1.00  0.00     0.060 C 
ATOM     20  C   UNL A   1      32.459  29.735  25.238  1.00  0.00     0.012 C 
ATOM     21  C   UNL A   1      31.006  28.091  24.363  1.00  0.00     0.136 C 
ATOM     22  C   UNL A   1      33.074  29.181  23.958  1.00  0.00     0.009 C 
ATOM     23  C   UNL A   1      31.954  28.439  23.244  1.00  0.00     0.076 C 
ATOM     24  O   UNL A   1      30.033  27.359  24.221  1.00  0.00    -0.299 OA
ENDBRANCH  18  19
ENDBRANCH  17  18
ENDBRANCH   9  11
ENDBRANCH   7   9
ENDBRANCH   6   7
ENDBRANCH   5   6
ENDBRANCH   4   5
ENDBRANCH   3   4
ENDBRANCH   2   3
ENDBRANCH   1   2
BRANCH   1  25
ATOM     25  O   UNL A   1      43.018  22.823  25.978  1.00  0.00    -0.377 OA
BRANCH  25  26
ATOM     26  C   UNL A   1      43.454  22.408  24.691  1.00  0.00     0.188 C 
BRANCH  26  27
ATOM     27  C   UNL A   1      44.952  22.199  24.384  1.00  0.00     0.188 C 
BRANCH  27  28
ATOM     28  O   UNL A   1      45.622  23.332  23.856  1.00  0.00    -0.376 OA
BRANCH  28  29
ATOM     29  C   UNL A   1      46.982  23.545  24.201  1.00  0.00     0.202 C 
BRANCH  29  30
ATOM     30  C   UNL A   1      47.399  24.966  24.616  1.00  0.00     0.261 C 
BRANCH  30  31
ATOM     31  O   UNL A   1      46.570  25.614  25.594  1.00  0.00    -0.460 OA
BRANCH  31  32
ATOM     32  C   UNL A   1      46.152  26.869  25.340  1.00  0.00     0.338 C 
ATOM     33  O   UNL A   1      46.064  27.415  24.251  1.00  0.00    -0.246 OA
BRANCH  32  34
ATOM     34  C   UNL A   1      45.624  27.434  26.597  1.00  0.00     0.060 A 
ATOM     35  C   UNL A   1      44.931  26.594  27.481  1.00  0.00     0.016 A 
ATOM     36  C   UNL A   1      45.809  28.784  26.905  1.00  0.00     0.016 A 
ATOM     37  C   UNL A   1      44.384  27.112  28.654  1.00  0.00     0.010 A 
ATOM     38  C   UNL A   1      45.242  29.307  28.071  1.00  0.00     0.010 A 
ATOM     39  C   UNL A   1      44.495  28.481  28.931  1.00  0.00    -0.014 A 
BRANCH  39  40
ATOM     40  C   UNL A   1      43.659  29.085  29.998  1.00  0.00     0.031 A 
ATOM     41  C   UNL A   1      44.245  29.206  31.379  1.00  0.00     0.074 A 
ATOM     42  C   UNL A   1      42.418  29.540  29.750  1.00  0.00     0.049 A 
ATOM     43  N   UNL A   1      43.695  29.636  32.484  1.00  0.00    -0.248 NA
ATOM     44  C   UNL A   1      45.645  28.777  31.530  1.00  0.00     0.031 C 
ATOM     45  C   UNL A   1      41.757  29.524  28.448  1.00  0.00     0.029 A 
ATOM     46  N   UNL A   1      41.489  30.094  30.595  1.00  0.00    -0.354 N 
ATOM     47  C   UNL A   1      44.677  29.524  33.461  1.00  0.00     0.074 A 
ATOM     48  C   UNL A   1      45.845  28.952  32.826  1.00  0.00     0.031 C 
ATOM     49  C   UNL A   1      40.519  30.030  28.583  1.00  0.00     0.029 A 
ATOM     50  C   UNL A   1      40.289  30.370  29.987  1.00  0.00     0.049 A 
ATOM     51  H   UNL A   1      41.667  30.277  31.546  1.00  0.00     0.167 HD
ATOM     52  C   UNL A   1      44.616  29.879  34.766  1.00  0.00     0.037 A 
ATOM     53  C   UNL A   1      39.131  30.816  30.514  1.00  0.00     0.037 A 
ATOM     54  C   UNL A   1      43.450  30.442  35.396  1.00  0.00     0.049 A 
ATOM     55  C   UNL A   1      39.059  31.122  31.991  1.00  0.00     0.074 A 
ATOM     56  C   UNL A   1      43.288  30.838  36.711  1.00  0.00     0.029 A 
ATOM     57  N   UNL A   1      42.244  30.676  34.755  1.00  0.00    -0.354 N 
ATOM     58  N   UNL A   1      39.995  31.032  32.905  1.00  0.00    -0.248 NA
ATOM     59  C   UNL A   1      37.766  31.594  32.508  1.00  0.00     0.031 C 
ATOM     60  C   UNL A   1      41.965  31.255  36.881  1.00  0.00     0.029 A 
ATOM     61  C   UNL A   1      41.321  31.187  35.655  1.00  0.00     0.049 A 
ATOM     62  H   UNL A   1      42.067  30.506  33.801  1.00  0.00     0.167 HD
ATOM     63  C   UNL A   1      39.418  31.468  34.091  1.00  0.00     0.074 A 
ATOM     64  C   UNL A   1      38.052  31.834  33.779  1.00  0.00     0.031 C 
ATOM     65  C   UNL A   1      39.967  31.557  35.328  1.00  0.00     0.037 A 
BRANCH  52  66
ATOM     66  C   UNL A   1      45.836  29.635  35.609  1.00  0.00     0.064 A 
ATOM     67  C   UNL A   1      46.839  30.605  35.756  1.00  0.00     0.173 A 
ATOM     68  C   UNL A   1      45.989  28.424  36.301  1.00  0.00     0.173 A 
ATOM     69  F   UNL A   1      46.749  31.774  35.103  1.00  0.00    -0.203 F 
ATOM     70  C   UNL A   1      47.963  30.360  36.539  1.00  0.00     0.198 A 
ATOM     71  C   UNL A   1      47.098  28.196  37.112  1.00  0.00     0.198 A 
ATOM     72  F   UNL A   1      45.059  27.463  36.199  1.00  0.00    -0.203 F 
ATOM     73  F   UNL A   1      48.936  31.279  36.621  1.00  0.00    -0.200 F 
ATOM     74  C   UNL A   1      48.089  29.159  37.223  1.00  0.00     0.200 A 
ATOM     75  F   UNL A   1      47.209  27.042  37.783  1.00  0.00    -0.200 F 
ATOM     76  F   UNL A   1      49.167  28.928  37.983  1.00  0.00    -0.200 F 
ENDBRANCH  52  66
BRANCH  53  77
ATOM     77  C   UNL A   1      37.933  30.982  29.647  1.00  0.00     0.064 A 
ATOM     78  C   UNL A   1      37.593  32.230  29.104  1.00  0.00     0.173 A 
ATOM     79  C   UNL A   1      37.083  29.900  29.369  1.00  0.00     0.173 A 
ATOM     80  F   UNL A   1      38.356  33.301  29.363  1.00  0.00    -0.203 F 
ATOM     81  C   UNL A   1      36.441  32.393  28.338  1.00  0.00     0.198 A 
ATOM     82  C   UNL A   1      35.950  30.058  28.574  1.00  0.00     0.198 A 
ATOM     83  F   UNL A   1      37.357  28.686  29.867  1.00  0.00    -0.203 F 
ATOM     84  F   UNL A   1      36.112  33.608  27.879  1.00  0.00    -0.200 F 
ATOM     85  C   UNL A   1      35.623  31.306  28.068  1.00  0.00     0.200 A 
ATOM     86  F   UNL A   1      35.170  29.001  28.306  1.00  0.00    -0.200 F 
ATOM     87  F   UNL A   1      34.516  31.464  27.329  1.00  0.00    -0.200 F 
ENDBRANCH  53  77
BRANCH  65  88
ATOM     88  C   UNL A   1      39.112  32.118  36.431  1.00  0.00     0.064 A 
ATOM     89  C   UNL A   1      38.178  31.330  37.120  1.00  0.00     0.173 A 
ATOM     90  C   UNL A   1      39.265  33.454  36.835  1.00  0.00     0.173 A 
ATOM     91  F   UNL A   1      37.984  30.050  36.768  1.00  0.00    -0.203 F 
ATOM     92  C   UNL A   1      37.409  31.867  38.150  1.00  0.00     0.198 A 
ATOM     93  C   UNL A   1      38.521  33.977  37.888  1.00  0.00     0.198 A 
ATOM     94  F   UNL A   1      40.151  34.250  36.218  1.00  0.00    -0.203 F 
ATOM     95  F   UNL A   1      36.484  31.109  38.757  1.00  0.00    -0.200 F 
ATOM     96  C   UNL A   1      37.587  33.186  38.539  1.00  0.00     0.200 A 
ATOM     97  F   UNL A   1      38.709  35.246  38.275  1.00  0.00    -0.200 F 
ATOM     98  F   UNL A   1      36.852  33.697  39.536  1.00  0.00    -0.200 F 
ENDBRANCH  65  88
ENDBRANCH  39  40
ENDBRANCH  32  34
ENDBRANCH  31  32
ENDBRANCH  30  31
ENDBRANCH  29  30
ENDBRANCH  28  29
ENDBRANCH  27  28
ENDBRANCH  26  27
ENDBRANCH  25  26
ENDBRANCH   1  25
TORSDOF 23
ENDMDL
MODEL 2
REMARK VINA RESULT:      -8.7      5.512     11.637
REMARK SMILES C[C@@H](C(=O)OCCOCCOCCOCCOC(=O)c1ccc(-c2c3nc(c(-c4c(F)c(F)c(F)c(F)c4F)c4ccc([nH]4)c(-c4c(F)c(F)c(F)c(F)c4F)c4nc(c(-c5c(F)c(F)c(F)c(F)c5F)c5ccc2[nH]5)C=C4)C=C3)cc1)c1ccc(C[C@H]2CCCC2=O)cc1Br
REMARK SMILES IDX 10 1 9 2 8 3 7 4 6 5 5 6 3 7 4 8 2 9 1 10 83 11 84 12 95 13
REMARK SMILES IDX 85 14 94 15 96 16 86 17 87 18 88 19 89 20 92 21 90 22 91 23
REMARK SMILES IDX 93 24 11 25 12 26 13 27 14 28 15 29 16 30 17 31 18 32 19 33
REMARK SMILES IDX 20 34 21 35 82 36 22 37 81 38 23 39 24 40 25 41 75 42 26 43
REMARK SMILES IDX 80 44 74 45 76 46 27 47 79 48 73 49 72 50 28 52 60 53 40 54
REMARK SMILES IDX 59 55 41 56 44 57 58 58 77 59 42 60 43 61 57 63 78 64 45 65
REMARK SMILES IDX 29 66 30 67 38 68 31 69 32 70 36 71 39 72 33 73 34 74 37 75
REMARK SMILES IDX 35 76 61 77 62 78 70 79 63 80 64 81 68 82 71 83 65 84 66 85
REMARK SMILES IDX 69 86 67 87 46 88 47 89 55 90 48 91 49 92 53 93 56 94 50 95
REMARK SMILES IDX 51 96 54 97 52 98
REMARK H PARENT 76 51 44 62
REMARK Flexibility Score: inf
ROOT
ATOM      1  C   UNL A   1      37.269  33.274  35.143  1.00  0.00     0.188 C 
ENDROOT
BRANCH   1   2
ATOM      2  C   UNL A   1      36.068  33.397  34.188  1.00  0.00     0.188 C 
BRANCH   2   3
ATOM      3  O   UNL A   1      36.244  33.006  32.841  1.00  0.00    -0.376 OA
BRANCH   3   4
ATOM      4  C   UNL A   1      37.065  31.901  32.494  1.00  0.00     0.202 C 
BRANCH   4   5
ATOM      5  C   UNL A   1      38.431  31.986  31.777  1.00  0.00     0.261 C 
BRANCH   5   6
ATOM      6  O   UNL A   1      38.393  32.112  30.354  1.00  0.00    -0.463 OA
BRANCH   6   7
ATOM      7  C   UNL A   1      38.705  31.023  29.611  1.00  0.00     0.313 C 
ATOM      8  O   UNL A   1      38.099  30.683  28.600  1.00  0.00    -0.252 OA
BRANCH   7   9
ATOM      9  C   UNL A   1      39.963  30.296  30.127  1.00  0.00     0.127 C 
ATOM     10  C   UNL A   1      41.178  31.220  29.965  1.00  0.00     0.025 C 
BRANCH   9  11
ATOM     11  C   UNL A   1      40.027  28.803  29.731  1.00  0.00    -0.020 A 
ATOM     12  C   UNL A   1      40.791  28.493  28.578  1.00  0.00     0.006 A 
ATOM     13  C   UNL A   1      39.324  27.721  30.301  1.00  0.00     0.022 A 
ATOM     14  C   UNL A   1      40.834  27.220  28.007  1.00  0.00     0.004 A 
ATOM     15  C   UNL A   1      39.334  26.444  29.691  1.00  0.00     0.019 A 
ATOM     16  Br  UNL A   1      38.273  27.788  31.883  1.00  0.00    -0.050 Br
ATOM     17  C   UNL A   1      40.042  26.198  28.513  1.00  0.00    -0.046 A 
BRANCH  17  18
ATOM     18  C   UNL A   1      39.894  24.897  27.759  1.00  0.00     0.047 C 
BRANCH  18  19
ATOM     19  C   UNL A   1      41.103  23.947  27.833  1.00  0.00     0.060 C 
ATOM     20  C   UNL A   1      40.798  22.476  28.137  1.00  0.00     0.012 C 
ATOM     21  C   UNL A   1      41.846  23.842  26.519  1.00  0.00     0.136 C 
ATOM     22  C   UNL A   1      40.759  21.752  26.796  1.00  0.00     0.009 C 
ATOM     23  C   UNL A   1      41.763  22.469  25.905  1.00  0.00     0.076 C 
ATOM     24  O   UNL A   1      42.449  24.778  26.005  1.00  0.00    -0.299 OA
ENDBRANCH  18  19
ENDBRANCH  17  18
ENDBRANCH   9  11
ENDBRANCH   7   9
ENDBRANCH   6   7
ENDBRANCH   5   6
ENDBRANCH   4   5
ENDBRANCH   3   4
ENDBRANCH   2   3
ENDBRANCH   1   2
BRANCH   1  25
ATOM     25  O   UNL A   1      37.041  32.509  36.311  1.00  0.00    -0.377 OA
BRANCH  25  26
ATOM     26  C   UNL A   1      38.139  31.846  36.921  1.00  0.00     0.188 C 
BRANCH  26  27
ATOM     27  C   UNL A   1      39.295  32.640  37.563  1.00  0.00     0.188 C 
BRANCH  27  28
ATOM     28  O   UNL A   1      38.946  33.381  38.721  1.00  0.00    -0.376 OA
BRANCH  28  29
ATOM     29  C   UNL A   1      39.962  33.703  39.658  1.00  0.00     0.202 C 
BRANCH  29  30
ATOM     30  C   UNL A   1      40.147  35.185  40.028  1.00  0.00     0.261 C 
BRANCH  30  31
ATOM     31  O   UNL A   1      39.954  36.135  38.968  1.00  0.00    -0.460 OA
BRANCH  31  32
ATOM     32  C   UNL A   1      41.022  36.840  38.546  1.00  0.00     0.338 C 
ATOM     33  O   UNL A   1      41.590  37.746  39.134  1.00  0.00    -0.246 OA
BRANCH  32  34
ATOM     34  C   UNL A   1      41.528  36.201  37.315  1.00  0.00     0.060 A 
ATOM     35  C   UNL A   1      40.613  35.809  36.327  1.00  0.00     0.016 A 
ATOM     36  C   UNL A   1      42.897  35.988  37.135  1.00  0.00     0.016 A 
ATOM     37  C   UNL A   1      41.062  35.165  35.175  1.00  0.00     0.010 A 
ATOM     38  C   UNL A   1      43.343  35.323  35.989  1.00  0.00     0.010 A 
ATOM     39  C   UNL A   1      42.425  34.875  35.022  1.00  0.00    -0.014 A 
BRANCH  39  40
ATOM     40  C   UNL A   1      42.860  33.926  33.969  1.00  0.00     0.031 A 
ATOM     41  C   UNL A   1      43.179  34.475  32.604  1.00  0.00     0.074 A 
ATOM     42  C   UNL A   1      42.995  32.611  34.215  1.00  0.00     0.049 A 
ATOM     43  N   UNL A   1      43.517  33.845  31.509  1.00  0.00    -0.248 NA
ATOM     44  C   UNL A   1      43.102  35.938  32.459  1.00  0.00     0.031 C 
ATOM     45  C   UNL A   1      42.764  31.964  35.503  1.00  0.00     0.029 A 
ATOM     46  N   UNL A   1      43.351  31.581  33.378  1.00  0.00    -0.354 N 
ATOM     47  C   UNL A   1      43.686  34.832  30.545  1.00  0.00     0.074 A 
ATOM     48  C   UNL A   1      43.379  36.098  31.174  1.00  0.00     0.031 C 
ATOM     49  C   UNL A   1      42.967  30.642  35.369  1.00  0.00     0.029 A 
ATOM     50  C   UNL A   1      43.306  30.346  33.977  1.00  0.00     0.049 A 
ATOM     51  H   UNL A   1      43.614  31.717  32.439  1.00  0.00     0.167 HD
ATOM     52  C   UNL A   1      44.074  34.697  29.255  1.00  0.00     0.037 A 
ATOM     53  C   UNL A   1      43.488  29.119  33.450  1.00  0.00     0.037 A 
ATOM     54  C   UNL A   1      44.372  33.435  28.630  1.00  0.00     0.049 A 
ATOM     55  C   UNL A   1      43.834  28.985  31.986  1.00  0.00     0.074 A 
ATOM     56  C   UNL A   1      44.778  33.191  27.331  1.00  0.00     0.029 A 
ATOM     57  N   UNL A   1      44.284  32.203  29.260  1.00  0.00    -0.354 N 
ATOM     58  N   UNL A   1      44.011  29.922  31.085  1.00  0.00    -0.248 NA
ATOM     59  C   UNL A   1      44.008  27.621  31.468  1.00  0.00     0.031 C 
ATOM     60  C   UNL A   1      44.876  31.807  27.156  1.00  0.00     0.029 A 
ATOM     61  C   UNL A   1      44.601  31.191  28.367  1.00  0.00     0.049 A 
ATOM     62  H   UNL A   1      44.033  32.066  30.203  1.00  0.00     0.167 HD
ATOM     63  C   UNL A   1      44.350  29.265  29.909  1.00  0.00     0.074 A 
ATOM     64  C   UNL A   1      44.367  27.850  30.213  1.00  0.00     0.031 C 
ATOM     65  C   UNL A   1      44.624  29.786  28.686  1.00  0.00     0.037 A 
BRANCH  52  66
ATOM     66  C   UNL A   1      44.166  35.944  28.424  1.00  0.00     0.064 A 
ATOM     67  C   UNL A   1      43.051  36.470  27.752  1.00  0.00     0.173 A 
ATOM     68  C   UNL A   1      45.380  36.641  28.322  1.00  0.00     0.173 A 
ATOM     69  F   UNL A   1      41.870  35.835  27.805  1.00  0.00    -0.203 F 
ATOM     70  C   UNL A   1      43.156  37.627  26.985  1.00  0.00     0.198 A 
ATOM     71  C   UNL A   1      45.473  37.817  27.582  1.00  0.00     0.198 A 
ATOM     72  F   UNL A   1      46.476  36.186  28.946  1.00  0.00    -0.203 F 
ATOM     73  F   UNL A   1      42.092  38.079  26.307  1.00  0.00    -0.200 F 
ATOM     74  C   UNL A   1      44.364  38.304  26.907  1.00  0.00     0.200 A 
ATOM     75  F   UNL A   1      46.637  38.477  27.521  1.00  0.00    -0.200 F 
ATOM     76  F   UNL A   1      44.462  39.422  26.175  1.00  0.00    -0.200 F 
ENDBRANCH  52  66
BRANCH  53  77
ATOM     77  C   UNL A   1      43.325  27.910  34.303  1.00  0.00     0.064 A 
ATOM     78  C   UNL A   1      44.410  27.356  34.995  1.00  0.00     0.173 A 
ATOM     79  C   UNL A   1      42.084  27.265  34.417  1.00  0.00     0.173 A 
ATOM     80  F   UNL A   1      45.624  27.917  34.896  1.00  0.00    -0.203 F 
ATOM     81  C   UNL A   1      44.266  26.192  35.749  1.00  0.00     0.198 A 
ATOM     82  C   UNL A   1      41.933  26.122  35.198  1.00  0.00     0.198 A 
ATOM     83  F   UNL A   1      41.013  27.750  33.771  1.00  0.00    -0.203 F 
ATOM     84  F   UNL A   1      45.333  25.653  36.354  1.00  0.00    -0.200 F 
ATOM     85  C   UNL A   1      43.027  25.579  35.855  1.00  0.00     0.200 A 
ATOM     86  F   UNL A   1      40.730  25.541  35.308  1.00  0.00    -0.200 F 
ATOM     87  F   UNL A   1      42.889  24.462  36.582  1.00  0.00    -0.200 F 
ENDBRANCH  53  77
BRANCH  65  88
ATOM     88  C   UNL A   1      45.015  28.829  27.594  1.00  0.00     0.064 A 
ATOM     89  C   UNL A   1      44.145  28.509  26.541  1.00  0.00     0.173 A 
ATOM     90  C   UNL A   1      46.299  28.261  27.578  1.00  0.00     0.173 A 
ATOM     91  F   UNL A   1      42.903  29.014  26.513  1.00  0.00    -0.203 F 
ATOM     92  C   UNL A   1      44.535  27.632  25.530  1.00  0.00     0.198 A 
ATOM     93  C   UNL A   1      46.698  27.414  26.547  1.00  0.00     0.198 A 
ATOM     94  F   UNL A   1      47.176  28.540  28.553  1.00  0.00    -0.203 F 
ATOM     95  F   UNL A   1      43.668  27.298  24.565  1.00  0.00    -0.200 F 
ATOM     96  C   UNL A   1      45.813  27.093  25.530  1.00  0.00     0.200 A 
ATOM     97  F   UNL A   1      47.940  26.910  26.539  1.00  0.00    -0.200 F 
ATOM     98  F   UNL A   1      46.189  26.258  24.552  1.00  0.00    -0.200 F 
ENDBRANCH  65  88
ENDBRANCH  39  40
ENDBRANCH  32  34
ENDBRANCH  31  32
ENDBRANCH  30  31
ENDBRANCH  29  30
ENDBRANCH  28  29
ENDBRANCH  27  28
ENDBRANCH  26  27
ENDBRANCH  25  26
ENDBRANCH   1  25
TORSDOF 23
ENDMDL
MODEL 3
REMARK VINA RESULT:      -8.6      5.507     12.445
REMARK SMILES C[C@@H](C(=O)OCCOCCOCCOCCOC(=O)c1ccc(-c2c3nc(c(-c4c(F)c(F)c(F)c(F)c4F)c4ccc([nH]4)c(-c4c(F)c(F)c(F)c(F)c4F)c4nc(c(-c5c(F)c(F)c(F)c(F)c5F)c5ccc2[nH]5)C=C4)C=C3)cc1)c1ccc(C[C@H]2CCCC2=O)cc1Br
REMARK SMILES IDX 10 1 9 2 8 3 7 4 6 5 5 6 3 7 4 8 2 9 1 10 83 11 84 12 95 13
REMARK SMILES IDX 85 14 94 15 96 16 86 17 87 18 88 19 89 20 92 21 90 22 91 23
REMARK SMILES IDX 93 24 11 25 12 26 13 27 14 28 15 29 16 30 17 31 18 32 19 33
REMARK SMILES IDX 20 34 21 35 82 36 22 37 81 38 23 39 24 40 25 41 75 42 26 43
REMARK SMILES IDX 80 44 74 45 76 46 27 47 79 48 73 49 72 50 28 52 60 53 40 54
REMARK SMILES IDX 59 55 41 56 44 57 58 58 77 59 42 60 43 61 57 63 78 64 45 65
REMARK SMILES IDX 29 66 30 67 38 68 31 69 32 70 36 71 39 72 33 73 34 74 37 75
REMARK SMILES IDX 35 76 61 77 62 78 70 79 63 80 64 81 68 82 71 83 65 84 66 85
REMARK SMILES IDX 69 86 67 87 46 88 47 89 55 90 48 91 49 92 53 93 56 94 50 95
REMARK SMILES IDX 51 96 54 97 52 98
REMARK H PARENT 76 51 44 62
REMARK Flexibility Score: inf
ROOT
ATOM      1  C   UNL A   1      33.532  37.489  32.122  1.00  0.00     0.188 C 
ENDROOT
BRANCH   1   2
ATOM      2  C   UNL A   1      32.638  36.363  31.573  1.00  0.00     0.188 C 
BRANCH   2   3
ATOM      3  O   UNL A   1      32.161  36.476  30.247  1.00  0.00    -0.376 OA
BRANCH   3   4
ATOM      4  C   UNL A   1      33.047  36.433  29.138  1.00  0.00     0.202 C 
BRANCH   4   5
ATOM      5  C   UNL A   1      33.580  35.150  28.463  1.00  0.00     0.261 C 
BRANCH   5   6
ATOM      6  O   UNL A   1      34.338  34.266  29.293  1.00  0.00    -0.463 OA
BRANCH   6   7
ATOM      7  C   UNL A   1      35.027  33.265  28.692  1.00  0.00     0.313 C 
ATOM      8  O   UNL A   1      35.622  33.385  27.626  1.00  0.00    -0.252 OA
BRANCH   7   9
ATOM      9  C   UNL A   1      35.052  31.975  29.535  1.00  0.00     0.127 C 
ATOM     10  C   UNL A   1      34.847  32.337  31.012  1.00  0.00     0.025 C 
BRANCH   9  11
ATOM     11  C   UNL A   1      36.137  30.965  29.096  1.00  0.00    -0.020 A 
ATOM     12  C   UNL A   1      37.421  31.134  29.674  1.00  0.00     0.006 A 
ATOM     13  C   UNL A   1      36.047  29.968  28.102  1.00  0.00     0.022 A 
ATOM     14  C   UNL A   1      38.541  30.400  29.279  1.00  0.00     0.004 A 
ATOM     15  C   UNL A   1      37.195  29.260  27.673  1.00  0.00     0.019 A 
ATOM     16  Br  UNL A   1      34.463  29.449  27.189  1.00  0.00    -0.050 Br
ATOM     17  C   UNL A   1      38.456  29.508  28.219  1.00  0.00    -0.046 A 
BRANCH  17  18
ATOM     18  C   UNL A   1      39.706  28.898  27.628  1.00  0.00     0.047 C 
BRANCH  18  19
ATOM     19  C   UNL A   1      40.024  27.463  28.087  1.00  0.00     0.060 C 
ATOM     20  C   UNL A   1      40.579  26.512  27.021  1.00  0.00     0.012 C 
ATOM     21  C   UNL A   1      41.109  27.413  29.140  1.00  0.00     0.136 C 
ATOM     22  C   UNL A   1      42.095  26.520  27.175  1.00  0.00     0.009 C 
ATOM     23  C   UNL A   1      42.362  26.729  28.659  1.00  0.00     0.076 C 
ATOM     24  O   UNL A   1      40.984  27.883  30.265  1.00  0.00    -0.299 OA
ENDBRANCH  18  19
ENDBRANCH  17  18
ENDBRANCH   9  11
ENDBRANCH   7   9
ENDBRANCH   6   7
ENDBRANCH   5   6
ENDBRANCH   4   5
ENDBRANCH   3   4
ENDBRANCH   2   3
ENDBRANCH   1   2
BRANCH   1  25
ATOM     25  O   UNL A   1      34.511  37.083  33.061  1.00  0.00    -0.377 OA
BRANCH  25  26
ATOM     26  C   UNL A   1      34.422  35.782  33.624  1.00  0.00     0.188 C 
BRANCH  26  27
ATOM     27  C   UNL A   1      35.537  34.739  33.402  1.00  0.00     0.188 C 
BRANCH  27  28
ATOM     28  O   UNL A   1      35.739  33.835  34.477  1.00  0.00    -0.376 OA
BRANCH  28  29
ATOM     29  C   UNL A   1      36.977  33.148  34.569  1.00  0.00     0.202 C 
BRANCH  29  30
ATOM     30  C   UNL A   1      38.053  33.472  33.519  1.00  0.00     0.261 C 
BRANCH  30  31
ATOM     31  O   UNL A   1      39.417  33.402  33.962  1.00  0.00    -0.460 OA
BRANCH  31  32
ATOM     32  C   UNL A   1      40.345  32.957  33.092  1.00  0.00     0.338 C 
ATOM     33  O   UNL A   1      40.563  33.373  31.965  1.00  0.00    -0.246 OA
BRANCH  32  34
ATOM     34  C   UNL A   1      41.206  31.990  33.803  1.00  0.00     0.060 A 
ATOM     35  C   UNL A   1      42.597  32.093  33.667  1.00  0.00     0.016 A 
ATOM     36  C   UNL A   1      40.644  30.988  34.598  1.00  0.00     0.016 A 
ATOM     37  C   UNL A   1      43.430  31.165  34.293  1.00  0.00     0.010 A 
ATOM     38  C   UNL A   1      41.479  30.047  35.207  1.00  0.00     0.010 A 
ATOM     39  C   UNL A   1      42.873  30.109  35.027  1.00  0.00    -0.014 A 
BRANCH  39  40
ATOM     40  C   UNL A   1      43.724  28.960  35.422  1.00  0.00     0.031 A 
ATOM     41  C   UNL A   1      43.982  27.881  34.406  1.00  0.00     0.074 A 
ATOM     42  C   UNL A   1      44.279  28.882  36.645  1.00  0.00     0.049 A 
ATOM     43  N   UNL A   1      44.636  26.756  34.530  1.00  0.00    -0.248 NA
ATOM     44  C   UNL A   1      43.418  28.105  33.065  1.00  0.00     0.031 C 
ATOM     45  C   UNL A   1      44.146  29.883  37.700  1.00  0.00     0.029 A 
ATOM     46  N   UNL A   1      45.060  27.901  37.205  1.00  0.00    -0.354 N 
ATOM     47  C   UNL A   1      44.557  26.136  33.289  1.00  0.00     0.074 A 
ATOM     48  C   UNL A   1      43.763  26.993  32.436  1.00  0.00     0.031 C 
ATOM     49  C   UNL A   1      44.809  29.457  38.789  1.00  0.00     0.029 A 
ATOM     50  C   UNL A   1      45.381  28.138  38.519  1.00  0.00     0.049 A 
ATOM     51  H   UNL A   1      45.362  27.105  36.711  1.00  0.00     0.167 HD
ATOM     52  C   UNL A   1      45.109  24.965  32.892  1.00  0.00     0.037 A 
ATOM     53  C   UNL A   1      46.035  27.363  39.407  1.00  0.00     0.037 A 
ATOM     54  C   UNL A   1      45.894  24.112  33.746  1.00  0.00     0.049 A 
ATOM     55  C   UNL A   1      46.566  26.019  38.967  1.00  0.00     0.074 A 
ATOM     56  C   UNL A   1      46.501  22.908  33.438  1.00  0.00     0.029 A 
ATOM     57  N   UNL A   1      46.170  24.371  35.080  1.00  0.00    -0.354 N 
ATOM     58  N   UNL A   1      46.506  25.448  37.787  1.00  0.00    -0.248 NA
ATOM     59  C   UNL A   1      47.259  25.215  39.983  1.00  0.00     0.031 C 
ATOM     60  C   UNL A   1      47.091  22.407  34.602  1.00  0.00     0.029 A 
ATOM     61  C   UNL A   1      46.915  23.333  35.618  1.00  0.00     0.049 A 
ATOM     62  H   UNL A   1      45.879  25.172  35.572  1.00  0.00     0.167 HD
ATOM     63  C   UNL A   1      47.180  24.239  37.911  1.00  0.00     0.074 A 
ATOM     64  C   UNL A   1      47.653  24.164  39.277  1.00  0.00     0.031 C 
ATOM     65  C   UNL A   1      47.389  23.277  36.978  1.00  0.00     0.037 A 
BRANCH  52  66
ATOM     66  C   UNL A   1      44.853  24.522  31.480  1.00  0.00     0.064 A 
ATOM     67  C   UNL A   1      43.891  23.548  31.173  1.00  0.00     0.173 A 
ATOM     68  C   UNL A   1      45.561  25.101  30.416  1.00  0.00     0.173 A 
ATOM     69  F   UNL A   1      43.196  22.952  32.154  1.00  0.00    -0.203 F 
ATOM     70  C   UNL A   1      43.669  23.149  29.858  1.00  0.00     0.198 A 
ATOM     71  C   UNL A   1      45.312  24.725  29.098  1.00  0.00     0.198 A 
ATOM     72  F   UNL A   1      46.491  26.039  30.651  1.00  0.00    -0.203 F 
ATOM     73  F   UNL A   1      42.785  22.177  29.593  1.00  0.00    -0.200 F 
ATOM     74  C   UNL A   1      44.374  23.742  28.820  1.00  0.00     0.200 A 
ATOM     75  F   UNL A   1      45.983  25.310  28.098  1.00  0.00    -0.200 F 
ATOM     76  F   UNL A   1      44.153  23.363  27.555  1.00  0.00    -0.200 F 
ENDBRANCH  52  66
BRANCH  53  77
ATOM     77  C   UNL A   1      46.208  27.822  40.812  1.00  0.00     0.064 A 
ATOM     78  C   UNL A   1      47.358  28.516  41.215  1.00  0.00     0.173 A 
ATOM     79  C   UNL A   1      45.240  27.546  41.790  1.00  0.00     0.173 A 
ATOM     80  F   UNL A   1      48.326  28.779  40.325  1.00  0.00    -0.203 F 
ATOM     81  C   UNL A   1      47.542  28.897  42.543  1.00  0.00     0.198 A 
ATOM     82  C   UNL A   1      45.410  27.957  43.110  1.00  0.00     0.198 A 
ATOM     83  F   UNL A   1      44.124  26.879  41.461  1.00  0.00    -0.203 F 
ATOM     84  F   UNL A   1      48.675  29.509  42.910  1.00  0.00    -0.200 F 
ATOM     85  C   UNL A   1      46.565  28.622  43.489  1.00  0.00     0.200 A 
ATOM     86  F   UNL A   1      44.457  27.700  44.017  1.00  0.00    -0.200 F 
ATOM     87  F   UNL A   1      46.742  28.990  44.765  1.00  0.00    -0.200 F 
ENDBRANCH  53  77
BRANCH  65  88
ATOM     88  C   UNL A   1      48.206  22.081  37.383  1.00  0.00     0.064 A 
ATOM     89  C   UNL A   1      49.604  22.063  37.268  1.00  0.00     0.173 A 
ATOM     90  C   UNL A   1      47.581  20.952  37.938  1.00  0.00     0.173 A 
ATOM     91  F   UNL A   1      50.251  23.110  36.734  1.00  0.00    -0.203 F 
ATOM     92  C   UNL A   1      50.342  20.950  37.665  1.00  0.00     0.198 A 
ATOM     93  C   UNL A   1      48.324  19.857  38.368  1.00  0.00     0.198 A 
ATOM     94  F   UNL A   1      46.248  20.919  38.082  1.00  0.00    -0.203 F 
ATOM     95  F   UNL A   1      51.671  20.935  37.495  1.00  0.00    -0.200 F 
ATOM     96  C   UNL A   1      49.703  19.853  38.222  1.00  0.00     0.200 A 
ATOM     97  F   UNL A   1      47.706  18.805  38.923  1.00  0.00    -0.200 F 
ATOM     98  F   UNL A   1      50.416  18.787  38.612  1.00  0.00    -0.200 F 
ENDBRANCH  65  88
ENDBRANCH  39  40
ENDBRANCH  32  34
ENDBRANCH  31  32
ENDBRANCH  30  31
ENDBRANCH  29  30
ENDBRANCH  28  29
ENDBRANCH  27  28
ENDBRANCH  26  27
ENDBRANCH  25  26
ENDBRANCH   1  25
TORSDOF 23
ENDMDL
