MODEL 1
REMARK VINA RESULT:     -10.4      0.000      0.000
REMARK SMILES O=C(Cc1ccn(-c2ccccc2F)c1)OCCOCCOCCOCCOC(=O)c1ccc(-c2c3nc(c(-c4c(F)c(F)c(F)c(F)c4F)c4ccc([nH]4)c(-c4c(F)c(F)c(F)c(F)c4F)c4nc(c(-c5c(F)c(F)c(F)c(F)c5F)c5ccc2[nH]5)C=C4)C=C3)cc1
REMARK SMILES IDX 22 1 21 2 20 3 19 4 18 5 17 6 16 7 2 8 1 9 3 10 4 11 5 12
REMARK SMILES IDX 15 13 6 14 7 15 8 16 9 17 13 18 10 19 12 20 14 21 11 22
REMARK SMILES IDX 23 23 24 24 25 25 26 26 27 27 28 28 29 29 30 30 31 31 32 32
REMARK SMILES IDX 93 33 33 34 92 35 34 36 35 37 36 38 86 39 37 40 91 41 85 42
REMARK SMILES IDX 87 43 38 44 90 45 84 46 83 47 39 49 71 50 51 51 70 52 52 53
REMARK SMILES IDX 55 54 69 55 88 56 53 57 54 58 68 60 89 61 56 62 40 63 41 64
REMARK SMILES IDX 49 65 42 66 43 67 47 68 50 69 44 70 45 71 48 72 46 73 72 74
REMARK SMILES IDX 73 75 81 76 74 77 75 78 79 79 82 80 76 81 77 82 80 83 78 84
REMARK SMILES IDX 57 85 58 86 66 87 59 88 60 89 64 90 67 91 61 92 62 93 65 94
REMARK SMILES IDX 63 95
REMARK H PARENT 87 48 55 59
REMARK Flexibility Score: inf
ROOT
ATOM      1  O   UNL A   1      32.792  34.513  29.095  1.00  0.00    -0.377 OA
ENDROOT
BRANCH   1   2
ATOM      2  C   UNL A   1      33.889  34.335  28.193  1.00  0.00     0.188 C 
BRANCH   2   3
ATOM      3  C   UNL A   1      34.802  33.183  28.611  1.00  0.00     0.188 C 
BRANCH   3   4
ATOM      4  O   UNL A   1      34.050  31.979  28.665  1.00  0.00    -0.376 OA
BRANCH   4   5
ATOM      5  C   UNL A   1      33.977  31.165  27.512  1.00  0.00     0.202 C 
BRANCH   5   6
ATOM      6  C   UNL A   1      32.614  31.099  26.826  1.00  0.00     0.261 C 
BRANCH   6   7
ATOM      7  O   UNL A   1      31.795  29.927  27.066  1.00  0.00    -0.463 OA
BRANCH   7   8
ATOM      8  C   UNL A   1      31.653  28.796  26.338  1.00  0.00     0.310 C 
ATOM      9  O   UNL A   1      31.335  28.894  25.152  1.00  0.00    -0.252 OA
BRANCH   8  10
ATOM     10  C   UNL A   1      31.731  27.437  26.992  1.00  0.00     0.159 C 
BRANCH  10  11
ATOM     11  C   UNL A   1      32.582  26.431  26.299  1.00  0.00    -0.019 A 
ATOM     12  C   UNL A   1      33.803  26.648  25.620  1.00  0.00     0.024 A 
ATOM     13  C   UNL A   1      32.319  25.074  26.204  1.00  0.00     0.095 A 
ATOM     14  C   UNL A   1      34.283  25.418  25.233  1.00  0.00     0.091 A 
ATOM     15  N   UNL A   1      33.357  24.443  25.550  1.00  0.00    -0.321 N 
BRANCH  15  16
ATOM     16  C   UNL A   1      33.466  23.060  25.250  1.00  0.00     0.081 A 
ATOM     17  C   UNL A   1      34.509  22.306  25.809  1.00  0.00     0.030 A 
ATOM     18  C   UNL A   1      32.571  22.436  24.375  1.00  0.00     0.147 A 
ATOM     19  C   UNL A   1      34.659  20.958  25.476  1.00  0.00     0.002 A 
ATOM     20  C   UNL A   1      32.736  21.096  24.028  1.00  0.00     0.041 A 
ATOM     21  F   UNL A   1      31.575  23.108  23.782  1.00  0.00    -0.205 F 
ATOM     22  C   UNL A   1      33.782  20.356  24.575  1.00  0.00     0.003 A 
ENDBRANCH  15  16
ENDBRANCH  10  11
ENDBRANCH   8  10
ENDBRANCH   7   8
ENDBRANCH   6   7
ENDBRANCH   5   6
ENDBRANCH   4   5
ENDBRANCH   3   4
ENDBRANCH   2   3
ENDBRANCH   1   2
BRANCH   1  23
ATOM     23  C   UNL A   1      32.762  35.784  29.731  1.00  0.00     0.188 C 
BRANCH  23  24
ATOM     24  C   UNL A   1      32.872  35.830  31.279  1.00  0.00     0.188 C 
BRANCH  24  25
ATOM     25  O   UNL A   1      33.242  34.766  32.152  1.00  0.00    -0.376 OA
BRANCH  25  26
ATOM     26  C   UNL A   1      34.522  34.164  32.137  1.00  0.00     0.202 C 
BRANCH  26  27
ATOM     27  C   UNL A   1      34.673  32.808  32.823  1.00  0.00     0.261 C 
BRANCH  27  28
ATOM     28  O   UNL A   1      35.120  31.803  31.933  1.00  0.00    -0.460 OA
BRANCH  28  29
ATOM     29  C   UNL A   1      36.458  31.786  31.826  1.00  0.00     0.338 C 
ATOM     30  O   UNL A   1      37.260  32.626  32.227  1.00  0.00    -0.246 OA
BRANCH  29  31
ATOM     31  C   UNL A   1      36.884  30.632  31.044  1.00  0.00     0.060 A 
ATOM     32  C   UNL A   1      37.452  29.594  31.787  1.00  0.00     0.016 A 
ATOM     33  C   UNL A   1      37.120  30.811  29.677  1.00  0.00     0.016 A 
ATOM     34  C   UNL A   1      38.509  28.920  31.236  1.00  0.00     0.010 A 
ATOM     35  C   UNL A   1      38.200  30.159  29.134  1.00  0.00     0.010 A 
ATOM     36  C   UNL A   1      38.938  29.303  29.962  1.00  0.00    -0.014 A 
BRANCH  36  37
ATOM     37  C   UNL A   1      40.247  28.822  29.529  1.00  0.00     0.031 A 
ATOM     38  C   UNL A   1      41.271  29.925  29.519  1.00  0.00     0.074 A 
ATOM     39  C   UNL A   1      40.290  27.508  29.165  1.00  0.00     0.049 A 
ATOM     40  N   UNL A   1      42.366  30.021  28.836  1.00  0.00    -0.248 NA
ATOM     41  C   UNL A   1      41.009  31.143  30.334  1.00  0.00     0.031 C 
ATOM     42  C   UNL A   1      39.131  26.594  29.233  1.00  0.00     0.029 A 
ATOM     43  N   UNL A   1      41.268  26.678  28.660  1.00  0.00    -0.354 N 
ATOM     44  C   UNL A   1      43.007  31.182  29.281  1.00  0.00     0.074 A 
ATOM     45  C   UNL A   1      42.073  31.902  30.091  1.00  0.00     0.031 C 
ATOM     46  C   UNL A   1      39.446  25.385  28.735  1.00  0.00     0.029 A 
ATOM     47  C   UNL A   1      40.834  25.373  28.317  1.00  0.00     0.049 A 
ATOM     48  H   UNL A   1      42.202  26.970  28.547  1.00  0.00     0.167 HD
ATOM     49  C   UNL A   1      44.330  31.412  29.089  1.00  0.00     0.037 A 
ATOM     50  C   UNL A   1      41.528  24.365  27.704  1.00  0.00     0.037 A 
ATOM     51  C   UNL A   1      44.930  30.387  28.301  1.00  0.00     0.049 A 
ATOM     52  C   UNL A   1      42.919  24.855  27.593  1.00  0.00     0.074 A 
ATOM     53  C   UNL A   1      44.886  30.094  26.962  1.00  0.00     0.029 A 
ATOM     54  N   UNL A   1      45.445  29.302  28.968  1.00  0.00    -0.354 N 
ATOM     55  N   UNL A   1      43.739  25.002  28.594  1.00  0.00    -0.248 NA
ATOM     56  C   UNL A   1      43.409  25.312  26.288  1.00  0.00     0.031 C 
ATOM     57  C   UNL A   1      45.076  28.693  26.888  1.00  0.00     0.029 A 
ATOM     58  C   UNL A   1      45.271  28.188  28.176  1.00  0.00     0.049 A 
ATOM     59  H   UNL A   1      45.867  29.318  29.857  1.00  0.00     0.167 HD
ATOM     60  C   UNL A   1      44.692  25.859  28.087  1.00  0.00     0.074 A 
ATOM     61  C   UNL A   1      44.603  25.773  26.650  1.00  0.00     0.031 C 
ATOM     62  C   UNL A   1      45.123  26.907  28.834  1.00  0.00     0.037 A 
BRANCH  49  63
ATOM     63  C   UNL A   1      45.201  32.416  29.764  1.00  0.00     0.064 A 
ATOM     64  C   UNL A   1      45.481  33.680  29.221  1.00  0.00     0.173 A 
ATOM     65  C   UNL A   1      45.520  32.225  31.124  1.00  0.00     0.173 A 
ATOM     66  F   UNL A   1      45.156  33.980  27.956  1.00  0.00    -0.203 F 
ATOM     67  C   UNL A   1      46.017  34.702  30.003  1.00  0.00     0.198 A 
ATOM     68  C   UNL A   1      46.010  33.262  31.912  1.00  0.00     0.198 A 
ATOM     69  F   UNL A   1      45.296  31.042  31.718  1.00  0.00    -0.203 F 
ATOM     70  F   UNL A   1      46.244  35.905  29.456  1.00  0.00    -0.200 F 
ATOM     71  C   UNL A   1      46.250  34.503  31.353  1.00  0.00     0.200 A 
ATOM     72  F   UNL A   1      46.196  33.069  33.225  1.00  0.00    -0.200 F 
ATOM     73  F   UNL A   1      46.670  35.518  32.120  1.00  0.00    -0.200 F 
ENDBRANCH  49  63
BRANCH  50  74
ATOM     74  C   UNL A   1      41.202  23.020  27.082  1.00  0.00     0.064 A 
ATOM     75  C   UNL A   1      39.920  22.794  26.505  1.00  0.00     0.173 A 
ATOM     76  C   UNL A   1      42.029  21.886  27.072  1.00  0.00     0.173 A 
ATOM     77  F   UNL A   1      39.055  23.797  26.307  1.00  0.00    -0.203 F 
ATOM     78  C   UNL A   1      39.459  21.535  26.112  1.00  0.00     0.198 A 
ATOM     79  C   UNL A   1      41.577  20.623  26.647  1.00  0.00     0.198 A 
ATOM     80  F   UNL A   1      43.308  21.943  27.446  1.00  0.00    -0.203 F 
ATOM     81  F   UNL A   1      38.202  21.398  25.666  1.00  0.00    -0.200 F 
ATOM     82  C   UNL A   1      40.285  20.440  26.202  1.00  0.00     0.200 A 
ATOM     83  F   UNL A   1      42.412  19.574  26.687  1.00  0.00    -0.200 F 
ATOM     84  F   UNL A   1      39.842  19.227  25.849  1.00  0.00    -0.200 F 
ENDBRANCH  50  74
BRANCH  62  85
ATOM     85  C   UNL A   1      44.944  26.693  30.321  1.00  0.00     0.064 A 
ATOM     86  C   UNL A   1      43.857  27.208  31.044  1.00  0.00     0.173 A 
ATOM     87  C   UNL A   1      45.808  25.840  31.021  1.00  0.00     0.173 A 
ATOM     88  F   UNL A   1      42.989  28.029  30.458  1.00  0.00    -0.203 F 
ATOM     89  C   UNL A   1      43.634  26.898  32.383  1.00  0.00     0.198 A 
ATOM     90  C   UNL A   1      45.585  25.520  32.363  1.00  0.00     0.198 A 
ATOM     91  F   UNL A   1      46.875  25.313  30.402  1.00  0.00    -0.203 F 
ATOM     92  F   UNL A   1      42.586  27.431  33.030  1.00  0.00    -0.200 F 
ATOM     93  C   UNL A   1      44.498  26.047  33.044  1.00  0.00     0.200 A 
ATOM     94  F   UNL A   1      46.432  24.702  33.004  1.00  0.00    -0.200 F 
ATOM     95  F   UNL A   1      44.291  25.747  34.334  1.00  0.00    -0.200 F 
ENDBRANCH  62  85
ENDBRANCH  36  37
ENDBRANCH  29  31
ENDBRANCH  28  29
ENDBRANCH  27  28
ENDBRANCH  26  27
ENDBRANCH  25  26
ENDBRANCH  24  25
ENDBRANCH  23  24
ENDBRANCH   1  23
TORSDOF 22
ENDMDL
MODEL 2
REMARK VINA RESULT:     -10.3      1.352      2.539
REMARK SMILES O=C(Cc1ccn(-c2ccccc2F)c1)OCCOCCOCCOCCOC(=O)c1ccc(-c2c3nc(c(-c4c(F)c(F)c(F)c(F)c4F)c4ccc([nH]4)c(-c4c(F)c(F)c(F)c(F)c4F)c4nc(c(-c5c(F)c(F)c(F)c(F)c5F)c5ccc2[nH]5)C=C4)C=C3)cc1
REMARK SMILES IDX 22 1 21 2 20 3 19 4 18 5 17 6 16 7 2 8 1 9 3 10 4 11 5 12
REMARK SMILES IDX 15 13 6 14 7 15 8 16 9 17 13 18 10 19 12 20 14 21 11 22
REMARK SMILES IDX 23 23 24 24 25 25 26 26 27 27 28 28 29 29 30 30 31 31 32 32
REMARK SMILES IDX 93 33 33 34 92 35 34 36 35 37 36 38 86 39 37 40 91 41 85 42
REMARK SMILES IDX 87 43 38 44 90 45 84 46 83 47 39 49 71 50 51 51 70 52 52 53
REMARK SMILES IDX 55 54 69 55 88 56 53 57 54 58 68 60 89 61 56 62 40 63 41 64
REMARK SMILES IDX 49 65 42 66 43 67 47 68 50 69 44 70 45 71 48 72 46 73 72 74
REMARK SMILES IDX 73 75 81 76 74 77 75 78 79 79 82 80 76 81 77 82 80 83 78 84
REMARK SMILES IDX 57 85 58 86 66 87 59 88 60 89 64 90 67 91 61 92 62 93 65 94
REMARK SMILES IDX 63 95
REMARK H PARENT 87 48 55 59
REMARK Flexibility Score: inf
ROOT
ATOM      1  O   UNL A   1      33.700  30.840  27.887  1.00  0.00    -0.377 OA
ENDROOT
BRANCH   1   2
ATOM      2  C   UNL A   1      32.873  30.108  26.977  1.00  0.00     0.188 C 
BRANCH   2   3
ATOM      3  C   UNL A   1      33.690  29.236  26.024  1.00  0.00     0.188 C 
BRANCH   3   4
ATOM      4  O   UNL A   1      32.812  28.489  25.195  1.00  0.00    -0.376 OA
BRANCH   4   5
ATOM      5  C   UNL A   1      33.136  28.319  23.831  1.00  0.00     0.202 C 
BRANCH   5   6
ATOM      6  C   UNL A   1      32.097  28.817  22.829  1.00  0.00     0.261 C 
BRANCH   6   7
ATOM      7  O   UNL A   1      30.988  27.937  22.514  1.00  0.00    -0.463 OA
BRANCH   7   8
ATOM      8  C   UNL A   1      29.817  27.743  23.162  1.00  0.00     0.310 C 
ATOM      9  O   UNL A   1      28.855  28.453  22.869  1.00  0.00    -0.252 OA
BRANCH   8  10
ATOM     10  C   UNL A   1      29.724  26.784  24.326  1.00  0.00     0.159 C 
BRANCH  10  11
ATOM     11  C   UNL A   1      30.493  25.516  24.185  1.00  0.00    -0.019 A 
ATOM     12  C   UNL A   1      30.300  24.486  23.237  1.00  0.00     0.024 A 
ATOM     13  C   UNL A   1      31.558  25.123  24.978  1.00  0.00     0.095 A 
ATOM     14  C   UNL A   1      31.307  23.566  23.418  1.00  0.00     0.091 A 
ATOM     15  N   UNL A   1      32.065  23.926  24.516  1.00  0.00    -0.321 N 
BRANCH  15  16
ATOM     16  C   UNL A   1      33.153  23.191  25.054  1.00  0.00     0.081 A 
ATOM     17  C   UNL A   1      33.305  23.089  26.446  1.00  0.00     0.030 A 
ATOM     18  C   UNL A   1      34.104  22.591  24.222  1.00  0.00     0.147 A 
ATOM     19  C   UNL A   1      34.403  22.415  26.985  1.00  0.00     0.002 A 
ATOM     20  C   UNL A   1      35.211  21.939  24.763  1.00  0.00     0.041 A 
ATOM     21  F   UNL A   1      34.034  22.681  22.887  1.00  0.00    -0.205 F 
ATOM     22  C   UNL A   1      35.364  21.853  26.146  1.00  0.00     0.003 A 
ENDBRANCH  15  16
ENDBRANCH  10  11
ENDBRANCH   8  10
ENDBRANCH   7   8
ENDBRANCH   6   7
ENDBRANCH   5   6
ENDBRANCH   4   5
ENDBRANCH   3   4
ENDBRANCH   2   3
ENDBRANCH   1   2
BRANCH   1  23
ATOM     23  C   UNL A   1      33.651  32.250  27.712  1.00  0.00     0.188 C 
BRANCH  23  24
ATOM     24  C   UNL A   1      34.942  33.067  27.989  1.00  0.00     0.188 C 
BRANCH  24  25
ATOM     25  O   UNL A   1      35.082  34.200  28.842  1.00  0.00    -0.376 OA
BRANCH  25  26
ATOM     26  C   UNL A   1      34.385  34.337  30.065  1.00  0.00     0.202 C 
BRANCH  26  27
ATOM     27  C   UNL A   1      35.057  33.796  31.325  1.00  0.00     0.261 C 
BRANCH  27  28
ATOM     28  O   UNL A   1      34.882  32.399  31.469  1.00  0.00    -0.460 OA
BRANCH  28  29
ATOM     29  C   UNL A   1      35.860  31.843  32.200  1.00  0.00     0.338 C 
ATOM     30  O   UNL A   1      36.411  32.299  33.199  1.00  0.00    -0.246 OA
BRANCH  29  31
ATOM     31  C   UNL A   1      36.300  30.597  31.585  1.00  0.00     0.060 A 
ATOM     32  C   UNL A   1      37.090  29.784  32.402  1.00  0.00     0.016 A 
ATOM     33  C   UNL A   1      36.310  30.516  30.188  1.00  0.00     0.016 A 
ATOM     34  C   UNL A   1      38.127  29.107  31.816  1.00  0.00     0.010 A 
ATOM     35  C   UNL A   1      37.368  29.864  29.603  1.00  0.00     0.010 A 
ATOM     36  C   UNL A   1      38.315  29.261  30.440  1.00  0.00    -0.014 A 
BRANCH  36  37
ATOM     37  C   UNL A   1      39.594  28.818  29.891  1.00  0.00     0.031 A 
ATOM     38  C   UNL A   1      40.572  29.957  29.768  1.00  0.00     0.074 A 
ATOM     39  C   UNL A   1      39.650  27.501  29.543  1.00  0.00     0.049 A 
ATOM     40  N   UNL A   1      41.593  30.079  28.983  1.00  0.00    -0.248 NA
ATOM     41  C   UNL A   1      40.344  31.178  30.588  1.00  0.00     0.031 C 
ATOM     42  C   UNL A   1      38.538  26.548  29.733  1.00  0.00     0.029 A 
ATOM     43  N   UNL A   1      40.607  26.697  28.959  1.00  0.00    -0.354 N 
ATOM     44  C   UNL A   1      42.230  31.269  29.349  1.00  0.00     0.074 A 
ATOM     45  C   UNL A   1      41.352  31.970  30.235  1.00  0.00     0.031 C 
ATOM     46  C   UNL A   1      38.848  25.343  29.224  1.00  0.00     0.029 A 
ATOM     47  C   UNL A   1      40.189  25.372  28.676  1.00  0.00     0.049 A 
ATOM     48  H   UNL A   1      41.514  27.020  28.753  1.00  0.00     0.167 HD
ATOM     49  C   UNL A   1      43.521  31.542  29.029  1.00  0.00     0.037 A 
ATOM     50  C   UNL A   1      40.859  24.379  28.014  1.00  0.00     0.037 A 
ATOM     51  C   UNL A   1      44.081  30.526  28.201  1.00  0.00     0.049 A 
ATOM     52  C   UNL A   1      42.215  24.915  27.765  1.00  0.00     0.074 A 
ATOM     53  C   UNL A   1      43.921  30.208  26.878  1.00  0.00     0.029 A 
ATOM     54  N   UNL A   1      44.696  29.471  28.831  1.00  0.00    -0.354 N 
ATOM     55  N   UNL A   1      43.119  25.108  28.681  1.00  0.00    -0.248 NA
ATOM     56  C   UNL A   1      42.562  25.366  26.413  1.00  0.00     0.031 C 
ATOM     57  C   UNL A   1      44.153  28.814  26.805  1.00  0.00     0.029 A 
ATOM     58  C   UNL A   1      44.488  28.338  28.076  1.00  0.00     0.049 A 
ATOM     59  H   UNL A   1      45.198  29.517  29.676  1.00  0.00     0.167 HD
ATOM     60  C   UNL A   1      43.988  25.988  28.074  1.00  0.00     0.074 A 
ATOM     61  C   UNL A   1      43.767  25.875  26.653  1.00  0.00     0.031 C 
ATOM     62  C   UNL A   1      44.449  27.064  28.762  1.00  0.00     0.037 A 
BRANCH  49  63
ATOM     63  C   UNL A   1      44.414  32.587  29.605  1.00  0.00     0.064 A 
ATOM     64  C   UNL A   1      45.088  32.435  30.827  1.00  0.00     0.173 A 
ATOM     65  C   UNL A   1      44.840  33.641  28.773  1.00  0.00     0.173 A 
ATOM     66  F   UNL A   1      44.798  31.424  31.659  1.00  0.00    -0.203 F 
ATOM     67  C   UNL A   1      46.148  33.268  31.180  1.00  0.00     0.198 A 
ATOM     68  C   UNL A   1      45.930  34.440  29.106  1.00  0.00     0.198 A 
ATOM     69  F   UNL A   1      44.241  33.865  27.593  1.00  0.00    -0.203 F 
ATOM     70  F   UNL A   1      46.786  33.074  32.342  1.00  0.00    -0.200 F 
ATOM     71  C   UNL A   1      46.589  34.248  30.306  1.00  0.00     0.200 A 
ATOM     72  F   UNL A   1      46.372  35.360  28.238  1.00  0.00    -0.200 F 
ATOM     73  F   UNL A   1      47.671  34.978  30.605  1.00  0.00    -0.200 F 
ENDBRANCH  49  63
BRANCH  50  74
ATOM     74  C   UNL A   1      40.525  23.013  27.444  1.00  0.00     0.064 A 
ATOM     75  C   UNL A   1      41.328  21.886  27.779  1.00  0.00     0.173 A 
ATOM     76  C   UNL A   1      39.512  22.723  26.517  1.00  0.00     0.173 A 
ATOM     77  F   UNL A   1      42.251  21.947  28.747  1.00  0.00    -0.203 F 
ATOM     78  C   UNL A   1      41.232  20.649  27.137  1.00  0.00     0.198 A 
ATOM     79  C   UNL A   1      39.392  21.468  25.892  1.00  0.00     0.198 A 
ATOM     80  F   UNL A   1      38.580  23.619  26.189  1.00  0.00    -0.203 F 
ATOM     81  F   UNL A   1      42.093  19.670  27.450  1.00  0.00    -0.200 F 
ATOM     82  C   UNL A   1      40.273  20.444  26.174  1.00  0.00     0.200 A 
ATOM     83  F   UNL A   1      38.416  21.265  24.996  1.00  0.00    -0.200 F 
ATOM     84  F   UNL A   1      40.190  19.269  25.538  1.00  0.00    -0.200 F 
ENDBRANCH  50  74
BRANCH  62  85
ATOM     85  C   UNL A   1      44.420  26.869  30.261  1.00  0.00     0.064 A 
ATOM     86  C   UNL A   1      43.441  27.441  31.089  1.00  0.00     0.173 A 
ATOM     87  C   UNL A   1      45.313  25.981  30.877  1.00  0.00     0.173 A 
ATOM     88  F   UNL A   1      42.555  28.298  30.589  1.00  0.00    -0.203 F 
ATOM     89  C   UNL A   1      43.348  27.151  32.449  1.00  0.00     0.198 A 
ATOM     90  C   UNL A   1      45.219  25.681  32.239  1.00  0.00     0.198 A 
ATOM     91  F   UNL A   1      46.282  25.399  30.155  1.00  0.00    -0.203 F 
ATOM     92  F   UNL A   1      42.401  27.739  33.196  1.00  0.00    -0.200 F 
ATOM     93  C   UNL A   1      44.236  26.265  33.024  1.00  0.00     0.200 A 
ATOM     94  F   UNL A   1      46.090  24.828  32.796  1.00  0.00    -0.200 F 
ATOM     95  F   UNL A   1      44.154  25.984  34.332  1.00  0.00    -0.200 F 
ENDBRANCH  62  85
ENDBRANCH  36  37
ENDBRANCH  29  31
ENDBRANCH  28  29
ENDBRANCH  27  28
ENDBRANCH  26  27
ENDBRANCH  25  26
ENDBRANCH  24  25
ENDBRANCH  23  24
ENDBRANCH   1  23
TORSDOF 22
ENDMDL
MODEL 3
REMARK VINA RESULT:     -10.3      2.389      3.819
REMARK SMILES O=C(Cc1ccn(-c2ccccc2F)c1)OCCOCCOCCOCCOC(=O)c1ccc(-c2c3nc(c(-c4c(F)c(F)c(F)c(F)c4F)c4ccc([nH]4)c(-c4c(F)c(F)c(F)c(F)c4F)c4nc(c(-c5c(F)c(F)c(F)c(F)c5F)c5ccc2[nH]5)C=C4)C=C3)cc1
REMARK SMILES IDX 22 1 21 2 20 3 19 4 18 5 17 6 16 7 2 8 1 9 3 10 4 11 5 12
REMARK SMILES IDX 15 13 6 14 7 15 8 16 9 17 13 18 10 19 12 20 14 21 11 22
REMARK SMILES IDX 23 23 24 24 25 25 26 26 27 27 28 28 29 29 30 30 31 31 32 32
REMARK SMILES IDX 93 33 33 34 92 35 34 36 35 37 36 38 86 39 37 40 91 41 85 42
REMARK SMILES IDX 87 43 38 44 90 45 84 46 83 47 39 49 71 50 51 51 70 52 52 53
REMARK SMILES IDX 55 54 69 55 88 56 53 57 54 58 68 60 89 61 56 62 40 63 41 64
REMARK SMILES IDX 49 65 42 66 43 67 47 68 50 69 44 70 45 71 48 72 46 73 72 74
REMARK SMILES IDX 73 75 81 76 74 77 75 78 79 79 82 80 76 81 77 82 80 83 78 84
REMARK SMILES IDX 57 85 58 86 66 87 59 88 60 89 64 90 67 91 61 92 62 93 65 94
REMARK SMILES IDX 63 95
REMARK H PARENT 87 48 55 59
REMARK Flexibility Score: inf
ROOT
ATOM      1  O   UNL A   1      34.307  31.243  28.055  1.00  0.00    -0.377 OA
ENDROOT
BRANCH   1   2
ATOM      2  C   UNL A   1      33.963  30.529  26.864  1.00  0.00     0.188 C 
BRANCH   2   3
ATOM      3  C   UNL A   1      34.474  29.088  26.884  1.00  0.00     0.188 C 
BRANCH   3   4
ATOM      4  O   UNL A   1      33.624  28.273  26.091  1.00  0.00    -0.376 OA
BRANCH   4   5
ATOM      5  C   UNL A   1      33.900  26.891  25.988  1.00  0.00     0.202 C 
BRANCH   5   6
ATOM      6  C   UNL A   1      32.816  26.039  25.331  1.00  0.00     0.261 C 
BRANCH   6   7
ATOM      7  O   UNL A   1      31.573  25.856  26.054  1.00  0.00    -0.463 OA
BRANCH   7   8
ATOM      8  C   UNL A   1      30.308  25.721  25.595  1.00  0.00     0.310 C 
ATOM      9  O   UNL A   1      29.424  25.395  26.388  1.00  0.00    -0.252 OA
BRANCH   8  10
ATOM     10  C   UNL A   1      30.004  25.816  24.119  1.00  0.00     0.159 C 
BRANCH  10  11
ATOM     11  C   UNL A   1      29.085  26.916  23.715  1.00  0.00    -0.019 A 
ATOM     12  C   UNL A   1      27.673  26.938  23.789  1.00  0.00     0.024 A 
ATOM     13  C   UNL A   1      29.466  28.139  23.188  1.00  0.00     0.095 A 
ATOM     14  C   UNL A   1      27.260  28.194  23.409  1.00  0.00     0.091 A 
ATOM     15  N   UNL A   1      28.353  28.931  22.996  1.00  0.00    -0.321 N 
BRANCH  15  16
ATOM     16  C   UNL A   1      28.320  30.250  22.473  1.00  0.00     0.081 A 
ATOM     17  C   UNL A   1      27.974  30.459  21.129  1.00  0.00     0.030 A 
ATOM     18  C   UNL A   1      28.661  31.352  23.264  1.00  0.00     0.147 A 
ATOM     19  C   UNL A   1      27.992  31.747  20.590  1.00  0.00     0.002 A 
ATOM     20  C   UNL A   1      28.700  32.633  22.718  1.00  0.00     0.041 A 
ATOM     21  F   UNL A   1      29.033  31.216  24.545  1.00  0.00    -0.205 F 
ATOM     22  C   UNL A   1      28.369  32.833  21.379  1.00  0.00     0.003 A 
ENDBRANCH  15  16
ENDBRANCH  10  11
ENDBRANCH   8  10
ENDBRANCH   7   8
ENDBRANCH   6   7
ENDBRANCH   5   6
ENDBRANCH   4   5
ENDBRANCH   3   4
ENDBRANCH   2   3
ENDBRANCH   1   2
BRANCH   1  23
ATOM     23  C   UNL A   1      33.706  32.528  28.156  1.00  0.00     0.188 C 
BRANCH  23  24
ATOM     24  C   UNL A   1      34.637  33.761  28.304  1.00  0.00     0.188 C 
BRANCH  24  25
ATOM     25  O   UNL A   1      34.707  34.666  29.403  1.00  0.00    -0.376 OA
BRANCH  25  26
ATOM     26  C   UNL A   1      34.347  34.307  30.723  1.00  0.00     0.202 C 
BRANCH  26  27
ATOM     27  C   UNL A   1      35.369  33.524  31.545  1.00  0.00     0.261 C 
BRANCH  27  28
ATOM     28  O   UNL A   1      35.145  32.128  31.490  1.00  0.00    -0.460 OA
BRANCH  28  29
ATOM     29  C   UNL A   1      36.070  31.444  32.182  1.00  0.00     0.338 C 
ATOM     30  O   UNL A   1      36.560  31.725  33.273  1.00  0.00    -0.246 OA
BRANCH  29  31
ATOM     31  C   UNL A   1      36.536  30.303  31.404  1.00  0.00     0.060 A 
ATOM     32  C   UNL A   1      37.231  29.336  32.136  1.00  0.00     0.016 A 
ATOM     33  C   UNL A   1      36.669  30.456  30.020  1.00  0.00     0.016 A 
ATOM     34  C   UNL A   1      38.301  28.729  31.534  1.00  0.00     0.010 A 
ATOM     35  C   UNL A   1      37.761  29.873  29.425  1.00  0.00     0.010 A 
ATOM     36  C   UNL A   1      38.616  29.104  30.224  1.00  0.00    -0.014 A 
BRANCH  36  37
ATOM     37  C   UNL A   1      39.929  28.712  29.719  1.00  0.00     0.031 A 
ATOM     38  C   UNL A   1      40.882  29.877  29.682  1.00  0.00     0.074 A 
ATOM     39  C   UNL A   1      40.034  27.410  29.327  1.00  0.00     0.049 A 
ATOM     40  N   UNL A   1      41.933  30.052  28.948  1.00  0.00    -0.248 NA
ATOM     41  C   UNL A   1      40.586  31.062  30.533  1.00  0.00     0.031 C 
ATOM     42  C   UNL A   1      38.939  26.425  29.433  1.00  0.00     0.029 A 
ATOM     43  N   UNL A   1      41.035  26.651  28.759  1.00  0.00    -0.354 N 
ATOM     44  C   UNL A   1      42.523  31.244  29.385  1.00  0.00     0.074 A 
ATOM     45  C   UNL A   1      41.588  31.890  30.254  1.00  0.00     0.031 C 
ATOM     46  C   UNL A   1      39.302  25.247  28.896  1.00  0.00     0.029 A 
ATOM     47  C   UNL A   1      40.665  25.328  28.411  1.00  0.00     0.049 A 
ATOM     48  H   UNL A   1      41.942  27.003  28.606  1.00  0.00     0.167 HD
ATOM     49  C   UNL A   1      43.819  31.558  29.134  1.00  0.00     0.037 A 
ATOM     50  C   UNL A   1      41.388  24.376  27.745  1.00  0.00     0.037 A 
ATOM     51  C   UNL A   1      44.441  30.587  28.297  1.00  0.00     0.049 A 
ATOM     52  C   UNL A   1      42.740  24.953  27.577  1.00  0.00     0.074 A 
ATOM     53  C   UNL A   1      44.349  30.314  26.957  1.00  0.00     0.029 A 
ATOM     54  N   UNL A   1      45.054  29.525  28.916  1.00  0.00    -0.354 N 
ATOM     55  N   UNL A   1      43.598  25.134  28.540  1.00  0.00    -0.248 NA
ATOM     56  C   UNL A   1      43.136  25.461  26.259  1.00  0.00     0.031 C 
ATOM     57  C   UNL A   1      44.620  28.929  26.845  1.00  0.00     0.029 A 
ATOM     58  C   UNL A   1      44.909  28.416  28.112  1.00  0.00     0.049 A 
ATOM     59  H   UNL A   1      45.517  29.552  29.784  1.00  0.00     0.167 HD
ATOM     60  C   UNL A   1      44.470  26.056  28.004  1.00  0.00     0.074 A 
ATOM     61  C   UNL A   1      44.315  25.990  26.572  1.00  0.00     0.031 C 
ATOM     62  C   UNL A   1      44.873  27.117  28.751  1.00  0.00     0.037 A 
BRANCH  49  63
ATOM     63  C   UNL A   1      44.659  32.603  29.786  1.00  0.00     0.064 A 
ATOM     64  C   UNL A   1      44.573  33.967  29.468  1.00  0.00     0.173 A 
ATOM     65  C   UNL A   1      45.352  32.269  30.967  1.00  0.00     0.173 A 
ATOM     66  F   UNL A   1      43.881  34.390  28.401  1.00  0.00    -0.203 F 
ATOM     67  C   UNL A   1      45.120  34.942  30.301  1.00  0.00     0.198 A 
ATOM     68  C   UNL A   1      45.855  33.247  31.820  1.00  0.00     0.198 A 
ATOM     69  F   UNL A   1      45.492  30.986  31.337  1.00  0.00    -0.203 F 
ATOM     70  F   UNL A   1      44.994  36.237  29.979  1.00  0.00    -0.200 F 
ATOM     71  C   UNL A   1      45.731  34.584  31.491  1.00  0.00     0.200 A 
ATOM     72  F   UNL A   1      46.410  32.892  32.987  1.00  0.00    -0.200 F 
ATOM     73  F   UNL A   1      46.165  35.529  32.336  1.00  0.00    -0.200 F 
ENDBRANCH  49  63
BRANCH  50  74
ATOM     74  C   UNL A   1      41.115  23.024  27.113  1.00  0.00     0.064 A 
ATOM     75  C   UNL A   1      39.885  22.790  26.436  1.00  0.00     0.173 A 
ATOM     76  C   UNL A   1      41.941  21.891  27.183  1.00  0.00     0.173 A 
ATOM     77  F   UNL A   1      39.038  23.790  26.157  1.00  0.00    -0.203 F 
ATOM     78  C   UNL A   1      39.458  21.526  26.020  1.00  0.00     0.198 A 
ATOM     79  C   UNL A   1      41.526  20.623  26.735  1.00  0.00     0.198 A 
ATOM     80  F   UNL A   1      43.184  21.954  27.659  1.00  0.00    -0.203 F 
ATOM     81  F   UNL A   1      38.242  21.383  25.474  1.00  0.00    -0.200 F 
ATOM     82  C   UNL A   1      40.274  20.433  26.188  1.00  0.00     0.200 A 
ATOM     83  F   UNL A   1      42.355  19.576  26.854  1.00  0.00    -0.200 F 
ATOM     84  F   UNL A   1      39.862  19.216  25.813  1.00  0.00    -0.200 F 
ENDBRANCH  50  74
BRANCH  62  85
ATOM     85  C   UNL A   1      44.782  26.866  30.239  1.00  0.00     0.064 A 
ATOM     86  C   UNL A   1      43.715  27.325  31.029  1.00  0.00     0.173 A 
ATOM     87  C   UNL A   1      45.712  26.034  30.875  1.00  0.00     0.173 A 
ATOM     88  F   UNL A   1      42.788  28.124  30.508  1.00  0.00    -0.203 F 
ATOM     89  C   UNL A   1      43.576  26.980  32.372  1.00  0.00     0.198 A 
ATOM     90  C   UNL A   1      45.573  25.679  32.220  1.00  0.00     0.198 A 
ATOM     91  F   UNL A   1      46.764  25.560  30.190  1.00  0.00    -0.203 F 
ATOM     92  F   UNL A   1      42.545  27.460  33.084  1.00  0.00    -0.200 F 
ATOM     93  C   UNL A   1      44.505  26.151  32.967  1.00  0.00     0.200 A 
ATOM     94  F   UNL A   1      46.483  24.881  32.797  1.00  0.00    -0.200 F 
ATOM     95  F   UNL A   1      44.379  25.817  34.260  1.00  0.00    -0.200 F 
ENDBRANCH  62  85
ENDBRANCH  36  37
ENDBRANCH  29  31
ENDBRANCH  28  29
ENDBRANCH  27  28
ENDBRANCH  26  27
ENDBRANCH  25  26
ENDBRANCH  24  25
ENDBRANCH  23  24
ENDBRANCH   1  23
TORSDOF 22
ENDMDL
