MODEL 1
REMARK VINA RESULT:      -9.1      0.000      0.000
REMARK SMILES O=C(COc1cc(-c2ccncc2)nc(Nc2ccccc2Br)n1)OCCOCCOCCOCCOC(=O)c1ccc(-c2c3nc(c(-c4c(F)c(F)c(F)c(F)c4F)c4ccc([nH]4)c(-c4c(F)c(F)c(F)c(F)c4F)c4nc(c(-c5c(F)c(F)c(F)c(F)c5F)c5ccc2[nH]5)C=C4)C=C3)cc1
REMARK SMILES IDX 30 1 29 2 28 3 27 4 26 5 25 6 2 7 1 8 3 9 4 10 5 11 6 12
REMARK SMILES IDX 24 13 7 14 15 15 14 16 8 17 9 18 13 19 10 20 12 21 11 22
REMARK SMILES IDX 16 23 17 25 18 26 22 27 19 28 21 29 23 30 20 31 31 32 32 33
REMARK SMILES IDX 33 34 34 35 35 36 36 37 37 38 38 39 39 40 40 41 41 42 102 43
REMARK SMILES IDX 42 44 101 45 43 46 44 47 45 48 95 49 46 50 100 51 94 52
REMARK SMILES IDX 96 53 47 54 99 55 93 56 92 57 48 59 80 60 60 61 79 62 61 63
REMARK SMILES IDX 64 64 78 65 97 66 62 67 63 68 77 70 98 71 65 72 49 73 50 74
REMARK SMILES IDX 58 75 51 76 52 77 56 78 59 79 53 80 54 81 57 82 55 83 81 84
REMARK SMILES IDX 82 85 90 86 83 87 84 88 88 89 91 90 85 91 86 92 89 93 87 94
REMARK SMILES IDX 66 95 67 96 75 97 68 98 69 99 73 100 76 101 70 102 71 103
REMARK SMILES IDX 74 104 72 105
REMARK H PARENT 16 24 96 58 64 69
REMARK Flexibility Score: inf
ROOT
ATOM      1  C   UNL A   1      39.244  23.509  26.681  1.00  0.00     0.188 C 
ENDROOT
BRANCH   1   2
ATOM      2  C   UNL A   1      37.823  24.021  26.399  1.00  0.00     0.188 C 
BRANCH   2   3
ATOM      3  O   UNL A   1      37.042  23.230  25.518  1.00  0.00    -0.376 OA
BRANCH   3   4
ATOM      4  C   UNL A   1      35.933  22.428  25.864  1.00  0.00     0.202 C 
BRANCH   4   5
ATOM      5  C   UNL A   1      34.525  22.759  25.369  1.00  0.00     0.261 C 
BRANCH   5   6
ATOM      6  O   UNL A   1      33.458  22.715  26.335  1.00  0.00    -0.461 OA
BRANCH   6   7
ATOM      7  C   UNL A   1      32.224  22.193  26.140  1.00  0.00     0.344 C 
ATOM      8  O   UNL A   1      32.100  21.149  25.507  1.00  0.00    -0.248 OA
BRANCH   7   9
ATOM      9  C   UNL A   1      31.029  22.944  26.707  1.00  0.00     0.353 C 
BRANCH   9  10
ATOM     10  O   UNL A   1      31.408  24.199  27.281  1.00  0.00    -0.466 OA
BRANCH  10  11
ATOM     11  C   UNL A   1      31.105  25.148  26.349  1.00  0.00     0.219 A 
ATOM     12  C   UNL A   1      31.028  24.792  25.037  1.00  0.00     0.097 A 
ATOM     13  N   UNL A   1      31.244  26.381  26.791  1.00  0.00    -0.177 NA
ATOM     14  C   UNL A   1      31.376  25.787  24.158  1.00  0.00     0.080 A 
ATOM     15  C   UNL A   1      31.402  27.336  25.879  1.00  0.00     0.231 A 
ATOM     16  N   UNL A   1      31.523  27.080  24.559  1.00  0.00    -0.212 NA
BRANCH  14  17
ATOM     17  C   UNL A   1      31.852  25.382  22.817  1.00  0.00     0.004 A 
ATOM     18  C   UNL A   1      32.560  24.181  22.623  1.00  0.00     0.030 A 
ATOM     19  C   UNL A   1      31.798  26.268  21.735  1.00  0.00     0.030 A 
ATOM     20  C   UNL A   1      33.183  23.938  21.408  1.00  0.00     0.111 A 
ATOM     21  C   UNL A   1      32.449  25.935  20.554  1.00  0.00     0.111 A 
ATOM     22  N   UNL A   1      33.139  24.789  20.368  1.00  0.00    -0.265 NA
ENDBRANCH  14  17
BRANCH  15  23
ATOM     23  N   UNL A   1      31.425  28.644  26.372  1.00  0.00    -0.323 N 
ATOM     24  H   UNL A   1      30.596  29.174  26.353  1.00  0.00     0.170 HD
BRANCH  23  25
ATOM     25  C   UNL A   1      32.601  29.232  26.897  1.00  0.00     0.055 A 
ATOM     26  C   UNL A   1      33.713  28.412  27.149  1.00  0.00     0.027 A 
ATOM     27  C   UNL A   1      32.786  30.630  26.967  1.00  0.00     0.041 A 
ATOM     28  C   UNL A   1      34.963  28.965  27.455  1.00  0.00     0.002 A 
ATOM     29  C   UNL A   1      34.035  31.180  27.288  1.00  0.00     0.018 A 
ATOM     30  Br  UNL A   1      31.360  31.852  26.649  1.00  0.00    -0.049 Br
ATOM     31  C   UNL A   1      35.124  30.346  27.526  1.00  0.00     0.001 A 
ENDBRANCH  23  25
ENDBRANCH  15  23
ENDBRANCH  10  11
ENDBRANCH   9  10
ENDBRANCH   7   9
ENDBRANCH   6   7
ENDBRANCH   5   6
ENDBRANCH   4   5
ENDBRANCH   3   4
ENDBRANCH   2   3
ENDBRANCH   1   2
BRANCH   1  32
ATOM     32  O   UNL A   1      39.425  22.104  26.538  1.00  0.00    -0.377 OA
BRANCH  32  33
ATOM     33  C   UNL A   1      40.542  21.580  27.236  1.00  0.00     0.188 C 
BRANCH  33  34
ATOM     34  C   UNL A   1      41.882  22.296  26.953  1.00  0.00     0.188 C 
BRANCH  34  35
ATOM     35  O   UNL A   1      42.516  22.237  25.687  1.00  0.00    -0.376 OA
BRANCH  35  36
ATOM     36  C   UNL A   1      43.707  22.951  25.406  1.00  0.00     0.202 C 
BRANCH  36  37
ATOM     37  C   UNL A   1      43.731  24.375  24.832  1.00  0.00     0.261 C 
BRANCH  37  38
ATOM     38  O   UNL A   1      43.703  25.452  25.766  1.00  0.00    -0.460 OA
BRANCH  38  39
ATOM     39  C   UNL A   1      42.496  26.018  25.977  1.00  0.00     0.338 C 
ATOM     40  O   UNL A   1      41.521  26.002  25.243  1.00  0.00    -0.246 OA
BRANCH  39  41
ATOM     41  C   UNL A   1      42.481  26.507  27.368  1.00  0.00     0.060 A 
ATOM     42  C   UNL A   1      41.615  25.901  28.292  1.00  0.00     0.016 A 
ATOM     43  C   UNL A   1      43.353  27.521  27.763  1.00  0.00     0.016 A 
ATOM     44  C   UNL A   1      41.611  26.315  29.619  1.00  0.00     0.010 A 
ATOM     45  C   UNL A   1      43.313  27.972  29.079  1.00  0.00     0.010 A 
ATOM     46  C   UNL A   1      42.419  27.391  29.998  1.00  0.00    -0.014 A 
BRANCH  46  47
ATOM     47  C   UNL A   1      42.139  28.108  31.256  1.00  0.00     0.031 A 
ATOM     48  C   UNL A   1      41.034  29.120  31.233  1.00  0.00     0.074 A 
ATOM     49  C   UNL A   1      42.873  27.906  32.360  1.00  0.00     0.049 A 
ATOM     50  N   UNL A   1      40.701  30.013  32.126  1.00  0.00    -0.248 NA
ATOM     51  C   UNL A   1      40.203  29.139  30.017  1.00  0.00     0.031 C 
ATOM     52  C   UNL A   1      43.934  26.914  32.501  1.00  0.00     0.029 A 
ATOM     53  N   UNL A   1      42.853  28.564  33.563  1.00  0.00    -0.354 N 
ATOM     54  C   UNL A   1      39.644  30.718  31.568  1.00  0.00     0.074 A 
ATOM     55  C   UNL A   1      39.401  30.163  30.255  1.00  0.00     0.031 C 
ATOM     56  C   UNL A   1      44.499  27.060  33.712  1.00  0.00     0.029 A 
ATOM     57  C   UNL A   1      43.869  28.184  34.404  1.00  0.00     0.049 A 
ATOM     58  H   UNL A   1      42.178  29.241  33.800  1.00  0.00     0.167 HD
ATOM     59  C   UNL A   1      38.946  31.744  32.104  1.00  0.00     0.037 A 
ATOM     60  C   UNL A   1      44.269  28.725  35.571  1.00  0.00     0.037 A 
ATOM     61  C   UNL A   1      39.214  32.293  33.405  1.00  0.00     0.049 A 
ATOM     62  C   UNL A   1      43.523  29.911  36.127  1.00  0.00     0.074 A 
ATOM     63  C   UNL A   1      38.552  33.310  34.065  1.00  0.00     0.029 A 
ATOM     64  N   UNL A   1      40.246  31.876  34.235  1.00  0.00    -0.354 N 
ATOM     65  N   UNL A   1      42.504  30.561  35.617  1.00  0.00    -0.248 NA
ATOM     66  C   UNL A   1      43.981  30.439  37.419  1.00  0.00     0.031 C 
ATOM     67  C   UNL A   1      39.228  33.558  35.263  1.00  0.00     0.029 A 
ATOM     68  C   UNL A   1      40.262  32.643  35.387  1.00  0.00     0.049 A 
ATOM     69  H   UNL A   1      40.874  31.144  34.034  1.00  0.00     0.167 HD
ATOM     70  C   UNL A   1      42.178  31.552  36.536  1.00  0.00     0.074 A 
ATOM     71  C   UNL A   1      43.110  31.415  37.637  1.00  0.00     0.031 C 
ATOM     72  C   UNL A   1      41.194  32.483  36.478  1.00  0.00     0.037 A 
BRANCH  59  73
ATOM     73  C   UNL A   1      37.881  32.369  31.251  1.00  0.00     0.064 A 
ATOM     74  C   UNL A   1      36.528  32.011  31.362  1.00  0.00     0.173 A 
ATOM     75  C   UNL A   1      38.225  33.331  30.290  1.00  0.00     0.173 A 
ATOM     76  F   UNL A   1      36.146  31.081  32.253  1.00  0.00    -0.203 F 
ATOM     77  C   UNL A   1      35.570  32.556  30.511  1.00  0.00     0.198 A 
ATOM     78  C   UNL A   1      37.259  33.903  29.467  1.00  0.00     0.198 A 
ATOM     79  F   UNL A   1      39.502  33.711  30.139  1.00  0.00    -0.203 F 
ATOM     80  F   UNL A   1      34.297  32.141  30.586  1.00  0.00    -0.200 F 
ATOM     81  C   UNL A   1      35.935  33.504  29.569  1.00  0.00     0.200 A 
ATOM     82  F   UNL A   1      37.612  34.830  28.567  1.00  0.00    -0.200 F 
ATOM     83  F   UNL A   1      35.012  34.026  28.748  1.00  0.00    -0.200 F 
ENDBRANCH  59  73
BRANCH  60  84
ATOM     84  C   UNL A   1      45.455  28.162  36.265  1.00  0.00     0.064 A 
ATOM     85  C   UNL A   1      45.321  27.152  37.228  1.00  0.00     0.173 A 
ATOM     86  C   UNL A   1      46.752  28.601  35.957  1.00  0.00     0.173 A 
ATOM     87  F   UNL A   1      44.101  26.714  37.572  1.00  0.00    -0.203 F 
ATOM     88  C   UNL A   1      46.438  26.607  37.858  1.00  0.00     0.198 A 
ATOM     89  C   UNL A   1      47.869  28.035  36.566  1.00  0.00     0.198 A 
ATOM     90  F   UNL A   1      46.935  29.563  35.041  1.00  0.00    -0.203 F 
ATOM     91  F   UNL A   1      46.280  25.662  38.795  1.00  0.00    -0.200 F 
ATOM     92  C   UNL A   1      47.711  27.040  37.520  1.00  0.00     0.200 A 
ATOM     93  F   UNL A   1      49.097  28.444  36.223  1.00  0.00    -0.200 F 
ATOM     94  F   UNL A   1      48.784  26.500  38.112  1.00  0.00    -0.200 F 
ENDBRANCH  60  84
BRANCH  72  95
ATOM     95  C   UNL A   1      41.026  33.401  37.655  1.00  0.00     0.064 A 
ATOM     96  C   UNL A   1      41.829  34.537  37.831  1.00  0.00     0.173 A 
ATOM     97  C   UNL A   1      39.985  33.184  38.571  1.00  0.00     0.173 A 
ATOM     98  F   UNL A   1      42.846  34.783  36.991  1.00  0.00    -0.203 F 
ATOM     99  C   UNL A   1      41.601  35.415  38.888  1.00  0.00     0.198 A 
ATOM    100  C   UNL A   1      39.739  34.081  39.606  1.00  0.00     0.198 A 
ATOM    101  F   UNL A   1      39.183  32.116  38.442  1.00  0.00    -0.203 F 
ATOM    102  F   UNL A   1      42.400  36.477  39.057  1.00  0.00    -0.200 F 
ATOM    103  C   UNL A   1      40.550  35.194  39.766  1.00  0.00     0.200 A 
ATOM    104  F   UNL A   1      38.711  33.875  40.440  1.00  0.00    -0.200 F 
ATOM    105  F   UNL A   1      40.318  36.054  40.768  1.00  0.00    -0.200 F 
ENDBRANCH  72  95
ENDBRANCH  46  47
ENDBRANCH  39  41
ENDBRANCH  38  39
ENDBRANCH  37  38
ENDBRANCH  36  37
ENDBRANCH  35  36
ENDBRANCH  34  35
ENDBRANCH  33  34
ENDBRANCH  32  33
ENDBRANCH   1  32
TORSDOF 25
ENDMDL
MODEL 2
REMARK VINA RESULT:      -9.0      4.424      9.532
REMARK SMILES O=C(COc1cc(-c2ccncc2)nc(Nc2ccccc2Br)n1)OCCOCCOCCOCCOC(=O)c1ccc(-c2c3nc(c(-c4c(F)c(F)c(F)c(F)c4F)c4ccc([nH]4)c(-c4c(F)c(F)c(F)c(F)c4F)c4nc(c(-c5c(F)c(F)c(F)c(F)c5F)c5ccc2[nH]5)C=C4)C=C3)cc1
REMARK SMILES IDX 30 1 29 2 28 3 27 4 26 5 25 6 2 7 1 8 3 9 4 10 5 11 6 12
REMARK SMILES IDX 24 13 7 14 15 15 14 16 8 17 9 18 13 19 10 20 12 21 11 22
REMARK SMILES IDX 16 23 17 25 18 26 22 27 19 28 21 29 23 30 20 31 31 32 32 33
REMARK SMILES IDX 33 34 34 35 35 36 36 37 37 38 38 39 39 40 40 41 41 42 102 43
REMARK SMILES IDX 42 44 101 45 43 46 44 47 45 48 95 49 46 50 100 51 94 52
REMARK SMILES IDX 96 53 47 54 99 55 93 56 92 57 48 59 80 60 60 61 79 62 61 63
REMARK SMILES IDX 64 64 78 65 97 66 62 67 63 68 77 70 98 71 65 72 49 73 50 74
REMARK SMILES IDX 58 75 51 76 52 77 56 78 59 79 53 80 54 81 57 82 55 83 81 84
REMARK SMILES IDX 82 85 90 86 83 87 84 88 88 89 91 90 85 91 86 92 89 93 87 94
REMARK SMILES IDX 66 95 67 96 75 97 68 98 69 99 73 100 76 101 70 102 71 103
REMARK SMILES IDX 74 104 72 105
REMARK H PARENT 16 24 96 58 64 69
REMARK Flexibility Score: inf
ROOT
ATOM      1  C   UNL A   1      32.663  29.224  27.201  1.00  0.00     0.188 C 
ENDROOT
BRANCH   1   2
ATOM      2  C   UNL A   1      32.095  27.948  26.561  1.00  0.00     0.188 C 
BRANCH   2   3
ATOM      3  O   UNL A   1      31.896  27.994  25.158  1.00  0.00    -0.376 OA
BRANCH   3   4
ATOM      4  C   UNL A   1      30.872  27.350  24.430  1.00  0.00     0.202 C 
BRANCH   4   5
ATOM      5  C   UNL A   1      30.436  25.922  24.759  1.00  0.00     0.261 C 
BRANCH   5   6
ATOM      6  O   UNL A   1      31.466  24.921  24.852  1.00  0.00    -0.461 OA
BRANCH   6   7
ATOM      7  C   UNL A   1      31.840  24.260  25.973  1.00  0.00     0.344 C 
ATOM      8  O   UNL A   1      32.550  24.823  26.801  1.00  0.00    -0.248 OA
BRANCH   7   9
ATOM      9  C   UNL A   1      31.371  22.824  26.150  1.00  0.00     0.353 C 
BRANCH   9  10
ATOM     10  O   UNL A   1      32.392  21.993  26.711  1.00  0.00    -0.466 OA
BRANCH  10  11
ATOM     11  C   UNL A   1      33.035  21.417  25.654  1.00  0.00     0.219 A 
ATOM     12  C   UNL A   1      32.744  20.130  25.319  1.00  0.00     0.097 A 
ATOM     13  N   UNL A   1      34.113  22.073  25.276  1.00  0.00    -0.177 NA
ATOM     14  C   UNL A   1      33.792  19.439  24.763  1.00  0.00     0.080 A 
ATOM     15  C   UNL A   1      35.021  21.393  24.582  1.00  0.00     0.231 A 
ATOM     16  N   UNL A   1      34.926  20.067  24.346  1.00  0.00    -0.212 NA
BRANCH  14  17
ATOM     17  C   UNL A   1      33.776  17.963  24.873  1.00  0.00     0.004 A 
ATOM     18  C   UNL A   1      32.663  17.281  25.400  1.00  0.00     0.030 A 
ATOM     19  C   UNL A   1      34.934  17.211  24.654  1.00  0.00     0.030 A 
ATOM     20  C   UNL A   1      32.761  15.930  25.698  1.00  0.00     0.111 A 
ATOM     21  C   UNL A   1      34.936  15.860  24.978  1.00  0.00     0.111 A 
ATOM     22  N   UNL A   1      33.875  15.204  25.494  1.00  0.00    -0.265 NA
ENDBRANCH  14  17
BRANCH  15  23
ATOM     23  N   UNL A   1      36.094  22.144  24.092  1.00  0.00    -0.323 N 
ATOM     24  H   UNL A   1      36.084  22.428  23.150  1.00  0.00     0.170 HD
BRANCH  23  25
ATOM     25  C   UNL A   1      37.193  22.509  24.906  1.00  0.00     0.055 A 
ATOM     26  C   UNL A   1      37.243  23.811  25.432  1.00  0.00     0.027 A 
ATOM     27  C   UNL A   1      38.122  21.566  25.398  1.00  0.00     0.041 A 
ATOM     28  C   UNL A   1      38.180  24.158  26.413  1.00  0.00     0.002 A 
ATOM     29  C   UNL A   1      39.068  21.920  26.369  1.00  0.00     0.018 A 
ATOM     30  Br  UNL A   1      38.161  19.769  24.768  1.00  0.00    -0.049 Br
ATOM     31  C   UNL A   1      39.092  23.215  26.880  1.00  0.00     0.001 A 
ENDBRANCH  23  25
ENDBRANCH  15  23
ENDBRANCH  10  11
ENDBRANCH   9  10
ENDBRANCH   7   9
ENDBRANCH   6   7
ENDBRANCH   5   6
ENDBRANCH   4   5
ENDBRANCH   3   4
ENDBRANCH   2   3
ENDBRANCH   1   2
BRANCH   1  32
ATOM     32  O   UNL A   1      31.740  30.300  27.339  1.00  0.00    -0.377 OA
BRANCH  32  33
ATOM     33  C   UNL A   1      32.072  31.460  26.596  1.00  0.00     0.188 C 
BRANCH  33  34
ATOM     34  C   UNL A   1      32.964  32.479  27.341  1.00  0.00     0.188 C 
BRANCH  34  35
ATOM     35  O   UNL A   1      34.371  32.331  27.423  1.00  0.00    -0.376 OA
BRANCH  35  36
ATOM     36  C   UNL A   1      35.204  33.334  27.978  1.00  0.00     0.202 C 
BRANCH  36  37
ATOM     37  C   UNL A   1      34.941  34.006  29.334  1.00  0.00     0.261 C 
BRANCH  37  38
ATOM     38  O   UNL A   1      35.794  33.641  30.416  1.00  0.00    -0.460 OA
BRANCH  38  39
ATOM     39  C   UNL A   1      35.461  32.511  31.073  1.00  0.00     0.338 C 
ATOM     40  O   UNL A   1      34.358  32.165  31.460  1.00  0.00    -0.246 OA
BRANCH  39  41
ATOM     41  C   UNL A   1      36.653  31.642  31.075  1.00  0.00     0.060 A 
ATOM     42  C   UNL A   1      36.649  30.485  31.871  1.00  0.00     0.016 A 
ATOM     43  C   UNL A   1      37.742  31.945  30.258  1.00  0.00     0.016 A 
ATOM     44  C   UNL A   1      37.743  29.627  31.859  1.00  0.00     0.010 A 
ATOM     45  C   UNL A   1      38.859  31.115  30.286  1.00  0.00     0.010 A 
ATOM     46  C   UNL A   1      38.872  29.975  31.111  1.00  0.00    -0.014 A 
BRANCH  46  47
ATOM     47  C   UNL A   1      40.166  29.328  31.397  1.00  0.00     0.031 A 
ATOM     48  C   UNL A   1      40.993  29.914  32.501  1.00  0.00     0.074 A 
ATOM     49  C   UNL A   1      40.612  28.294  30.668  1.00  0.00     0.049 A 
ATOM     50  N   UNL A   1      42.231  29.668  32.837  1.00  0.00    -0.248 NA
ATOM     51  C   UNL A   1      40.331  30.939  33.326  1.00  0.00     0.031 C 
ATOM     52  C   UNL A   1      39.868  27.622  29.608  1.00  0.00     0.029 A 
ATOM     53  N   UNL A   1      41.828  27.659  30.693  1.00  0.00    -0.354 N 
ATOM     54  C   UNL A   1      42.504  30.529  33.891  1.00  0.00     0.074 A 
ATOM     55  C   UNL A   1      41.313  31.314  34.128  1.00  0.00     0.031 C 
ATOM     56  C   UNL A   1      40.663  26.693  29.049  1.00  0.00     0.029 A 
ATOM     57  C   UNL A   1      41.981  26.745  29.682  1.00  0.00     0.049 A 
ATOM     58  H   UNL A   1      42.521  27.841  31.369  1.00  0.00     0.167 HD
ATOM     59  C   UNL A   1      43.654  30.656  34.591  1.00  0.00     0.037 A 
ATOM     60  C   UNL A   1      43.079  26.073  29.287  1.00  0.00     0.037 A 
ATOM     61  C   UNL A   1      44.833  29.877  34.329  1.00  0.00     0.049 A 
ATOM     62  C   UNL A   1      44.373  26.272  30.035  1.00  0.00     0.074 A 
ATOM     63  C   UNL A   1      46.044  29.896  34.993  1.00  0.00     0.029 A 
ATOM     64  N   UNL A   1      44.950  28.951  33.301  1.00  0.00    -0.354 N 
ATOM     65  N   UNL A   1      44.628  27.062  31.051  1.00  0.00    -0.248 NA
ATOM     66  C   UNL A   1      45.530  25.488  29.583  1.00  0.00     0.031 C 
ATOM     67  C   UNL A   1      46.918  29.035  34.323  1.00  0.00     0.029 A 
ATOM     68  C   UNL A   1      46.227  28.419  33.290  1.00  0.00     0.049 A 
ATOM     69  H   UNL A   1      44.231  28.709  32.673  1.00  0.00     0.167 HD
ATOM     70  C   UNL A   1      45.961  26.849  31.380  1.00  0.00     0.074 A 
ATOM     71  C   UNL A   1      46.462  25.854  30.454  1.00  0.00     0.031 C 
ATOM     72  C   UNL A   1      46.702  27.419  32.364  1.00  0.00     0.037 A 
BRANCH  59  73
ATOM     73  C   UNL A   1      43.698  31.717  35.652  1.00  0.00     0.064 A 
ATOM     74  C   UNL A   1      44.220  32.996  35.407  1.00  0.00     0.173 A 
ATOM     75  C   UNL A   1      43.229  31.439  36.944  1.00  0.00     0.173 A 
ATOM     76  F   UNL A   1      44.700  33.310  34.193  1.00  0.00    -0.203 F 
ATOM     77  C   UNL A   1      44.314  33.940  36.427  1.00  0.00     0.198 A 
ATOM     78  C   UNL A   1      43.288  32.397  37.952  1.00  0.00     0.198 A 
ATOM     79  F   UNL A   1      42.721  30.232  37.235  1.00  0.00    -0.203 F 
ATOM     80  F   UNL A   1      44.886  35.129  36.187  1.00  0.00    -0.200 F 
ATOM     81  C   UNL A   1      43.843  33.642  37.696  1.00  0.00     0.200 A 
ATOM     82  F   UNL A   1      42.820  32.111  39.174  1.00  0.00    -0.200 F 
ATOM     83  F   UNL A   1      43.937  34.549  38.678  1.00  0.00    -0.200 F 
ENDBRANCH  59  73
BRANCH  60  84
ATOM     84  C   UNL A   1      42.999  25.177  28.105  1.00  0.00     0.064 A 
ATOM     85  C   UNL A   1      42.726  23.810  28.247  1.00  0.00     0.173 A 
ATOM     86  C   UNL A   1      43.163  25.678  26.804  1.00  0.00     0.173 A 
ATOM     87  F   UNL A   1      42.583  23.280  29.471  1.00  0.00    -0.203 F 
ATOM     88  C   UNL A   1      42.625  22.977  27.134  1.00  0.00     0.198 A 
ATOM     89  C   UNL A   1      43.032  24.851  25.691  1.00  0.00     0.198 A 
ATOM     90  F   UNL A   1      43.422  26.980  26.613  1.00  0.00    -0.203 F 
ATOM     91  F   UNL A   1      42.391  21.668  27.299  1.00  0.00    -0.200 F 
ATOM     92  C   UNL A   1      42.767  23.500  25.857  1.00  0.00     0.200 A 
ATOM     93  F   UNL A   1      43.152  25.363  24.459  1.00  0.00    -0.200 F 
ATOM     94  F   UNL A   1      42.648  22.702  24.787  1.00  0.00    -0.200 F 
ENDBRANCH  60  84
BRANCH  72  95
ATOM     95  C   UNL A   1      48.118  26.950  32.536  1.00  0.00     0.064 A 
ATOM     96  C   UNL A   1      48.432  25.771  33.226  1.00  0.00     0.173 A 
ATOM     97  C   UNL A   1      49.169  27.651  31.922  1.00  0.00     0.173 A 
ATOM     98  F   UNL A   1      47.467  25.071  33.841  1.00  0.00    -0.203 F 
ATOM     99  C   UNL A   1      49.747  25.317  33.304  1.00  0.00     0.198 A 
ATOM    100  C   UNL A   1      50.476  27.178  31.974  1.00  0.00     0.198 A 
ATOM    101  F   UNL A   1      48.921  28.782  31.244  1.00  0.00    -0.203 F 
ATOM    102  F   UNL A   1      50.029  24.205  33.995  1.00  0.00    -0.200 F 
ATOM    103  C   UNL A   1      50.764  26.012  32.667  1.00  0.00     0.200 A 
ATOM    104  F   UNL A   1      51.453  27.842  31.341  1.00  0.00    -0.200 F 
ATOM    105  F   UNL A   1      52.026  25.561  32.724  1.00  0.00    -0.200 F 
ENDBRANCH  72  95
ENDBRANCH  46  47
ENDBRANCH  39  41
ENDBRANCH  38  39
ENDBRANCH  37  38
ENDBRANCH  36  37
ENDBRANCH  35  36
ENDBRANCH  34  35
ENDBRANCH  33  34
ENDBRANCH  32  33
ENDBRANCH   1  32
TORSDOF 25
ENDMDL
MODEL 3
REMARK VINA RESULT:      -8.7      4.060      8.359
REMARK SMILES O=C(COc1cc(-c2ccncc2)nc(Nc2ccccc2Br)n1)OCCOCCOCCOCCOC(=O)c1ccc(-c2c3nc(c(-c4c(F)c(F)c(F)c(F)c4F)c4ccc([nH]4)c(-c4c(F)c(F)c(F)c(F)c4F)c4nc(c(-c5c(F)c(F)c(F)c(F)c5F)c5ccc2[nH]5)C=C4)C=C3)cc1
REMARK SMILES IDX 30 1 29 2 28 3 27 4 26 5 25 6 2 7 1 8 3 9 4 10 5 11 6 12
REMARK SMILES IDX 24 13 7 14 15 15 14 16 8 17 9 18 13 19 10 20 12 21 11 22
REMARK SMILES IDX 16 23 17 25 18 26 22 27 19 28 21 29 23 30 20 31 31 32 32 33
REMARK SMILES IDX 33 34 34 35 35 36 36 37 37 38 38 39 39 40 40 41 41 42 102 43
REMARK SMILES IDX 42 44 101 45 43 46 44 47 45 48 95 49 46 50 100 51 94 52
REMARK SMILES IDX 96 53 47 54 99 55 93 56 92 57 48 59 80 60 60 61 79 62 61 63
REMARK SMILES IDX 64 64 78 65 97 66 62 67 63 68 77 70 98 71 65 72 49 73 50 74
REMARK SMILES IDX 58 75 51 76 52 77 56 78 59 79 53 80 54 81 57 82 55 83 81 84
REMARK SMILES IDX 82 85 90 86 83 87 84 88 88 89 91 90 85 91 86 92 89 93 87 94
REMARK SMILES IDX 66 95 67 96 75 97 68 98 69 99 73 100 76 101 70 102 71 103
REMARK SMILES IDX 74 104 72 105
REMARK H PARENT 16 24 96 58 64 69
REMARK Flexibility Score: inf
ROOT
ATOM      1  C   UNL A   1      33.176  29.842  26.979  1.00  0.00     0.188 C 
ENDROOT
BRANCH   1   2
ATOM      2  C   UNL A   1      31.805  29.200  26.718  1.00  0.00     0.188 C 
BRANCH   2   3
ATOM      3  O   UNL A   1      31.618  27.899  27.251  1.00  0.00    -0.376 OA
BRANCH   3   4
ATOM      4  C   UNL A   1      31.795  26.675  26.570  1.00  0.00     0.202 C 
BRANCH   4   5
ATOM      5  C   UNL A   1      30.608  25.910  25.983  1.00  0.00     0.261 C 
BRANCH   5   6
ATOM      6  O   UNL A   1      29.972  24.930  26.824  1.00  0.00    -0.461 OA
BRANCH   6   7
ATOM      7  C   UNL A   1      30.235  23.603  26.844  1.00  0.00     0.344 C 
ATOM      8  O   UNL A   1      29.558  22.861  27.551  1.00  0.00    -0.248 OA
BRANCH   7   9
ATOM      9  C   UNL A   1      31.384  23.084  25.992  1.00  0.00     0.353 C 
BRANCH   9  10
ATOM     10  O   UNL A   1      32.641  23.190  26.668  1.00  0.00    -0.466 OA
BRANCH  10  11
ATOM     11  C   UNL A   1      33.594  23.198  25.692  1.00  0.00     0.219 A 
ATOM     12  C   UNL A   1      34.790  22.589  25.923  1.00  0.00     0.097 A 
ATOM     13  N   UNL A   1      33.370  24.088  24.747  1.00  0.00    -0.177 NA
ATOM     14  C   UNL A   1      35.853  23.159  25.268  1.00  0.00     0.080 A 
ATOM     15  C   UNL A   1      34.414  24.475  24.020  1.00  0.00     0.231 A 
ATOM     16  N   UNL A   1      35.677  24.076  24.277  1.00  0.00    -0.212 NA
BRANCH  14  17
ATOM     17  C   UNL A   1      37.201  22.958  25.844  1.00  0.00     0.004 A 
ATOM     18  C   UNL A   1      37.918  24.024  26.417  1.00  0.00     0.030 A 
ATOM     19  C   UNL A   1      37.894  21.757  25.656  1.00  0.00     0.030 A 
ATOM     20  C   UNL A   1      39.257  23.857  26.743  1.00  0.00     0.111 A 
ATOM     21  C   UNL A   1      39.232  21.682  26.018  1.00  0.00     0.111 A 
ATOM     22  N   UNL A   1      39.928  22.706  26.558  1.00  0.00    -0.265 NA
ENDBRANCH  14  17
BRANCH  15  23
ATOM     23  N   UNL A   1      34.123  25.326  22.950  1.00  0.00    -0.323 N 
ATOM     24  H   UNL A   1      34.459  25.095  22.054  1.00  0.00     0.170 HD
BRANCH  23  25
ATOM     25  C   UNL A   1      33.362  26.509  23.111  1.00  0.00     0.055 A 
ATOM     26  C   UNL A   1      34.034  27.718  23.352  1.00  0.00     0.027 A 
ATOM     27  C   UNL A   1      31.982  26.571  22.817  1.00  0.00     0.041 A 
ATOM     28  C   UNL A   1      33.357  28.944  23.300  1.00  0.00     0.002 A 
ATOM     29  C   UNL A   1      31.304  27.798  22.779  1.00  0.00     0.018 A 
ATOM     30  Br  UNL A   1      30.955  25.005  22.472  1.00  0.00    -0.049 Br
ATOM     31  C   UNL A   1      31.995  28.984  23.015  1.00  0.00     0.001 A 
ENDBRANCH  23  25
ENDBRANCH  15  23
ENDBRANCH  10  11
ENDBRANCH   9  10
ENDBRANCH   7   9
ENDBRANCH   6   7
ENDBRANCH   5   6
ENDBRANCH   4   5
ENDBRANCH   3   4
ENDBRANCH   2   3
ENDBRANCH   1   2
BRANCH   1  32
ATOM     32  O   UNL A   1      33.146  31.216  27.353  1.00  0.00    -0.377 OA
BRANCH  32  33
ATOM     33  C   UNL A   1      34.418  31.784  27.613  1.00  0.00     0.188 C 
BRANCH  33  34
ATOM     34  C   UNL A   1      34.413  32.970  28.603  1.00  0.00     0.188 C 
BRANCH  34  35
ATOM     35  O   UNL A   1      34.210  32.790  29.994  1.00  0.00    -0.376 OA
BRANCH  35  36
ATOM     36  C   UNL A   1      35.123  32.069  30.803  1.00  0.00     0.202 C 
BRANCH  36  37
ATOM     37  C   UNL A   1      36.423  32.667  31.361  1.00  0.00     0.261 C 
BRANCH  37  38
ATOM     38  O   UNL A   1      36.472  34.084  31.518  1.00  0.00    -0.460 OA
BRANCH  38  39
ATOM     39  C   UNL A   1      36.543  34.533  32.789  1.00  0.00     0.338 C 
ATOM     40  O   UNL A   1      35.833  35.362  33.332  1.00  0.00    -0.246 OA
BRANCH  39  41
ATOM     41  C   UNL A   1      37.525  33.690  33.494  1.00  0.00     0.060 A 
ATOM     42  C   UNL A   1      37.067  32.759  34.441  1.00  0.00     0.016 A 
ATOM     43  C   UNL A   1      38.882  33.785  33.184  1.00  0.00     0.016 A 
ATOM     44  C   UNL A   1      37.969  31.923  35.090  1.00  0.00     0.010 A 
ATOM     45  C   UNL A   1      39.791  32.986  33.870  1.00  0.00     0.010 A 
ATOM     46  C   UNL A   1      39.337  32.079  34.847  1.00  0.00    -0.014 A 
BRANCH  46  47
ATOM     47  C   UNL A   1      40.317  31.519  35.796  1.00  0.00     0.031 A 
ATOM     48  C   UNL A   1      40.692  32.371  36.970  1.00  0.00     0.074 A 
ATOM     49  C   UNL A   1      40.890  30.324  35.594  1.00  0.00     0.049 A 
ATOM     50  N   UNL A   1      41.649  32.212  37.845  1.00  0.00    -0.248 NA
ATOM     51  C   UNL A   1      39.883  33.586  37.169  1.00  0.00     0.031 C 
ATOM     52  C   UNL A   1      40.561  29.400  34.513  1.00  0.00     0.029 A 
ATOM     53  N   UNL A   1      41.905  29.707  36.280  1.00  0.00    -0.354 N 
ATOM     54  C   UNL A   1      41.576  33.321  38.677  1.00  0.00     0.074 A 
ATOM     55  C   UNL A   1      40.495  34.152  38.196  1.00  0.00     0.031 C 
ATOM     56  C   UNL A   1      41.395  28.347  34.580  1.00  0.00     0.029 A 
ATOM     57  C   UNL A   1      42.341  28.554  35.677  1.00  0.00     0.049 A 
ATOM     58  H   UNL A   1      42.283  30.056  37.119  1.00  0.00     0.167 HD
ATOM     59  C   UNL A   1      42.351  33.619  39.744  1.00  0.00     0.037 A 
ATOM     60  C   UNL A   1      43.415  27.790  35.955  1.00  0.00     0.037 A 
ATOM     61  C   UNL A   1      43.431  32.787  40.198  1.00  0.00     0.049 A 
ATOM     62  C   UNL A   1      44.310  28.169  37.107  1.00  0.00     0.074 A 
ATOM     63  C   UNL A   1      44.264  32.971  41.285  1.00  0.00     0.029 A 
ATOM     64  N   UNL A   1      43.840  31.619  39.569  1.00  0.00    -0.354 N 
ATOM     65  N   UNL A   1      44.227  29.199  37.915  1.00  0.00    -0.248 NA
ATOM     66  C   UNL A   1      45.447  27.282  37.386  1.00  0.00     0.031 C 
ATOM     67  C   UNL A   1      45.222  31.953  41.272  1.00  0.00     0.029 A 
ATOM     68  C   UNL A   1      44.938  31.090  40.225  1.00  0.00     0.049 A 
ATOM     69  H   UNL A   1      43.412  31.225  38.774  1.00  0.00     0.167 HD
ATOM     70  C   UNL A   1      45.278  29.069  38.816  1.00  0.00     0.074 A 
ATOM     71  C   UNL A   1      45.984  27.858  38.454  1.00  0.00     0.031 C 
ATOM     72  C   UNL A   1      45.621  29.874  39.852  1.00  0.00     0.037 A 
BRANCH  59  73
ATOM     73  C   UNL A   1      42.092  34.925  40.437  1.00  0.00     0.064 A 
ATOM     74  C   UNL A   1      41.196  35.035  41.512  1.00  0.00     0.173 A 
ATOM     75  C   UNL A   1      42.737  36.092  40.002  1.00  0.00     0.173 A 
ATOM     76  F   UNL A   1      40.537  33.954  41.958  1.00  0.00    -0.203 F 
ATOM     77  C   UNL A   1      40.922  36.271  42.093  1.00  0.00     0.198 A 
ATOM     78  C   UNL A   1      42.490  37.319  40.609  1.00  0.00     0.198 A 
ATOM     79  F   UNL A   1      43.602  36.045  38.978  1.00  0.00    -0.203 F 
ATOM     80  F   UNL A   1      40.006  36.363  43.068  1.00  0.00    -0.200 F 
ATOM     81  C   UNL A   1      41.573  37.410  41.645  1.00  0.00     0.200 A 
ATOM     82  F   UNL A   1      43.130  38.416  40.184  1.00  0.00    -0.200 F 
ATOM     83  F   UNL A   1      41.306  38.600  42.202  1.00  0.00    -0.200 F 
ENDBRANCH  59  73
BRANCH  60  84
ATOM     84  C   UNL A   1      43.711  26.611  35.101  1.00  0.00     0.064 A 
ATOM     85  C   UNL A   1      43.133  25.362  35.362  1.00  0.00     0.173 A 
ATOM     86  C   UNL A   1      44.555  26.719  33.985  1.00  0.00     0.173 A 
ATOM     87  F   UNL A   1      42.336  25.203  36.429  1.00  0.00    -0.203 F 
ATOM     88  C   UNL A   1      43.391  24.264  34.543  1.00  0.00     0.198 A 
ATOM     89  C   UNL A   1      44.789  25.629  33.150  1.00  0.00     0.198 A 
ATOM     90  F   UNL A   1      45.131  27.893  33.689  1.00  0.00    -0.203 F 
ATOM     91  F   UNL A   1      42.847  23.074  34.831  1.00  0.00    -0.200 F 
ATOM     92  C   UNL A   1      44.210  24.401  33.432  1.00  0.00     0.200 A 
ATOM     93  F   UNL A   1      45.565  25.770  32.068  1.00  0.00    -0.200 F 
ATOM     94  F   UNL A   1      44.440  23.350  32.633  1.00  0.00    -0.200 F 
ENDBRANCH  60  84
BRANCH  72  95
ATOM     95  C   UNL A   1      46.779  29.455  40.712  1.00  0.00     0.064 A 
ATOM     96  C   UNL A   1      46.612  28.627  41.832  1.00  0.00     0.173 A 
ATOM     97  C   UNL A   1      48.087  29.818  40.354  1.00  0.00     0.173 A 
ATOM     98  F   UNL A   1      45.382  28.262  42.225  1.00  0.00    -0.203 F 
ATOM     99  C   UNL A   1      47.712  28.189  42.566  1.00  0.00     0.198 A 
ATOM    100  C   UNL A   1      49.185  29.351  41.069  1.00  0.00     0.198 A 
ATOM    101  F   UNL A   1      48.302  30.602  39.286  1.00  0.00    -0.203 F 
ATOM    102  F   UNL A   1      47.528  27.425  43.652  1.00  0.00    -0.200 F 
ATOM    103  C   UNL A   1      48.996  28.539  42.177  1.00  0.00     0.200 A 
ATOM    104  F   UNL A   1      50.425  29.676  40.679  1.00  0.00    -0.200 F 
ATOM    105  F   UNL A   1      50.054  28.096  42.871  1.00  0.00    -0.200 F 
ENDBRANCH  72  95
ENDBRANCH  46  47
ENDBRANCH  39  41
ENDBRANCH  38  39
ENDBRANCH  37  38
ENDBRANCH  36  37
ENDBRANCH  35  36
ENDBRANCH  34  35
ENDBRANCH  33  34
ENDBRANCH  32  33
ENDBRANCH   1  32
TORSDOF 25
ENDMDL
