MODEL 1
REMARK VINA RESULT:     -10.5      0.000      0.000
REMARK SMILES CC(C)Nc1cc2ccccc2cc1C(=O)OCCOCCOCCOCCOC(=O)c1ccc(-c2c3nc(c(-c4c(F)c(F)c(F)c(F)c4F)c4ccc([nH]4)c(-c4c(F)c(F)c(F)c(F)c4F)c4nc(c(-c5c(F)c(F)c(F)c(F)c5F)c5ccc2[nH]5)C=C4)C=C3)cc1
REMARK SMILES IDX 23 1 22 2 21 3 20 4 19 5 18 6 17 7 15 8 16 9 14 10 5 11 6 12
REMARK SMILES IDX 7 13 13 14 8 15 12 16 9 17 11 18 10 19 4 20 2 22 1 23 3 24
REMARK SMILES IDX 24 25 25 26 26 27 27 28 28 29 29 30 30 31 31 32 32 33 33 34
REMARK SMILES IDX 94 35 34 36 93 37 35 38 36 39 37 40 87 41 38 42 92 43 86 44
REMARK SMILES IDX 88 45 39 46 91 47 85 48 84 49 40 51 72 52 52 53 71 54 53 55
REMARK SMILES IDX 56 56 70 57 89 58 54 59 55 60 69 62 90 63 57 64 41 65 42 66
REMARK SMILES IDX 50 67 43 68 44 69 48 70 51 71 45 72 46 73 49 74 47 75 73 76
REMARK SMILES IDX 74 77 82 78 75 79 76 80 80 81 83 82 77 83 78 84 81 85 79 86
REMARK SMILES IDX 58 87 59 88 67 89 60 90 61 91 65 92 68 93 62 94 63 95 66 96
REMARK SMILES IDX 64 97
REMARK H PARENT 4 21 88 50 56 61
REMARK Flexibility Score: inf
ROOT
ATOM      1  O   UNL A   1      34.391  34.637  29.234  1.00  0.00    -0.377 OA
ENDROOT
BRANCH   1   2
ATOM      2  C   UNL A   1      34.343  33.861  28.043  1.00  0.00     0.188 C 
BRANCH   2   3
ATOM      3  C   UNL A   1      35.249  32.619  28.025  1.00  0.00     0.188 C 
BRANCH   3   4
ATOM      4  O   UNL A   1      34.530  31.413  28.299  1.00  0.00    -0.376 OA
BRANCH   4   5
ATOM      5  C   UNL A   1      34.829  30.308  27.450  1.00  0.00     0.202 C 
BRANCH   5   6
ATOM      6  C   UNL A   1      33.605  29.436  27.179  1.00  0.00     0.261 C 
BRANCH   6   7
ATOM      7  O   UNL A   1      33.182  29.528  25.813  1.00  0.00    -0.460 OA
BRANCH   7   8
ATOM      8  C   UNL A   1      33.016  28.389  25.115  1.00  0.00     0.340 C 
ATOM      9  O   UNL A   1      33.760  27.421  25.150  1.00  0.00    -0.246 OA
BRANCH   8  10
ATOM     10  C   UNL A   1      31.676  28.392  24.474  1.00  0.00     0.083 A 
ATOM     11  C   UNL A   1      31.025  27.292  23.879  1.00  0.00     0.050 A 
ATOM     12  C   UNL A   1      29.743  27.546  23.330  1.00  0.00     0.035 A 
ATOM     13  C   UNL A   1      29.137  28.815  23.309  1.00  0.00    -0.016 A 
ATOM     14  C   UNL A   1      31.089  29.680  24.432  1.00  0.00     0.026 A 
ATOM     15  C   UNL A   1      27.853  29.014  22.771  1.00  0.00     0.009 A 
ATOM     16  C   UNL A   1      29.837  29.908  23.844  1.00  0.00    -0.017 A 
ATOM     17  C   UNL A   1      27.282  30.286  22.740  1.00  0.00     0.001 A 
ATOM     18  C   UNL A   1      29.261  31.190  23.782  1.00  0.00     0.009 A 
ATOM     19  C   UNL A   1      27.992  31.377  23.232  1.00  0.00     0.001 A 
BRANCH  11  20
ATOM     20  N   UNL A   1      31.428  25.970  23.795  1.00  0.00    -0.382 N 
ATOM     21  H   UNL A   1      31.665  25.559  24.658  1.00  0.00     0.160 HD
BRANCH  20  22
ATOM     22  C   UNL A   1      31.560  25.091  22.648  1.00  0.00     0.073 C 
ATOM     23  C   UNL A   1      32.868  25.430  21.934  1.00  0.00     0.030 C 
ATOM     24  C   UNL A   1      31.596  23.639  23.130  1.00  0.00     0.030 C 
ENDBRANCH  20  22
ENDBRANCH  11  20
ENDBRANCH   8  10
ENDBRANCH   7   8
ENDBRANCH   6   7
ENDBRANCH   5   6
ENDBRANCH   4   5
ENDBRANCH   3   4
ENDBRANCH   2   3
ENDBRANCH   1   2
BRANCH   1  25
ATOM     25  C   UNL A   1      33.222  35.391  29.508  1.00  0.00     0.188 C 
BRANCH  25  26
ATOM     26  C   UNL A   1      32.988  35.704  31.001  1.00  0.00     0.188 C 
BRANCH  26  27
ATOM     27  O   UNL A   1      33.964  35.478  32.015  1.00  0.00    -0.376 OA
BRANCH  27  28
ATOM     28  C   UNL A   1      33.908  34.332  32.844  1.00  0.00     0.202 C 
BRANCH  28  29
ATOM     29  C   UNL A   1      34.459  33.018  32.271  1.00  0.00     0.261 C 
BRANCH  29  30
ATOM     30  O   UNL A   1      35.447  32.360  33.072  1.00  0.00    -0.460 OA
BRANCH  30  31
ATOM     31  C   UNL A   1      36.671  32.937  33.071  1.00  0.00     0.338 C 
ATOM     32  O   UNL A   1      37.039  33.911  33.702  1.00  0.00    -0.246 OA
BRANCH  31  33
ATOM     33  C   UNL A   1      37.576  32.118  32.240  1.00  0.00     0.060 A 
ATOM     34  C   UNL A   1      38.526  31.315  32.882  1.00  0.00     0.016 A 
ATOM     35  C   UNL A   1      37.519  32.172  30.844  1.00  0.00     0.016 A 
ATOM     36  C   UNL A   1      39.440  30.578  32.131  1.00  0.00     0.010 A 
ATOM     37  C   UNL A   1      38.454  31.459  30.091  1.00  0.00     0.010 A 
ATOM     38  C   UNL A   1      39.438  30.687  30.734  1.00  0.00    -0.014 A 
BRANCH  38  39
ATOM     39  C   UNL A   1      40.595  30.172  29.967  1.00  0.00     0.031 A 
ATOM     40  C   UNL A   1      41.726  31.118  29.676  1.00  0.00     0.074 A 
ATOM     41  C   UNL A   1      40.649  28.894  29.556  1.00  0.00     0.049 A 
ATOM     42  N   UNL A   1      42.828  30.915  29.000  1.00  0.00    -0.248 NA
ATOM     43  C   UNL A   1      41.596  32.480  30.223  1.00  0.00     0.031 C 
ATOM     44  C   UNL A   1      39.631  27.878  29.811  1.00  0.00     0.029 A 
ATOM     45  N   UNL A   1      41.607  28.238  28.824  1.00  0.00    -0.354 N 
ATOM     46  C   UNL A   1      43.518  32.119  29.043  1.00  0.00     0.074 A 
ATOM     47  C   UNL A   1      42.705  33.056  29.787  1.00  0.00     0.031 C 
ATOM     48  C   UNL A   1      40.010  26.727  29.227  1.00  0.00     0.029 A 
ATOM     49  C   UNL A   1      41.283  26.935  28.538  1.00  0.00     0.049 A 
ATOM     50  H   UNL A   1      42.446  28.662  28.530  1.00  0.00     0.167 HD
ATOM     51  C   UNL A   1      44.728  32.415  28.513  1.00  0.00     0.037 A 
ATOM     52  C   UNL A   1      41.938  26.026  27.788  1.00  0.00     0.037 A 
ATOM     53  C   UNL A   1      45.532  31.487  27.768  1.00  0.00     0.049 A 
ATOM     54  C   UNL A   1      43.252  26.403  27.151  1.00  0.00     0.074 A 
ATOM     55  C   UNL A   1      46.777  31.686  27.199  1.00  0.00     0.029 A 
ATOM     56  N   UNL A   1      45.162  30.181  27.482  1.00  0.00    -0.354 N 
ATOM     57  N   UNL A   1      43.914  27.532  27.223  1.00  0.00    -0.248 NA
ATOM     58  C   UNL A   1      43.911  25.375  26.331  1.00  0.00     0.031 C 
ATOM     59  C   UNL A   1      47.142  30.513  26.530  1.00  0.00     0.029 A 
ATOM     60  C   UNL A   1      46.145  29.569  26.723  1.00  0.00     0.049 A 
ATOM     61  H   UNL A   1      44.324  29.754  27.774  1.00  0.00     0.167 HD
ATOM     62  C   UNL A   1      45.077  27.342  26.486  1.00  0.00     0.074 A 
ATOM     63  C   UNL A   1      45.035  25.985  25.982  1.00  0.00     0.031 C 
ATOM     64  C   UNL A   1      46.089  28.211  26.247  1.00  0.00     0.037 A 
BRANCH  51  65
ATOM     65  C   UNL A   1      45.242  33.810  28.702  1.00  0.00     0.064 A 
ATOM     66  C   UNL A   1      44.939  34.834  27.792  1.00  0.00     0.173 A 
ATOM     67  C   UNL A   1      46.018  34.134  29.825  1.00  0.00     0.173 A 
ATOM     68  F   UNL A   1      44.215  34.568  26.695  1.00  0.00    -0.203 F 
ATOM     69  C   UNL A   1      45.409  36.129  27.992  1.00  0.00     0.198 A 
ATOM     70  C   UNL A   1      46.466  35.435  30.033  1.00  0.00     0.198 A 
ATOM     71  F   UNL A   1      46.335  33.190  30.723  1.00  0.00    -0.203 F 
ATOM     72  F   UNL A   1      45.138  37.084  27.091  1.00  0.00    -0.200 F 
ATOM     73  C   UNL A   1      46.166  36.430  29.115  1.00  0.00     0.200 A 
ATOM     74  F   UNL A   1      47.190  35.726  31.122  1.00  0.00    -0.200 F 
ATOM     75  F   UNL A   1      46.610  37.679  29.309  1.00  0.00    -0.200 F 
ENDBRANCH  51  65
BRANCH  52  76
ATOM     76  C   UNL A   1      41.358  24.674  27.579  1.00  0.00     0.064 A 
ATOM     77  C   UNL A   1      41.922  23.541  28.181  1.00  0.00     0.173 A 
ATOM     78  C   UNL A   1      40.247  24.484  26.742  1.00  0.00     0.173 A 
ATOM     79  F   UNL A   1      43.001  23.668  28.966  1.00  0.00    -0.203 F 
ATOM     80  C   UNL A   1      41.412  22.267  27.937  1.00  0.00     0.198 A 
ATOM     81  C   UNL A   1      39.722  23.212  26.521  1.00  0.00     0.198 A 
ATOM     82  F   UNL A   1      39.672  25.534  26.140  1.00  0.00    -0.203 F 
ATOM     83  F   UNL A   1      42.002  21.196  28.485  1.00  0.00    -0.200 F 
ATOM     84  C   UNL A   1      40.310  22.104  27.111  1.00  0.00     0.200 A 
ATOM     85  F   UNL A   1      38.650  23.061  25.731  1.00  0.00    -0.200 F 
ATOM     86  F   UNL A   1      39.821  20.880  26.875  1.00  0.00    -0.200 F 
ENDBRANCH  52  76
BRANCH  64  87
ATOM     87  C   UNL A   1      47.252  27.714  25.441  1.00  0.00     0.064 A 
ATOM     88  C   UNL A   1      48.333  27.052  26.041  1.00  0.00     0.173 A 
ATOM     89  C   UNL A   1      47.258  27.853  24.045  1.00  0.00     0.173 A 
ATOM     90  F   UNL A   1      48.381  26.906  27.373  1.00  0.00    -0.203 F 
ATOM     91  C   UNL A   1      49.387  26.565  25.272  1.00  0.00     0.198 A 
ATOM     92  C   UNL A   1      48.299  27.341  23.277  1.00  0.00     0.198 A 
ATOM     93  F   UNL A   1      46.241  28.471  23.423  1.00  0.00    -0.203 F 
ATOM     94  F   UNL A   1      50.430  25.970  25.869  1.00  0.00    -0.200 F 
ATOM     95  C   UNL A   1      49.366  26.702  23.892  1.00  0.00     0.200 A 
ATOM     96  F   UNL A   1      48.270  27.463  21.943  1.00  0.00    -0.200 F 
ATOM     97  F   UNL A   1      50.377  26.225  23.154  1.00  0.00    -0.200 F 
ENDBRANCH  64  87
ENDBRANCH  38  39
ENDBRANCH  31  33
ENDBRANCH  30  31
ENDBRANCH  29  30
ENDBRANCH  28  29
ENDBRANCH  27  28
ENDBRANCH  26  27
ENDBRANCH  25  26
ENDBRANCH   1  25
TORSDOF 22
ENDMDL
MODEL 2
REMARK VINA RESULT:      -9.8      1.168      7.255
REMARK SMILES CC(C)Nc1cc2ccccc2cc1C(=O)OCCOCCOCCOCCOC(=O)c1ccc(-c2c3nc(c(-c4c(F)c(F)c(F)c(F)c4F)c4ccc([nH]4)c(-c4c(F)c(F)c(F)c(F)c4F)c4nc(c(-c5c(F)c(F)c(F)c(F)c5F)c5ccc2[nH]5)C=C4)C=C3)cc1
REMARK SMILES IDX 23 1 22 2 21 3 20 4 19 5 18 6 17 7 15 8 16 9 14 10 5 11 6 12
REMARK SMILES IDX 7 13 13 14 8 15 12 16 9 17 11 18 10 19 4 20 2 22 1 23 3 24
REMARK SMILES IDX 24 25 25 26 26 27 27 28 28 29 29 30 30 31 31 32 32 33 33 34
REMARK SMILES IDX 94 35 34 36 93 37 35 38 36 39 37 40 87 41 38 42 92 43 86 44
REMARK SMILES IDX 88 45 39 46 91 47 85 48 84 49 40 51 72 52 52 53 71 54 53 55
REMARK SMILES IDX 56 56 70 57 89 58 54 59 55 60 69 62 90 63 57 64 41 65 42 66
REMARK SMILES IDX 50 67 43 68 44 69 48 70 51 71 45 72 46 73 49 74 47 75 73 76
REMARK SMILES IDX 74 77 82 78 75 79 76 80 80 81 83 82 77 83 78 84 81 85 79 86
REMARK SMILES IDX 58 87 59 88 67 89 60 90 61 91 65 92 68 93 62 94 63 95 66 96
REMARK SMILES IDX 64 97
REMARK H PARENT 4 21 88 50 56 61
REMARK Flexibility Score: inf
ROOT
ATOM      1  O   UNL A   1      35.725  32.595  28.432  1.00  0.00    -0.377 OA
ENDROOT
BRANCH   1   2
ATOM      2  C   UNL A   1      34.477  31.996  28.756  1.00  0.00     0.188 C 
BRANCH   2   3
ATOM      3  C   UNL A   1      33.630  31.539  27.557  1.00  0.00     0.188 C 
BRANCH   3   4
ATOM      4  O   UNL A   1      33.268  30.157  27.638  1.00  0.00    -0.376 OA
BRANCH   4   5
ATOM      5  C   UNL A   1      34.148  29.247  26.984  1.00  0.00     0.202 C 
BRANCH   5   6
ATOM      6  C   UNL A   1      33.422  28.010  26.460  1.00  0.00     0.261 C 
BRANCH   6   7
ATOM      7  O   UNL A   1      34.007  27.529  25.243  1.00  0.00    -0.460 OA
BRANCH   7   8
ATOM      8  C   UNL A   1      33.632  28.100  24.083  1.00  0.00     0.340 C 
ATOM      9  O   UNL A   1      34.388  28.573  23.248  1.00  0.00    -0.246 OA
BRANCH   8  10
ATOM     10  C   UNL A   1      32.182  27.867  23.863  1.00  0.00     0.083 A 
ATOM     11  C   UNL A   1      31.545  26.619  23.703  1.00  0.00     0.050 A 
ATOM     12  C   UNL A   1      30.142  26.654  23.504  1.00  0.00     0.035 A 
ATOM     13  C   UNL A   1      29.393  27.841  23.411  1.00  0.00    -0.016 A 
ATOM     14  C   UNL A   1      31.443  29.069  23.740  1.00  0.00     0.026 A 
ATOM     15  C   UNL A   1      27.998  27.824  23.234  1.00  0.00     0.009 A 
ATOM     16  C   UNL A   1      30.062  29.071  23.501  1.00  0.00    -0.017 A 
ATOM     17  C   UNL A   1      27.279  29.014  23.120  1.00  0.00     0.001 A 
ATOM     18  C   UNL A   1      29.329  30.264  23.359  1.00  0.00     0.009 A 
ATOM     19  C   UNL A   1      27.946  30.234  23.169  1.00  0.00     0.001 A 
BRANCH  11  20
ATOM     20  N   UNL A   1      32.079  25.344  23.765  1.00  0.00    -0.382 N 
ATOM     21  H   UNL A   1      32.287  24.943  22.890  1.00  0.00     0.160 HD
BRANCH  20  22
ATOM     22  C   UNL A   1      32.382  24.499  24.906  1.00  0.00     0.073 C 
ATOM     23  C   UNL A   1      31.528  23.236  24.806  1.00  0.00     0.030 C 
ATOM     24  C   UNL A   1      33.865  24.124  24.873  1.00  0.00     0.030 C 
ENDBRANCH  20  22
ENDBRANCH  11  20
ENDBRANCH   8  10
ENDBRANCH   7   8
ENDBRANCH   6   7
ENDBRANCH   5   6
ENDBRANCH   4   5
ENDBRANCH   3   4
ENDBRANCH   2   3
ENDBRANCH   1   2
BRANCH   1  25
ATOM     25  C   UNL A   1      35.974  33.843  29.056  1.00  0.00     0.188 C 
BRANCH  25  26
ATOM     26  C   UNL A   1      35.577  33.913  30.546  1.00  0.00     0.188 C 
BRANCH  26  27
ATOM     27  O   UNL A   1      36.412  34.471  31.559  1.00  0.00    -0.376 OA
BRANCH  27  28
ATOM     28  C   UNL A   1      36.226  34.145  32.924  1.00  0.00     0.202 C 
BRANCH  28  29
ATOM     29  C   UNL A   1      37.415  33.520  33.669  1.00  0.00     0.261 C 
BRANCH  29  30
ATOM     30  O   UNL A   1      37.301  32.121  33.952  1.00  0.00    -0.460 OA
BRANCH  30  31
ATOM     31  C   UNL A   1      36.649  31.392  33.017  1.00  0.00     0.338 C 
ATOM     32  O   UNL A   1      35.447  31.308  32.838  1.00  0.00    -0.246 OA
BRANCH  31  33
ATOM     33  C   UNL A   1      37.648  30.762  32.130  1.00  0.00     0.060 A 
ATOM     34  C   UNL A   1      38.800  30.215  32.707  1.00  0.00     0.016 A 
ATOM     35  C   UNL A   1      37.472  30.747  30.744  1.00  0.00     0.016 A 
ATOM     36  C   UNL A   1      39.795  29.670  31.897  1.00  0.00     0.010 A 
ATOM     37  C   UNL A   1      38.482  30.229  29.929  1.00  0.00     0.010 A 
ATOM     38  C   UNL A   1      39.660  29.720  30.504  1.00  0.00    -0.014 A 
BRANCH  38  39
ATOM     39  C   UNL A   1      40.841  29.444  29.653  1.00  0.00     0.031 A 
ATOM     40  C   UNL A   1      40.979  28.068  29.065  1.00  0.00     0.074 A 
ATOM     41  C   UNL A   1      41.754  30.394  29.394  1.00  0.00     0.049 A 
ATOM     42  N   UNL A   1      41.933  27.574  28.317  1.00  0.00    -0.248 NA
ATOM     43  C   UNL A   1      39.893  27.117  29.361  1.00  0.00     0.031 C 
ATOM     44  C   UNL A   1      41.704  31.772  29.877  1.00  0.00     0.029 A 
ATOM     45  N   UNL A   1      42.912  30.334  28.660  1.00  0.00    -0.354 N 
ATOM     46  C   UNL A   1      41.561  26.263  28.055  1.00  0.00     0.074 A 
ATOM     47  C   UNL A   1      40.310  26.025  28.741  1.00  0.00     0.031 C 
ATOM     48  C   UNL A   1      42.796  32.425  29.441  1.00  0.00     0.029 A 
ATOM     49  C   UNL A   1      43.631  31.503  28.671  1.00  0.00     0.049 A 
ATOM     50  H   UNL A   1      43.201  29.528  28.172  1.00  0.00     0.167 HD
ATOM     51  C   UNL A   1      42.203  25.340  27.302  1.00  0.00     0.037 A 
ATOM     52  C   UNL A   1      44.835  31.784  28.133  1.00  0.00     0.037 A 
ATOM     53  C   UNL A   1      43.450  25.574  26.627  1.00  0.00     0.049 A 
ATOM     54  C   UNL A   1      45.563  30.715  27.356  1.00  0.00     0.074 A 
ATOM     55  C   UNL A   1      44.177  24.708  25.831  1.00  0.00     0.029 A 
ATOM     56  N   UNL A   1      44.158  26.765  26.678  1.00  0.00    -0.354 N 
ATOM     57  N   UNL A   1      45.190  29.488  27.085  1.00  0.00    -0.248 NA
ATOM     58  C   UNL A   1      46.879  31.074  26.808  1.00  0.00     0.031 C 
ATOM     59  C   UNL A   1      45.348  25.361  25.435  1.00  0.00     0.029 A 
ATOM     60  C   UNL A   1      45.328  26.649  25.946  1.00  0.00     0.049 A 
ATOM     61  H   UNL A   1      43.873  27.573  27.163  1.00  0.00     0.167 HD
ATOM     62  C   UNL A   1      46.207  28.940  26.313  1.00  0.00     0.074 A 
ATOM     63  C   UNL A   1      47.210  29.972  26.150  1.00  0.00     0.031 C 
ATOM     64  C   UNL A   1      46.303  27.695  25.784  1.00  0.00     0.037 A 
BRANCH  51  65
ATOM     65  C   UNL A   1      41.578  23.983  27.191  1.00  0.00     0.064 A 
ATOM     66  C   UNL A   1      40.380  23.781  26.490  1.00  0.00     0.173 A 
ATOM     67  C   UNL A   1      42.202  22.866  27.765  1.00  0.00     0.173 A 
ATOM     68  F   UNL A   1      39.737  24.823  25.939  1.00  0.00    -0.203 F 
ATOM     69  C   UNL A   1      39.821  22.511  26.381  1.00  0.00     0.198 A 
ATOM     70  C   UNL A   1      41.653  21.594  27.634  1.00  0.00     0.198 A 
ATOM     71  F   UNL A   1      43.348  23.007  28.447  1.00  0.00    -0.203 F 
ATOM     72  F   UNL A   1      38.656  22.346  25.737  1.00  0.00    -0.200 F 
ATOM     73  C   UNL A   1      40.460  21.418  26.946  1.00  0.00     0.200 A 
ATOM     74  F   UNL A   1      42.276  20.537  28.173  1.00  0.00    -0.200 F 
ATOM     75  F   UNL A   1      39.925  20.194  26.833  1.00  0.00    -0.200 F 
ENDBRANCH  51  65
BRANCH  52  76
ATOM     76  C   UNL A   1      45.443  33.126  28.323  1.00  0.00     0.064 A 
ATOM     77  C   UNL A   1      46.321  33.382  29.385  1.00  0.00     0.173 A 
ATOM     78  C   UNL A   1      45.130  34.191  27.464  1.00  0.00     0.173 A 
ATOM     79  F   UNL A   1      46.629  32.403  30.248  1.00  0.00    -0.203 F 
ATOM     80  C   UNL A   1      46.845  34.656  29.595  1.00  0.00     0.198 A 
ATOM     81  C   UNL A   1      45.675  35.458  27.660  1.00  0.00     0.198 A 
ATOM     82  F   UNL A   1      44.292  34.000  26.435  1.00  0.00    -0.203 F 
ATOM     83  F   UNL A   1      47.642  34.885  30.648  1.00  0.00    -0.200 F 
ATOM     84  C   UNL A   1      46.525  35.691  28.730  1.00  0.00     0.200 A 
ATOM     85  F   UNL A   1      45.373  36.453  26.815  1.00  0.00    -0.200 F 
ATOM     86  F   UNL A   1      47.028  36.916  28.933  1.00  0.00    -0.200 F 
ENDBRANCH  52  76
BRANCH  64  87
ATOM     87  C   UNL A   1      47.511  27.390  24.948  1.00  0.00     0.064 A 
ATOM     88  C   UNL A   1      47.555  27.697  23.581  1.00  0.00     0.173 A 
ATOM     89  C   UNL A   1      48.658  26.836  25.537  1.00  0.00     0.173 A 
ATOM     90  F   UNL A   1      46.480  28.215  22.970  1.00  0.00    -0.203 F 
ATOM     91  C   UNL A   1      48.698  27.439  22.829  1.00  0.00     0.198 A 
ATOM     92  C   UNL A   1      49.807  26.605  24.788  1.00  0.00     0.198 A 
ATOM     93  F   UNL A   1      48.668  26.534  26.845  1.00  0.00    -0.203 F 
ATOM     94  F   UNL A   1      48.705  27.703  21.514  1.00  0.00    -0.200 F 
ATOM     95  C   UNL A   1      49.825  26.902  23.433  1.00  0.00     0.200 A 
ATOM     96  F   UNL A   1      50.899  26.098  25.377  1.00  0.00    -0.200 F 
ATOM     97  F   UNL A   1      50.927  26.663  22.709  1.00  0.00    -0.200 F 
ENDBRANCH  64  87
ENDBRANCH  38  39
ENDBRANCH  31  33
ENDBRANCH  30  31
ENDBRANCH  29  30
ENDBRANCH  28  29
ENDBRANCH  27  28
ENDBRANCH  26  27
ENDBRANCH  25  26
ENDBRANCH   1  25
TORSDOF 22
ENDMDL
MODEL 3
REMARK VINA RESULT:      -9.7      1.559      7.859
REMARK SMILES CC(C)Nc1cc2ccccc2cc1C(=O)OCCOCCOCCOCCOC(=O)c1ccc(-c2c3nc(c(-c4c(F)c(F)c(F)c(F)c4F)c4ccc([nH]4)c(-c4c(F)c(F)c(F)c(F)c4F)c4nc(c(-c5c(F)c(F)c(F)c(F)c5F)c5ccc2[nH]5)C=C4)C=C3)cc1
REMARK SMILES IDX 23 1 22 2 21 3 20 4 19 5 18 6 17 7 15 8 16 9 14 10 5 11 6 12
REMARK SMILES IDX 7 13 13 14 8 15 12 16 9 17 11 18 10 19 4 20 2 22 1 23 3 24
REMARK SMILES IDX 24 25 25 26 26 27 27 28 28 29 29 30 30 31 31 32 32 33 33 34
REMARK SMILES IDX 94 35 34 36 93 37 35 38 36 39 37 40 87 41 38 42 92 43 86 44
REMARK SMILES IDX 88 45 39 46 91 47 85 48 84 49 40 51 72 52 52 53 71 54 53 55
REMARK SMILES IDX 56 56 70 57 89 58 54 59 55 60 69 62 90 63 57 64 41 65 42 66
REMARK SMILES IDX 50 67 43 68 44 69 48 70 51 71 45 72 46 73 49 74 47 75 73 76
REMARK SMILES IDX 74 77 82 78 75 79 76 80 80 81 83 82 77 83 78 84 81 85 79 86
REMARK SMILES IDX 58 87 59 88 67 89 60 90 61 91 65 92 68 93 62 94 63 95 66 96
REMARK SMILES IDX 64 97
REMARK H PARENT 4 21 88 50 56 61
REMARK Flexibility Score: inf
ROOT
ATOM      1  O   UNL A   1      35.537  32.191  28.893  1.00  0.00    -0.377 OA
ENDROOT
BRANCH   1   2
ATOM      2  C   UNL A   1      35.155  30.949  28.316  1.00  0.00     0.188 C 
BRANCH   2   3
ATOM      3  C   UNL A   1      34.032  31.022  27.269  1.00  0.00     0.188 C 
BRANCH   3   4
ATOM      4  O   UNL A   1      32.974  30.096  27.535  1.00  0.00    -0.376 OA
BRANCH   4   5
ATOM      5  C   UNL A   1      33.139  28.793  26.983  1.00  0.00     0.202 C 
BRANCH   5   6
ATOM      6  C   UNL A   1      32.018  27.842  27.393  1.00  0.00     0.261 C 
BRANCH   6   7
ATOM      7  O   UNL A   1      31.258  27.400  26.260  1.00  0.00    -0.460 OA
BRANCH   7   8
ATOM      8  C   UNL A   1      30.993  26.086  26.140  1.00  0.00     0.340 C 
ATOM      9  O   UNL A   1      29.946  25.542  26.456  1.00  0.00    -0.246 OA
BRANCH   8  10
ATOM     10  C   UNL A   1      32.073  25.433  25.357  1.00  0.00     0.083 A 
ATOM     11  C   UNL A   1      32.412  25.690  24.012  1.00  0.00     0.050 A 
ATOM     12  C   UNL A   1      33.488  24.934  23.484  1.00  0.00     0.035 A 
ATOM     13  C   UNL A   1      34.173  23.937  24.201  1.00  0.00    -0.016 A 
ATOM     14  C   UNL A   1      32.735  24.410  26.080  1.00  0.00     0.026 A 
ATOM     15  C   UNL A   1      35.249  23.228  23.640  1.00  0.00     0.009 A 
ATOM     16  C   UNL A   1      33.769  23.651  25.514  1.00  0.00    -0.017 A 
ATOM     17  C   UNL A   1      35.899  22.226  24.362  1.00  0.00     0.001 A 
ATOM     18  C   UNL A   1      34.414  22.621  26.223  1.00  0.00     0.009 A 
ATOM     19  C   UNL A   1      35.472  21.913  25.648  1.00  0.00     0.001 A 
BRANCH  11  20
ATOM     20  N   UNL A   1      31.883  26.620  23.134  1.00  0.00    -0.382 N 
ATOM     21  H   UNL A   1      31.079  26.318  22.654  1.00  0.00     0.160 HD
BRANCH  20  22
ATOM     22  C   UNL A   1      32.319  27.964  22.802  1.00  0.00     0.073 C 
ATOM     23  C   UNL A   1      31.322  28.953  23.407  1.00  0.00     0.030 C 
ATOM     24  C   UNL A   1      33.708  28.202  23.397  1.00  0.00     0.030 C 
ENDBRANCH  20  22
ENDBRANCH  11  20
ENDBRANCH   8  10
ENDBRANCH   7   8
ENDBRANCH   6   7
ENDBRANCH   5   6
ENDBRANCH   4   5
ENDBRANCH   3   4
ENDBRANCH   2   3
ENDBRANCH   1   2
BRANCH   1  25
ATOM     25  C   UNL A   1      34.500  32.887  29.564  1.00  0.00     0.188 C 
BRANCH  25  26
ATOM     26  C   UNL A   1      34.514  32.747  31.101  1.00  0.00     0.188 C 
BRANCH  26  27
ATOM     27  O   UNL A   1      34.076  33.773  31.990  1.00  0.00    -0.376 OA
BRANCH  27  28
ATOM     28  C   UNL A   1      34.994  34.478  32.804  1.00  0.00     0.202 C 
BRANCH  28  29
ATOM     29  C   UNL A   1      36.447  34.571  32.314  1.00  0.00     0.261 C 
BRANCH  29  30
ATOM     30  O   UNL A   1      37.427  33.967  33.166  1.00  0.00    -0.460 OA
BRANCH  30  31
ATOM     31  C   UNL A   1      37.290  32.634  33.353  1.00  0.00     0.338 C 
ATOM     32  O   UNL A   1      36.500  32.057  34.078  1.00  0.00    -0.246 OA
BRANCH  31  33
ATOM     33  C   UNL A   1      38.205  31.933  32.429  1.00  0.00     0.060 A 
ATOM     34  C   UNL A   1      39.237  31.160  32.974  1.00  0.00     0.016 A 
ATOM     35  C   UNL A   1      38.073  32.068  31.044  1.00  0.00     0.016 A 
ATOM     36  C   UNL A   1      40.159  30.537  32.135  1.00  0.00     0.010 A 
ATOM     37  C   UNL A   1      39.015  31.470  30.204  1.00  0.00     0.010 A 
ATOM     38  C   UNL A   1      40.079  30.730  30.749  1.00  0.00    -0.014 A 
BRANCH  38  39
ATOM     39  C   UNL A   1      41.227  30.345  29.897  1.00  0.00     0.031 A 
ATOM     40  C   UNL A   1      41.211  28.980  29.267  1.00  0.00     0.074 A 
ATOM     41  C   UNL A   1      42.247  31.190  29.674  1.00  0.00     0.049 A 
ATOM     42  N   UNL A   1      42.109  28.403  28.510  1.00  0.00    -0.248 NA
ATOM     43  C   UNL A   1      40.019  28.154  29.526  1.00  0.00     0.031 C 
ATOM     44  C   UNL A   1      42.352  32.548  30.200  1.00  0.00     0.029 A 
ATOM     45  N   UNL A   1      43.397  31.018  28.946  1.00  0.00    -0.354 N 
ATOM     46  C   UNL A   1      41.589  27.152  28.204  1.00  0.00     0.074 A 
ATOM     47  C   UNL A   1      40.312  27.041  28.875  1.00  0.00     0.031 C 
ATOM     48  C   UNL A   1      43.517  33.083  29.792  1.00  0.00     0.029 A 
ATOM     49  C   UNL A   1      44.247  32.095  28.998  1.00  0.00     0.049 A 
ATOM     50  H   UNL A   1      43.596  30.199  28.434  1.00  0.00     0.167 HD
ATOM     51  C   UNL A   1      42.128  26.184  27.426  1.00  0.00     0.037 A 
ATOM     52  C   UNL A   1      45.480  32.250  28.477  1.00  0.00     0.037 A 
ATOM     53  C   UNL A   1      43.400  26.293  26.767  1.00  0.00     0.049 A 
ATOM     54  C   UNL A   1      46.087  31.128  27.671  1.00  0.00     0.074 A 
ATOM     55  C   UNL A   1      44.029  25.372  25.948  1.00  0.00     0.029 A 
ATOM     56  N   UNL A   1      44.241  27.391  26.860  1.00  0.00    -0.354 N 
ATOM     57  N   UNL A   1      45.577  29.961  27.359  1.00  0.00    -0.248 NA
ATOM     58  C   UNL A   1      47.442  31.348  27.142  1.00  0.00     0.031 C 
ATOM     59  C   UNL A   1      45.272  25.897  25.580  1.00  0.00     0.029 A 
ATOM     60  C   UNL A   1      45.396  27.162  26.132  1.00  0.00     0.049 A 
ATOM     61  H   UNL A   1      44.046  28.211  27.368  1.00  0.00     0.167 HD
ATOM     62  C   UNL A   1      46.532  29.323  26.576  1.00  0.00     0.074 A 
ATOM     63  C   UNL A   1      47.649  30.236  26.452  1.00  0.00     0.031 C 
ATOM     64  C   UNL A   1      46.488  28.093  26.009  1.00  0.00     0.037 A 
BRANCH  51  65
ATOM     65  C   UNL A   1      41.350  24.913  27.269  1.00  0.00     0.064 A 
ATOM     66  C   UNL A   1      41.694  23.750  27.973  1.00  0.00     0.173 A 
ATOM     67  C   UNL A   1      40.228  24.868  26.430  1.00  0.00     0.173 A 
ATOM     68  F   UNL A   1      42.770  23.740  28.775  1.00  0.00    -0.203 F 
ATOM     69  C   UNL A   1      40.951  22.581  27.830  1.00  0.00     0.198 A 
ATOM     70  C   UNL A   1      39.473  23.705  26.306  1.00  0.00     0.198 A 
ATOM     71  F   UNL A   1      39.859  25.953  25.734  1.00  0.00    -0.203 F 
ATOM     72  F   UNL A   1      41.318  21.471  28.484  1.00  0.00    -0.200 F 
ATOM     73  C   UNL A   1      39.837  22.562  27.003  1.00  0.00     0.200 A 
ATOM     74  F   UNL A   1      38.393  23.690  25.514  1.00  0.00    -0.200 F 
ATOM     75  F   UNL A   1      39.118  21.439  26.872  1.00  0.00    -0.200 F 
ENDBRANCH  51  65
BRANCH  52  76
ATOM     76  C   UNL A   1      46.238  33.506  28.712  1.00  0.00     0.064 A 
ATOM     77  C   UNL A   1      46.135  34.592  27.831  1.00  0.00     0.173 A 
ATOM     78  C   UNL A   1      47.110  33.633  29.804  1.00  0.00     0.173 A 
ATOM     79  F   UNL A   1      45.335  34.508  26.758  1.00  0.00    -0.203 F 
ATOM     80  C   UNL A   1      46.890  35.748  28.022  1.00  0.00     0.198 A 
ATOM     81  C   UNL A   1      47.844  34.799  30.008  1.00  0.00     0.198 A 
ATOM     82  F   UNL A   1      47.248  32.622  30.674  1.00  0.00    -0.203 F 
ATOM     83  F   UNL A   1      46.809  36.751  27.137  1.00  0.00    -0.200 F 
ATOM     84  C   UNL A   1      47.741  35.852  29.112  1.00  0.00     0.200 A 
ATOM     85  F   UNL A   1      48.657  34.900  31.069  1.00  0.00    -0.200 F 
ATOM     86  F   UNL A   1      48.468  36.961  29.294  1.00  0.00    -0.200 F 
ENDBRANCH  52  76
BRANCH  64  87
ATOM     87  C   UNL A   1      47.660  27.675  25.171  1.00  0.00     0.064 A 
ATOM     88  C   UNL A   1      47.654  27.815  23.776  1.00  0.00     0.173 A 
ATOM     89  C   UNL A   1      48.824  27.181  25.779  1.00  0.00     0.173 A 
ATOM     90  F   UNL A   1      46.560  28.270  23.148  1.00  0.00    -0.203 F 
ATOM     91  C   UNL A   1      48.765  27.456  23.018  1.00  0.00     0.198 A 
ATOM     92  C   UNL A   1      49.942  26.849  25.021  1.00  0.00     0.198 A 
ATOM     93  F   UNL A   1      48.882  27.037  27.112  1.00  0.00    -0.203 F 
ATOM     94  F   UNL A   1      48.724  27.560  21.682  1.00  0.00    -0.200 F 
ATOM     95  C   UNL A   1      49.910  26.981  23.641  1.00  0.00     0.200 A 
ATOM     96  F   UNL A   1      51.052  26.402  25.625  1.00  0.00    -0.200 F 
ATOM     97  F   UNL A   1      50.982  26.644  22.910  1.00  0.00    -0.200 F 
ENDBRANCH  64  87
ENDBRANCH  38  39
ENDBRANCH  31  33
ENDBRANCH  30  31
ENDBRANCH  29  30
ENDBRANCH  28  29
ENDBRANCH  27  28
ENDBRANCH  26  27
ENDBRANCH  25  26
ENDBRANCH   1  25
TORSDOF 22
ENDMDL
