MODEL 1
REMARK VINA RESULT:     -12.1      0.000      0.000
REMARK SMILES O=C(OCCOCCOCCOCCOC(=O)[C@H]1[C@H]2CC[C@H](CC2)[C@@H]1C(=O)Nc1ccc(Cc2ccncc2)cc1)c1ccc(-c2c3nc(c(-c4c(F)c(F)c(F)c(F)c4F)c4ccc([nH]4)c(-c4c(F)c(F)c(F)c(F)c4F)c4nc(c(-c5c(F)c(F)c(F)c(F)c5F)c5ccc2[nH]5)C=C4)C=C3)cc1
REMARK SMILES IDX 10 1 9 2 8 3 7 4 6 5 5 6 4 7 3 8 2 9 1 10 42 11 43 12 104 13
REMARK SMILES IDX 44 14 103 15 45 16 46 17 47 18 97 19 48 20 102 21 96 22
REMARK SMILES IDX 98 23 49 24 101 25 95 26 94 27 50 29 82 30 62 31 81 32 63 33
REMARK SMILES IDX 66 34 80 35 99 36 64 37 65 38 79 40 100 41 67 42 51 43 52 44
REMARK SMILES IDX 60 45 53 46 54 47 58 48 61 49 55 50 56 51 59 52 57 53 83 54
REMARK SMILES IDX 84 55 92 56 85 57 86 58 90 59 93 60 87 61 88 62 91 63 89 64
REMARK SMILES IDX 68 65 69 66 77 67 70 68 71 69 75 70 78 71 72 72 73 73 76 74
REMARK SMILES IDX 74 75 11 76 12 77 13 78 14 79 15 80 16 81 17 82 18 83 19 84
REMARK SMILES IDX 25 85 24 86 20 87 22 88 23 89 21 90 26 91 27 92 28 93 29 95
REMARK SMILES IDX 30 96 41 97 31 98 40 99 32 100 33 101 34 102 35 103 39 104
REMARK SMILES IDX 36 105 38 106 37 107
REMARK H PARENT 98 28 66 39 28 94
REMARK Flexibility Score: inf
ROOT
ATOM      1  C   UNL A   1      40.083  22.351  26.895  1.00  0.00     0.188 C 
ENDROOT
BRANCH   1   2
ATOM      2  O   UNL A   1      41.104  21.789  26.107  1.00  0.00    -0.377 OA
BRANCH   2   3
ATOM      3  C   UNL A   1      42.152  21.078  26.705  1.00  0.00     0.188 C 
BRANCH   3   4
ATOM      4  C   UNL A   1      42.777  19.945  25.941  1.00  0.00     0.188 C 
BRANCH   4   5
ATOM      5  O   UNL A   1      43.625  20.373  24.903  1.00  0.00    -0.376 OA
BRANCH   5   6
ATOM      6  C   UNL A   1      44.534  21.436  25.140  1.00  0.00     0.202 C 
BRANCH   6   7
ATOM      7  C   UNL A   1      44.510  22.657  24.226  1.00  0.00     0.261 C 
BRANCH   7   8
ATOM      8  O   UNL A   1      43.995  23.956  24.654  1.00  0.00    -0.460 OA
BRANCH   8   9
ATOM      9  C   UNL A   1      44.333  25.169  25.110  1.00  0.00     0.338 C 
ATOM     10  O   UNL A   1      45.392  25.668  24.695  1.00  0.00    -0.246 OA
BRANCH   9  11
ATOM     11  C   UNL A   1      43.566  25.968  26.096  1.00  0.00     0.060 A 
ATOM     12  C   UNL A   1      43.868  27.279  26.403  1.00  0.00     0.016 A 
ATOM     13  C   UNL A   1      42.436  25.407  26.714  1.00  0.00     0.016 A 
ATOM     14  C   UNL A   1      43.125  28.044  27.265  1.00  0.00     0.010 A 
ATOM     15  C   UNL A   1      41.696  26.140  27.652  1.00  0.00     0.010 A 
ATOM     16  C   UNL A   1      42.075  27.455  27.945  1.00  0.00    -0.014 A 
BRANCH  16  17
ATOM     17  C   UNL A   1      41.710  28.170  29.172  1.00  0.00     0.031 A 
ATOM     18  C   UNL A   1      40.395  28.892  29.146  1.00  0.00     0.074 A 
ATOM     19  C   UNL A   1      42.341  27.871  30.319  1.00  0.00     0.049 A 
ATOM     20  N   UNL A   1      39.805  29.585  30.078  1.00  0.00    -0.248 NA
ATOM     21  C   UNL A   1      39.610  28.781  27.899  1.00  0.00     0.031 C 
ATOM     22  C   UNL A   1      43.452  26.920  30.448  1.00  0.00     0.029 A 
ATOM     23  N   UNL A   1      42.095  28.270  31.600  1.00  0.00    -0.354 N 
ATOM     24  C   UNL A   1      38.624  30.042  29.509  1.00  0.00     0.074 A 
ATOM     25  C   UNL A   1      38.552  29.525  28.166  1.00  0.00     0.031 C 
ATOM     26  C   UNL A   1      43.778  26.800  31.744  1.00  0.00     0.029 A 
ATOM     27  C   UNL A   1      42.965  27.730  32.515  1.00  0.00     0.049 A 
ATOM     28  H   UNL A   1      41.364  28.884  31.845  1.00  0.00     0.167 HD
ATOM     29  C   UNL A   1      37.703  30.856  30.069  1.00  0.00     0.037 A 
ATOM     30  C   UNL A   1      43.102  28.021  33.821  1.00  0.00     0.037 A 
ATOM     31  C   UNL A   1      37.828  31.328  31.418  1.00  0.00     0.049 A 
ATOM     32  C   UNL A   1      42.163  29.055  34.384  1.00  0.00     0.074 A 
ATOM     33  C   UNL A   1      37.058  32.247  32.099  1.00  0.00     0.029 A 
ATOM     34  N   UNL A   1      38.819  30.895  32.297  1.00  0.00    -0.354 N 
ATOM     35  N   UNL A   1      41.132  29.635  33.810  1.00  0.00    -0.248 NA
ATOM     36  C   UNL A   1      42.418  29.500  35.756  1.00  0.00     0.031 C 
ATOM     37  C   UNL A   1      37.621  32.415  33.370  1.00  0.00     0.029 A 
ATOM     38  C   UNL A   1      38.697  31.547  33.507  1.00  0.00     0.049 A 
ATOM     39  H   UNL A   1      39.505  30.221  32.086  1.00  0.00     0.167 HD
ATOM     40  C   UNL A   1      40.598  30.493  34.757  1.00  0.00     0.074 A 
ATOM     41  C   UNL A   1      41.414  30.343  35.948  1.00  0.00     0.031 C 
ATOM     42  C   UNL A   1      39.538  31.335  34.662  1.00  0.00     0.037 A 
BRANCH  29  43
ATOM     43  C   UNL A   1      36.619  31.371  29.170  1.00  0.00     0.064 A 
ATOM     44  C   UNL A   1      36.562  32.703  28.732  1.00  0.00     0.173 A 
ATOM     45  C   UNL A   1      35.551  30.526  28.828  1.00  0.00     0.173 A 
ATOM     46  F   UNL A   1      37.529  33.568  29.072  1.00  0.00    -0.203 F 
ATOM     47  C   UNL A   1      35.459  33.177  28.022  1.00  0.00     0.198 A 
ATOM     48  C   UNL A   1      34.466  30.995  28.093  1.00  0.00     0.198 A 
ATOM     49  F   UNL A   1      35.542  29.249  29.240  1.00  0.00    -0.203 F 
ATOM     50  F   UNL A   1      35.386  34.474  27.688  1.00  0.00    -0.200 F 
ATOM     51  C   UNL A   1      34.414  32.323  27.702  1.00  0.00     0.200 A 
ATOM     52  F   UNL A   1      33.456  30.167  27.790  1.00  0.00    -0.200 F 
ATOM     53  F   UNL A   1      33.347  32.786  27.037  1.00  0.00    -0.200 F 
ENDBRANCH  29  43
BRANCH  30  54
ATOM     54  C   UNL A   1      44.195  27.414  34.630  1.00  0.00     0.064 A 
ATOM     55  C   UNL A   1      43.983  26.262  35.399  1.00  0.00     0.173 A 
ATOM     56  C   UNL A   1      45.474  27.995  34.680  1.00  0.00     0.173 A 
ATOM     57  F   UNL A   1      42.776  25.675  35.406  1.00  0.00    -0.203 F 
ATOM     58  C   UNL A   1      44.994  25.730  36.200  1.00  0.00     0.198 A 
ATOM     59  C   UNL A   1      46.494  27.444  35.453  1.00  0.00     0.198 A 
ATOM     60  F   UNL A   1      45.739  29.104  33.974  1.00  0.00    -0.203 F 
ATOM     61  F   UNL A   1      44.745  24.659  36.966  1.00  0.00    -0.200 F 
ATOM     62  C   UNL A   1      46.249  26.318  36.223  1.00  0.00     0.200 A 
ATOM     63  F   UNL A   1      47.708  28.011  35.460  1.00  0.00    -0.200 F 
ATOM     64  F   UNL A   1      47.219  25.810  36.996  1.00  0.00    -0.200 F 
ENDBRANCH  30  54
BRANCH  42  65
ATOM     65  C   UNL A   1      39.179  32.100  35.897  1.00  0.00     0.064 A 
ATOM     66  C   UNL A   1      39.671  33.390  36.135  1.00  0.00     0.173 A 
ATOM     67  C   UNL A   1      38.288  31.544  36.825  1.00  0.00     0.173 A 
ATOM     68  F   UNL A   1      40.537  33.953  35.279  1.00  0.00    -0.203 F 
ATOM     69  C   UNL A   1      39.304  34.087  37.280  1.00  0.00     0.198 A 
ATOM     70  C   UNL A   1      37.893  32.259  37.949  1.00  0.00     0.198 A 
ATOM     71  F   UNL A   1      37.785  30.315  36.630  1.00  0.00    -0.203 F 
ATOM     72  F   UNL A   1      39.827  35.297  37.522  1.00  0.00    -0.200 F 
ATOM     73  C   UNL A   1      38.409  33.525  38.181  1.00  0.00     0.200 A 
ATOM     74  F   UNL A   1      37.013  31.725  38.805  1.00  0.00    -0.200 F 
ATOM     75  F   UNL A   1      38.046  34.205  39.277  1.00  0.00    -0.200 F 
ENDBRANCH  42  65
ENDBRANCH  16  17
ENDBRANCH   9  11
ENDBRANCH   8   9
ENDBRANCH   7   8
ENDBRANCH   6   7
ENDBRANCH   5   6
ENDBRANCH   4   5
ENDBRANCH   3   4
ENDBRANCH   2   3
ENDBRANCH   1   2
BRANCH   1  76
ATOM     76  C   UNL A   1      38.868  23.030  26.287  1.00  0.00     0.188 C 
BRANCH  76  77
ATOM     77  O   UNL A   1      38.088  22.274  25.393  1.00  0.00    -0.376 OA
BRANCH  77  78
ATOM     78  C   UNL A   1      36.683  22.498  25.353  1.00  0.00     0.202 C 
BRANCH  78  79
ATOM     79  C   UNL A   1      36.013  23.479  24.362  1.00  0.00     0.261 C 
BRANCH  79  80
ATOM     80  O   UNL A   1      35.056  24.421  24.920  1.00  0.00    -0.463 OA
BRANCH  80  81
ATOM     81  C   UNL A   1      34.261  25.080  24.033  1.00  0.00     0.310 C 
ATOM     82  O   UNL A   1      34.285  24.843  22.826  1.00  0.00    -0.252 OA
BRANCH  81  83
ATOM     83  C   UNL A   1      33.318  26.160  24.612  1.00  0.00     0.115 C 
ATOM     84  C   UNL A   1      33.675  27.558  23.975  1.00  0.00     0.004 C 
ATOM     85  C   UNL A   1      31.772  25.990  24.620  1.00  0.00     0.096 C 
ATOM     86  C   UNL A   1      32.968  27.872  22.631  1.00  0.00     0.005 C 
ATOM     87  C   UNL A   1      33.182  28.633  24.955  1.00  0.00     0.005 C 
ATOM     88  C   UNL A   1      31.103  27.369  24.227  1.00  0.00     0.002 C 
ATOM     89  C   UNL A   1      31.447  27.719  22.770  1.00  0.00     0.005 C 
ATOM     90  C   UNL A   1      31.654  28.548  25.073  1.00  0.00     0.005 C 
BRANCH  85  91
ATOM     91  C   UNL A   1      31.201  25.592  25.998  1.00  0.00     0.228 C 
ATOM     92  O   UNL A   1      30.776  26.440  26.785  1.00  0.00    -0.274 OA
ATOM     93  N   UNL A   1      30.928  24.268  26.253  1.00  0.00    -0.326 N 
ATOM     94  H   UNL A   1      30.056  24.093  26.674  1.00  0.00     0.169 HD
BRANCH  93  95
ATOM     95  C   UNL A   1      31.711  23.128  26.001  1.00  0.00     0.041 A 
ATOM     96  C   UNL A   1      31.449  22.370  24.857  1.00  0.00     0.026 A 
ATOM     97  C   UNL A   1      32.666  22.671  26.906  1.00  0.00     0.026 A 
ATOM     98  C   UNL A   1      32.249  21.263  24.540  1.00  0.00     0.006 A 
ATOM     99  C   UNL A   1      33.428  21.529  26.623  1.00  0.00     0.006 A 
ATOM    100  C   UNL A   1      33.284  20.864  25.397  1.00  0.00    -0.043 A 
BRANCH 100 101
ATOM    101  C   UNL A   1      34.320  19.857  24.943  1.00  0.00     0.071 C 
BRANCH 101 102
ATOM    102  C   UNL A   1      33.846  18.437  24.816  1.00  0.00    -0.041 A 
ATOM    103  C   UNL A   1      34.394  17.586  23.854  1.00  0.00     0.024 A 
ATOM    104  C   UNL A   1      32.884  17.923  25.689  1.00  0.00     0.024 A 
ATOM    105  C   UNL A   1      33.949  16.275  23.796  1.00  0.00     0.111 A 
ATOM    106  C   UNL A   1      32.508  16.595  25.555  1.00  0.00     0.111 A 
ATOM    107  N   UNL A   1      33.017  15.760  24.625  1.00  0.00    -0.265 NA
ENDBRANCH 101 102
ENDBRANCH 100 101
ENDBRANCH  93  95
ENDBRANCH  85  91
ENDBRANCH  81  83
ENDBRANCH  80  81
ENDBRANCH  79  80
ENDBRANCH  78  79
ENDBRANCH  77  78
ENDBRANCH  76  77
ENDBRANCH   1  76
TORSDOF 24
ENDMDL
MODEL 2
REMARK VINA RESULT:     -11.5      4.553      7.018
REMARK SMILES O=C(OCCOCCOCCOCCOC(=O)[C@H]1[C@H]2CC[C@H](CC2)[C@@H]1C(=O)Nc1ccc(Cc2ccncc2)cc1)c1ccc(-c2c3nc(c(-c4c(F)c(F)c(F)c(F)c4F)c4ccc([nH]4)c(-c4c(F)c(F)c(F)c(F)c4F)c4nc(c(-c5c(F)c(F)c(F)c(F)c5F)c5ccc2[nH]5)C=C4)C=C3)cc1
REMARK SMILES IDX 10 1 9 2 8 3 7 4 6 5 5 6 4 7 3 8 2 9 1 10 42 11 43 12 104 13
REMARK SMILES IDX 44 14 103 15 45 16 46 17 47 18 97 19 48 20 102 21 96 22
REMARK SMILES IDX 98 23 49 24 101 25 95 26 94 27 50 29 82 30 62 31 81 32 63 33
REMARK SMILES IDX 66 34 80 35 99 36 64 37 65 38 79 40 100 41 67 42 51 43 52 44
REMARK SMILES IDX 60 45 53 46 54 47 58 48 61 49 55 50 56 51 59 52 57 53 83 54
REMARK SMILES IDX 84 55 92 56 85 57 86 58 90 59 93 60 87 61 88 62 91 63 89 64
REMARK SMILES IDX 68 65 69 66 77 67 70 68 71 69 75 70 78 71 72 72 73 73 76 74
REMARK SMILES IDX 74 75 11 76 12 77 13 78 14 79 15 80 16 81 17 82 18 83 19 84
REMARK SMILES IDX 25 85 24 86 20 87 22 88 23 89 21 90 26 91 27 92 28 93 29 95
REMARK SMILES IDX 30 96 41 97 31 98 40 99 32 100 33 101 34 102 35 103 39 104
REMARK SMILES IDX 36 105 38 106 37 107
REMARK H PARENT 98 28 66 39 28 94
REMARK Flexibility Score: inf
ROOT
ATOM      1  C   UNL A   1      39.816  22.964  27.284  1.00  0.00     0.188 C 
ENDROOT
BRANCH   1   2
ATOM      2  O   UNL A   1      41.012  22.319  26.918  1.00  0.00    -0.377 OA
BRANCH   2   3
ATOM      3  C   UNL A   1      40.999  21.282  25.977  1.00  0.00     0.188 C 
BRANCH   3   4
ATOM      4  C   UNL A   1      41.029  19.864  26.472  1.00  0.00     0.188 C 
BRANCH   4   5
ATOM      5  O   UNL A   1      41.883  19.030  25.725  1.00  0.00    -0.376 OA
BRANCH   5   6
ATOM      6  C   UNL A   1      42.743  18.129  26.403  1.00  0.00     0.202 C 
BRANCH   6   7
ATOM      7  C   UNL A   1      44.211  18.048  25.993  1.00  0.00     0.261 C 
BRANCH   7   8
ATOM      8  O   UNL A   1      44.754  18.777  24.848  1.00  0.00    -0.460 OA
BRANCH   8   9
ATOM      9  C   UNL A   1      44.672  19.906  24.134  1.00  0.00     0.338 C 
ATOM     10  O   UNL A   1      44.685  19.809  22.895  1.00  0.00    -0.246 OA
BRANCH   9  11
ATOM     11  C   UNL A   1      44.595  21.278  24.689  1.00  0.00     0.060 A 
ATOM     12  C   UNL A   1      44.449  22.404  23.903  1.00  0.00     0.016 A 
ATOM     13  C   UNL A   1      44.605  21.464  26.081  1.00  0.00     0.016 A 
ATOM     14  C   UNL A   1      44.312  23.668  24.413  1.00  0.00     0.010 A 
ATOM     15  C   UNL A   1      44.536  22.751  26.632  1.00  0.00     0.010 A 
ATOM     16  C   UNL A   1      44.423  23.854  25.778  1.00  0.00    -0.014 A 
BRANCH  16  17
ATOM     17  C   UNL A   1      44.783  25.228  26.145  1.00  0.00     0.031 A 
ATOM     18  C   UNL A   1      43.726  26.015  26.864  1.00  0.00     0.074 A 
ATOM     19  C   UNL A   1      46.077  25.588  26.156  1.00  0.00     0.049 A 
ATOM     20  N   UNL A   1      43.763  27.232  27.326  1.00  0.00    -0.248 NA
ATOM     21  C   UNL A   1      42.457  25.310  27.139  1.00  0.00     0.031 C 
ATOM     22  C   UNL A   1      47.195  24.729  25.747  1.00  0.00     0.029 A 
ATOM     23  N   UNL A   1      46.679  26.730  26.596  1.00  0.00    -0.354 N 
ATOM     24  C   UNL A   1      42.509  27.455  27.880  1.00  0.00     0.074 A 
ATOM     25  C   UNL A   1      41.741  26.246  27.736  1.00  0.00     0.031 C 
ATOM     26  C   UNL A   1      48.349  25.375  25.972  1.00  0.00     0.029 A 
ATOM     27  C   UNL A   1      48.044  26.717  26.449  1.00  0.00     0.049 A 
ATOM     28  H   UNL A   1      46.183  27.490  26.980  1.00  0.00     0.167 HD
ATOM     29  C   UNL A   1      42.046  28.599  28.430  1.00  0.00     0.037 A 
ATOM     30  C   UNL A   1      48.921  27.719  26.635  1.00  0.00     0.037 A 
ATOM     31  C   UNL A   1      42.868  29.769  28.554  1.00  0.00     0.049 A 
ATOM     32  C   UNL A   1      48.353  29.035  27.096  1.00  0.00     0.074 A 
ATOM     33  C   UNL A   1      42.527  31.038  28.972  1.00  0.00     0.029 A 
ATOM     34  N   UNL A   1      44.227  29.791  28.247  1.00  0.00    -0.354 N 
ATOM     35  N   UNL A   1      47.126  29.321  27.468  1.00  0.00    -0.248 NA
ATOM     36  C   UNL A   1      49.275  30.173  27.135  1.00  0.00     0.031 C 
ATOM     37  C   UNL A   1      43.667  31.843  28.858  1.00  0.00     0.029 A 
ATOM     38  C   UNL A   1      44.735  31.059  28.440  1.00  0.00     0.049 A 
ATOM     39  H   UNL A   1      44.748  29.015  27.938  1.00  0.00     0.167 HD
ATOM     40  C   UNL A   1      47.130  30.663  27.811  1.00  0.00     0.074 A 
ATOM     41  C   UNL A   1      48.491  31.128  27.616  1.00  0.00     0.031 C 
ATOM     42  C   UNL A   1      46.111  31.450  28.242  1.00  0.00     0.037 A 
BRANCH  29  43
ATOM     43  C   UNL A   1      40.586  28.645  28.767  1.00  0.00     0.064 A 
ATOM     44  C   UNL A   1      39.604  29.049  27.850  1.00  0.00     0.173 A 
ATOM     45  C   UNL A   1      40.177  28.376  30.084  1.00  0.00     0.173 A 
ATOM     46  F   UNL A   1      39.946  29.366  26.592  1.00  0.00    -0.203 F 
ATOM     47  C   UNL A   1      38.278  29.221  28.247  1.00  0.00     0.198 A 
ATOM     48  C   UNL A   1      38.846  28.519  30.469  1.00  0.00     0.198 A 
ATOM     49  F   UNL A   1      41.076  28.009  31.008  1.00  0.00    -0.203 F 
ATOM     50  F   UNL A   1      37.374  29.690  27.375  1.00  0.00    -0.200 F 
ATOM     51  C   UNL A   1      37.901  28.954  29.555  1.00  0.00     0.200 A 
ATOM     52  F   UNL A   1      38.487  28.266  31.735  1.00  0.00    -0.200 F 
ATOM     53  F   UNL A   1      36.631  29.139  29.939  1.00  0.00    -0.200 F 
ENDBRANCH  29  43
BRANCH  30  54
ATOM     54  C   UNL A   1      50.363  27.547  26.304  1.00  0.00     0.064 A 
ATOM     55  C   UNL A   1      51.306  27.227  27.289  1.00  0.00     0.173 A 
ATOM     56  C   UNL A   1      50.837  27.733  24.995  1.00  0.00     0.173 A 
ATOM     57  F   UNL A   1      50.915  27.058  28.562  1.00  0.00    -0.203 F 
ATOM     58  C   UNL A   1      52.664  27.122  26.985  1.00  0.00     0.198 A 
ATOM     59  C   UNL A   1      52.189  27.594  24.684  1.00  0.00     0.198 A 
ATOM     60  F   UNL A   1      49.986  28.048  24.008  1.00  0.00    -0.203 F 
ATOM     61  F   UNL A   1      53.549  26.869  27.958  1.00  0.00    -0.200 F 
ATOM     62  C   UNL A   1      53.103  27.301  25.682  1.00  0.00     0.200 A 
ATOM     63  F   UNL A   1      52.604  27.756  23.420  1.00  0.00    -0.200 F 
ATOM     64  F   UNL A   1      54.408  27.205  25.391  1.00  0.00    -0.200 F 
ENDBRANCH  30  54
BRANCH  42  65
ATOM     65  C   UNL A   1      46.458  32.865  28.583  1.00  0.00     0.064 A 
ATOM     66  C   UNL A   1      46.388  33.892  27.632  1.00  0.00     0.173 A 
ATOM     67  C   UNL A   1      46.817  33.196  29.897  1.00  0.00     0.173 A 
ATOM     68  F   UNL A   1      46.062  33.615  26.360  1.00  0.00    -0.203 F 
ATOM     69  C   UNL A   1      46.694  35.202  27.982  1.00  0.00     0.198 A 
ATOM     70  C   UNL A   1      47.085  34.513  30.251  1.00  0.00     0.198 A 
ATOM     71  F   UNL A   1      46.886  32.245  30.841  1.00  0.00    -0.203 F 
ATOM     72  F   UNL A   1      46.676  36.163  27.048  1.00  0.00    -0.200 F 
ATOM     73  C   UNL A   1      47.033  35.513  29.292  1.00  0.00     0.200 A 
ATOM     74  F   UNL A   1      47.390  34.814  31.520  1.00  0.00    -0.200 F 
ATOM     75  F   UNL A   1      47.315  36.778  29.628  1.00  0.00    -0.200 F 
ENDBRANCH  42  65
ENDBRANCH  16  17
ENDBRANCH   9  11
ENDBRANCH   8   9
ENDBRANCH   7   8
ENDBRANCH   6   7
ENDBRANCH   5   6
ENDBRANCH   4   5
ENDBRANCH   3   4
ENDBRANCH   2   3
ENDBRANCH   1   2
BRANCH   1  76
ATOM     76  C   UNL A   1      38.797  23.431  26.259  1.00  0.00     0.188 C 
BRANCH  76  77
ATOM     77  O   UNL A   1      37.875  22.479  25.788  1.00  0.00    -0.376 OA
BRANCH  77  78
ATOM     78  C   UNL A   1      36.487  22.793  25.825  1.00  0.00     0.202 C 
BRANCH  78  79
ATOM     79  C   UNL A   1      35.746  23.478  24.654  1.00  0.00     0.261 C 
BRANCH  79  80
ATOM     80  O   UNL A   1      34.651  24.369  25.003  1.00  0.00    -0.463 OA
BRANCH  80  81
ATOM     81  C   UNL A   1      33.982  24.950  23.970  1.00  0.00     0.310 C 
ATOM     82  O   UNL A   1      34.201  24.653  22.796  1.00  0.00    -0.252 OA
BRANCH  81  83
ATOM     83  C   UNL A   1      32.928  26.020  24.336  1.00  0.00     0.115 C 
ATOM     84  C   UNL A   1      33.660  27.374  24.685  1.00  0.00     0.004 C 
ATOM     85  C   UNL A   1      31.711  26.329  23.419  1.00  0.00     0.096 C 
ATOM     86  C   UNL A   1      33.961  28.295  23.475  1.00  0.00     0.005 C 
ATOM     87  C   UNL A   1      32.707  28.177  25.582  1.00  0.00     0.005 C 
ATOM     88  C   UNL A   1      31.489  27.895  23.372  1.00  0.00     0.002 C 
ATOM     89  C   UNL A   1      32.681  28.570  22.673  1.00  0.00     0.005 C 
ATOM     90  C   UNL A   1      31.438  28.521  24.790  1.00  0.00     0.005 C 
BRANCH  85  91
ATOM     91  C   UNL A   1      30.389  25.705  23.916  1.00  0.00     0.228 C 
ATOM     92  O   UNL A   1      29.433  26.408  24.248  1.00  0.00    -0.274 OA
ATOM     93  N   UNL A   1      30.182  24.355  23.749  1.00  0.00    -0.326 N 
ATOM     94  H   UNL A   1      29.297  24.108  23.396  1.00  0.00     0.169 HD
BRANCH  93  95
ATOM     95  C   UNL A   1      31.047  23.277  24.010  1.00  0.00     0.041 A 
ATOM     96  C   UNL A   1      31.525  22.523  22.936  1.00  0.00     0.026 A 
ATOM     97  C   UNL A   1      31.355  22.873  25.306  1.00  0.00     0.026 A 
ATOM     98  C   UNL A   1      32.439  21.482  23.151  1.00  0.00     0.006 A 
ATOM     99  C   UNL A   1      32.220  21.792  25.530  1.00  0.00     0.006 A 
ATOM    100  C   UNL A   1      32.836  21.141  24.451  1.00  0.00    -0.043 A 
BRANCH 100 101
ATOM    101  C   UNL A   1      34.014  20.218  24.683  1.00  0.00     0.071 C 
BRANCH 101 102
ATOM    102  C   UNL A   1      33.704  18.748  24.703  1.00  0.00    -0.041 A 
ATOM    103  C   UNL A   1      32.756  18.231  25.589  1.00  0.00     0.024 A 
ATOM    104  C   UNL A   1      34.319  17.874  23.803  1.00  0.00     0.024 A 
ATOM    105  C   UNL A   1      32.479  16.874  25.548  1.00  0.00     0.111 A 
ATOM    106  C   UNL A   1      33.970  16.532  23.836  1.00  0.00     0.111 A 
ATOM    107  N   UNL A   1      33.066  16.013  24.692  1.00  0.00    -0.265 NA
ENDBRANCH 101 102
ENDBRANCH 100 101
ENDBRANCH  93  95
ENDBRANCH  85  91
ENDBRANCH  81  83
ENDBRANCH  80  81
ENDBRANCH  79  80
ENDBRANCH  78  79
ENDBRANCH  77  78
ENDBRANCH  76  77
ENDBRANCH   1  76
TORSDOF 24
ENDMDL
MODEL 3
REMARK VINA RESULT:     -11.5      3.437      9.637
REMARK SMILES O=C(OCCOCCOCCOCCOC(=O)[C@H]1[C@H]2CC[C@H](CC2)[C@@H]1C(=O)Nc1ccc(Cc2ccncc2)cc1)c1ccc(-c2c3nc(c(-c4c(F)c(F)c(F)c(F)c4F)c4ccc([nH]4)c(-c4c(F)c(F)c(F)c(F)c4F)c4nc(c(-c5c(F)c(F)c(F)c(F)c5F)c5ccc2[nH]5)C=C4)C=C3)cc1
REMARK SMILES IDX 10 1 9 2 8 3 7 4 6 5 5 6 4 7 3 8 2 9 1 10 42 11 43 12 104 13
REMARK SMILES IDX 44 14 103 15 45 16 46 17 47 18 97 19 48 20 102 21 96 22
REMARK SMILES IDX 98 23 49 24 101 25 95 26 94 27 50 29 82 30 62 31 81 32 63 33
REMARK SMILES IDX 66 34 80 35 99 36 64 37 65 38 79 40 100 41 67 42 51 43 52 44
REMARK SMILES IDX 60 45 53 46 54 47 58 48 61 49 55 50 56 51 59 52 57 53 83 54
REMARK SMILES IDX 84 55 92 56 85 57 86 58 90 59 93 60 87 61 88 62 91 63 89 64
REMARK SMILES IDX 68 65 69 66 77 67 70 68 71 69 75 70 78 71 72 72 73 73 76 74
REMARK SMILES IDX 74 75 11 76 12 77 13 78 14 79 15 80 16 81 17 82 18 83 19 84
REMARK SMILES IDX 25 85 24 86 20 87 22 88 23 89 21 90 26 91 27 92 28 93 29 95
REMARK SMILES IDX 30 96 41 97 31 98 40 99 32 100 33 101 34 102 35 103 39 104
REMARK SMILES IDX 36 105 38 106 37 107
REMARK H PARENT 98 28 66 39 28 94
REMARK Flexibility Score: inf
ROOT
ATOM      1  C   UNL A   1      31.834  26.540  26.884  1.00  0.00     0.188 C 
ENDROOT
BRANCH   1   2
ATOM      2  O   UNL A   1      32.605  27.710  27.013  1.00  0.00    -0.377 OA
BRANCH   2   3
ATOM      3  C   UNL A   1      31.994  28.932  27.317  1.00  0.00     0.188 C 
BRANCH   3   4
ATOM      4  C   UNL A   1      32.483  30.170  26.619  1.00  0.00     0.188 C 
BRANCH   4   5
ATOM      5  O   UNL A   1      31.442  31.007  26.174  1.00  0.00    -0.376 OA
BRANCH   5   6
ATOM      6  C   UNL A   1      31.401  32.357  26.607  1.00  0.00     0.202 C 
BRANCH   6   7
ATOM      7  C   UNL A   1      32.618  32.953  27.309  1.00  0.00     0.261 C 
BRANCH   7   8
ATOM      8  O   UNL A   1      32.556  34.191  28.085  1.00  0.00    -0.460 OA
BRANCH   8   9
ATOM      9  C   UNL A   1      33.109  34.876  29.093  1.00  0.00     0.338 C 
ATOM     10  O   UNL A   1      32.613  35.978  29.384  1.00  0.00    -0.246 OA
BRANCH   9  11
ATOM     11  C   UNL A   1      34.287  34.451  29.885  1.00  0.00     0.060 A 
ATOM     12  C   UNL A   1      35.586  34.573  29.431  1.00  0.00     0.016 A 
ATOM     13  C   UNL A   1      34.106  33.955  31.186  1.00  0.00     0.016 A 
ATOM     14  C   UNL A   1      36.683  34.242  30.183  1.00  0.00     0.010 A 
ATOM     15  C   UNL A   1      35.204  33.543  31.955  1.00  0.00     0.010 A 
ATOM     16  C   UNL A   1      36.493  33.661  31.423  1.00  0.00    -0.014 A 
BRANCH  16  17
ATOM     17  C   UNL A   1      37.654  32.894  31.885  1.00  0.00     0.031 A 
ATOM     18  C   UNL A   1      38.071  33.124  33.308  1.00  0.00     0.074 A 
ATOM     19  C   UNL A   1      38.050  31.817  31.187  1.00  0.00     0.049 A 
ATOM     20  N   UNL A   1      39.037  32.580  33.992  1.00  0.00    -0.248 NA
ATOM     21  C   UNL A   1      37.252  34.077  34.086  1.00  0.00     0.031 C 
ATOM     22  C   UNL A   1      37.457  31.367  29.922  1.00  0.00     0.029 A 
ATOM     23  N   UNL A   1      38.982  30.864  31.474  1.00  0.00    -0.354 N 
ATOM     24  C   UNL A   1      38.980  33.171  35.247  1.00  0.00     0.074 A 
ATOM     25  C   UNL A   1      37.868  34.087  35.254  1.00  0.00     0.031 C 
ATOM     26  C   UNL A   1      38.033  30.213  29.553  1.00  0.00     0.029 A 
ATOM     27  C   UNL A   1      39.092  29.899  30.503  1.00  0.00     0.049 A 
ATOM     28  H   UNL A   1      39.523  30.867  32.297  1.00  0.00     0.167 HD
ATOM     29  C   UNL A   1      39.819  32.974  36.287  1.00  0.00     0.037 A 
ATOM     30  C   UNL A   1      40.000  28.913  30.392  1.00  0.00     0.037 A 
ATOM     31  C   UNL A   1      40.903  32.036  36.220  1.00  0.00     0.049 A 
ATOM     32  C   UNL A   1      41.027  28.818  31.489  1.00  0.00     0.074 A 
ATOM     33  C   UNL A   1      41.914  31.800  37.128  1.00  0.00     0.029 A 
ATOM     34  N   UNL A   1      41.104  31.166  35.150  1.00  0.00    -0.354 N 
ATOM     35  N   UNL A   1      41.096  29.487  32.619  1.00  0.00    -0.248 NA
ATOM     36  C   UNL A   1      42.117  27.860  31.289  1.00  0.00     0.031 C 
ATOM     37  C   UNL A   1      42.761  30.831  36.578  1.00  0.00     0.029 A 
ATOM     38  C   UNL A   1      42.238  30.410  35.362  1.00  0.00     0.049 A 
ATOM     39  H   UNL A   1      40.521  31.101  34.359  1.00  0.00     0.167 HD
ATOM     40  C   UNL A   1      42.219  29.015  33.278  1.00  0.00     0.074 A 
ATOM     41  C   UNL A   1      42.791  27.990  32.423  1.00  0.00     0.031 C 
ATOM     42  C   UNL A   1      42.743  29.389  34.473  1.00  0.00     0.037 A 
BRANCH  29  43
ATOM     43  C   UNL A   1      39.666  33.890  37.464  1.00  0.00     0.064 A 
ATOM     44  C   UNL A   1      38.919  33.551  38.602  1.00  0.00     0.173 A 
ATOM     45  C   UNL A   1      40.198  35.188  37.397  1.00  0.00     0.173 A 
ATOM     46  F   UNL A   1      38.345  32.342  38.696  1.00  0.00    -0.203 F 
ATOM     47  C   UNL A   1      38.677  34.487  39.607  1.00  0.00     0.198 A 
ATOM     48  C   UNL A   1      39.981  36.111  38.417  1.00  0.00     0.198 A 
ATOM     49  F   UNL A   1      40.902  35.575  36.322  1.00  0.00    -0.203 F 
ATOM     50  F   UNL A   1      37.889  34.167  40.644  1.00  0.00    -0.200 F 
ATOM     51  C   UNL A   1      39.210  35.764  39.515  1.00  0.00     0.200 A 
ATOM     52  F   UNL A   1      40.493  37.346  38.321  1.00  0.00    -0.200 F 
ATOM     53  F   UNL A   1      38.959  36.668  40.472  1.00  0.00    -0.200 F 
ENDBRANCH  29  43
BRANCH  30  54
ATOM     54  C   UNL A   1      40.032  28.032  29.193  1.00  0.00     0.064 A 
ATOM     55  C   UNL A   1      39.412  26.776  29.191  1.00  0.00     0.173 A 
ATOM     56  C   UNL A   1      40.717  28.414  28.026  1.00  0.00     0.173 A 
ATOM     57  F   UNL A   1      38.761  26.349  30.283  1.00  0.00    -0.203 F 
ATOM     58  C   UNL A   1      39.494  25.930  28.084  1.00  0.00     0.198 A 
ATOM     59  C   UNL A   1      40.769  27.584  26.908  1.00  0.00     0.198 A 
ATOM     60  F   UNL A   1      41.338  29.601  27.967  1.00  0.00    -0.203 F 
ATOM     61  F   UNL A   1      38.937  24.712  28.132  1.00  0.00    -0.200 F 
ATOM     62  C   UNL A   1      40.167  26.336  26.942  1.00  0.00     0.200 A 
ATOM     63  F   UNL A   1      41.412  27.989  25.804  1.00  0.00    -0.200 F 
ATOM     64  F   UNL A   1      40.250  25.522  25.881  1.00  0.00    -0.200 F 
ENDBRANCH  30  54
BRANCH  42  65
ATOM     65  C   UNL A   1      43.951  28.639  34.937  1.00  0.00     0.064 A 
ATOM     66  C   UNL A   1      45.250  29.092  34.666  1.00  0.00     0.173 A 
ATOM     67  C   UNL A   1      43.797  27.478  35.707  1.00  0.00     0.173 A 
ATOM     68  F   UNL A   1      45.441  30.191  33.921  1.00  0.00    -0.203 F 
ATOM     69  C   UNL A   1      46.355  28.387  35.128  1.00  0.00     0.198 A 
ATOM     70  C   UNL A   1      44.904  26.799  36.199  1.00  0.00     0.198 A 
ATOM     71  F   UNL A   1      42.571  27.016  35.998  1.00  0.00    -0.203 F 
ATOM     72  F   UNL A   1      47.590  28.802  34.813  1.00  0.00    -0.200 F 
ATOM     73  C   UNL A   1      46.182  27.248  35.902  1.00  0.00     0.200 A 
ATOM     74  F   UNL A   1      44.735  25.712  36.964  1.00  0.00    -0.200 F 
ATOM     75  F   UNL A   1      47.250  26.578  36.357  1.00  0.00    -0.200 F 
ENDBRANCH  42  65
ENDBRANCH  16  17
ENDBRANCH   9  11
ENDBRANCH   8   9
ENDBRANCH   7   8
ENDBRANCH   6   7
ENDBRANCH   5   6
ENDBRANCH   4   5
ENDBRANCH   3   4
ENDBRANCH   2   3
ENDBRANCH   1   2
BRANCH   1  76
ATOM     76  C   UNL A   1      30.421  26.555  26.327  1.00  0.00     0.188 C 
BRANCH  76  77
ATOM     77  O   UNL A   1      29.902  25.336  25.855  1.00  0.00    -0.376 OA
BRANCH  77  78
ATOM     78  C   UNL A   1      29.346  24.419  26.792  1.00  0.00     0.202 C 
BRANCH  78  79
ATOM     79  C   UNL A   1      29.860  22.971  26.962  1.00  0.00     0.261 C 
BRANCH  79  80
ATOM     80  O   UNL A   1      30.960  22.561  26.104  1.00  0.00    -0.463 OA
BRANCH  80  81
ATOM     81  C   UNL A   1      32.216  22.848  26.543  1.00  0.00     0.310 C 
ATOM     82  O   UNL A   1      32.483  22.971  27.738  1.00  0.00    -0.252 OA
BRANCH  81  83
ATOM     83  C   UNL A   1      33.309  23.023  25.463  1.00  0.00     0.115 C 
ATOM     84  C   UNL A   1      33.652  21.616  24.836  1.00  0.00     0.004 C 
ATOM     85  C   UNL A   1      33.180  24.067  24.318  1.00  0.00     0.096 C 
ATOM     86  C   UNL A   1      32.753  21.186  23.648  1.00  0.00     0.005 C 
ATOM     87  C   UNL A   1      35.070  21.720  24.258  1.00  0.00     0.005 C 
ATOM     88  C   UNL A   1      33.683  23.411  22.969  1.00  0.00     0.002 C 
ATOM     89  C   UNL A   1      32.740  22.268  22.560  1.00  0.00     0.005 C 
ATOM     90  C   UNL A   1      35.080  22.754  23.124  1.00  0.00     0.005 C 
BRANCH  85  91
ATOM     91  C   UNL A   1      34.026  25.338  24.541  1.00  0.00     0.228 C 
ATOM     92  O   UNL A   1      35.059  25.310  25.214  1.00  0.00    -0.274 OA
ATOM     93  N   UNL A   1      33.770  26.456  23.781  1.00  0.00    -0.326 N 
ATOM     94  H   UNL A   1      34.565  26.896  23.403  1.00  0.00     0.169 HD
BRANCH  93  95
ATOM     95  C   UNL A   1      32.541  27.062  23.465  1.00  0.00     0.041 A 
ATOM     96  C   UNL A   1      31.527  26.279  22.908  1.00  0.00     0.026 A 
ATOM     97  C   UNL A   1      32.339  28.434  23.591  1.00  0.00     0.026 A 
ATOM     98  C   UNL A   1      30.268  26.834  22.639  1.00  0.00     0.006 A 
ATOM     99  C   UNL A   1      31.101  29.006  23.265  1.00  0.00     0.006 A 
ATOM    100  C   UNL A   1      30.028  28.196  22.866  1.00  0.00    -0.043 A 
BRANCH 100 101
ATOM    101  C   UNL A   1      28.617  28.746  22.845  1.00  0.00     0.071 C 
BRANCH 101 102
ATOM    102  C   UNL A   1      28.485  30.205  22.509  1.00  0.00    -0.041 A 
ATOM    103  C   UNL A   1      28.390  30.625  21.181  1.00  0.00     0.024 A 
ATOM    104  C   UNL A   1      28.404  31.167  23.519  1.00  0.00     0.024 A 
ATOM    105  C   UNL A   1      28.236  31.977  20.922  1.00  0.00     0.111 A 
ATOM    106  C   UNL A   1      28.245  32.496  23.159  1.00  0.00     0.111 A 
ATOM    107  N   UNL A   1      28.162  32.923  21.881  1.00  0.00    -0.265 NA
ENDBRANCH 101 102
ENDBRANCH 100 101
ENDBRANCH  93  95
ENDBRANCH  85  91
ENDBRANCH  81  83
ENDBRANCH  80  81
ENDBRANCH  79  80
ENDBRANCH  78  79
ENDBRANCH  77  78
ENDBRANCH  76  77
ENDBRANCH   1  76
TORSDOF 24
ENDMDL
