MODEL 1
REMARK VINA RESULT:     -11.1      0.000      0.000
REMARK SMILES CC(C)C[C@H](Nc1ncnc2scc(-c3ccccc3)c12)C(=O)OCCOCCOCCOCCOC(=O)c1ccc(-c2c3nc(c(-c4c(F)c(F)c(F)c(F)c4F)c4ccc([nH]4)c(-c4c(F)c(F)c(F)c(F)c4F)c4nc(c(-c5c(F)c(F)c(F)c(F)c5F)c5ccc2[nH]5)C=C4)C=C3)cc1
REMARK SMILES IDX 29 1 28 2 27 3 26 4 25 5 24 6 22 7 23 8 5 9 4 10 2 11 1 12
REMARK SMILES IDX 3 13 6 14 7 16 8 17 21 18 9 19 11 20 14 21 10 22 12 23 13 24
REMARK SMILES IDX 15 25 16 26 20 27 17 28 19 29 18 30 30 31 31 32 32 33 33 34
REMARK SMILES IDX 34 35 35 36 36 37 37 38 38 39 39 40 40 41 101 42 41 43
REMARK SMILES IDX 100 44 42 45 43 46 44 47 94 48 45 49 99 50 93 51 95 52 46 53
REMARK SMILES IDX 98 54 92 55 91 56 47 58 79 59 59 60 78 61 60 62 63 63 77 64
REMARK SMILES IDX 96 65 61 66 62 67 76 69 97 70 64 71 48 72 49 73 57 74 50 75
REMARK SMILES IDX 51 76 55 77 58 78 52 79 53 80 56 81 54 82 80 83 81 84 89 85
REMARK SMILES IDX 82 86 83 87 87 88 90 89 84 90 85 91 88 92 86 93 65 94 66 95
REMARK SMILES IDX 74 96 67 97 68 98 72 99 75 100 69 101 70 102 73 103 71 104
REMARK H PARENT 6 15 95 57 63 68
REMARK Flexibility Score: inf
ROOT
ATOM      1  C   UNL A   1      33.938  22.035  27.368  1.00  0.00     0.188 C 
ENDROOT
BRANCH   1   2
ATOM      2  C   UNL A   1      32.429  22.706  27.968  1.00  0.00     0.188 C 
BRANCH   2   3
ATOM      3  O   UNL A   1      31.115  22.887  27.398  1.00  0.00    -0.376 OA
BRANCH   3   4
ATOM      4  C   UNL A   1      30.657  23.684  26.306  1.00  0.00     0.202 C 
BRANCH   4   5
ATOM      5  C   UNL A   1      30.220  25.122  26.531  1.00  0.00     0.261 C 
BRANCH   5   6
ATOM      6  O   UNL A   1      31.136  26.036  25.956  1.00  0.00    -0.462 OA
BRANCH   6   7
ATOM      7  C   UNL A   1      31.457  27.047  26.807  1.00  0.00     0.328 C 
ATOM      8  O   UNL A   1      30.684  27.561  27.611  1.00  0.00    -0.250 OA
BRANCH   7   9
ATOM      9  C   UNL A   1      32.881  27.536  26.597  1.00  0.00     0.191 C 
BRANCH   9  10
ATOM     10  C   UNL A   1      33.058  28.780  27.450  1.00  0.00     0.040 C 
BRANCH  10  11
ATOM     11  C   UNL A   1      34.118  29.785  26.949  1.00  0.00    -0.015 C 
ATOM     12  C   UNL A   1      33.855  31.227  27.402  1.00  0.00     0.007 C 
ATOM     13  C   UNL A   1      35.477  29.330  27.468  1.00  0.00     0.007 C 
ENDBRANCH  10  11
ENDBRANCH   9  10
BRANCH   9  14
ATOM     14  N   UNL A   1      33.282  27.598  25.173  1.00  0.00    -0.356 N 
ATOM     15  H   UNL A   1      33.289  28.491  24.759  1.00  0.00     0.163 HD
BRANCH  14  16
ATOM     16  C   UNL A   1      33.649  26.545  24.367  1.00  0.00     0.139 A 
ATOM     17  N   UNL A   1      34.526  25.674  24.908  1.00  0.00    -0.219 NA
ATOM     18  C   UNL A   1      33.043  26.237  23.114  1.00  0.00     0.062 A 
ATOM     19  C   UNL A   1      34.881  24.584  24.224  1.00  0.00     0.225 A 
ATOM     20  C   UNL A   1      33.535  25.075  22.520  1.00  0.00     0.129 A 
ATOM     21  C   UNL A   1      31.932  26.796  22.296  1.00  0.00     0.006 A 
ATOM     22  N   UNL A   1      34.454  24.228  23.019  1.00  0.00    -0.225 NA
ATOM     23  S   UNL A   1      32.802  24.711  21.029  1.00  0.00    -0.123 S 
ATOM     24  C   UNL A   1      31.702  26.005  21.182  1.00  0.00     0.076 A 
BRANCH  21  25
ATOM     25  C   UNL A   1      30.801  27.644  22.749  1.00  0.00    -0.017 A 
ATOM     26  C   UNL A   1      30.903  29.283  22.073  1.00  0.00     0.009 A 
ATOM     27  C   UNL A   1      29.259  27.068  23.472  1.00  0.00     0.009 A 
ATOM     28  C   UNL A   1      29.530  30.392  22.086  1.00  0.00     0.001 A 
ATOM     29  C   UNL A   1      27.797  28.193  23.496  1.00  0.00     0.001 A 
ATOM     30  C   UNL A   1      27.952  29.848  22.724  1.00  0.00     0.000 A 
ENDBRANCH  21  25
ENDBRANCH  14  16
ENDBRANCH   9  14
ENDBRANCH   7   9
ENDBRANCH   6   7
ENDBRANCH   5   6
ENDBRANCH   4   5
ENDBRANCH   3   4
ENDBRANCH   2   3
ENDBRANCH   1   2
BRANCH   1  31
ATOM     31  O   UNL A   1      34.387  21.139  25.640  1.00  0.00    -0.377 OA
BRANCH  31  32
ATOM     32  C   UNL A   1      35.505  20.242  24.945  1.00  0.00     0.188 C 
BRANCH  32  33
ATOM     33  C   UNL A   1      37.051  20.641  24.649  1.00  0.00     0.188 C 
BRANCH  33  34
ATOM     34  O   UNL A   1      38.142  19.800  24.987  1.00  0.00    -0.376 OA
BRANCH  34  35
ATOM     35  C   UNL A   1      39.264  20.282  25.717  1.00  0.00     0.202 C 
BRANCH  35  36
ATOM     36  C   UNL A   1      40.423  19.350  26.128  1.00  0.00     0.261 C 
BRANCH  36  37
ATOM     37  O   UNL A   1      41.615  19.397  25.323  1.00  0.00    -0.460 OA
BRANCH  37  38
ATOM     38  C   UNL A   1      42.765  19.706  25.966  1.00  0.00     0.338 C 
ATOM     39  O   UNL A   1      43.784  19.034  25.964  1.00  0.00    -0.246 OA
BRANCH  38  40
ATOM     40  C   UNL A   1      42.723  21.125  26.435  1.00  0.00     0.060 A 
ATOM     41  C   UNL A   1      42.579  22.116  25.447  1.00  0.00     0.016 A 
ATOM     42  C   UNL A   1      42.653  21.499  27.784  1.00  0.00     0.016 A 
ATOM     43  C   UNL A   1      42.369  23.457  25.792  1.00  0.00     0.010 A 
ATOM     44  C   UNL A   1      42.522  22.863  28.130  1.00  0.00     0.010 A 
ATOM     45  C   UNL A   1      42.404  23.856  27.135  1.00  0.00    -0.014 A 
BRANCH  45  46
ATOM     46  C   UNL A   1      42.651  25.303  27.430  1.00  0.00     0.031 A 
ATOM     47  C   UNL A   1      44.000  25.853  27.023  1.00  0.00     0.074 A 
ATOM     48  C   UNL A   1      41.742  26.151  27.953  1.00  0.00     0.049 A 
ATOM     49  N   UNL A   1      44.495  27.057  27.164  1.00  0.00    -0.248 NA
ATOM     50  C   UNL A   1      44.908  24.910  26.347  1.00  0.00     0.031 C 
ATOM     51  C   UNL A   1      40.366  25.819  28.313  1.00  0.00     0.029 A 
ATOM     52  N   UNL A   1      41.855  27.491  28.273  1.00  0.00    -0.354 N 
ATOM     53  C   UNL A   1      45.767  27.008  26.608  1.00  0.00     0.074 A 
ATOM     54  C   UNL A   1      45.970  25.664  26.121  1.00  0.00     0.031 C 
ATOM     55  C   UNL A   1      39.774  26.914  28.829  1.00  0.00     0.029 A 
ATOM     56  C   UNL A   1      40.736  28.021  28.874  1.00  0.00     0.049 A 
ATOM     57  H   UNL A   1      42.664  28.019  28.088  1.00  0.00     0.167 HD
ATOM     58  C   UNL A   1      46.696  27.988  26.516  1.00  0.00     0.037 A 
ATOM     59  C   UNL A   1      40.524  29.238  29.429  1.00  0.00     0.037 A 
ATOM     60  C   UNL A   1      46.523  29.331  26.994  1.00  0.00     0.049 A 
ATOM     61  C   UNL A   1      41.625  30.283  29.416  1.00  0.00     0.074 A 
ATOM     62  C   UNL A   1      47.413  30.388  26.913  1.00  0.00     0.029 A 
ATOM     63  N   UNL A   1      45.403  29.797  27.660  1.00  0.00    -0.354 N 
ATOM     64  N   UNL A   1      42.811  30.238  28.857  1.00  0.00    -0.248 NA
ATOM     65  C   UNL A   1      41.362  31.550  30.123  1.00  0.00     0.031 C 
ATOM     66  C   UNL A   1      46.868  31.470  27.607  1.00  0.00     0.029 A 
ATOM     67  C   UNL A   1      45.605  31.113  28.046  1.00  0.00     0.049 A 
ATOM     68  H   UNL A   1      44.587  29.274  27.832  1.00  0.00     0.167 HD
ATOM     69  C   UNL A   1      43.412  31.466  29.120  1.00  0.00     0.074 A 
ATOM     70  C   UNL A   1      42.458  32.251  29.867  1.00  0.00     0.031 C 
ATOM     71  C   UNL A   1      44.649  31.902  28.778  1.00  0.00     0.037 A 
BRANCH  58  72
ATOM     72  C   UNL A   1      48.031  27.630  25.933  1.00  0.00     0.064 A 
ATOM     73  C   UNL A   1      49.114  27.244  26.734  1.00  0.00     0.173 A 
ATOM     74  C   UNL A   1      48.197  27.607  24.540  1.00  0.00     0.173 A 
ATOM     75  F   UNL A   1      49.011  27.268  28.071  1.00  0.00    -0.203 F 
ATOM     76  C   UNL A   1      50.323  26.859  26.158  1.00  0.00     0.198 A 
ATOM     77  C   UNL A   1      49.393  27.189  23.969  1.00  0.00     0.198 A 
ATOM     78  F   UNL A   1      47.187  27.966  23.733  1.00  0.00    -0.203 F 
ATOM     79  F   UNL A   1      51.359  26.528  26.940  1.00  0.00    -0.200 F 
ATOM     80  C   UNL A   1      50.456  26.818  24.777  1.00  0.00     0.200 A 
ATOM     81  F   UNL A   1      49.513  27.134  22.635  1.00  0.00    -0.200 F 
ATOM     82  F   UNL A   1      51.612  26.425  24.225  1.00  0.00    -0.200 F 
ENDBRANCH  58  72
BRANCH  59  83
ATOM     83  C   UNL A   1      39.243  29.544  30.138  1.00  0.00     0.064 A 
ATOM     84  C   UNL A   1      38.260  30.367  29.566  1.00  0.00     0.173 A 
ATOM     85  C   UNL A   1      39.028  29.111  31.456  1.00  0.00     0.173 A 
ATOM     86  F   UNL A   1      38.428  30.849  28.326  1.00  0.00    -0.203 F 
ATOM     87  C   UNL A   1      37.140  30.775  30.295  1.00  0.00     0.198 A 
ATOM     88  C   UNL A   1      37.890  29.485  32.169  1.00  0.00     0.198 A 
ATOM     89  F   UNL A   1      39.942  28.341  32.067  1.00  0.00    -0.203 F 
ATOM     90  F   UNL A   1      36.266  31.634  29.752  1.00  0.00    -0.200 F 
ATOM     91  C   UNL A   1      36.955  30.329  31.594  1.00  0.00     0.200 A 
ATOM     92  F   UNL A   1      37.713  29.047  33.423  1.00  0.00    -0.200 F 
ATOM     93  F   UNL A   1      35.887  30.730  32.297  1.00  0.00    -0.200 F 
ENDBRANCH  59  83
BRANCH  71  94
ATOM     94  C   UNL A   1      45.054  33.298  29.167  1.00  0.00     0.064 A 
ATOM     95  C   UNL A   1      44.685  34.416  28.403  1.00  0.00     0.173 A 
ATOM     96  C   UNL A   1      45.744  33.531  30.369  1.00  0.00     0.173 A 
ATOM     97  F   UNL A   1      44.032  34.254  27.243  1.00  0.00    -0.203 F 
ATOM     98  C   UNL A   1      45.007  35.707  28.816  1.00  0.00     0.198 A 
ATOM     99  C   UNL A   1      46.032  34.825  30.797  1.00  0.00     0.198 A 
ATOM    100  F   UNL A   1      46.110  32.502  31.148  1.00  0.00    -0.203 F 
ATOM    101  F   UNL A   1      44.677  36.756  28.049  1.00  0.00    -0.200 F 
ATOM    102  C   UNL A   1      45.669  35.912  30.017  1.00  0.00     0.200 A 
ATOM    103  F   UNL A   1      46.652  35.019  31.970  1.00  0.00    -0.200 F 
ATOM    104  F   UNL A   1      45.959  37.155  30.423  1.00  0.00    -0.200 F 
ENDBRANCH  71  94
ENDBRANCH  45  46
ENDBRANCH  38  40
ENDBRANCH  37  38
ENDBRANCH  36  37
ENDBRANCH  35  36
ENDBRANCH  34  35
ENDBRANCH  33  34
ENDBRANCH  32  33
ENDBRANCH  31  32
ENDBRANCH   1  31
TORSDOF 25
ENDMDL
MODEL 2
REMARK VINA RESULT:     -10.4      2.061      2.915
REMARK SMILES CC(C)C[C@H](Nc1ncnc2scc(-c3ccccc3)c12)C(=O)OCCOCCOCCOCCOC(=O)c1ccc(-c2c3nc(c(-c4c(F)c(F)c(F)c(F)c4F)c4ccc([nH]4)c(-c4c(F)c(F)c(F)c(F)c4F)c4nc(c(-c5c(F)c(F)c(F)c(F)c5F)c5ccc2[nH]5)C=C4)C=C3)cc1
REMARK SMILES IDX 29 1 28 2 27 3 26 4 25 5 24 6 22 7 23 8 5 9 4 10 2 11 1 12
REMARK SMILES IDX 3 13 6 14 7 16 8 17 21 18 9 19 11 20 14 21 10 22 12 23 13 24
REMARK SMILES IDX 15 25 16 26 20 27 17 28 19 29 18 30 30 31 31 32 32 33 33 34
REMARK SMILES IDX 34 35 35 36 36 37 37 38 38 39 39 40 40 41 101 42 41 43
REMARK SMILES IDX 100 44 42 45 43 46 44 47 94 48 45 49 99 50 93 51 95 52 46 53
REMARK SMILES IDX 98 54 92 55 91 56 47 58 79 59 59 60 78 61 60 62 63 63 77 64
REMARK SMILES IDX 96 65 61 66 62 67 76 69 97 70 64 71 48 72 49 73 57 74 50 75
REMARK SMILES IDX 51 76 55 77 58 78 52 79 53 80 56 81 54 82 80 83 81 84 89 85
REMARK SMILES IDX 82 86 83 87 87 88 90 89 84 90 85 91 88 92 86 93 65 94 66 95
REMARK SMILES IDX 74 96 67 97 68 98 72 99 75 100 69 101 70 102 73 103 71 104
REMARK H PARENT 6 15 95 57 63 68
REMARK Flexibility Score: inf
ROOT
ATOM      1  C   UNL A   1      33.918  22.260  27.095  1.00  0.00     0.188 C 
ENDROOT
BRANCH   1   2
ATOM      2  C   UNL A   1      32.380  23.099  27.230  1.00  0.00     0.188 C 
BRANCH   2   3
ATOM      3  O   UNL A   1      31.268  23.307  26.333  1.00  0.00    -0.376 OA
BRANCH   3   4
ATOM      4  C   UNL A   1      30.785  24.480  25.679  1.00  0.00     0.202 C 
BRANCH   4   5
ATOM      5  C   UNL A   1      30.296  25.669  26.488  1.00  0.00     0.261 C 
BRANCH   5   6
ATOM      6  O   UNL A   1      30.874  26.878  26.032  1.00  0.00    -0.462 OA
BRANCH   6   7
ATOM      7  C   UNL A   1      31.422  27.601  27.046  1.00  0.00     0.328 C 
ATOM      8  O   UNL A   1      30.891  27.801  28.134  1.00  0.00    -0.250 OA
BRANCH   7   9
ATOM      9  C   UNL A   1      32.756  28.214  26.649  1.00  0.00     0.191 C 
BRANCH   9  10
ATOM     10  C   UNL A   1      32.820  29.594  27.280  1.00  0.00     0.040 C 
BRANCH  10  11
ATOM     11  C   UNL A   1      34.163  30.339  27.117  1.00  0.00    -0.015 C 
ATOM     12  C   UNL A   1      34.103  31.810  27.549  1.00  0.00     0.007 C 
ATOM     13  C   UNL A   1      35.208  29.607  27.951  1.00  0.00     0.007 C 
ENDBRANCH  10  11
ENDBRANCH   9  10
BRANCH   9  14
ATOM     14  N   UNL A   1      33.061  28.087  25.206  1.00  0.00    -0.356 N 
ATOM     15  H   UNL A   1      32.975  28.907  24.667  1.00  0.00     0.163 HD
BRANCH  14  16
ATOM     16  C   UNL A   1      33.452  26.951  24.536  1.00  0.00     0.139 A 
ATOM     17  N   UNL A   1      34.316  26.152  25.198  1.00  0.00    -0.219 NA
ATOM     18  C   UNL A   1      32.880  26.497  23.311  1.00  0.00     0.062 A 
ATOM     19  C   UNL A   1      34.692  24.993  24.653  1.00  0.00     0.225 A 
ATOM     20  C   UNL A   1      33.391  25.277  22.869  1.00  0.00     0.129 A 
ATOM     21  C   UNL A   1      31.791  26.952  22.404  1.00  0.00     0.006 A 
ATOM     22  N   UNL A   1      34.298  24.498  23.487  1.00  0.00    -0.225 NA
ATOM     23  S   UNL A   1      32.699  24.740  21.410  1.00  0.00    -0.123 S 
ATOM     24  C   UNL A   1      31.593  26.037  21.384  1.00  0.00     0.076 A 
BRANCH  21  25
ATOM     25  C   UNL A   1      30.647  27.841  22.727  1.00  0.00    -0.017 A 
ATOM     26  C   UNL A   1      30.819  29.431  21.957  1.00  0.00     0.009 A 
ATOM     27  C   UNL A   1      29.051  27.330  23.380  1.00  0.00     0.009 A 
ATOM     28  C   UNL A   1      29.466  30.555  21.808  1.00  0.00     0.001 A 
ATOM     29  C   UNL A   1      27.608  28.471  23.235  1.00  0.00     0.001 A 
ATOM     30  C   UNL A   1      27.841  30.071  22.372  1.00  0.00     0.000 A 
ENDBRANCH  21  25
ENDBRANCH  14  16
ENDBRANCH   9  14
ENDBRANCH   7   9
ENDBRANCH   6   7
ENDBRANCH   5   6
ENDBRANCH   4   5
ENDBRANCH   3   4
ENDBRANCH   2   3
ENDBRANCH   1   2
BRANCH   1  31
ATOM     31  O   UNL A   1      34.961  21.670  25.497  1.00  0.00    -0.377 OA
BRANCH  31  32
ATOM     32  C   UNL A   1      36.299  20.911  25.081  1.00  0.00     0.188 C 
BRANCH  32  33
ATOM     33  C   UNL A   1      37.805  21.515  25.037  1.00  0.00     0.188 C 
BRANCH  33  34
ATOM     34  O   UNL A   1      38.899  20.909  25.707  1.00  0.00    -0.376 OA
BRANCH  34  35
ATOM     35  C   UNL A   1      39.929  21.679  26.313  1.00  0.00     0.202 C 
BRANCH  35  36
ATOM     36  C   UNL A   1      41.420  21.318  26.138  1.00  0.00     0.261 C 
BRANCH  36  37
ATOM     37  O   UNL A   1      42.213  22.200  25.323  1.00  0.00    -0.460 OA
BRANCH  37  38
ATOM     38  C   UNL A   1      43.378  22.630  25.860  1.00  0.00     0.338 C 
ATOM     39  O   UNL A   1      44.485  22.174  25.618  1.00  0.00    -0.246 OA
BRANCH  38  40
ATOM     40  C   UNL A   1      43.168  23.933  26.562  1.00  0.00     0.060 A 
ATOM     41  C   UNL A   1      42.920  25.057  25.753  1.00  0.00     0.016 A 
ATOM     42  C   UNL A   1      43.042  24.058  27.953  1.00  0.00     0.016 A 
ATOM     43  C   UNL A   1      42.553  26.286  26.316  1.00  0.00     0.010 A 
ATOM     44  C   UNL A   1      42.750  25.318  28.521  1.00  0.00     0.010 A 
ATOM     45  C   UNL A   1      42.528  26.449  27.707  1.00  0.00    -0.014 A 
BRANCH  45  46
ATOM     46  C   UNL A   1      42.603  27.842  28.251  1.00  0.00     0.031 A 
ATOM     47  C   UNL A   1      43.984  28.449  28.361  1.00  0.00     0.074 A 
ATOM     48  C   UNL A   1      41.538  28.604  28.571  1.00  0.00     0.049 A 
ATOM     49  N   UNL A   1      44.354  29.624  28.805  1.00  0.00    -0.248 NA
ATOM     50  C   UNL A   1      45.100  27.614  27.884  1.00  0.00     0.031 C 
ATOM     51  C   UNL A   1      40.136  28.220  28.437  1.00  0.00     0.029 A 
ATOM     52  N   UNL A   1      41.482  29.887  29.083  1.00  0.00    -0.354 N 
ATOM     53  C   UNL A   1      45.736  29.659  28.672  1.00  0.00     0.074 A 
ATOM     54  C   UNL A   1      46.143  28.396  28.101  1.00  0.00     0.031 C 
ATOM     55  C   UNL A   1      39.362  29.230  28.881  1.00  0.00     0.029 A 
ATOM     56  C   UNL A   1      40.209  30.324  29.369  1.00  0.00     0.049 A 
ATOM     57  H   UNL A   1      42.283  30.439  29.230  1.00  0.00     0.167 HD
ATOM     58  C   UNL A   1      46.600  30.646  29.003  1.00  0.00     0.037 A 
ATOM     59  C   UNL A   1      39.778  31.450  29.984  1.00  0.00     0.037 A 
ATOM     60  C   UNL A   1      46.225  31.909  29.575  1.00  0.00     0.049 A 
ATOM     61  C   UNL A   1      40.779  32.492  30.452  1.00  0.00     0.074 A 
ATOM     62  C   UNL A   1      47.044  32.971  29.914  1.00  0.00     0.029 A 
ATOM     63  N   UNL A   1      44.933  32.273  29.913  1.00  0.00    -0.354 N 
ATOM     64  N   UNL A   1      42.080  32.531  30.290  1.00  0.00    -0.248 NA
ATOM     65  C   UNL A   1      40.250  33.648  31.201  1.00  0.00     0.031 C 
ATOM     66  C   UNL A   1      46.262  33.943  30.539  1.00  0.00     0.029 A 
ATOM     67  C   UNL A   1      44.943  33.523  30.512  1.00  0.00     0.049 A 
ATOM     68  H   UNL A   1      44.129  31.727  29.753  1.00  0.00     0.167 HD
ATOM     69  C   UNL A   1      42.511  33.713  30.885  1.00  0.00     0.074 A 
ATOM     70  C   UNL A   1      41.337  34.382  31.394  1.00  0.00     0.031 C 
ATOM     71  C   UNL A   1      43.772  34.198  31.006  1.00  0.00     0.037 A 
BRANCH  58  72
ATOM     72  C   UNL A   1      48.065  30.379  28.824  1.00  0.00     0.064 A 
ATOM     73  C   UNL A   1      48.807  29.640  29.755  1.00  0.00     0.173 A 
ATOM     74  C   UNL A   1      48.713  30.814  27.658  1.00  0.00     0.173 A 
ATOM     75  F   UNL A   1      48.237  29.218  30.894  1.00  0.00    -0.203 F 
ATOM     76  C   UNL A   1      50.152  29.357  29.529  1.00  0.00     0.198 A 
ATOM     77  C   UNL A   1      50.046  30.500  27.420  1.00  0.00     0.198 A 
ATOM     78  F   UNL A   1      48.043  31.523  26.737  1.00  0.00    -0.203 F 
ATOM     79  F   UNL A   1      50.855  28.680  30.447  1.00  0.00    -0.200 F 
ATOM     80  C   UNL A   1      50.765  29.775  28.357  1.00  0.00     0.200 A 
ATOM     81  F   UNL A   1      50.631  30.890  26.279  1.00  0.00    -0.200 F 
ATOM     82  F   UNL A   1      52.054  29.482  28.131  1.00  0.00    -0.200 F 
ENDBRANCH  58  72
BRANCH  59  83
ATOM     83  C   UNL A   1      38.328  31.649  30.292  1.00  0.00     0.064 A 
ATOM     84  C   UNL A   1      37.549  32.593  29.604  1.00  0.00     0.173 A 
ATOM     85  C   UNL A   1      37.722  30.977  31.366  1.00  0.00     0.173 A 
ATOM     86  F   UNL A   1      38.085  33.299  28.598  1.00  0.00    -0.203 F 
ATOM     87  C   UNL A   1      36.242  32.883  30.001  1.00  0.00     0.198 A 
ATOM     88  C   UNL A   1      36.403  31.237  31.735  1.00  0.00     0.198 A 
ATOM     89  F   UNL A   1      38.421  30.080  32.077  1.00  0.00    -0.203 F 
ATOM     90  F   UNL A   1      35.554  33.853  29.381  1.00  0.00    -0.200 F 
ATOM     91  C   UNL A   1      35.669  32.201  31.063  1.00  0.00     0.200 A 
ATOM     92  F   UNL A   1      35.853  30.572  32.760  1.00  0.00    -0.200 F 
ATOM     93  F   UNL A   1      34.419  32.489  31.452  1.00  0.00    -0.200 F 
ENDBRANCH  59  83
BRANCH  71  94
ATOM     94  C   UNL A   1      43.969  35.529  31.681  1.00  0.00     0.064 A 
ATOM     95  C   UNL A   1      44.304  35.626  33.040  1.00  0.00     0.173 A 
ATOM     96  C   UNL A   1      43.910  36.719  30.939  1.00  0.00     0.173 A 
ATOM     97  F   UNL A   1      44.369  34.523  33.800  1.00  0.00    -0.203 F 
ATOM     98  C   UNL A   1      44.554  36.862  33.632  1.00  0.00     0.198 A 
ATOM     99  C   UNL A   1      44.195  37.950  31.524  1.00  0.00     0.198 A 
ATOM    100  F   UNL A   1      43.607  36.687  29.631  1.00  0.00    -0.203 F 
ATOM    101  F   UNL A   1      44.835  36.933  34.941  1.00  0.00    -0.200 F 
ATOM    102  C   UNL A   1      44.511  38.022  32.873  1.00  0.00     0.200 A 
ATOM    103  F   UNL A   1      44.174  39.066  30.782  1.00  0.00    -0.200 F 
ATOM    104  F   UNL A   1      44.772  39.208  33.439  1.00  0.00    -0.200 F 
ENDBRANCH  71  94
ENDBRANCH  45  46
ENDBRANCH  38  40
ENDBRANCH  37  38
ENDBRANCH  36  37
ENDBRANCH  35  36
ENDBRANCH  34  35
ENDBRANCH  33  34
ENDBRANCH  32  33
ENDBRANCH  31  32
ENDBRANCH   1  31
TORSDOF 25
ENDMDL
MODEL 3
REMARK VINA RESULT:     -10.2      3.523      5.299
REMARK SMILES CC(C)C[C@H](Nc1ncnc2scc(-c3ccccc3)c12)C(=O)OCCOCCOCCOCCOC(=O)c1ccc(-c2c3nc(c(-c4c(F)c(F)c(F)c(F)c4F)c4ccc([nH]4)c(-c4c(F)c(F)c(F)c(F)c4F)c4nc(c(-c5c(F)c(F)c(F)c(F)c5F)c5ccc2[nH]5)C=C4)C=C3)cc1
REMARK SMILES IDX 29 1 28 2 27 3 26 4 25 5 24 6 22 7 23 8 5 9 4 10 2 11 1 12
REMARK SMILES IDX 3 13 6 14 7 16 8 17 21 18 9 19 11 20 14 21 10 22 12 23 13 24
REMARK SMILES IDX 15 25 16 26 20 27 17 28 19 29 18 30 30 31 31 32 32 33 33 34
REMARK SMILES IDX 34 35 35 36 36 37 37 38 38 39 39 40 40 41 101 42 41 43
REMARK SMILES IDX 100 44 42 45 43 46 44 47 94 48 45 49 99 50 93 51 95 52 46 53
REMARK SMILES IDX 98 54 92 55 91 56 47 58 79 59 59 60 78 61 60 62 63 63 77 64
REMARK SMILES IDX 96 65 61 66 62 67 76 69 97 70 64 71 48 72 49 73 57 74 50 75
REMARK SMILES IDX 51 76 55 77 58 78 52 79 53 80 56 81 54 82 80 83 81 84 89 85
REMARK SMILES IDX 82 86 83 87 87 88 90 89 84 90 85 91 88 92 86 93 65 94 66 95
REMARK SMILES IDX 74 96 67 97 68 98 72 99 75 100 69 101 70 102 73 103 71 104
REMARK H PARENT 6 15 95 57 63 68
REMARK Flexibility Score: inf
ROOT
ATOM      1  C   UNL A   1      33.458  22.198  27.362  1.00  0.00     0.188 C 
ENDROOT
BRANCH   1   2
ATOM      2  C   UNL A   1      32.030  23.062  26.812  1.00  0.00     0.188 C 
BRANCH   2   3
ATOM      3  O   UNL A   1      31.372  24.278  27.226  1.00  0.00    -0.376 OA
BRANCH   3   4
ATOM      4  C   UNL A   1      30.190  24.925  26.754  1.00  0.00     0.202 C 
BRANCH   4   5
ATOM      5  C   UNL A   1      30.065  25.335  25.297  1.00  0.00     0.261 C 
BRANCH   5   6
ATOM      6  O   UNL A   1      29.972  26.742  25.162  1.00  0.00    -0.462 OA
BRANCH   6   7
ATOM      7  C   UNL A   1      29.449  27.111  23.961  1.00  0.00     0.328 C 
ATOM      8  O   UNL A   1      28.580  26.492  23.354  1.00  0.00    -0.250 OA
BRANCH   7   9
ATOM      9  C   UNL A   1      30.128  28.352  23.404  1.00  0.00     0.191 C 
BRANCH   9  10
ATOM     10  C   UNL A   1      29.185  28.955  22.377  1.00  0.00     0.040 C 
BRANCH  10  11
ATOM     11  C   UNL A   1      28.399  30.200  22.846  1.00  0.00    -0.015 C 
ATOM     12  C   UNL A   1      29.186  31.089  23.818  1.00  0.00     0.007 C 
ATOM     13  C   UNL A   1      28.024  31.007  21.609  1.00  0.00     0.007 C 
ENDBRANCH  10  11
ENDBRANCH   9  10
BRANCH   9  14
ATOM     14  N   UNL A   1      31.540  28.132  23.017  1.00  0.00    -0.356 N 
ATOM     15  H   UNL A   1      32.072  28.938  22.827  1.00  0.00     0.163 HD
BRANCH  14  16
ATOM     16  C   UNL A   1      32.190  26.925  22.896  1.00  0.00     0.139 A 
ATOM     17  N   UNL A   1      32.077  26.320  21.695  1.00  0.00    -0.219 NA
ATOM     18  C   UNL A   1      33.087  26.390  23.866  1.00  0.00     0.062 A 
ATOM     19  C   UNL A   1      32.734  25.181  21.466  1.00  0.00     0.225 A 
ATOM     20  C   UNL A   1      33.682  25.188  23.481  1.00  0.00     0.129 A 
ATOM     21  C   UNL A   1      33.637  26.833  25.176  1.00  0.00     0.006 A 
ATOM     22  N   UNL A   1      33.532  24.540  22.311  1.00  0.00    -0.225 NA
ATOM     23  S   UNL A   1      34.756  24.559  24.640  1.00  0.00    -0.123 S 
ATOM     24  C   UNL A   1      34.581  25.931  25.638  1.00  0.00     0.076 A 
BRANCH  21  25
ATOM     25  C   UNL A   1      33.730  28.216  25.707  1.00  0.00    -0.017 A 
ATOM     26  C   UNL A   1      32.124  28.945  25.911  1.00  0.00     0.009 A 
ATOM     27  C   UNL A   1      35.158  28.958  26.509  1.00  0.00     0.009 A 
ATOM     28  C   UNL A   1      31.867  30.396  26.882  1.00  0.00     0.001 A 
ATOM     29  C   UNL A   1      34.931  30.470  27.541  1.00  0.00     0.001 A 
ATOM     30  C   UNL A   1      33.237  31.132  27.762  1.00  0.00     0.000 A 
ENDBRANCH  21  25
ENDBRANCH  14  16
ENDBRANCH   9  14
ENDBRANCH   7   9
ENDBRANCH   6   7
ENDBRANCH   5   6
ENDBRANCH   4   5
ENDBRANCH   3   4
ENDBRANCH   2   3
ENDBRANCH   1   2
BRANCH   1  31
ATOM     31  O   UNL A   1      34.783  21.078  26.372  1.00  0.00    -0.377 OA
BRANCH  31  32
ATOM     32  C   UNL A   1      35.599  21.013  25.005  1.00  0.00     0.188 C 
BRANCH  32  33
ATOM     33  C   UNL A   1      37.211  20.979  24.817  1.00  0.00     0.188 C 
BRANCH  33  34
ATOM     34  O   UNL A   1      38.113  20.902  25.910  1.00  0.00    -0.376 OA
BRANCH  34  35
ATOM     35  C   UNL A   1      39.174  21.835  26.076  1.00  0.00     0.202 C 
BRANCH  35  36
ATOM     36  C   UNL A   1      40.648  21.434  25.856  1.00  0.00     0.261 C 
BRANCH  36  37
ATOM     37  O   UNL A   1      41.634  22.105  26.661  1.00  0.00    -0.460 OA
BRANCH  37  38
ATOM     38  C   UNL A   1      42.223  23.192  26.109  1.00  0.00     0.338 C 
ATOM     39  O   UNL A   1      42.709  23.246  24.991  1.00  0.00    -0.246 OA
BRANCH  38  40
ATOM     40  C   UNL A   1      41.936  24.404  26.935  1.00  0.00     0.060 A 
ATOM     41  C   UNL A   1      42.505  25.615  26.503  1.00  0.00     0.016 A 
ATOM     42  C   UNL A   1      41.019  24.426  27.995  1.00  0.00     0.016 A 
ATOM     43  C   UNL A   1      42.169  26.831  27.112  1.00  0.00     0.010 A 
ATOM     44  C   UNL A   1      40.743  25.643  28.660  1.00  0.00     0.010 A 
ATOM     45  C   UNL A   1      41.335  26.852  28.239  1.00  0.00    -0.014 A 
BRANCH  45  46
ATOM     46  C   UNL A   1      41.383  28.059  29.123  1.00  0.00     0.031 A 
ATOM     47  C   UNL A   1      42.653  28.261  29.920  1.00  0.00     0.074 A 
ATOM     48  C   UNL A   1      40.419  29.000  29.197  1.00  0.00     0.049 A 
ATOM     49  N   UNL A   1      42.969  29.204  30.772  1.00  0.00    -0.248 NA
ATOM     50  C   UNL A   1      43.717  27.266  29.708  1.00  0.00     0.031 C 
ATOM     51  C   UNL A   1      39.177  29.019  28.431  1.00  0.00     0.029 A 
ATOM     52  N   UNL A   1      40.348  30.142  29.972  1.00  0.00    -0.354 N 
ATOM     53  C   UNL A   1      44.257  28.906  31.201  1.00  0.00     0.074 A 
ATOM     54  C   UNL A   1      44.668  27.703  30.515  1.00  0.00     0.031 C 
ATOM     55  C   UNL A   1      38.456  30.098  28.794  1.00  0.00     0.029 A 
ATOM     56  C   UNL A   1      39.164  30.833  29.848  1.00  0.00     0.049 A 
ATOM     57  H   UNL A   1      41.079  30.435  30.562  1.00  0.00     0.167 HD
ATOM     58  C   UNL A   1      45.032  29.562  32.095  1.00  0.00     0.037 A 
ATOM     59  C   UNL A   1      38.691  31.904  30.527  1.00  0.00     0.037 A 
ATOM     60  C   UNL A   1      44.647  30.757  32.794  1.00  0.00     0.049 A 
ATOM     61  C   UNL A   1      39.535  32.554  31.609  1.00  0.00     0.074 A 
ATOM     62  C   UNL A   1      45.390  31.495  33.698  1.00  0.00     0.029 A 
ATOM     63  N   UNL A   1      43.413  31.374  32.688  1.00  0.00    -0.354 N 
ATOM     64  N   UNL A   1      40.764  32.285  31.981  1.00  0.00    -0.248 NA
ATOM     65  C   UNL A   1      38.921  33.654  32.375  1.00  0.00     0.031 C 
ATOM     66  C   UNL A   1      44.577  32.508  34.207  1.00  0.00     0.029 A 
ATOM     67  C   UNL A   1      43.356  32.453  33.557  1.00  0.00     0.049 A 
ATOM     68  H   UNL A   1      42.686  31.091  32.088  1.00  0.00     0.167 HD
ATOM     69  C   UNL A   1      41.070  33.192  32.993  1.00  0.00     0.074 A 
ATOM     70  C   UNL A   1      39.913  34.038  33.165  1.00  0.00     0.031 C 
ATOM     71  C   UNL A   1      42.209  33.307  33.719  1.00  0.00     0.037 A 
BRANCH  58  72
ATOM     72  C   UNL A   1      46.364  28.964  32.434  1.00  0.00     0.064 A 
ATOM     73  C   UNL A   1      47.522  29.259  31.700  1.00  0.00     0.173 A 
ATOM     74  C   UNL A   1      46.488  28.136  33.559  1.00  0.00     0.173 A 
ATOM     75  F   UNL A   1      47.451  30.030  30.605  1.00  0.00    -0.203 F 
ATOM     76  C   UNL A   1      48.755  28.734  32.077  1.00  0.00     0.198 A 
ATOM     77  C   UNL A   1      47.727  27.642  33.952  1.00  0.00     0.198 A 
ATOM     78  F   UNL A   1      45.408  27.827  34.293  1.00  0.00    -0.203 F 
ATOM     79  F   UNL A   1      49.845  28.998  31.344  1.00  0.00    -0.200 F 
ATOM     80  C   UNL A   1      48.858  27.939  33.210  1.00  0.00     0.200 A 
ATOM     81  F   UNL A   1      47.826  26.889  35.057  1.00  0.00    -0.200 F 
ATOM     82  F   UNL A   1      50.051  27.454  33.584  1.00  0.00    -0.200 F 
ENDBRANCH  58  72
BRANCH  59  83
ATOM     83  C   UNL A   1      37.304  32.411  30.288  1.00  0.00     0.064 A 
ATOM     84  C   UNL A   1      37.011  33.300  29.241  1.00  0.00     0.173 A 
ATOM     85  C   UNL A   1      36.263  32.105  31.179  1.00  0.00     0.173 A 
ATOM     86  F   UNL A   1      37.975  33.666  28.384  1.00  0.00    -0.203 F 
ATOM     87  C   UNL A   1      35.751  33.889  29.121  1.00  0.00     0.198 A 
ATOM     88  C   UNL A   1      34.993  32.661  31.034  1.00  0.00     0.198 A 
ATOM     89  F   UNL A   1      36.485  31.280  32.214  1.00  0.00    -0.203 F 
ATOM     90  F   UNL A   1      35.529  34.803  28.165  1.00  0.00    -0.200 F 
ATOM     91  C   UNL A   1      34.742  33.565  30.015  1.00  0.00     0.200 A 
ATOM     92  F   UNL A   1      34.020  32.341  31.898  1.00  0.00    -0.200 F 
ATOM     93  F   UNL A   1      33.537  34.141  29.906  1.00  0.00    -0.200 F 
ENDBRANCH  59  83
BRANCH  71  94
ATOM     94  C   UNL A   1      42.297  34.400  34.750  1.00  0.00     0.064 A 
ATOM     95  C   UNL A   1      42.660  35.712  34.409  1.00  0.00     0.173 A 
ATOM     96  C   UNL A   1      41.929  34.153  36.083  1.00  0.00     0.173 A 
ATOM     97  F   UNL A   1      43.028  36.005  33.153  1.00  0.00    -0.203 F 
ATOM     98  C   UNL A   1      42.667  36.727  35.363  1.00  0.00     0.198 A 
ATOM     99  C   UNL A   1      41.902  35.178  37.027  1.00  0.00     0.198 A 
ATOM    100  F   UNL A   1      41.559  32.921  36.466  1.00  0.00    -0.203 F 
ATOM    101  F   UNL A   1      43.054  37.964  35.020  1.00  0.00    -0.200 F 
ATOM    102  C   UNL A   1      42.278  36.463  36.667  1.00  0.00     0.200 A 
ATOM    103  F   UNL A   1      41.503  34.923  38.281  1.00  0.00    -0.200 F 
ATOM    104  F   UNL A   1      42.264  37.445  37.579  1.00  0.00    -0.200 F 
ENDBRANCH  71  94
ENDBRANCH  45  46
ENDBRANCH  38  40
ENDBRANCH  37  38
ENDBRANCH  36  37
ENDBRANCH  35  36
ENDBRANCH  34  35
ENDBRANCH  33  34
ENDBRANCH  32  33
ENDBRANCH  31  32
ENDBRANCH   1  31
TORSDOF 25
ENDMDL
