MODEL 1
REMARK VINA RESULT:      -9.0      0.000      0.000
REMARK SMILES Cc1cc(C(=O)N[C@H](CC(C)C)C(=O)OCCOCCOCCOCCOC(=O)c2ccc(-c3c4nc(c(-c5c(F)c(F)c(F)c(F)c5F)c5ccc([nH]5)c(-c5c(F)c(F)c(F)c(F)c5F)c5nc(c(-c6c(F)c(F)c(F)c(F)c6F)c6ccc3[nH]6)C=C5)C=C4)cc2)sc1Br
REMARK SMILES IDX 21 1 20 2 19 3 18 4 17 5 16 6 15 7 13 8 14 9 8 10 7 11 5 12
REMARK SMILES IDX 6 13 4 15 1 16 2 17 3 18 94 19 93 20 95 21 9 22 10 23 11 24
REMARK SMILES IDX 12 25 22 26 23 27 24 28 25 29 26 30 27 31 28 32 29 33 30 34
REMARK SMILES IDX 31 35 92 36 32 37 91 38 33 39 34 40 35 41 85 42 36 43 90 44
REMARK SMILES IDX 84 45 86 46 37 47 89 48 83 49 82 50 38 52 70 53 50 54 69 55
REMARK SMILES IDX 51 56 54 57 68 58 87 59 52 60 53 61 67 63 88 64 55 65 39 66
REMARK SMILES IDX 40 67 48 68 41 69 42 70 46 71 49 72 43 73 44 74 47 75 45 76
REMARK SMILES IDX 71 77 72 78 80 79 73 80 74 81 78 82 81 83 75 84 76 85 79 86
REMARK SMILES IDX 77 87 56 88 57 89 65 90 58 91 59 92 63 93 66 94 60 95 61 96
REMARK SMILES IDX 64 97 62 98
REMARK H PARENT 7 14 86 51 54 62
REMARK Flexibility Score: inf
ROOT
ATOM      1  O   UNL A   1      50.162  20.237  36.874  1.00  0.00    -0.377 OA
ENDROOT
BRANCH   1   2
ATOM      2  C   UNL A   1      49.679  19.571  38.035  1.00  0.00     0.188 C 
BRANCH   2   3
ATOM      3  C   UNL A   1      48.156  19.643  38.044  1.00  0.00     0.188 C 
BRANCH   3   4
ATOM      4  O   UNL A   1      47.536  18.853  39.064  1.00  0.00    -0.376 OA
BRANCH   4   5
ATOM      5  C   UNL A   1      46.254  18.294  38.765  1.00  0.00     0.202 C 
BRANCH   5   6
ATOM      6  C   UNL A   1      45.922  17.015  39.540  1.00  0.00     0.261 C 
BRANCH   6   7
ATOM      7  O   UNL A   1      45.635  17.299  40.918  1.00  0.00    -0.462 OA
BRANCH   7   8
ATOM      8  C   UNL A   1      44.336  17.164  41.300  1.00  0.00     0.328 C 
ATOM      9  O   UNL A   1      43.388  17.658  40.699  1.00  0.00    -0.250 OA
BRANCH   8  10
ATOM     10  C   UNL A   1      44.199  16.203  42.504  1.00  0.00     0.192 C 
BRANCH  10  11
ATOM     11  N   UNL A   1      42.766  15.985  42.761  1.00  0.00    -0.338 N 
ATOM     12  C   UNL A   1      42.068  14.999  43.411  1.00  0.00     0.262 C 
ATOM     13  O   UNL A   1      40.842  15.085  43.289  1.00  0.00    -0.268 OA
ATOM     14  H   UNL A   1      42.190  16.692  42.390  1.00  0.00     0.164 HD
BRANCH  12  15
ATOM     15  C   UNL A   1      42.717  13.936  44.166  1.00  0.00     0.093 A 
ATOM     16  C   UNL A   1      44.441  10.624  44.778  1.00  0.00     0.046 C 
ATOM     17  C   UNL A   1      43.822  11.976  44.915  1.00  0.00    -0.025 A 
ATOM     18  C   UNL A   1      43.265  12.715  43.808  1.00  0.00     0.030 A 
ATOM     19  C   UNL A   1      43.717  12.718  46.070  1.00  0.00     0.074 A 
ATOM     20  S   UNL A   1      42.945  14.205  45.855  1.00  0.00    -0.123 S 
ATOM     21  Br  UNL A   1      44.375  12.188  47.749  1.00  0.00    -0.039 Br
ENDBRANCH  12  15
ENDBRANCH  10  11
BRANCH  10  22
ATOM     22  C   UNL A   1      44.837  16.679  43.831  1.00  0.00     0.040 C 
BRANCH  22  23
ATOM     23  C   UNL A   1      46.179  16.017  44.195  1.00  0.00    -0.015 C 
ATOM     24  C   UNL A   1      47.367  16.902  43.798  1.00  0.00     0.007 C 
ATOM     25  C   UNL A   1      46.268  15.696  45.691  1.00  0.00     0.007 C 
ENDBRANCH  22  23
ENDBRANCH  10  22
ENDBRANCH   8  10
ENDBRANCH   7   8
ENDBRANCH   6   7
ENDBRANCH   5   6
ENDBRANCH   4   5
ENDBRANCH   3   4
ENDBRANCH   2   3
ENDBRANCH   1   2
BRANCH   1  26
ATOM     26  C   UNL A   1      50.783  19.471  35.847  1.00  0.00     0.188 C 
BRANCH  26  27
ATOM     27  C   UNL A   1      50.848  20.044  34.429  1.00  0.00     0.188 C 
BRANCH  27  28
ATOM     28  O   UNL A   1      49.679  20.672  33.899  1.00  0.00    -0.376 OA
BRANCH  28  29
ATOM     29  C   UNL A   1      48.449  19.955  33.824  1.00  0.00     0.202 C 
BRANCH  29  30
ATOM     30  C   UNL A   1      47.261  20.601  34.513  1.00  0.00     0.261 C 
BRANCH  30  31
ATOM     31  O   UNL A   1      47.591  21.938  34.863  1.00  0.00    -0.460 OA
BRANCH  31  32
ATOM     32  C   UNL A   1      46.764  22.530  35.742  1.00  0.00     0.338 C 
ATOM     33  O   UNL A   1      46.142  21.995  36.655  1.00  0.00    -0.246 OA
BRANCH  32  34
ATOM     34  C   UNL A   1      46.560  23.920  35.316  1.00  0.00     0.060 A 
ATOM     35  C   UNL A   1      45.265  24.385  35.534  1.00  0.00     0.016 A 
ATOM     36  C   UNL A   1      47.396  24.460  34.325  1.00  0.00     0.016 A 
ATOM     37  C   UNL A   1      44.683  25.091  34.515  1.00  0.00     0.010 A 
ATOM     38  C   UNL A   1      46.808  25.160  33.299  1.00  0.00     0.010 A 
ATOM     39  C   UNL A   1      45.431  25.350  33.359  1.00  0.00    -0.014 A 
BRANCH  39  40
ATOM     40  C   UNL A   1      44.680  25.795  32.212  1.00  0.00     0.031 A 
ATOM     41  C   UNL A   1      44.648  24.832  31.105  1.00  0.00     0.074 A 
ATOM     42  C   UNL A   1      44.091  27.000  32.132  1.00  0.00     0.049 A 
ATOM     43  N   UNL A   1      45.212  24.940  29.950  1.00  0.00    -0.248 NA
ATOM     44  C   UNL A   1      44.003  23.542  31.369  1.00  0.00     0.031 C 
ATOM     45  C   UNL A   1      43.783  27.952  33.198  1.00  0.00     0.029 A 
ATOM     46  N   UNL A   1      43.567  27.585  31.021  1.00  0.00    -0.354 N 
ATOM     47  C   UNL A   1      44.869  23.783  29.269  1.00  0.00     0.074 A 
ATOM     48  C   UNL A   1      44.234  22.907  30.222  1.00  0.00     0.031 C 
ATOM     49  C   UNL A   1      42.943  28.894  32.711  1.00  0.00     0.029 A 
ATOM     50  C   UNL A   1      42.769  28.681  31.282  1.00  0.00     0.049 A 
ATOM     51  H   UNL A   1      43.742  27.254  30.110  1.00  0.00     0.167 HD
ATOM     52  C   UNL A   1      44.948  23.708  27.916  1.00  0.00     0.037 A 
ATOM     53  C   UNL A   1      41.960  29.295  30.387  1.00  0.00     0.037 A 
ATOM     54  C   UNL A   1      45.824  24.705  27.364  1.00  0.00     0.049 A 
ATOM     55  C   UNL A   1      42.434  28.946  29.021  1.00  0.00     0.074 A 
ATOM     56  C   UNL A   1      47.165  25.005  27.518  1.00  0.00     0.029 A 
ATOM     57  N   UNL A   1      45.274  25.798  26.743  1.00  0.00    -0.354 N 
ATOM     58  N   UNL A   1      43.537  29.389  28.486  1.00  0.00    -0.248 NA
ATOM     59  C   UNL A   1      41.857  27.776  28.372  1.00  0.00     0.031 C 
ATOM     60  C   UNL A   1      47.250  26.424  27.411  1.00  0.00     0.029 A 
ATOM     61  C   UNL A   1      45.958  26.900  27.191  1.00  0.00     0.049 A 
ATOM     62  H   UNL A   1      44.530  25.794  26.098  1.00  0.00     0.167 HD
ATOM     63  C   UNL A   1      44.004  28.338  27.710  1.00  0.00     0.074 A 
ATOM     64  C   UNL A   1      42.878  27.422  27.589  1.00  0.00     0.031 C 
ATOM     65  C   UNL A   1      45.338  28.174  27.470  1.00  0.00     0.037 A 
BRANCH  52  66
ATOM     66  C   UNL A   1      43.977  22.914  27.095  1.00  0.00     0.064 A 
ATOM     67  C   UNL A   1      42.597  23.084  27.291  1.00  0.00     0.173 A 
ATOM     68  C   UNL A   1      44.358  21.802  26.310  1.00  0.00     0.173 A 
ATOM     69  F   UNL A   1      42.136  24.083  28.058  1.00  0.00    -0.203 F 
ATOM     70  C   UNL A   1      41.669  22.180  26.771  1.00  0.00     0.198 A 
ATOM     71  C   UNL A   1      43.428  20.939  25.743  1.00  0.00     0.198 A 
ATOM     72  F   UNL A   1      45.642  21.449  26.156  1.00  0.00    -0.203 F 
ATOM     73  F   UNL A   1      40.371  22.314  27.076  1.00  0.00    -0.200 F 
ATOM     74  C   UNL A   1      42.084  21.112  25.996  1.00  0.00     0.200 A 
ATOM     75  F   UNL A   1      43.853  19.898  25.013  1.00  0.00    -0.200 F 
ATOM     76  F   UNL A   1      41.197  20.220  25.536  1.00  0.00    -0.200 F 
ENDBRANCH  52  66
BRANCH  53  77
ATOM     77  C   UNL A   1      40.643  29.918  30.638  1.00  0.00     0.064 A 
ATOM     78  C   UNL A   1      40.468  31.306  30.533  1.00  0.00     0.173 A 
ATOM     79  C   UNL A   1      39.470  29.142  30.729  1.00  0.00     0.173 A 
ATOM     80  F   UNL A   1      41.530  32.111  30.391  1.00  0.00    -0.203 F 
ATOM     81  C   UNL A   1      39.194  31.882  30.505  1.00  0.00     0.198 A 
ATOM     82  C   UNL A   1      38.201  29.718  30.714  1.00  0.00     0.198 A 
ATOM     83  F   UNL A   1      39.527  27.803  30.738  1.00  0.00    -0.203 F 
ATOM     84  F   UNL A   1      39.063  33.206  30.340  1.00  0.00    -0.200 F 
ATOM     85  C   UNL A   1      38.062  31.087  30.590  1.00  0.00     0.200 A 
ATOM     86  F   UNL A   1      37.115  28.933  30.762  1.00  0.00    -0.200 F 
ATOM     87  F   UNL A   1      36.841  31.633  30.508  1.00  0.00    -0.200 F 
ENDBRANCH  53  77
BRANCH  65  88
ATOM     88  C   UNL A   1      46.249  29.319  27.801  1.00  0.00     0.064 A 
ATOM     89  C   UNL A   1      46.615  30.312  26.875  1.00  0.00     0.173 A 
ATOM     90  C   UNL A   1      46.666  29.488  29.129  1.00  0.00     0.173 A 
ATOM     91  F   UNL A   1      46.162  30.277  25.615  1.00  0.00    -0.203 F 
ATOM     92  C   UNL A   1      47.411  31.392  27.253  1.00  0.00     0.198 A 
ATOM     93  C   UNL A   1      47.430  30.587  29.511  1.00  0.00     0.198 A 
ATOM     94  F   UNL A   1      46.293  28.604  30.068  1.00  0.00    -0.203 F 
ATOM     95  F   UNL A   1      47.764  32.316  26.348  1.00  0.00    -0.200 F 
ATOM     96  C   UNL A   1      47.813  31.531  28.571  1.00  0.00     0.200 A 
ATOM     97  F   UNL A   1      47.775  30.745  30.797  1.00  0.00    -0.200 F 
ATOM     98  F   UNL A   1      48.549  32.588  28.943  1.00  0.00    -0.200 F 
ENDBRANCH  65  88
ENDBRANCH  39  40
ENDBRANCH  32  34
ENDBRANCH  31  32
ENDBRANCH  30  31
ENDBRANCH  29  30
ENDBRANCH  28  29
ENDBRANCH  27  28
ENDBRANCH  26  27
ENDBRANCH   1  26
TORSDOF 24
ENDMDL
MODEL 2
REMARK VINA RESULT:      -8.9      7.872     11.948
REMARK SMILES Cc1cc(C(=O)N[C@H](CC(C)C)C(=O)OCCOCCOCCOCCOC(=O)c2ccc(-c3c4nc(c(-c5c(F)c(F)c(F)c(F)c5F)c5ccc([nH]5)c(-c5c(F)c(F)c(F)c(F)c5F)c5nc(c(-c6c(F)c(F)c(F)c(F)c6F)c6ccc3[nH]6)C=C5)C=C4)cc2)sc1Br
REMARK SMILES IDX 21 1 20 2 19 3 18 4 17 5 16 6 15 7 13 8 14 9 8 10 7 11 5 12
REMARK SMILES IDX 6 13 4 15 1 16 2 17 3 18 94 19 93 20 95 21 9 22 10 23 11 24
REMARK SMILES IDX 12 25 22 26 23 27 24 28 25 29 26 30 27 31 28 32 29 33 30 34
REMARK SMILES IDX 31 35 92 36 32 37 91 38 33 39 34 40 35 41 85 42 36 43 90 44
REMARK SMILES IDX 84 45 86 46 37 47 89 48 83 49 82 50 38 52 70 53 50 54 69 55
REMARK SMILES IDX 51 56 54 57 68 58 87 59 52 60 53 61 67 63 88 64 55 65 39 66
REMARK SMILES IDX 40 67 48 68 41 69 42 70 46 71 49 72 43 73 44 74 47 75 45 76
REMARK SMILES IDX 71 77 72 78 80 79 73 80 74 81 78 82 81 83 75 84 76 85 79 86
REMARK SMILES IDX 77 87 56 88 57 89 65 90 58 91 59 92 63 93 66 94 60 95 61 96
REMARK SMILES IDX 64 97 62 98
REMARK H PARENT 7 14 86 51 54 62
REMARK Flexibility Score: inf
ROOT
ATOM      1  O   UNL A   1      49.853  27.390  28.224  1.00  0.00    -0.377 OA
ENDROOT
BRANCH   1   2
ATOM      2  C   UNL A   1      50.020  26.007  28.513  1.00  0.00     0.188 C 
BRANCH   2   3
ATOM      3  C   UNL A   1      49.493  25.192  27.338  1.00  0.00     0.188 C 
BRANCH   3   4
ATOM      4  O   UNL A   1      48.290  24.467  27.616  1.00  0.00    -0.376 OA
BRANCH   4   5
ATOM      5  C   UNL A   1      47.278  24.473  26.606  1.00  0.00     0.202 C 
BRANCH   5   6
ATOM      6  C   UNL A   1      45.924  23.920  27.059  1.00  0.00     0.261 C 
BRANCH   6   7
ATOM      7  O   UNL A   1      45.763  24.033  28.482  1.00  0.00    -0.462 OA
BRANCH   7   8
ATOM      8  C   UNL A   1      44.582  24.555  28.912  1.00  0.00     0.328 C 
ATOM      9  O   UNL A   1      44.266  25.732  28.788  1.00  0.00    -0.250 OA
BRANCH   8  10
ATOM     10  C   UNL A   1      43.643  23.451  29.452  1.00  0.00     0.192 C 
BRANCH  10  11
ATOM     11  N   UNL A   1      42.330  23.604  28.804  1.00  0.00    -0.338 N 
ATOM     12  C   UNL A   1      41.750  23.018  27.707  1.00  0.00     0.262 C 
ATOM     13  O   UNL A   1      40.672  23.521  27.377  1.00  0.00    -0.268 OA
ATOM     14  H   UNL A   1      41.748  24.263  29.247  1.00  0.00     0.164 HD
BRANCH  12  15
ATOM     15  C   UNL A   1      42.362  21.909  26.987  1.00  0.00     0.093 A 
ATOM     16  C   UNL A   1      44.693  20.160  24.574  1.00  0.00     0.046 C 
ATOM     17  C   UNL A   1      43.662  20.488  25.603  1.00  0.00    -0.025 A 
ATOM     18  C   UNL A   1      43.375  21.832  26.046  1.00  0.00     0.030 A 
ATOM     19  C   UNL A   1      42.875  19.593  26.292  1.00  0.00     0.074 A 
ATOM     20  S   UNL A   1      41.806  20.324  27.378  1.00  0.00    -0.123 S 
ATOM     21  Br  UNL A   1      42.955  17.725  26.100  1.00  0.00    -0.039 Br
ENDBRANCH  12  15
ENDBRANCH  10  11
BRANCH  10  22
ATOM     22  C   UNL A   1      43.403  23.451  30.981  1.00  0.00     0.040 C 
BRANCH  22  23
ATOM     23  C   UNL A   1      44.633  23.789  31.844  1.00  0.00    -0.015 C 
ATOM     24  C   UNL A   1      44.723  25.293  32.126  1.00  0.00     0.007 C 
ATOM     25  C   UNL A   1      44.623  23.026  33.173  1.00  0.00     0.007 C 
ENDBRANCH  22  23
ENDBRANCH  10  22
ENDBRANCH   8  10
ENDBRANCH   7   8
ENDBRANCH   6   7
ENDBRANCH   5   6
ENDBRANCH   4   5
ENDBRANCH   3   4
ENDBRANCH   2   3
ENDBRANCH   1   2
BRANCH   1  26
ATOM     26  C   UNL A   1      49.075  27.770  27.094  1.00  0.00     0.188 C 
BRANCH  26  27
ATOM     27  C   UNL A   1      47.740  28.486  27.319  1.00  0.00     0.188 C 
BRANCH  27  28
ATOM     28  O   UNL A   1      46.540  27.826  26.911  1.00  0.00    -0.376 OA
BRANCH  28  29
ATOM     29  C   UNL A   1      45.965  28.102  25.637  1.00  0.00     0.202 C 
BRANCH  29  30
ATOM     30  C   UNL A   1      44.985  27.068  25.113  1.00  0.00     0.261 C 
BRANCH  30  31
ATOM     31  O   UNL A   1      43.857  27.011  25.976  1.00  0.00    -0.460 OA
BRANCH  31  32
ATOM     32  C   UNL A   1      42.745  26.474  25.445  1.00  0.00     0.338 C 
ATOM     33  O   UNL A   1      42.678  25.560  24.629  1.00  0.00    -0.246 OA
BRANCH  32  34
ATOM     34  C   UNL A   1      41.599  27.294  25.853  1.00  0.00     0.060 A 
ATOM     35  C   UNL A   1      41.885  28.655  25.926  1.00  0.00     0.016 A 
ATOM     36  C   UNL A   1      40.566  26.701  26.599  1.00  0.00     0.016 A 
ATOM     37  C   UNL A   1      41.419  29.326  27.026  1.00  0.00     0.010 A 
ATOM     38  C   UNL A   1      40.107  27.374  27.706  1.00  0.00     0.010 A 
ATOM     39  C   UNL A   1      40.645  28.629  27.964  1.00  0.00    -0.014 A 
BRANCH  39  40
ATOM     40  C   UNL A   1      40.465  29.282  29.236  1.00  0.00     0.031 A 
ATOM     41  C   UNL A   1      39.306  30.181  29.290  1.00  0.00     0.074 A 
ATOM     42  C   UNL A   1      41.299  29.125  30.277  1.00  0.00     0.049 A 
ATOM     43  N   UNL A   1      39.310  31.468  29.376  1.00  0.00    -0.248 NA
ATOM     44  C   UNL A   1      37.985  29.570  29.108  1.00  0.00     0.031 C 
ATOM     45  C   UNL A   1      42.311  28.094  30.504  1.00  0.00     0.029 A 
ATOM     46  N   UNL A   1      41.337  29.865  31.418  1.00  0.00    -0.354 N 
ATOM     47  C   UNL A   1      37.974  31.834  29.410  1.00  0.00     0.074 A 
ATOM     48  C   UNL A   1      37.206  30.649  29.118  1.00  0.00     0.031 C 
ATOM     49  C   UNL A   1      42.713  28.155  31.795  1.00  0.00     0.029 A 
ATOM     50  C   UNL A   1      42.086  29.303  32.433  1.00  0.00     0.049 A 
ATOM     51  H   UNL A   1      40.869  30.727  31.512  1.00  0.00     0.167 HD
ATOM     52  C   UNL A   1      37.584  33.047  29.879  1.00  0.00     0.037 A 
ATOM     53  C   UNL A   1      42.100  29.717  33.721  1.00  0.00     0.037 A 
ATOM     54  C   UNL A   1      38.653  34.007  29.867  1.00  0.00     0.049 A 
ATOM     55  C   UNL A   1      41.608  31.120  33.760  1.00  0.00     0.074 A 
ATOM     56  C   UNL A   1      39.458  34.544  28.880  1.00  0.00     0.029 A 
ATOM     57  N   UNL A   1      39.262  34.334  31.053  1.00  0.00    -0.354 N 
ATOM     58  N   UNL A   1      42.273  32.149  33.313  1.00  0.00    -0.248 NA
ATOM     59  C   UNL A   1      40.183  31.343  33.959  1.00  0.00     0.031 C 
ATOM     60  C   UNL A   1      40.726  34.752  29.496  1.00  0.00     0.029 A 
ATOM     61  C   UNL A   1      40.614  34.334  30.822  1.00  0.00     0.049 A 
ATOM     62  H   UNL A   1      38.814  34.531  31.907  1.00  0.00     0.167 HD
ATOM     63  C   UNL A   1      41.307  33.000  32.795  1.00  0.00     0.074 A 
ATOM     64  C   UNL A   1      40.041  32.507  33.322  1.00  0.00     0.031 C 
ATOM     65  C   UNL A   1      41.593  33.853  31.768  1.00  0.00     0.037 A 
BRANCH  52  66
ATOM     66  C   UNL A   1      36.302  33.246  30.630  1.00  0.00     0.064 A 
ATOM     67  C   UNL A   1      35.303  34.077  30.097  1.00  0.00     0.173 A 
ATOM     68  C   UNL A   1      36.131  32.861  31.980  1.00  0.00     0.173 A 
ATOM     69  F   UNL A   1      35.398  34.534  28.839  1.00  0.00    -0.203 F 
ATOM     70  C   UNL A   1      34.232  34.522  30.873  1.00  0.00     0.198 A 
ATOM     71  C   UNL A   1      35.030  33.256  32.731  1.00  0.00     0.198 A 
ATOM     72  F   UNL A   1      37.073  32.183  32.649  1.00  0.00    -0.203 F 
ATOM     73  F   UNL A   1      33.363  35.404  30.360  1.00  0.00    -0.200 F 
ATOM     74  C   UNL A   1      34.094  34.109  32.187  1.00  0.00     0.200 A 
ATOM     75  F   UNL A   1      34.928  32.863  34.009  1.00  0.00    -0.200 F 
ATOM     76  F   UNL A   1      33.092  34.573  32.944  1.00  0.00    -0.200 F 
ENDBRANCH  52  66
BRANCH  53  77
ATOM     77  C   UNL A   1      42.232  28.886  34.936  1.00  0.00     0.064 A 
ATOM     78  C   UNL A   1      41.514  27.689  35.076  1.00  0.00     0.173 A 
ATOM     79  C   UNL A   1      43.262  29.113  35.872  1.00  0.00     0.173 A 
ATOM     80  F   UNL A   1      40.553  27.373  34.196  1.00  0.00    -0.203 F 
ATOM     81  C   UNL A   1      41.819  26.766  36.081  1.00  0.00     0.198 A 
ATOM     82  C   UNL A   1      43.555  28.200  36.882  1.00  0.00     0.198 A 
ATOM     83  F   UNL A   1      44.066  30.181  35.768  1.00  0.00    -0.203 F 
ATOM     84  F   UNL A   1      41.154  25.604  36.146  1.00  0.00    -0.200 F 
ATOM     85  C   UNL A   1      42.843  27.020  36.980  1.00  0.00     0.200 A 
ATOM     86  F   UNL A   1      44.572  28.443  37.722  1.00  0.00    -0.200 F 
ATOM     87  F   UNL A   1      43.171  26.113  37.910  1.00  0.00    -0.200 F 
ENDBRANCH  53  77
BRANCH  65  88
ATOM     88  C   UNL A   1      43.038  34.070  31.427  1.00  0.00     0.064 A 
ATOM     89  C   UNL A   1      43.760  33.244  30.549  1.00  0.00     0.173 A 
ATOM     90  C   UNL A   1      43.678  35.222  31.905  1.00  0.00     0.173 A 
ATOM     91  F   UNL A   1      43.180  32.187  29.965  1.00  0.00    -0.203 F 
ATOM     92  C   UNL A   1      45.083  33.530  30.214  1.00  0.00     0.198 A 
ATOM     93  C   UNL A   1      44.987  35.525  31.540  1.00  0.00     0.198 A 
ATOM     94  F   UNL A   1      43.016  36.080  32.697  1.00  0.00    -0.203 F 
ATOM     95  F   UNL A   1      45.758  32.716  29.389  1.00  0.00    -0.200 F 
ATOM     96  C   UNL A   1      45.693  34.672  30.705  1.00  0.00     0.200 A 
ATOM     97  F   UNL A   1      45.556  36.657  31.976  1.00  0.00    -0.200 F 
ATOM     98  F   UNL A   1      46.952  34.967  30.355  1.00  0.00    -0.200 F 
ENDBRANCH  65  88
ENDBRANCH  39  40
ENDBRANCH  32  34
ENDBRANCH  31  32
ENDBRANCH  30  31
ENDBRANCH  29  30
ENDBRANCH  28  29
ENDBRANCH  27  28
ENDBRANCH  26  27
ENDBRANCH   1  26
TORSDOF 24
ENDMDL
MODEL 3
REMARK VINA RESULT:      -8.9      9.531     15.933
REMARK SMILES Cc1cc(C(=O)N[C@H](CC(C)C)C(=O)OCCOCCOCCOCCOC(=O)c2ccc(-c3c4nc(c(-c5c(F)c(F)c(F)c(F)c5F)c5ccc([nH]5)c(-c5c(F)c(F)c(F)c(F)c5F)c5nc(c(-c6c(F)c(F)c(F)c(F)c6F)c6ccc3[nH]6)C=C5)C=C4)cc2)sc1Br
REMARK SMILES IDX 21 1 20 2 19 3 18 4 17 5 16 6 15 7 13 8 14 9 8 10 7 11 5 12
REMARK SMILES IDX 6 13 4 15 1 16 2 17 3 18 94 19 93 20 95 21 9 22 10 23 11 24
REMARK SMILES IDX 12 25 22 26 23 27 24 28 25 29 26 30 27 31 28 32 29 33 30 34
REMARK SMILES IDX 31 35 92 36 32 37 91 38 33 39 34 40 35 41 85 42 36 43 90 44
REMARK SMILES IDX 84 45 86 46 37 47 89 48 83 49 82 50 38 52 70 53 50 54 69 55
REMARK SMILES IDX 51 56 54 57 68 58 87 59 52 60 53 61 67 63 88 64 55 65 39 66
REMARK SMILES IDX 40 67 48 68 41 69 42 70 46 71 49 72 43 73 44 74 47 75 45 76
REMARK SMILES IDX 71 77 72 78 80 79 73 80 74 81 78 82 81 83 75 84 76 85 79 86
REMARK SMILES IDX 77 87 56 88 57 89 65 90 58 91 59 92 63 93 66 94 60 95 61 96
REMARK SMILES IDX 64 97 62 98
REMARK H PARENT 7 14 86 51 54 62
REMARK Flexibility Score: inf
ROOT
ATOM      1  O   UNL A   1      39.450  26.161  27.756  1.00  0.00    -0.377 OA
ENDROOT
BRANCH   1   2
ATOM      2  C   UNL A   1      39.272  24.754  27.878  1.00  0.00     0.188 C 
BRANCH   2   3
ATOM      3  C   UNL A   1      39.328  24.130  26.489  1.00  0.00     0.188 C 
BRANCH   3   4
ATOM      4  O   UNL A   1      39.067  22.723  26.464  1.00  0.00    -0.376 OA
BRANCH   4   5
ATOM      5  C   UNL A   1      37.920  22.286  25.730  1.00  0.00     0.202 C 
BRANCH   5   6
ATOM      6  C   UNL A   1      37.174  23.401  24.993  1.00  0.00     0.261 C 
BRANCH   6   7
ATOM      7  O   UNL A   1      35.794  23.458  25.389  1.00  0.00    -0.462 OA
BRANCH   7   8
ATOM      8  C   UNL A   1      34.915  23.883  24.442  1.00  0.00     0.328 C 
ATOM      9  O   UNL A   1      35.109  23.794  23.235  1.00  0.00    -0.250 OA
BRANCH   8  10
ATOM     10  C   UNL A   1      33.591  24.367  25.079  1.00  0.00     0.192 C 
BRANCH  10  11
ATOM     11  N   UNL A   1      33.857  25.625  25.796  1.00  0.00    -0.338 N 
ATOM     12  C   UNL A   1      33.269  26.865  25.768  1.00  0.00     0.262 C 
ATOM     13  O   UNL A   1      33.875  27.725  26.414  1.00  0.00    -0.268 OA
ATOM     14  H   UNL A   1      34.611  25.565  26.426  1.00  0.00     0.164 HD
BRANCH  12  15
ATOM     15  C   UNL A   1      32.047  27.143  25.026  1.00  0.00     0.093 A 
ATOM     16  C   UNL A   1      28.467  26.707  23.881  1.00  0.00     0.046 C 
ATOM     17  C   UNL A   1      29.865  27.185  24.098  1.00  0.00    -0.025 A 
ATOM     18  C   UNL A   1      30.795  26.552  25.001  1.00  0.00     0.030 A 
ATOM     19  C   UNL A   1      30.456  28.285  23.518  1.00  0.00     0.074 A 
ATOM     20  S   UNL A   1      32.062  28.522  23.988  1.00  0.00    -0.123 S 
ATOM     21  Br  UNL A   1      29.599  29.461  22.328  1.00  0.00    -0.039 Br
ENDBRANCH  12  15
ENDBRANCH  10  11
BRANCH  10  22
ATOM     22  C   UNL A   1      32.926  23.396  26.084  1.00  0.00     0.040 C 
BRANCH  22  23
ATOM     23  C   UNL A   1      31.601  22.766  25.615  1.00  0.00    -0.015 C 
ATOM     24  C   UNL A   1      30.422  23.233  26.478  1.00  0.00     0.007 C 
ATOM     25  C   UNL A   1      31.307  23.084  24.145  1.00  0.00     0.007 C 
ENDBRANCH  22  23
ENDBRANCH  10  22
ENDBRANCH   8  10
ENDBRANCH   7   8
ENDBRANCH   6   7
ENDBRANCH   5   6
ENDBRANCH   4   5
ENDBRANCH   3   4
ENDBRANCH   2   3
ENDBRANCH   1   2
BRANCH   1  26
ATOM     26  C   UNL A   1      39.401  26.966  28.928  1.00  0.00     0.188 C 
BRANCH  26  27
ATOM     27  C   UNL A   1      39.239  28.482  28.781  1.00  0.00     0.188 C 
BRANCH  27  28
ATOM     28  O   UNL A   1      38.224  28.971  27.902  1.00  0.00    -0.376 OA
BRANCH  28  29
ATOM     29  C   UNL A   1      37.603  30.229  28.150  1.00  0.00     0.202 C 
BRANCH  29  30
ATOM     30  C   UNL A   1      36.088  30.251  28.063  1.00  0.00     0.261 C 
BRANCH  30  31
ATOM     31  O   UNL A   1      35.556  30.771  29.274  1.00  0.00    -0.460 OA
BRANCH  31  32
ATOM     32  C   UNL A   1      35.080  32.027  29.208  1.00  0.00     0.338 C 
ATOM     33  O   UNL A   1      34.557  32.573  28.242  1.00  0.00    -0.246 OA
BRANCH  32  34
ATOM     34  C   UNL A   1      35.463  32.728  30.439  1.00  0.00     0.060 A 
ATOM     35  C   UNL A   1      36.650  33.448  30.323  1.00  0.00     0.016 A 
ATOM     36  C   UNL A   1      34.990  32.250  31.673  1.00  0.00     0.016 A 
ATOM     37  C   UNL A   1      37.543  33.336  31.355  1.00  0.00     0.010 A 
ATOM     38  C   UNL A   1      35.891  32.130  32.703  1.00  0.00     0.010 A 
ATOM     39  C   UNL A   1      37.192  32.565  32.472  1.00  0.00    -0.014 A 
BRANCH  39  40
ATOM     40  C   UNL A   1      38.274  32.216  33.358  1.00  0.00     0.031 A 
ATOM     41  C   UNL A   1      38.348  33.044  34.568  1.00  0.00     0.074 A 
ATOM     42  C   UNL A   1      39.169  31.251  33.095  1.00  0.00     0.049 A 
ATOM     43  N   UNL A   1      39.251  33.911  34.876  1.00  0.00    -0.248 NA
ATOM     44  C   UNL A   1      37.208  32.974  35.489  1.00  0.00     0.031 C 
ATOM     45  C   UNL A   1      39.100  30.168  32.114  1.00  0.00     0.029 A 
ATOM     46  N   UNL A   1      40.337  31.012  33.751  1.00  0.00    -0.354 N 
ATOM     47  C   UNL A   1      38.876  34.402  36.117  1.00  0.00     0.074 A 
ATOM     48  C   UNL A   1      37.557  33.889  36.390  1.00  0.00     0.031 C 
ATOM     49  C   UNL A   1      40.078  29.272  32.385  1.00  0.00     0.029 A 
ATOM     50  C   UNL A   1      40.908  29.788  33.464  1.00  0.00     0.049 A 
ATOM     51  H   UNL A   1      40.739  31.656  34.378  1.00  0.00     0.167 HD
ATOM     52  C   UNL A   1      39.764  35.033  36.926  1.00  0.00     0.037 A 
ATOM     53  C   UNL A   1      41.933  29.221  34.140  1.00  0.00     0.037 A 
ATOM     54  C   UNL A   1      40.904  35.531  36.205  1.00  0.00     0.049 A 
ATOM     55  C   UNL A   1      42.651  30.296  34.877  1.00  0.00     0.074 A 
ATOM     56  C   UNL A   1      41.072  36.427  35.166  1.00  0.00     0.029 A 
ATOM     57  N   UNL A   1      42.095  34.858  36.305  1.00  0.00    -0.354 N 
ATOM     58  N   UNL A   1      43.391  31.210  34.314  1.00  0.00    -0.248 NA
ATOM     59  C   UNL A   1      42.234  30.590  36.241  1.00  0.00     0.031 C 
ATOM     60  C   UNL A   1      42.171  35.926  34.408  1.00  0.00     0.029 A 
ATOM     61  C   UNL A   1      42.607  34.759  35.036  1.00  0.00     0.049 A 
ATOM     62  H   UNL A   1      42.506  34.512  37.129  1.00  0.00     0.167 HD
ATOM     63  C   UNL A   1      43.194  32.350  35.081  1.00  0.00     0.074 A 
ATOM     64  C   UNL A   1      42.568  31.880  36.310  1.00  0.00     0.031 C 
ATOM     65  C   UNL A   1      43.302  33.596  34.536  1.00  0.00     0.037 A 
BRANCH  52  66
ATOM     66  C   UNL A   1      39.720  34.914  38.420  1.00  0.00     0.064 A 
ATOM     67  C   UNL A   1      39.807  33.647  39.020  1.00  0.00     0.173 A 
ATOM     68  C   UNL A   1      39.327  35.974  39.268  1.00  0.00     0.173 A 
ATOM     69  F   UNL A   1      40.128  32.568  38.290  1.00  0.00    -0.203 F 
ATOM     70  C   UNL A   1      39.485  33.452  40.364  1.00  0.00     0.198 A 
ATOM     71  C   UNL A   1      39.066  35.787  40.620  1.00  0.00     0.198 A 
ATOM     72  F   UNL A   1      39.075  37.203  38.797  1.00  0.00    -0.203 F 
ATOM     73  F   UNL A   1      39.472  32.210  40.869  1.00  0.00    -0.200 F 
ATOM     74  C   UNL A   1      39.119  34.520  41.163  1.00  0.00     0.200 A 
ATOM     75  F   UNL A   1      38.691  36.832  41.371  1.00  0.00    -0.200 F 
ATOM     76  F   UNL A   1      38.766  34.326  42.440  1.00  0.00    -0.200 F 
ENDBRANCH  52  66
BRANCH  53  77
ATOM     77  C   UNL A   1      42.148  27.785  34.419  1.00  0.00     0.064 A 
ATOM     78  C   UNL A   1      43.019  27.018  33.631  1.00  0.00     0.173 A 
ATOM     79  C   UNL A   1      41.706  27.197  35.621  1.00  0.00     0.173 A 
ATOM     80  F   UNL A   1      43.526  27.524  32.497  1.00  0.00    -0.203 F 
ATOM     81  C   UNL A   1      43.437  25.745  34.030  1.00  0.00     0.198 A 
ATOM     82  C   UNL A   1      42.112  25.922  36.011  1.00  0.00     0.198 A 
ATOM     83  F   UNL A   1      40.948  27.883  36.488  1.00  0.00    -0.203 F 
ATOM     84  F   UNL A   1      44.319  25.066  33.284  1.00  0.00    -0.200 F 
ATOM     85  C   UNL A   1      42.987  25.200  35.223  1.00  0.00     0.200 A 
ATOM     86  F   UNL A   1      41.696  25.424  37.185  1.00  0.00    -0.200 F 
ATOM     87  F   UNL A   1      43.428  24.003  35.633  1.00  0.00    -0.200 F 
ENDBRANCH  53  77
BRANCH  65  88
ATOM     88  C   UNL A   1      43.938  33.710  33.181  1.00  0.00     0.064 A 
ATOM     89  C   UNL A   1      43.234  33.536  31.977  1.00  0.00     0.173 A 
ATOM     90  C   UNL A   1      45.272  34.131  33.096  1.00  0.00     0.173 A 
ATOM     91  F   UNL A   1      41.927  33.243  31.980  1.00  0.00    -0.203 F 
ATOM     92  C   UNL A   1      43.858  33.719  30.744  1.00  0.00     0.198 A 
ATOM     93  C   UNL A   1      45.883  34.349  31.864  1.00  0.00     0.198 A 
ATOM     94  F   UNL A   1      45.974  34.374  34.214  1.00  0.00    -0.203 F 
ATOM     95  F   UNL A   1      43.172  33.528  29.608  1.00  0.00    -0.200 F 
ATOM     96  C   UNL A   1      45.180  34.130  30.689  1.00  0.00     0.200 A 
ATOM     97  F   UNL A   1      47.145  34.796  31.815  1.00  0.00    -0.200 F 
ATOM     98  F   UNL A   1      45.771  34.341  29.504  1.00  0.00    -0.200 F 
ENDBRANCH  65  88
ENDBRANCH  39  40
ENDBRANCH  32  34
ENDBRANCH  31  32
ENDBRANCH  30  31
ENDBRANCH  29  30
ENDBRANCH  28  29
ENDBRANCH  27  28
ENDBRANCH  26  27
ENDBRANCH   1  26
TORSDOF 24
ENDMDL
