MODEL 1
REMARK VINA RESULT:      -9.7      0.000      0.000
REMARK SMILES CCn1nc(C(=O)OCCOCCOCCOCCOC(=O)c2ccc(-c3c4nc(c(-c5c(F)c(F)c(F)c(F)c5F)c5ccc([nH]5)c(-c5c(F)c(F)c(F)c(F)c5F)c5nc(c(-c6c(F)c(F)c(F)c(F)c6F)c6ccc3[nH]6)C=C5)C=C4)cc2)c2c1CC[C@H]([NH2+]Cc1nn(CC)c3ccccc13)C2
REMARK SMILES IDX 13 1 12 2 11 3 10 4 9 5 8 6 6 7 7 8 5 9 3 10 4 11 87 12
REMARK SMILES IDX 86 13 88 14 104 15 89 16 90 17 2 18 1 19 91 20 92 23 93 24
REMARK SMILES IDX 94 25 103 26 95 27 98 28 102 29 99 30 101 31 100 32 96 33
REMARK SMILES IDX 97 34 14 35 15 36 16 37 17 38 18 39 19 40 20 41 21 42 22 43
REMARK SMILES IDX 23 44 24 45 85 46 25 47 84 48 26 49 27 50 28 51 78 52 29 53
REMARK SMILES IDX 83 54 77 55 79 56 30 57 82 58 76 59 75 60 31 62 63 63 43 64
REMARK SMILES IDX 62 65 44 66 47 67 61 68 80 69 45 70 46 71 60 73 81 74 48 75
REMARK SMILES IDX 32 76 33 77 41 78 34 79 35 80 39 81 42 82 36 83 37 84 40 85
REMARK SMILES IDX 38 86 64 87 65 88 73 89 66 90 67 91 71 92 74 93 68 94 69 95
REMARK SMILES IDX 72 96 70 97 49 98 50 99 58 100 51 101 52 102 56 103 59 104
REMARK SMILES IDX 53 105 54 106 57 107 55 108
REMARK H PARENT 91 21 91 22 79 61 47 72
REMARK Flexibility Score: inf
ROOT
ATOM      1  C   UNL A   1      35.567  32.938  27.946  1.00  0.00     0.188 C 
ENDROOT
BRANCH   1   2
ATOM      2  C   UNL A   1      36.692  32.181  28.679  1.00  0.00     0.188 C 
BRANCH   2   3
ATOM      3  O   UNL A   1      36.411  30.784  28.821  1.00  0.00    -0.376 OA
BRANCH   3   4
ATOM      4  C   UNL A   1      36.111  30.108  27.594  1.00  0.00     0.202 C 
BRANCH   4   5
ATOM      5  C   UNL A   1      34.729  29.414  27.607  1.00  0.00     0.261 C 
BRANCH   5   6
ATOM      6  O   UNL A   1      34.147  29.311  26.292  1.00  0.00    -0.458 OA
BRANCH   6   7
ATOM      7  C   UNL A   1      32.958  29.975  26.185  1.00  0.00     0.359 C 
ATOM      8  O   UNL A   1      32.714  30.979  26.849  1.00  0.00    -0.244 OA
BRANCH   7   9
ATOM      9  C   UNL A   1      32.063  29.464  25.129  1.00  0.00     0.174 A 
ATOM     10  N   UNL A   1      30.312  29.512  23.896  1.00  0.00    -0.269 N 
ATOM     11  N   UNL A   1      30.904  30.119  24.930  1.00  0.00    -0.165 NA
ATOM     12  C   UNL A   1      30.997  28.415  23.468  1.00  0.00     0.043 A 
ATOM     13  C   UNL A   1      32.180  28.398  24.177  1.00  0.00     0.014 A 
ATOM     14  C   UNL A   1      30.593  27.445  22.420  1.00  0.00     0.062 C 
ATOM     15  C   UNL A   1      33.265  27.410  23.888  1.00  0.00     0.105 C 
ATOM     16  C   UNL A   1      31.497  26.191  22.495  1.00  0.00     0.072 C 
ATOM     17  C   UNL A   1      33.017  26.535  22.602  1.00  0.00     0.187 C 
BRANCH  10  18
ATOM     18  C   UNL A   1      29.134  30.146  23.339  1.00  0.00     0.141 C 
ATOM     19  C   UNL A   1      29.374  30.736  21.965  1.00  0.00     0.029 C 
ENDBRANCH  10  18
BRANCH  17  20
ATOM     20  N   UNL A   1      33.769  25.247  22.578  1.00  0.00    -0.338 N 
ATOM     21  H   UNL A   1      34.289  25.181  23.454  1.00  0.00     0.346 HD
ATOM     22  H   UNL A   1      34.338  25.296  21.733  1.00  0.00     0.346 HD
BRANCH  20  23
ATOM     23  C   UNL A   1      32.983  23.989  22.432  1.00  0.00     0.320 C 
BRANCH  23  24
ATOM     24  C   UNL A   1      33.280  23.006  23.526  1.00  0.00     0.124 A 
ATOM     25  N   UNL A   1      32.401  22.011  23.740  1.00  0.00    -0.171 NA
ATOM     26  C   UNL A   1      34.414  22.838  24.387  1.00  0.00     0.029 A 
ATOM     27  N   UNL A   1      33.148  21.103  24.381  1.00  0.00    -0.265 N 
ATOM     28  C   UNL A   1      34.438  21.467  24.575  1.00  0.00     0.069 A 
ATOM     29  C   UNL A   1      35.456  23.563  24.986  1.00  0.00     0.012 A 
ATOM     30  C   UNL A   1      35.530  20.724  25.015  1.00  0.00     0.028 A 
ATOM     31  C   UNL A   1      36.432  22.842  25.714  1.00  0.00     0.001 A 
ATOM     32  C   UNL A   1      36.512  21.450  25.656  1.00  0.00     0.002 A 
BRANCH  27  33
ATOM     33  C   UNL A   1      32.618  19.835  24.767  1.00  0.00     0.141 C 
ATOM     34  C   UNL A   1      32.919  18.684  23.841  1.00  0.00     0.029 C 
ENDBRANCH  27  33
ENDBRANCH  23  24
ENDBRANCH  20  23
ENDBRANCH  17  20
ENDBRANCH   7   9
ENDBRANCH   6   7
ENDBRANCH   5   6
ENDBRANCH   4   5
ENDBRANCH   3   4
ENDBRANCH   2   3
ENDBRANCH   1   2
BRANCH   1  35
ATOM     35  O   UNL A   1      34.698  33.603  28.849  1.00  0.00    -0.377 OA
BRANCH  35  36
ATOM     36  C   UNL A   1      35.246  34.183  30.019  1.00  0.00     0.188 C 
BRANCH  36  37
ATOM     37  C   UNL A   1      34.420  33.865  31.279  1.00  0.00     0.188 C 
BRANCH  37  38
ATOM     38  O   UNL A   1      34.998  33.872  32.584  1.00  0.00    -0.376 OA
BRANCH  38  39
ATOM     39  C   UNL A   1      35.450  32.659  33.171  1.00  0.00     0.202 C 
BRANCH  39  40
ATOM     40  C   UNL A   1      36.115  31.673  32.199  1.00  0.00     0.261 C 
BRANCH  40  41
ATOM     41  O   UNL A   1      36.904  30.694  32.856  1.00  0.00    -0.460 OA
BRANCH  41  42
ATOM     42  C   UNL A   1      38.234  30.876  32.694  1.00  0.00     0.338 C 
ATOM     43  O   UNL A   1      38.980  31.544  33.385  1.00  0.00    -0.246 OA
BRANCH  42  44
ATOM     44  C   UNL A   1      38.659  30.197  31.457  1.00  0.00     0.060 A 
ATOM     45  C   UNL A   1      38.708  28.807  31.548  1.00  0.00     0.016 A 
ATOM     46  C   UNL A   1      39.413  30.921  30.521  1.00  0.00     0.016 A 
ATOM     47  C   UNL A   1      39.821  28.197  31.036  1.00  0.00     0.010 A 
ATOM     48  C   UNL A   1      40.520  30.313  29.999  1.00  0.00     0.010 A 
ATOM     49  C   UNL A   1      40.774  29.013  30.420  1.00  0.00    -0.014 A 
BRANCH  49  50
ATOM     50  C   UNL A   1      42.125  28.516  30.386  1.00  0.00     0.031 A 
ATOM     51  C   UNL A   1      42.364  27.581  29.284  1.00  0.00     0.074 A 
ATOM     52  C   UNL A   1      43.034  28.927  31.290  1.00  0.00     0.049 A 
ATOM     53  N   UNL A   1      42.574  26.311  29.356  1.00  0.00    -0.248 NA
ATOM     54  C   UNL A   1      42.160  28.099  27.924  1.00  0.00     0.031 C 
ATOM     55  C   UNL A   1      42.937  30.031  32.252  1.00  0.00     0.029 A 
ATOM     56  N   UNL A   1      44.301  28.474  31.474  1.00  0.00    -0.354 N 
ATOM     57  C   UNL A   1      42.737  25.905  28.041  1.00  0.00     0.074 A 
ATOM     58  C   UNL A   1      42.266  26.981  27.209  1.00  0.00     0.031 C 
ATOM     59  C   UNL A   1      44.166  30.297  32.751  1.00  0.00     0.029 A 
ATOM     60  C   UNL A   1      45.098  29.306  32.246  1.00  0.00     0.049 A 
ATOM     61  H   UNL A   1      44.627  27.628  31.092  1.00  0.00     0.167 HD
ATOM     62  C   UNL A   1      43.537  24.850  27.742  1.00  0.00     0.037 A 
ATOM     63  C   UNL A   1      46.445  29.219  32.355  1.00  0.00     0.037 A 
ATOM     64  C   UNL A   1      43.719  23.982  28.877  1.00  0.00     0.049 A 
ATOM     65  C   UNL A   1      46.834  27.846  31.929  1.00  0.00     0.074 A 
ATOM     66  C   UNL A   1      42.865  23.248  29.678  1.00  0.00     0.029 A 
ATOM     67  N   UNL A   1      44.900  24.064  29.575  1.00  0.00    -0.354 N 
ATOM     68  N   UNL A   1      46.534  26.767  32.601  1.00  0.00    -0.248 NA
ATOM     69  C   UNL A   1      47.144  27.633  30.522  1.00  0.00     0.031 C 
ATOM     70  C   UNL A   1      43.418  23.325  30.991  1.00  0.00     0.029 A 
ATOM     71  C   UNL A   1      44.596  24.069  30.913  1.00  0.00     0.049 A 
ATOM     72  H   UNL A   1      45.803  24.111  29.186  1.00  0.00     0.167 HD
ATOM     73  C   UNL A   1      46.217  25.820  31.636  1.00  0.00     0.074 A 
ATOM     74  C   UNL A   1      46.693  26.384  30.377  1.00  0.00     0.031 C 
ATOM     75  C   UNL A   1      45.343  24.805  31.907  1.00  0.00     0.037 A 
BRANCH  62  76
ATOM     76  C   UNL A   1      44.458  24.858  26.552  1.00  0.00     0.064 A 
ATOM     77  C   UNL A   1      44.396  23.795  25.637  1.00  0.00     0.173 A 
ATOM     78  C   UNL A   1      45.582  25.708  26.430  1.00  0.00     0.173 A 
ATOM     79  F   UNL A   1      43.388  22.911  25.687  1.00  0.00    -0.203 F 
ATOM     80  C   UNL A   1      45.418  23.564  24.713  1.00  0.00     0.198 A 
ATOM     81  C   UNL A   1      46.565  25.512  25.466  1.00  0.00     0.198 A 
ATOM     82  F   UNL A   1      45.843  26.690  27.302  1.00  0.00    -0.203 F 
ATOM     83  F   UNL A   1      45.381  22.467  23.945  1.00  0.00    -0.200 F 
ATOM     84  C   UNL A   1      46.501  24.421  24.630  1.00  0.00     0.200 A 
ATOM     85  F   UNL A   1      47.615  26.344  25.419  1.00  0.00    -0.200 F 
ATOM     86  F   UNL A   1      47.508  24.168  23.785  1.00  0.00    -0.200 F 
ENDBRANCH  62  76
BRANCH  63  87
ATOM     87  C   UNL A   1      47.403  30.347  32.431  1.00  0.00     0.064 A 
ATOM     88  C   UNL A   1      47.490  31.304  31.409  1.00  0.00     0.173 A 
ATOM     89  C   UNL A   1      48.082  30.650  33.630  1.00  0.00     0.173 A 
ATOM     90  F   UNL A   1      46.828  31.121  30.258  1.00  0.00    -0.203 F 
ATOM     91  C   UNL A   1      48.208  32.493  31.579  1.00  0.00     0.198 A 
ATOM     92  C   UNL A   1      48.805  31.831  33.795  1.00  0.00     0.198 A 
ATOM     93  F   UNL A   1      47.981  29.850  34.701  1.00  0.00    -0.203 F 
ATOM     94  F   UNL A   1      48.227  33.410  30.600  1.00  0.00    -0.200 F 
ATOM     95  C   UNL A   1      48.861  32.758  32.773  1.00  0.00     0.200 A 
ATOM     96  F   UNL A   1      49.396  32.090  34.970  1.00  0.00    -0.200 F 
ATOM     97  F   UNL A   1      49.506  33.919  32.954  1.00  0.00    -0.200 F 
ENDBRANCH  63  87
BRANCH  75  98
ATOM     98  C   UNL A   1      44.935  24.613  33.341  1.00  0.00     0.064 A 
ATOM     99  C   UNL A   1      45.639  23.795  34.243  1.00  0.00     0.173 A 
ATOM    100  C   UNL A   1      43.890  25.388  33.856  1.00  0.00     0.173 A 
ATOM    101  F   UNL A   1      46.713  23.102  33.846  1.00  0.00    -0.203 F 
ATOM    102  C   UNL A   1      45.281  23.725  35.589  1.00  0.00     0.198 A 
ATOM    103  C   UNL A   1      43.557  25.344  35.208  1.00  0.00     0.198 A 
ATOM    104  F   UNL A   1      43.223  26.232  33.054  1.00  0.00    -0.203 F 
ATOM    105  F   UNL A   1      45.962  22.928  36.426  1.00  0.00    -0.200 F 
ATOM    106  C   UNL A   1      44.244  24.506  36.071  1.00  0.00     0.200 A 
ATOM    107  F   UNL A   1      42.585  26.137  35.680  1.00  0.00    -0.200 F 
ATOM    108  F   UNL A   1      43.925  24.472  37.373  1.00  0.00    -0.200 F 
ENDBRANCH  75  98
ENDBRANCH  49  50
ENDBRANCH  42  44
ENDBRANCH  41  42
ENDBRANCH  40  41
ENDBRANCH  39  40
ENDBRANCH  38  39
ENDBRANCH  37  38
ENDBRANCH  36  37
ENDBRANCH  35  36
ENDBRANCH   1  35
TORSDOF 25
ENDMDL
MODEL 2
REMARK VINA RESULT:      -9.4      1.800      6.623
REMARK SMILES CCn1nc(C(=O)OCCOCCOCCOCCOC(=O)c2ccc(-c3c4nc(c(-c5c(F)c(F)c(F)c(F)c5F)c5ccc([nH]5)c(-c5c(F)c(F)c(F)c(F)c5F)c5nc(c(-c6c(F)c(F)c(F)c(F)c6F)c6ccc3[nH]6)C=C5)C=C4)cc2)c2c1CC[C@H]([NH2+]Cc1nn(CC)c3ccccc13)C2
REMARK SMILES IDX 13 1 12 2 11 3 10 4 9 5 8 6 6 7 7 8 5 9 3 10 4 11 87 12
REMARK SMILES IDX 86 13 88 14 104 15 89 16 90 17 2 18 1 19 91 20 92 23 93 24
REMARK SMILES IDX 94 25 103 26 95 27 98 28 102 29 99 30 101 31 100 32 96 33
REMARK SMILES IDX 97 34 14 35 15 36 16 37 17 38 18 39 19 40 20 41 21 42 22 43
REMARK SMILES IDX 23 44 24 45 85 46 25 47 84 48 26 49 27 50 28 51 78 52 29 53
REMARK SMILES IDX 83 54 77 55 79 56 30 57 82 58 76 59 75 60 31 62 63 63 43 64
REMARK SMILES IDX 62 65 44 66 47 67 61 68 80 69 45 70 46 71 60 73 81 74 48 75
REMARK SMILES IDX 32 76 33 77 41 78 34 79 35 80 39 81 42 82 36 83 37 84 40 85
REMARK SMILES IDX 38 86 64 87 65 88 73 89 66 90 67 91 71 92 74 93 68 94 69 95
REMARK SMILES IDX 72 96 70 97 49 98 50 99 58 100 51 101 52 102 56 103 59 104
REMARK SMILES IDX 53 105 54 106 57 107 55 108
REMARK H PARENT 91 21 91 22 79 61 47 72
REMARK Flexibility Score: inf
ROOT
ATOM      1  C   UNL A   1      36.237  32.212  27.647  1.00  0.00     0.188 C 
ENDROOT
BRANCH   1   2
ATOM      2  C   UNL A   1      36.457  31.475  28.982  1.00  0.00     0.188 C 
BRANCH   2   3
ATOM      3  O   UNL A   1      36.175  30.074  28.888  1.00  0.00    -0.376 OA
BRANCH   3   4
ATOM      4  C   UNL A   1      35.631  29.658  27.629  1.00  0.00     0.202 C 
BRANCH   4   5
ATOM      5  C   UNL A   1      34.088  29.563  27.638  1.00  0.00     0.261 C 
BRANCH   5   6
ATOM      6  O   UNL A   1      33.563  28.948  26.445  1.00  0.00    -0.458 OA
BRANCH   6   7
ATOM      7  C   UNL A   1      32.506  29.633  25.917  1.00  0.00     0.359 C 
ATOM      8  O   UNL A   1      32.227  30.774  26.276  1.00  0.00    -0.244 OA
BRANCH   7   9
ATOM      9  C   UNL A   1      31.820  28.942  24.807  1.00  0.00     0.174 A 
ATOM     10  N   UNL A   1      30.288  28.725  23.325  1.00  0.00    -0.269 N 
ATOM     11  N   UNL A   1      30.675  29.485  24.354  1.00  0.00    -0.165 NA
ATOM     12  C   UNL A   1      31.090  27.638  23.146  1.00  0.00     0.043 A 
ATOM     13  C   UNL A   1      32.144  27.786  24.023  1.00  0.00     0.014 A 
ATOM     14  C   UNL A   1      30.912  26.529  22.175  1.00  0.00     0.062 C 
ATOM     15  C   UNL A   1      33.312  26.852  24.027  1.00  0.00     0.105 C 
ATOM     16  C   UNL A   1      31.857  25.360  22.542  1.00  0.00     0.072 C 
ATOM     17  C   UNL A   1      33.320  25.821  22.837  1.00  0.00     0.187 C 
BRANCH  10  18
ATOM     18  C   UNL A   1      29.183  29.205  22.521  1.00  0.00     0.141 C 
ATOM     19  C   UNL A   1      29.075  30.715  22.507  1.00  0.00     0.029 C 
ENDBRANCH  10  18
BRANCH  17  20
ATOM     20  N   UNL A   1      34.133  24.596  23.087  1.00  0.00    -0.338 N 
ATOM     21  H   UNL A   1      34.707  24.437  22.258  1.00  0.00     0.346 HD
ATOM     22  H   UNL A   1      33.449  23.869  23.292  1.00  0.00     0.346 HD
BRANCH  20  23
ATOM     23  C   UNL A   1      35.046  24.600  24.265  1.00  0.00     0.320 C 
BRANCH  23  24
ATOM     24  C   UNL A   1      35.173  23.241  24.887  1.00  0.00     0.124 A 
ATOM     25  N   UNL A   1      34.045  22.576  25.194  1.00  0.00    -0.171 NA
ATOM     26  C   UNL A   1      36.309  22.409  25.158  1.00  0.00     0.029 A 
ATOM     27  N   UNL A   1      34.469  21.307  25.252  1.00  0.00    -0.265 N 
ATOM     28  C   UNL A   1      35.787  21.138  24.995  1.00  0.00     0.069 A 
ATOM     29  C   UNL A   1      37.681  22.483  25.444  1.00  0.00     0.012 A 
ATOM     30  C   UNL A   1      36.523  19.977  24.775  1.00  0.00     0.028 A 
ATOM     31  C   UNL A   1      38.406  21.271  25.531  1.00  0.00     0.001 A 
ATOM     32  C   UNL A   1      37.857  20.055  25.122  1.00  0.00     0.002 A 
BRANCH  27  33
ATOM     33  C   UNL A   1      33.569  20.228  25.509  1.00  0.00     0.141 C 
ATOM     34  C   UNL A   1      33.124  19.438  24.304  1.00  0.00     0.029 C 
ENDBRANCH  27  33
ENDBRANCH  23  24
ENDBRANCH  20  23
ENDBRANCH  17  20
ENDBRANCH   7   9
ENDBRANCH   6   7
ENDBRANCH   5   6
ENDBRANCH   4   5
ENDBRANCH   3   4
ENDBRANCH   2   3
ENDBRANCH   1   2
BRANCH   1  35
ATOM     35  O   UNL A   1      35.351  33.311  27.786  1.00  0.00    -0.377 OA
BRANCH  35  36
ATOM     36  C   UNL A   1      35.400  34.078  28.976  1.00  0.00     0.188 C 
BRANCH  36  37
ATOM     37  C   UNL A   1      34.083  34.020  29.771  1.00  0.00     0.188 C 
BRANCH  37  38
ATOM     38  O   UNL A   1      34.044  34.201  31.186  1.00  0.00    -0.376 OA
BRANCH  38  39
ATOM     39  C   UNL A   1      35.187  33.898  31.976  1.00  0.00     0.202 C 
BRANCH  39  40
ATOM     40  C   UNL A   1      35.447  32.401  32.199  1.00  0.00     0.261 C 
BRANCH  40  41
ATOM     41  O   UNL A   1      36.419  32.149  33.202  1.00  0.00    -0.460 OA
BRANCH  41  42
ATOM     42  C   UNL A   1      37.619  31.772  32.706  1.00  0.00     0.338 C 
ATOM     43  O   UNL A   1      38.243  32.292  31.800  1.00  0.00    -0.246 OA
BRANCH  42  44
ATOM     44  C   UNL A   1      38.045  30.535  33.384  1.00  0.00     0.060 A 
ATOM     45  C   UNL A   1      39.112  30.697  34.266  1.00  0.00     0.016 A 
ATOM     46  C   UNL A   1      37.739  29.305  32.784  1.00  0.00     0.016 A 
ATOM     47  C   UNL A   1      40.118  29.773  34.189  1.00  0.00     0.010 A 
ATOM     48  C   UNL A   1      38.737  28.374  32.714  1.00  0.00     0.010 A 
ATOM     49  C   UNL A   1      39.957  28.724  33.279  1.00  0.00    -0.014 A 
BRANCH  49  50
ATOM     50  C   UNL A   1      41.161  28.100  32.793  1.00  0.00     0.031 A 
ATOM     51  C   UNL A   1      41.966  27.498  33.858  1.00  0.00     0.074 A 
ATOM     52  C   UNL A   1      41.447  28.086  31.477  1.00  0.00     0.049 A 
ATOM     53  N   UNL A   1      43.109  27.893  34.304  1.00  0.00    -0.248 NA
ATOM     54  C   UNL A   1      41.327  26.433  34.645  1.00  0.00     0.031 C 
ATOM     55  C   UNL A   1      40.581  28.442  30.347  1.00  0.00     0.029 A 
ATOM     56  N   UNL A   1      42.581  27.654  30.867  1.00  0.00    -0.354 N 
ATOM     57  C   UNL A   1      43.431  26.986  35.302  1.00  0.00     0.074 A 
ATOM     58  C   UNL A   1      42.228  26.257  35.609  1.00  0.00     0.031 C 
ATOM     59  C   UNL A   1      41.144  28.001  29.198  1.00  0.00     0.029 A 
ATOM     60  C   UNL A   1      42.454  27.456  29.501  1.00  0.00     0.049 A 
ATOM     61  H   UNL A   1      43.422  27.496  31.354  1.00  0.00     0.167 HD
ATOM     62  C   UNL A   1      44.728  26.691  35.569  1.00  0.00     0.037 A 
ATOM     63  C   UNL A   1      43.339  26.789  28.722  1.00  0.00     0.037 A 
ATOM     64  C   UNL A   1      45.615  27.732  35.116  1.00  0.00     0.049 A 
ATOM     65  C   UNL A   1      44.635  26.754  29.456  1.00  0.00     0.074 A 
ATOM     66  C   UNL A   1      45.748  29.078  35.400  1.00  0.00     0.029 A 
ATOM     67  N   UNL A   1      46.310  27.531  33.948  1.00  0.00    -0.354 N 
ATOM     68  N   UNL A   1      45.365  27.812  29.686  1.00  0.00    -0.248 NA
ATOM     69  C   UNL A   1      44.883  25.625  30.342  1.00  0.00     0.031 C 
ATOM     70  C   UNL A   1      46.118  29.690  34.165  1.00  0.00     0.029 A 
ATOM     71  C   UNL A   1      46.225  28.682  33.206  1.00  0.00     0.049 A 
ATOM     72  H   UNL A   1      46.785  26.708  33.689  1.00  0.00     0.167 HD
ATOM     73  C   UNL A   1      45.857  27.636  30.974  1.00  0.00     0.074 A 
ATOM     74  C   UNL A   1      45.597  26.236  31.293  1.00  0.00     0.031 C 
ATOM     75  C   UNL A   1      46.162  28.708  31.763  1.00  0.00     0.037 A 
BRANCH  62  76
ATOM     76  C   UNL A   1      45.184  25.287  35.862  1.00  0.00     0.064 A 
ATOM     77  C   UNL A   1      44.954  24.284  34.907  1.00  0.00     0.173 A 
ATOM     78  C   UNL A   1      45.573  24.836  37.145  1.00  0.00     0.173 A 
ATOM     79  F   UNL A   1      44.549  24.602  33.668  1.00  0.00    -0.203 F 
ATOM     80  C   UNL A   1      45.043  22.928  35.233  1.00  0.00     0.198 A 
ATOM     81  C   UNL A   1      45.723  23.487  37.448  1.00  0.00     0.198 A 
ATOM     82  F   UNL A   1      45.711  25.661  38.189  1.00  0.00    -0.203 F 
ATOM     83  F   UNL A   1      44.691  22.004  34.329  1.00  0.00    -0.200 F 
ATOM     84  C   UNL A   1      45.426  22.532  36.503  1.00  0.00     0.200 A 
ATOM     85  F   UNL A   1      46.074  23.127  38.690  1.00  0.00    -0.200 F 
ATOM     86  F   UNL A   1      45.455  21.235  36.832  1.00  0.00    -0.200 F 
ENDBRANCH  62  76
BRANCH  63  87
ATOM     87  C   UNL A   1      43.021  25.881  27.595  1.00  0.00     0.064 A 
ATOM     88  C   UNL A   1      43.809  25.851  26.435  1.00  0.00     0.173 A 
ATOM     89  C   UNL A   1      42.078  24.841  27.737  1.00  0.00     0.173 A 
ATOM     90  F   UNL A   1      44.767  26.769  26.248  1.00  0.00    -0.203 F 
ATOM     91  C   UNL A   1      43.665  24.839  25.478  1.00  0.00     0.198 A 
ATOM     92  C   UNL A   1      41.929  23.839  26.780  1.00  0.00     0.198 A 
ATOM     93  F   UNL A   1      41.346  24.722  28.854  1.00  0.00    -0.203 F 
ATOM     94  F   UNL A   1      44.470  24.812  24.406  1.00  0.00    -0.200 F 
ATOM     95  C   UNL A   1      42.729  23.832  25.653  1.00  0.00     0.200 A 
ATOM     96  F   UNL A   1      41.048  22.850  26.984  1.00  0.00    -0.200 F 
ATOM     97  F   UNL A   1      42.626  22.836  24.763  1.00  0.00    -0.200 F 
ENDBRANCH  63  87
BRANCH  75  98
ATOM     98  C   UNL A   1      46.179  30.062  31.109  1.00  0.00     0.064 A 
ATOM     99  C   UNL A   1      45.043  30.883  30.998  1.00  0.00     0.173 A 
ATOM    100  C   UNL A   1      47.407  30.604  30.712  1.00  0.00     0.173 A 
ATOM    101  F   UNL A   1      43.852  30.472  31.451  1.00  0.00    -0.203 F 
ATOM    102  C   UNL A   1      45.129  32.171  30.473  1.00  0.00     0.198 A 
ATOM    103  C   UNL A   1      47.497  31.904  30.220  1.00  0.00     0.198 A 
ATOM    104  F   UNL A   1      48.533  29.888  30.851  1.00  0.00    -0.203 F 
ATOM    105  F   UNL A   1      44.028  32.930  30.368  1.00  0.00    -0.200 F 
ATOM    106  C   UNL A   1      46.358  32.683  30.091  1.00  0.00     0.200 A 
ATOM    107  F   UNL A   1      48.694  32.413  29.896  1.00  0.00    -0.200 F 
ATOM    108  F   UNL A   1      46.449  33.936  29.623  1.00  0.00    -0.200 F 
ENDBRANCH  75  98
ENDBRANCH  49  50
ENDBRANCH  42  44
ENDBRANCH  41  42
ENDBRANCH  40  41
ENDBRANCH  39  40
ENDBRANCH  38  39
ENDBRANCH  37  38
ENDBRANCH  36  37
ENDBRANCH  35  36
ENDBRANCH   1  35
TORSDOF 25
ENDMDL
MODEL 3
REMARK VINA RESULT:      -9.4      8.735     15.050
REMARK SMILES CCn1nc(C(=O)OCCOCCOCCOCCOC(=O)c2ccc(-c3c4nc(c(-c5c(F)c(F)c(F)c(F)c5F)c5ccc([nH]5)c(-c5c(F)c(F)c(F)c(F)c5F)c5nc(c(-c6c(F)c(F)c(F)c(F)c6F)c6ccc3[nH]6)C=C5)C=C4)cc2)c2c1CC[C@H]([NH2+]Cc1nn(CC)c3ccccc13)C2
REMARK SMILES IDX 13 1 12 2 11 3 10 4 9 5 8 6 6 7 7 8 5 9 3 10 4 11 87 12
REMARK SMILES IDX 86 13 88 14 104 15 89 16 90 17 2 18 1 19 91 20 92 23 93 24
REMARK SMILES IDX 94 25 103 26 95 27 98 28 102 29 99 30 101 31 100 32 96 33
REMARK SMILES IDX 97 34 14 35 15 36 16 37 17 38 18 39 19 40 20 41 21 42 22 43
REMARK SMILES IDX 23 44 24 45 85 46 25 47 84 48 26 49 27 50 28 51 78 52 29 53
REMARK SMILES IDX 83 54 77 55 79 56 30 57 82 58 76 59 75 60 31 62 63 63 43 64
REMARK SMILES IDX 62 65 44 66 47 67 61 68 80 69 45 70 46 71 60 73 81 74 48 75
REMARK SMILES IDX 32 76 33 77 41 78 34 79 35 80 39 81 42 82 36 83 37 84 40 85
REMARK SMILES IDX 38 86 64 87 65 88 73 89 66 90 67 91 71 92 74 93 68 94 69 95
REMARK SMILES IDX 72 96 70 97 49 98 50 99 58 100 51 101 52 102 56 103 59 104
REMARK SMILES IDX 53 105 54 106 57 107 55 108
REMARK H PARENT 91 21 91 22 79 61 47 72
REMARK Flexibility Score: inf
ROOT
ATOM      1  C   UNL A   1      42.416  42.651  21.331  1.00  0.00     0.188 C 
ENDROOT
BRANCH   1   2
ATOM      2  C   UNL A   1      43.795  43.020  20.749  1.00  0.00     0.188 C 
BRANCH   2   3
ATOM      3  O   UNL A   1      44.745  41.955  20.872  1.00  0.00    -0.376 OA
BRANCH   3   4
ATOM      4  C   UNL A   1      46.106  42.384  21.005  1.00  0.00     0.202 C 
BRANCH   4   5
ATOM      5  C   UNL A   1      46.595  42.399  22.471  1.00  0.00     0.261 C 
BRANCH   5   6
ATOM      6  O   UNL A   1      46.427  43.686  23.099  1.00  0.00    -0.458 OA
BRANCH   6   7
ATOM      7  C   UNL A   1      47.595  44.191  23.595  1.00  0.00     0.359 C 
ATOM      8  O   UNL A   1      48.432  44.722  22.870  1.00  0.00    -0.244 OA
BRANCH   7   9
ATOM      9  C   UNL A   1      47.702  44.157  25.067  1.00  0.00     0.174 A 
ATOM     10  N   UNL A   1      48.212  44.971  26.982  1.00  0.00    -0.269 N 
ATOM     11  N   UNL A   1      48.296  45.205  25.668  1.00  0.00    -0.165 NA
ATOM     12  C   UNL A   1      47.669  43.754  27.265  1.00  0.00     0.043 A 
ATOM     13  C   UNL A   1      47.242  43.232  26.062  1.00  0.00     0.014 A 
ATOM     14  C   UNL A   1      47.514  43.117  28.597  1.00  0.00     0.062 C 
ATOM     15  C   UNL A   1      46.466  41.957  25.979  1.00  0.00     0.105 C 
ATOM     16  C   UNL A   1      47.161  41.621  28.420  1.00  0.00     0.072 C 
ATOM     17  C   UNL A   1      46.025  41.377  27.376  1.00  0.00     0.187 C 
BRANCH  10  18
ATOM     18  C   UNL A   1      48.598  46.046  27.874  1.00  0.00     0.141 C 
ATOM     19  C   UNL A   1      47.721  47.272  27.737  1.00  0.00     0.029 C 
ENDBRANCH  10  18
BRANCH  17  20
ATOM     20  N   UNL A   1      45.729  39.915  27.371  1.00  0.00    -0.338 N 
ATOM     21  H   UNL A   1      44.739  39.804  27.594  1.00  0.00     0.346 HD
ATOM     22  H   UNL A   1      46.378  39.518  28.051  1.00  0.00     0.346 HD
BRANCH  20  23
ATOM     23  C   UNL A   1      45.990  39.160  26.113  1.00  0.00     0.320 C 
BRANCH  23  24
ATOM     24  C   UNL A   1      47.009  38.076  26.305  1.00  0.00     0.124 A 
ATOM     25  N   UNL A   1      46.635  36.805  26.075  1.00  0.00    -0.171 NA
ATOM     26  C   UNL A   1      48.409  38.115  26.614  1.00  0.00     0.029 A 
ATOM     27  N   UNL A   1      47.808  36.196  25.861  1.00  0.00    -0.265 N 
ATOM     28  C   UNL A   1      48.888  37.007  25.937  1.00  0.00     0.069 A 
ATOM     29  C   UNL A   1      49.367  38.900  27.274  1.00  0.00     0.012 A 
ATOM     30  C   UNL A   1      50.217  36.778  25.589  1.00  0.00     0.028 A 
ATOM     31  C   UNL A   1      50.722  38.505  27.187  1.00  0.00     0.001 A 
ATOM     32  C   UNL A   1      51.144  37.517  26.295  1.00  0.00     0.002 A 
BRANCH  27  33
ATOM     33  C   UNL A   1      47.881  34.811  25.523  1.00  0.00     0.141 C 
ATOM     34  C   UNL A   1      47.184  33.863  26.466  1.00  0.00     0.029 C 
ENDBRANCH  27  33
ENDBRANCH  23  24
ENDBRANCH  20  23
ENDBRANCH  17  20
ENDBRANCH   7   9
ENDBRANCH   6   7
ENDBRANCH   5   6
ENDBRANCH   4   5
ENDBRANCH   3   4
ENDBRANCH   2   3
ENDBRANCH   1   2
BRANCH   1  35
ATOM     35  O   UNL A   1      42.528  41.861  22.504  1.00  0.00    -0.377 OA
BRANCH  35  36
ATOM     36  C   UNL A   1      42.045  42.387  23.728  1.00  0.00     0.188 C 
BRANCH  36  37
ATOM     37  C   UNL A   1      42.885  41.938  24.937  1.00  0.00     0.188 C 
BRANCH  37  38
ATOM     38  O   UNL A   1      42.783  40.623  25.483  1.00  0.00    -0.376 OA
BRANCH  38  39
ATOM     39  C   UNL A   1      41.560  40.182  26.059  1.00  0.00     0.202 C 
BRANCH  39  40
ATOM     40  C   UNL A   1      41.709  39.200  27.230  1.00  0.00     0.261 C 
BRANCH  40  41
ATOM     41  O   UNL A   1      42.956  38.523  27.231  1.00  0.00    -0.460 OA
BRANCH  41  42
ATOM     42  C   UNL A   1      42.844  37.185  27.069  1.00  0.00     0.338 C 
ATOM     43  O   UNL A   1      42.347  36.592  26.129  1.00  0.00    -0.246 OA
BRANCH  42  44
ATOM     44  C   UNL A   1      43.345  36.516  28.282  1.00  0.00     0.060 A 
ATOM     45  C   UNL A   1      43.439  35.129  28.181  1.00  0.00     0.016 A 
ATOM     46  C   UNL A   1      43.217  37.178  29.512  1.00  0.00     0.016 A 
ATOM     47  C   UNL A   1      42.953  34.403  29.233  1.00  0.00     0.010 A 
ATOM     48  C   UNL A   1      42.742  36.454  30.569  1.00  0.00     0.010 A 
ATOM     49  C   UNL A   1      42.464  35.113  30.333  1.00  0.00    -0.014 A 
BRANCH  49  50
ATOM     50  C   UNL A   1      41.488  34.443  31.153  1.00  0.00     0.031 A 
ATOM     51  C   UNL A   1      41.976  34.152  32.503  1.00  0.00     0.074 A 
ATOM     52  C   UNL A   1      40.261  34.164  30.675  1.00  0.00     0.049 A 
ATOM     53  N   UNL A   1      42.258  33.001  33.009  1.00  0.00    -0.248 NA
ATOM     54  C   UNL A   1      42.374  35.304  33.323  1.00  0.00     0.031 C 
ATOM     55  C   UNL A   1      39.627  34.640  29.439  1.00  0.00     0.029 A 
ATOM     56  N   UNL A   1      39.273  33.440  31.263  1.00  0.00    -0.354 N 
ATOM     57  C   UNL A   1      42.676  33.276  34.302  1.00  0.00     0.074 A 
ATOM     58  C   UNL A   1      42.929  34.692  34.367  1.00  0.00     0.031 C 
ATOM     59  C   UNL A   1      38.301  34.375  29.488  1.00  0.00     0.029 A 
ATOM     60  C   UNL A   1      38.024  33.603  30.685  1.00  0.00     0.049 A 
ATOM     61  H   UNL A   1      39.432  32.849  32.034  1.00  0.00     0.167 HD
ATOM     62  C   UNL A   1      42.474  32.375  35.296  1.00  0.00     0.037 A 
ATOM     63  C   UNL A   1      36.850  33.210  31.235  1.00  0.00     0.037 A 
ATOM     64  C   UNL A   1      42.300  31.042  34.778  1.00  0.00     0.049 A 
ATOM     65  C   UNL A   1      37.168  32.183  32.266  1.00  0.00     0.074 A 
ATOM     66  C   UNL A   1      43.079  30.193  34.016  1.00  0.00     0.029 A 
ATOM     67  N   UNL A   1      41.025  30.532  34.712  1.00  0.00    -0.354 N 
ATOM     68  N   UNL A   1      37.636  30.997  31.985  1.00  0.00    -0.248 NA
ATOM     69  C   UNL A   1      37.412  32.639  33.628  1.00  0.00     0.031 C 
ATOM     70  C   UNL A   1      42.165  29.498  33.169  1.00  0.00     0.029 A 
ATOM     71  C   UNL A   1      40.877  29.934  33.486  1.00  0.00     0.049 A 
ATOM     72  H   UNL A   1      40.340  30.587  35.417  1.00  0.00     0.167 HD
ATOM     73  C   UNL A   1      38.573  30.736  32.978  1.00  0.00     0.074 A 
ATOM     74  C   UNL A   1      38.329  31.743  34.006  1.00  0.00     0.031 C 
ATOM     75  C   UNL A   1      39.639  29.916  32.742  1.00  0.00     0.037 A 
BRANCH  62  76
ATOM     76  C   UNL A   1      42.035  32.789  36.674  1.00  0.00     0.064 A 
ATOM     77  C   UNL A   1      42.777  32.356  37.784  1.00  0.00     0.173 A 
ATOM     78  C   UNL A   1      40.768  33.347  36.963  1.00  0.00     0.173 A 
ATOM     79  F   UNL A   1      43.978  31.782  37.618  1.00  0.00    -0.203 F 
ATOM     80  C   UNL A   1      42.260  32.417  39.080  1.00  0.00     0.198 A 
ATOM     81  C   UNL A   1      40.282  33.466  38.261  1.00  0.00     0.198 A 
ATOM     82  F   UNL A   1      39.897  33.694  36.008  1.00  0.00    -0.203 F 
ATOM     83  F   UNL A   1      42.947  31.876  40.095  1.00  0.00    -0.200 F 
ATOM     84  C   UNL A   1      41.013  32.970  39.317  1.00  0.00     0.200 A 
ATOM     85  F   UNL A   1      39.064  33.985  38.463  1.00  0.00    -0.200 F 
ATOM     86  F   UNL A   1      40.493  32.976  40.550  1.00  0.00    -0.200 F 
ENDBRANCH  62  76
BRANCH  63  87
ATOM     87  C   UNL A   1      35.560  33.937  31.185  1.00  0.00     0.064 A 
ATOM     88  C   UNL A   1      35.257  34.955  32.103  1.00  0.00     0.173 A 
ATOM     89  C   UNL A   1      34.696  33.818  30.077  1.00  0.00     0.173 A 
ATOM     90  F   UNL A   1      36.059  35.172  33.155  1.00  0.00    -0.203 F 
ATOM     91  C   UNL A   1      34.160  35.803  31.919  1.00  0.00     0.198 A 
ATOM     92  C   UNL A   1      33.597  34.659  29.899  1.00  0.00     0.198 A 
ATOM     93  F   UNL A   1      34.953  32.945  29.093  1.00  0.00    -0.203 F 
ATOM     94  F   UNL A   1      33.930  36.799  32.788  1.00  0.00    -0.200 F 
ATOM     95  C   UNL A   1      33.334  35.659  30.816  1.00  0.00     0.200 A 
ATOM     96  F   UNL A   1      32.833  34.531  28.806  1.00  0.00    -0.200 F 
ATOM     97  F   UNL A   1      32.314  36.503  30.613  1.00  0.00    -0.200 F 
ENDBRANCH  63  87
BRANCH  75  98
ATOM     98  C   UNL A   1      39.627  29.123  31.464  1.00  0.00     0.064 A 
ATOM     99  C   UNL A   1      39.089  27.828  31.362  1.00  0.00     0.173 A 
ATOM    100  C   UNL A   1      40.041  29.744  30.280  1.00  0.00     0.173 A 
ATOM    101  F   UNL A   1      38.580  27.210  32.435  1.00  0.00    -0.203 F 
ATOM    102  C   UNL A   1      39.010  27.171  30.135  1.00  0.00     0.198 A 
ATOM    103  C   UNL A   1      39.929  29.099  29.050  1.00  0.00     0.198 A 
ATOM    104  F   UNL A   1      40.507  31.002  30.309  1.00  0.00    -0.203 F 
ATOM    105  F   UNL A   1      38.502  25.931  30.067  1.00  0.00    -0.200 F 
ATOM    106  C   UNL A   1      39.424  27.811  28.979  1.00  0.00     0.200 A 
ATOM    107  F   UNL A   1      40.285  29.740  27.928  1.00  0.00    -0.200 F 
ATOM    108  F   UNL A   1      39.311  27.196  27.793  1.00  0.00    -0.200 F 
ENDBRANCH  75  98
ENDBRANCH  49  50
ENDBRANCH  42  44
ENDBRANCH  41  42
ENDBRANCH  40  41
ENDBRANCH  39  40
ENDBRANCH  38  39
ENDBRANCH  37  38
ENDBRANCH  36  37
ENDBRANCH  35  36
ENDBRANCH   1  35
TORSDOF 25
ENDMDL
