MODEL 1
REMARK VINA RESULT:     -10.8      0.000      0.000
REMARK SMILES O=C(Cc1ccccc1Nc1c(F)cccc1C(F)(F)F)OCCOCCOCCOCCOC(=O)c1ccc(-c2c3nc(c(-c4c(F)c(F)c(F)c(F)c4F)c4ccc([nH]4)c(-c4c(F)c(F)c(F)c(F)c4F)c4nc(c(-c5c(F)c(F)c(F)c(F)c5F)c5ccc2[nH]5)C=C4)C=C3)cc1
REMARK SMILES IDX 27 1 26 2 25 3 24 4 23 5 22 6 2 7 1 8 3 9 4 10 5 11 9 12
REMARK SMILES IDX 6 13 8 14 7 15 10 16 11 18 12 19 17 20 13 21 14 22 16 23
REMARK SMILES IDX 15 24 18 25 19 26 20 27 21 28 28 29 29 30 30 31 31 32 32 33
REMARK SMILES IDX 33 34 34 35 35 36 36 37 37 38 38 39 99 40 39 41 98 42 40 43
REMARK SMILES IDX 41 44 42 45 92 46 43 47 97 48 91 49 93 50 44 51 96 52 90 53
REMARK SMILES IDX 89 54 45 56 77 57 57 58 76 59 58 60 61 61 75 62 94 63 59 64
REMARK SMILES IDX 60 65 74 67 95 68 62 69 46 70 47 71 55 72 48 73 49 74 53 75
REMARK SMILES IDX 56 76 50 77 51 78 54 79 52 80 78 81 79 82 87 83 80 84 81 85
REMARK SMILES IDX 85 86 88 87 82 88 83 89 86 90 84 91 63 92 64 93 72 94 65 95
REMARK SMILES IDX 66 96 70 97 73 98 67 99 68 100 71 101 69 102
REMARK H PARENT 10 17 93 55 61 66
REMARK Flexibility Score: inf
ROOT
ATOM      1  C   UNL A   1      31.674  27.547  25.770  1.00  0.00     0.188 C 
ENDROOT
BRANCH   1   2
ATOM      2  C   UNL A   1      30.533  26.522  25.722  1.00  0.00     0.188 C 
BRANCH   2   3
ATOM      3  O   UNL A   1      30.513  25.714  24.560  1.00  0.00    -0.376 OA
BRANCH   3   4
ATOM      4  C   UNL A   1      31.116  24.443  24.453  1.00  0.00     0.202 C 
BRANCH   4   5
ATOM      5  C   UNL A   1      32.601  24.293  24.756  1.00  0.00     0.261 C 
BRANCH   5   6
ATOM      6  O   UNL A   1      32.986  24.170  26.139  1.00  0.00    -0.463 OA
BRANCH   6   7
ATOM      7  C   UNL A   1      32.831  23.118  26.966  1.00  0.00     0.310 C 
ATOM      8  O   UNL A   1      31.769  22.992  27.576  1.00  0.00    -0.252 OA
BRANCH   7   9
ATOM      9  C   UNL A   1      33.983  22.186  27.241  1.00  0.00     0.160 C 
BRANCH   9  10
ATOM     10  C   UNL A   1      35.187  22.219  26.336  1.00  0.00    -0.013 A 
ATOM     11  C   UNL A   1      36.027  23.346  26.323  1.00  0.00     0.006 A 
ATOM     12  C   UNL A   1      35.439  21.137  25.451  1.00  0.00     0.042 A 
ATOM     13  C   UNL A   1      37.131  23.399  25.481  1.00  0.00     0.000 A 
ATOM     14  C   UNL A   1      36.513  21.257  24.564  1.00  0.00     0.026 A 
ATOM     15  C   UNL A   1      37.364  22.362  24.591  1.00  0.00     0.002 A 
BRANCH  12  16
ATOM     16  N   UNL A   1      34.667  19.951  25.517  1.00  0.00    -0.352 N 
ATOM     17  H   UNL A   1      34.443  19.664  26.433  1.00  0.00     0.167 HD
BRANCH  16  18
ATOM     18  C   UNL A   1      34.158  19.103  24.503  1.00  0.00     0.087 A 
ATOM     19  C   UNL A   1      34.778  17.841  24.371  1.00  0.00     0.147 A 
ATOM     20  C   UNL A   1      33.040  19.370  23.696  1.00  0.00     0.082 A 
ATOM     21  F   UNL A   1      35.898  17.592  25.072  1.00  0.00    -0.205 F 
ATOM     22  C   UNL A   1      34.267  16.833  23.561  1.00  0.00     0.041 A 
ATOM     23  C   UNL A   1      32.501  18.323  22.907  1.00  0.00     0.015 A 
ATOM     24  C   UNL A   1      33.099  17.063  22.852  1.00  0.00     0.004 A 
BRANCH  20  25
ATOM     25  C   UNL A   1      32.395  20.730  23.560  1.00  0.00     0.418 C 
ATOM     26  F   UNL A   1      31.735  21.093  24.702  1.00  0.00    -0.166 F 
ATOM     27  F   UNL A   1      33.305  21.724  23.357  1.00  0.00    -0.166 F 
ATOM     28  F   UNL A   1      31.467  20.844  22.571  1.00  0.00    -0.166 F 
ENDBRANCH  20  25
ENDBRANCH  16  18
ENDBRANCH  12  16
ENDBRANCH   9  10
ENDBRANCH   7   9
ENDBRANCH   6   7
ENDBRANCH   5   6
ENDBRANCH   4   5
ENDBRANCH   3   4
ENDBRANCH   2   3
ENDBRANCH   1   2
BRANCH   1  29
ATOM     29  O   UNL A   1      32.564  27.441  26.876  1.00  0.00    -0.377 OA
BRANCH  29  30
ATOM     30  C   UNL A   1      33.317  28.611  27.150  1.00  0.00     0.188 C 
BRANCH  30  31
ATOM     31  C   UNL A   1      32.691  29.923  26.620  1.00  0.00     0.188 C 
BRANCH  31  32
ATOM     32  O   UNL A   1      32.938  31.179  27.232  1.00  0.00    -0.376 OA
BRANCH  32  33
ATOM     33  C   UNL A   1      32.029  32.258  27.101  1.00  0.00     0.202 C 
BRANCH  33  34
ATOM     34  C   UNL A   1      32.455  33.735  27.167  1.00  0.00     0.261 C 
BRANCH  34  35
ATOM     35  O   UNL A   1      32.179  34.442  28.379  1.00  0.00    -0.460 OA
BRANCH  35  36
ATOM     36  C   UNL A   1      33.140  35.291  28.800  1.00  0.00     0.338 C 
ATOM     37  O   UNL A   1      33.052  36.499  28.954  1.00  0.00    -0.246 OA
BRANCH  36  38
ATOM     38  C   UNL A   1      34.294  34.490  29.260  1.00  0.00     0.060 A 
ATOM     39  C   UNL A   1      34.081  33.530  30.261  1.00  0.00     0.016 A 
ATOM     40  C   UNL A   1      35.560  34.658  28.696  1.00  0.00     0.016 A 
ATOM     41  C   UNL A   1      35.136  32.742  30.709  1.00  0.00     0.010 A 
ATOM     42  C   UNL A   1      36.628  33.901  29.183  1.00  0.00     0.010 A 
ATOM     43  C   UNL A   1      36.423  32.963  30.209  1.00  0.00    -0.014 A 
BRANCH  43  44
ATOM     44  C   UNL A   1      37.579  32.384  30.930  1.00  0.00     0.031 A 
ATOM     45  C   UNL A   1      38.337  31.275  30.257  1.00  0.00     0.074 A 
ATOM     46  C   UNL A   1      37.965  32.849  32.129  1.00  0.00     0.049 A 
ATOM     47  N   UNL A   1      39.341  30.564  30.699  1.00  0.00    -0.248 NA
ATOM     48  C   UNL A   1      37.901  30.920  28.895  1.00  0.00     0.031 C 
ATOM     49  C   UNL A   1      37.344  33.958  32.849  1.00  0.00     0.029 A 
ATOM     50  N   UNL A   1      38.976  32.431  32.958  1.00  0.00    -0.354 N 
ATOM     51  C   UNL A   1      39.648  29.675  29.678  1.00  0.00     0.074 A 
ATOM     52  C   UNL A   1      38.712  29.915  28.603  1.00  0.00     0.031 C 
ATOM     53  C   UNL A   1      37.974  34.118  34.026  1.00  0.00     0.029 A 
ATOM     54  C   UNL A   1      39.016  33.102  34.156  1.00  0.00     0.049 A 
ATOM     55  H   UNL A   1      39.611  31.719  32.717  1.00  0.00     0.167 HD
ATOM     56  C   UNL A   1      40.626  28.742  29.642  1.00  0.00     0.037 A 
ATOM     57  C   UNL A   1      39.788  32.889  35.239  1.00  0.00     0.037 A 
ATOM     58  C   UNL A   1      41.552  28.506  30.718  1.00  0.00     0.049 A 
ATOM     59  C   UNL A   1      40.815  31.782  35.205  1.00  0.00     0.074 A 
ATOM     60  C   UNL A   1      42.590  27.594  30.775  1.00  0.00     0.029 A 
ATOM     61  N   UNL A   1      41.541  29.181  31.929  1.00  0.00    -0.354 N 
ATOM     62  N   UNL A   1      41.119  30.959  34.230  1.00  0.00    -0.248 NA
ATOM     63  C   UNL A   1      41.609  31.577  36.426  1.00  0.00     0.031 C 
ATOM     64  C   UNL A   1      43.168  27.673  32.046  1.00  0.00     0.029 A 
ATOM     65  C   UNL A   1      42.536  28.683  32.755  1.00  0.00     0.049 A 
ATOM     66  H   UNL A   1      40.919  29.906  32.167  1.00  0.00     0.167 HD
ATOM     67  C   UNL A   1      42.157  30.166  34.706  1.00  0.00     0.074 A 
ATOM     68  C   UNL A   1      42.443  30.619  36.050  1.00  0.00     0.031 C 
ATOM     69  C   UNL A   1      42.815  29.155  34.087  1.00  0.00     0.037 A 
BRANCH  56  70
ATOM     70  C   UNL A   1      40.726  27.881  28.418  1.00  0.00     0.064 A 
ATOM     71  C   UNL A   1      41.475  28.271  27.297  1.00  0.00     0.173 A 
ATOM     72  C   UNL A   1      40.101  26.626  28.386  1.00  0.00     0.173 A 
ATOM     73  F   UNL A   1      42.078  29.469  27.270  1.00  0.00    -0.203 F 
ATOM     74  C   UNL A   1      41.582  27.442  26.184  1.00  0.00     0.198 A 
ATOM     75  C   UNL A   1      40.236  25.786  27.284  1.00  0.00     0.198 A 
ATOM     76  F   UNL A   1      39.373  26.206  29.431  1.00  0.00    -0.203 F 
ATOM     77  F   UNL A   1      42.269  27.850  25.109  1.00  0.00    -0.200 F 
ATOM     78  C   UNL A   1      40.970  26.195  26.182  1.00  0.00     0.200 A 
ATOM     79  F   UNL A   1      39.656  24.577  27.291  1.00  0.00    -0.200 F 
ATOM     80  F   UNL A   1      41.088  25.391  25.117  1.00  0.00    -0.200 F 
ENDBRANCH  56  70
BRANCH  57  81
ATOM     81  C   UNL A   1      39.608  33.714  36.465  1.00  0.00     0.064 A 
ATOM     82  C   UNL A   1      40.360  34.878  36.675  1.00  0.00     0.173 A 
ATOM     83  C   UNL A   1      38.717  33.326  37.477  1.00  0.00     0.173 A 
ATOM     84  F   UNL A   1      41.246  35.279  35.750  1.00  0.00    -0.203 F 
ATOM     85  C   UNL A   1      40.251  35.604  37.859  1.00  0.00     0.198 A 
ATOM     86  C   UNL A   1      38.583  34.072  38.647  1.00  0.00     0.198 A 
ATOM     87  F   UNL A   1      37.975  32.218  37.332  1.00  0.00    -0.203 F 
ATOM     88  F   UNL A   1      41.031  36.676  38.060  1.00  0.00    -0.200 F 
ATOM     89  C   UNL A   1      39.360  35.203  38.843  1.00  0.00     0.200 A 
ATOM     90  F   UNL A   1      37.711  33.687  39.588  1.00  0.00    -0.200 F 
ATOM     91  F   UNL A   1      39.259  35.900  39.983  1.00  0.00    -0.200 F 
ENDBRANCH  57  81
BRANCH  69  92
ATOM     92  C   UNL A   1      43.944  28.501  34.833  1.00  0.00     0.064 A 
ATOM     93  C   UNL A   1      45.250  29.012  34.800  1.00  0.00     0.173 A 
ATOM     94  C   UNL A   1      43.703  27.370  35.630  1.00  0.00     0.173 A 
ATOM     95  F   UNL A   1      45.537  30.083  34.045  1.00  0.00    -0.203 F 
ATOM     96  C   UNL A   1      46.278  28.397  35.510  1.00  0.00     0.198 A 
ATOM     97  C   UNL A   1      44.725  26.780  36.369  1.00  0.00     0.198 A 
ATOM     98  F   UNL A   1      42.470  26.847  35.708  1.00  0.00    -0.203 F 
ATOM     99  F   UNL A   1      47.529  28.869  35.419  1.00  0.00    -0.200 F 
ATOM    100  C   UNL A   1      46.013  27.287  36.300  1.00  0.00     0.200 A 
ATOM    101  F   UNL A   1      44.462  25.722  37.147  1.00  0.00    -0.200 F 
ATOM    102  F   UNL A   1      47.002  26.704  36.991  1.00  0.00    -0.200 F 
ENDBRANCH  69  92
ENDBRANCH  43  44
ENDBRANCH  36  38
ENDBRANCH  35  36
ENDBRANCH  34  35
ENDBRANCH  33  34
ENDBRANCH  32  33
ENDBRANCH  31  32
ENDBRANCH  30  31
ENDBRANCH  29  30
ENDBRANCH   1  29
TORSDOF 24
ENDMDL
MODEL 2
REMARK VINA RESULT:     -10.4      0.642      2.098
REMARK SMILES O=C(Cc1ccccc1Nc1c(F)cccc1C(F)(F)F)OCCOCCOCCOCCOC(=O)c1ccc(-c2c3nc(c(-c4c(F)c(F)c(F)c(F)c4F)c4ccc([nH]4)c(-c4c(F)c(F)c(F)c(F)c4F)c4nc(c(-c5c(F)c(F)c(F)c(F)c5F)c5ccc2[nH]5)C=C4)C=C3)cc1
REMARK SMILES IDX 27 1 26 2 25 3 24 4 23 5 22 6 2 7 1 8 3 9 4 10 5 11 9 12
REMARK SMILES IDX 6 13 8 14 7 15 10 16 11 18 12 19 17 20 13 21 14 22 16 23
REMARK SMILES IDX 15 24 18 25 19 26 20 27 21 28 28 29 29 30 30 31 31 32 32 33
REMARK SMILES IDX 33 34 34 35 35 36 36 37 37 38 38 39 99 40 39 41 98 42 40 43
REMARK SMILES IDX 41 44 42 45 92 46 43 47 97 48 91 49 93 50 44 51 96 52 90 53
REMARK SMILES IDX 89 54 45 56 77 57 57 58 76 59 58 60 61 61 75 62 94 63 59 64
REMARK SMILES IDX 60 65 74 67 95 68 62 69 46 70 47 71 55 72 48 73 49 74 53 75
REMARK SMILES IDX 56 76 50 77 51 78 54 79 52 80 78 81 79 82 87 83 80 84 81 85
REMARK SMILES IDX 85 86 88 87 82 88 83 89 86 90 84 91 63 92 64 93 72 94 65 95
REMARK SMILES IDX 66 96 70 97 73 98 67 99 68 100 71 101 69 102
REMARK H PARENT 10 17 93 55 61 66
REMARK Flexibility Score: inf
ROOT
ATOM      1  C   UNL A   1      31.024  27.481  24.756  1.00  0.00     0.188 C 
ENDROOT
BRANCH   1   2
ATOM      2  C   UNL A   1      30.101  26.385  24.208  1.00  0.00     0.188 C 
BRANCH   2   3
ATOM      3  O   UNL A   1      30.648  25.631  23.142  1.00  0.00    -0.376 OA
BRANCH   3   4
ATOM      4  C   UNL A   1      31.261  24.367  23.280  1.00  0.00     0.202 C 
BRANCH   4   5
ATOM      5  C   UNL A   1      32.745  24.291  23.617  1.00  0.00     0.261 C 
BRANCH   5   6
ATOM      6  O   UNL A   1      33.129  24.549  24.981  1.00  0.00    -0.463 OA
BRANCH   6   7
ATOM      7  C   UNL A   1      32.808  23.856  26.091  1.00  0.00     0.310 C 
ATOM      8  O   UNL A   1      32.138  24.409  26.964  1.00  0.00    -0.252 OA
BRANCH   7   9
ATOM      9  C   UNL A   1      33.370  22.478  26.321  1.00  0.00     0.160 C 
BRANCH   9  10
ATOM     10  C   UNL A   1      34.795  22.189  25.924  1.00  0.00    -0.013 A 
ATOM     11  C   UNL A   1      35.761  23.210  25.978  1.00  0.00     0.006 A 
ATOM     12  C   UNL A   1      35.149  20.903  25.435  1.00  0.00     0.042 A 
ATOM     13  C   UNL A   1      37.074  22.965  25.598  1.00  0.00     0.000 A 
ATOM     14  C   UNL A   1      36.461  20.714  24.990  1.00  0.00     0.026 A 
ATOM     15  C   UNL A   1      37.419  21.722  25.089  1.00  0.00     0.002 A 
BRANCH  12  16
ATOM     16  N   UNL A   1      34.220  19.834  25.467  1.00  0.00    -0.352 N 
ATOM     17  H   UNL A   1      33.990  19.524  26.373  1.00  0.00     0.167 HD
BRANCH  16  18
ATOM     18  C   UNL A   1      33.562  19.131  24.428  1.00  0.00     0.087 A 
ATOM     19  C   UNL A   1      32.621  19.865  23.672  1.00  0.00     0.147 A 
ATOM     20  C   UNL A   1      33.837  17.813  24.028  1.00  0.00     0.082 A 
ATOM     21  F   UNL A   1      32.280  21.099  24.082  1.00  0.00    -0.205 F 
ATOM     22  C   UNL A   1      32.045  19.374  22.506  1.00  0.00     0.041 A 
ATOM     23  C   UNL A   1      33.279  17.336  22.815  1.00  0.00     0.015 A 
ATOM     24  C   UNL A   1      32.405  18.114  22.054  1.00  0.00     0.004 A 
BRANCH  20  25
ATOM     25  C   UNL A   1      34.648  16.830  24.840  1.00  0.00     0.418 C 
ATOM     26  F   UNL A   1      35.893  17.319  25.127  1.00  0.00    -0.166 F 
ATOM     27  F   UNL A   1      34.091  16.569  26.056  1.00  0.00    -0.166 F 
ATOM     28  F   UNL A   1      34.874  15.626  24.249  1.00  0.00    -0.166 F 
ENDBRANCH  20  25
ENDBRANCH  16  18
ENDBRANCH  12  16
ENDBRANCH   9  10
ENDBRANCH   7   9
ENDBRANCH   6   7
ENDBRANCH   5   6
ENDBRANCH   4   5
ENDBRANCH   3   4
ENDBRANCH   2   3
ENDBRANCH   1   2
BRANCH   1  29
ATOM     29  O   UNL A   1      31.324  27.410  26.146  1.00  0.00    -0.377 OA
BRANCH  29  30
ATOM     30  C   UNL A   1      32.211  28.412  26.616  1.00  0.00     0.188 C 
BRANCH  30  31
ATOM     31  C   UNL A   1      31.802  29.861  26.258  1.00  0.00     0.188 C 
BRANCH  31  32
ATOM     32  O   UNL A   1      32.369  30.988  26.906  1.00  0.00    -0.376 OA
BRANCH  32  33
ATOM     33  C   UNL A   1      31.743  32.258  26.865  1.00  0.00     0.202 C 
BRANCH  33  34
ATOM     34  C   UNL A   1      32.495  33.579  27.107  1.00  0.00     0.261 C 
BRANCH  34  35
ATOM     35  O   UNL A   1      32.144  34.327  28.275  1.00  0.00    -0.460 OA
BRANCH  35  36
ATOM     36  C   UNL A   1      33.074  35.197  28.720  1.00  0.00     0.338 C 
ATOM     37  O   UNL A   1      32.952  36.403  28.877  1.00  0.00    -0.246 OA
BRANCH  36  38
ATOM     38  C   UNL A   1      34.237  34.423  29.201  1.00  0.00     0.060 A 
ATOM     39  C   UNL A   1      34.031  33.471  30.210  1.00  0.00     0.016 A 
ATOM     40  C   UNL A   1      35.506  34.608  28.649  1.00  0.00     0.016 A 
ATOM     41  C   UNL A   1      35.095  32.706  30.679  1.00  0.00     0.010 A 
ATOM     42  C   UNL A   1      36.582  33.876  29.155  1.00  0.00     0.010 A 
ATOM     43  C   UNL A   1      36.383  32.945  30.190  1.00  0.00    -0.014 A 
BRANCH  43  44
ATOM     44  C   UNL A   1      37.541  32.396  30.930  1.00  0.00     0.031 A 
ATOM     45  C   UNL A   1      38.320  31.286  30.282  1.00  0.00     0.074 A 
ATOM     46  C   UNL A   1      37.912  32.887  32.123  1.00  0.00     0.049 A 
ATOM     47  N   UNL A   1      39.331  30.597  30.744  1.00  0.00    -0.248 NA
ATOM     48  C   UNL A   1      37.900  30.901  28.923  1.00  0.00     0.031 C 
ATOM     49  C   UNL A   1      37.270  33.999  32.819  1.00  0.00     0.029 A 
ATOM     50  N   UNL A   1      38.923  32.498  32.967  1.00  0.00    -0.354 N 
ATOM     51  C   UNL A   1      39.658  29.695  29.741  1.00  0.00     0.074 A 
ATOM     52  C   UNL A   1      38.727  29.903  28.655  1.00  0.00     0.031 C 
ATOM     53  C   UNL A   1      37.889  34.190  33.997  1.00  0.00     0.029 A 
ATOM     54  C   UNL A   1      38.944  33.191  34.153  1.00  0.00     0.049 A 
ATOM     55  H   UNL A   1      39.569  31.791  32.744  1.00  0.00     0.167 HD
ATOM     56  C   UNL A   1      40.650  28.775  29.729  1.00  0.00     0.037 A 
ATOM     57  C   UNL A   1      39.710  33.008  35.246  1.00  0.00     0.037 A 
ATOM     58  C   UNL A   1      41.571  28.572  30.816  1.00  0.00     0.049 A 
ATOM     59  C   UNL A   1      40.753  31.915  35.239  1.00  0.00     0.074 A 
ATOM     60  C   UNL A   1      42.621  27.676  30.897  1.00  0.00     0.029 A 
ATOM     61  N   UNL A   1      41.541  29.268  32.015  1.00  0.00    -0.354 N 
ATOM     62  N   UNL A   1      41.076  31.080  34.281  1.00  0.00    -0.248 NA
ATOM     63  C   UNL A   1      41.540  31.743  36.469  1.00  0.00     0.031 C 
ATOM     64  C   UNL A   1      43.188  27.785  32.170  1.00  0.00     0.029 A 
ATOM     65  C   UNL A   1      42.536  28.798  32.856  1.00  0.00     0.049 A 
ATOM     66  H   UNL A   1      40.907  29.987  32.235  1.00  0.00     0.167 HD
ATOM     67  C   UNL A   1      42.121  30.310  34.778  1.00  0.00     0.074 A 
ATOM     68  C   UNL A   1      42.391  30.790  36.116  1.00  0.00     0.031 C 
ATOM     69  C   UNL A   1      42.799  29.298  34.182  1.00  0.00     0.037 A 
BRANCH  56  70
ATOM     70  C   UNL A   1      40.772  27.895  28.521  1.00  0.00     0.064 A 
ATOM     71  C   UNL A   1      40.113  26.660  28.434  1.00  0.00     0.173 A 
ATOM     72  C   UNL A   1      41.521  28.319  27.413  1.00  0.00     0.173 A 
ATOM     73  F   UNL A   1      39.398  26.200  29.473  1.00  0.00    -0.203 F 
ATOM     74  C   UNL A   1      40.213  25.873  27.289  1.00  0.00     0.198 A 
ATOM     75  C   UNL A   1      41.592  27.545  26.258  1.00  0.00     0.198 A 
ATOM     76  F   UNL A   1      42.170  29.492  27.444  1.00  0.00    -0.203 F 
ATOM     77  F   UNL A   1      39.609  24.679  27.243  1.00  0.00    -0.200 F 
ATOM     78  C   UNL A   1      40.944  26.322  26.198  1.00  0.00     0.200 A 
ATOM     79  F   UNL A   1      42.288  27.987  25.200  1.00  0.00    -0.200 F 
ATOM     80  F   UNL A   1      41.025  25.572  25.090  1.00  0.00    -0.200 F 
ENDBRANCH  56  70
BRANCH  57  81
ATOM     81  C   UNL A   1      39.509  33.852  36.456  1.00  0.00     0.064 A 
ATOM     82  C   UNL A   1      40.132  35.101  36.582  1.00  0.00     0.173 A 
ATOM     83  C   UNL A   1      38.731  33.401  37.534  1.00  0.00     0.173 A 
ATOM     84  F   UNL A   1      40.908  35.566  35.591  1.00  0.00    -0.203 F 
ATOM     85  C   UNL A   1      40.010  35.853  37.749  1.00  0.00     0.198 A 
ATOM     86  C   UNL A   1      38.582  34.170  38.687  1.00  0.00     0.198 A 
ATOM     87  F   UNL A   1      38.117  32.211  37.469  1.00  0.00    -0.203 F 
ATOM     88  F   UNL A   1      40.670  37.014  37.867  1.00  0.00    -0.200 F 
ATOM     89  C   UNL A   1      39.232  35.389  38.798  1.00  0.00     0.200 A 
ATOM     90  F   UNL A   1      37.819  33.723  39.693  1.00  0.00    -0.200 F 
ATOM     91  F   UNL A   1      39.119  36.111  39.922  1.00  0.00    -0.200 F 
ENDBRANCH  57  81
BRANCH  69  92
ATOM     92  C   UNL A   1      43.930  28.672  34.948  1.00  0.00     0.064 A 
ATOM     93  C   UNL A   1      43.733  27.569  35.792  1.00  0.00     0.173 A 
ATOM     94  C   UNL A   1      45.239  29.158  34.800  1.00  0.00     0.173 A 
ATOM     95  F   UNL A   1      42.501  27.072  35.978  1.00  0.00    -0.203 F 
ATOM     96  C   UNL A   1      44.799  26.997  36.483  1.00  0.00     0.198 A 
ATOM     97  C   UNL A   1      46.307  28.561  35.462  1.00  0.00     0.198 A 
ATOM     98  F   UNL A   1      45.486  30.204  33.997  1.00  0.00    -0.203 F 
ATOM     99  F   UNL A   1      44.579  25.979  37.327  1.00  0.00    -0.200 F 
ATOM    100  C   UNL A   1      46.085  27.487  36.311  1.00  0.00     0.200 A 
ATOM    101  F   UNL A   1      47.551  29.023  35.279  1.00  0.00    -0.200 F 
ATOM    102  F   UNL A   1      47.110  26.928  36.969  1.00  0.00    -0.200 F 
ENDBRANCH  69  92
ENDBRANCH  43  44
ENDBRANCH  36  38
ENDBRANCH  35  36
ENDBRANCH  34  35
ENDBRANCH  33  34
ENDBRANCH  32  33
ENDBRANCH  31  32
ENDBRANCH  30  31
ENDBRANCH  29  30
ENDBRANCH   1  29
TORSDOF 24
ENDMDL
MODEL 3
REMARK VINA RESULT:     -10.3      1.400      3.057
REMARK SMILES O=C(Cc1ccccc1Nc1c(F)cccc1C(F)(F)F)OCCOCCOCCOCCOC(=O)c1ccc(-c2c3nc(c(-c4c(F)c(F)c(F)c(F)c4F)c4ccc([nH]4)c(-c4c(F)c(F)c(F)c(F)c4F)c4nc(c(-c5c(F)c(F)c(F)c(F)c5F)c5ccc2[nH]5)C=C4)C=C3)cc1
REMARK SMILES IDX 27 1 26 2 25 3 24 4 23 5 22 6 2 7 1 8 3 9 4 10 5 11 9 12
REMARK SMILES IDX 6 13 8 14 7 15 10 16 11 18 12 19 17 20 13 21 14 22 16 23
REMARK SMILES IDX 15 24 18 25 19 26 20 27 21 28 28 29 29 30 30 31 31 32 32 33
REMARK SMILES IDX 33 34 34 35 35 36 36 37 37 38 38 39 99 40 39 41 98 42 40 43
REMARK SMILES IDX 41 44 42 45 92 46 43 47 97 48 91 49 93 50 44 51 96 52 90 53
REMARK SMILES IDX 89 54 45 56 77 57 57 58 76 59 58 60 61 61 75 62 94 63 59 64
REMARK SMILES IDX 60 65 74 67 95 68 62 69 46 70 47 71 55 72 48 73 49 74 53 75
REMARK SMILES IDX 56 76 50 77 51 78 54 79 52 80 78 81 79 82 87 83 80 84 81 85
REMARK SMILES IDX 85 86 88 87 82 88 83 89 86 90 84 91 63 92 64 93 72 94 65 95
REMARK SMILES IDX 66 96 70 97 73 98 67 99 68 100 71 101 69 102
REMARK H PARENT 10 17 93 55 61 66
REMARK Flexibility Score: inf
ROOT
ATOM      1  C   UNL A   1      30.436  29.187  23.704  1.00  0.00     0.188 C 
ENDROOT
BRANCH   1   2
ATOM      2  C   UNL A   1      29.943  28.053  22.795  1.00  0.00     0.188 C 
BRANCH   2   3
ATOM      3  O   UNL A   1      30.939  27.487  21.964  1.00  0.00    -0.376 OA
BRANCH   3   4
ATOM      4  C   UNL A   1      31.337  26.133  21.991  1.00  0.00     0.202 C 
BRANCH   4   5
ATOM      5  C   UNL A   1      32.685  25.739  21.401  1.00  0.00     0.261 C 
BRANCH   5   6
ATOM      6  O   UNL A   1      33.798  25.629  22.309  1.00  0.00    -0.463 OA
BRANCH   6   7
ATOM      7  C   UNL A   1      33.854  25.950  23.616  1.00  0.00     0.310 C 
ATOM      8  O   UNL A   1      33.800  27.137  23.939  1.00  0.00    -0.252 OA
BRANCH   7   9
ATOM      9  C   UNL A   1      34.111  24.889  24.653  1.00  0.00     0.160 C 
BRANCH   9  10
ATOM     10  C   UNL A   1      32.946  24.297  25.404  1.00  0.00    -0.013 A 
ATOM     11  C   UNL A   1      31.631  24.662  25.064  1.00  0.00     0.006 A 
ATOM     12  C   UNL A   1      33.178  23.418  26.495  1.00  0.00     0.042 A 
ATOM     13  C   UNL A   1      30.548  24.140  25.757  1.00  0.00     0.000 A 
ATOM     14  C   UNL A   1      32.068  22.971  27.219  1.00  0.00     0.026 A 
ATOM     15  C   UNL A   1      30.767  23.308  26.845  1.00  0.00     0.002 A 
BRANCH  12  16
ATOM     16  N   UNL A   1      34.485  22.958  26.791  1.00  0.00    -0.352 N 
ATOM     17  H   UNL A   1      34.785  23.156  27.708  1.00  0.00     0.167 HD
BRANCH  16  18
ATOM     18  C   UNL A   1      35.436  22.264  26.005  1.00  0.00     0.087 A 
ATOM     19  C   UNL A   1      36.718  22.851  25.908  1.00  0.00     0.147 A 
ATOM     20  C   UNL A   1      35.245  21.008  25.405  1.00  0.00     0.082 A 
ATOM     21  F   UNL A   1      36.903  24.087  26.401  1.00  0.00    -0.205 F 
ATOM     22  C   UNL A   1      37.804  22.195  25.340  1.00  0.00     0.041 A 
ATOM     23  C   UNL A   1      36.368  20.329  24.868  1.00  0.00     0.015 A 
ATOM     24  C   UNL A   1      37.637  20.910  24.850  1.00  0.00     0.004 A 
BRANCH  20  25
ATOM     25  C   UNL A   1      33.899  20.344  25.235  1.00  0.00     0.418 C 
ATOM     26  F   UNL A   1      34.017  19.096  24.686  1.00  0.00    -0.166 F 
ATOM     27  F   UNL A   1      33.260  20.140  26.421  1.00  0.00    -0.166 F 
ATOM     28  F   UNL A   1      33.020  20.997  24.427  1.00  0.00    -0.166 F 
ENDBRANCH  20  25
ENDBRANCH  16  18
ENDBRANCH  12  16
ENDBRANCH   9  10
ENDBRANCH   7   9
ENDBRANCH   6   7
ENDBRANCH   5   6
ENDBRANCH   4   5
ENDBRANCH   3   4
ENDBRANCH   2   3
ENDBRANCH   1   2
BRANCH   1  29
ATOM     29  O   UNL A   1      31.138  28.789  24.876  1.00  0.00    -0.377 OA
BRANCH  29  30
ATOM     30  C   UNL A   1      31.758  29.847  25.588  1.00  0.00     0.188 C 
BRANCH  30  31
ATOM     31  C   UNL A   1      30.960  31.172  25.607  1.00  0.00     0.188 C 
BRANCH  31  32
ATOM     32  O   UNL A   1      31.248  32.216  26.524  1.00  0.00    -0.376 OA
BRANCH  32  33
ATOM     33  C   UNL A   1      32.430  32.210  27.304  1.00  0.00     0.202 C 
BRANCH  33  34
ATOM     34  C   UNL A   1      33.240  33.479  27.620  1.00  0.00     0.261 C 
BRANCH  34  35
ATOM     35  O   UNL A   1      32.526  34.592  28.164  1.00  0.00    -0.460 OA
BRANCH  35  36
ATOM     36  C   UNL A   1      33.123  35.231  29.193  1.00  0.00     0.338 C 
ATOM     37  O   UNL A   1      32.715  36.210  29.799  1.00  0.00    -0.246 OA
BRANCH  36  38
ATOM     38  C   UNL A   1      34.281  34.424  29.627  1.00  0.00     0.060 A 
ATOM     39  C   UNL A   1      34.080  33.450  30.616  1.00  0.00     0.016 A 
ATOM     40  C   UNL A   1      35.541  34.600  29.051  1.00  0.00     0.016 A 
ATOM     41  C   UNL A   1      35.139  32.654  31.041  1.00  0.00     0.010 A 
ATOM     42  C   UNL A   1      36.614  33.835  29.514  1.00  0.00     0.010 A 
ATOM     43  C   UNL A   1      36.421  32.882  30.530  1.00  0.00    -0.014 A 
BRANCH  43  44
ATOM     44  C   UNL A   1      37.584  32.293  31.228  1.00  0.00     0.031 A 
ATOM     45  C   UNL A   1      38.334  31.193  30.530  1.00  0.00     0.074 A 
ATOM     46  C   UNL A   1      37.985  32.740  32.429  1.00  0.00     0.049 A 
ATOM     47  N   UNL A   1      39.343  30.475  30.951  1.00  0.00    -0.248 NA
ATOM     48  C   UNL A   1      37.882  30.858  29.169  1.00  0.00     0.031 C 
ATOM     49  C   UNL A   1      37.373  33.838  33.173  1.00  0.00     0.029 A 
ATOM     50  N   UNL A   1      39.005  32.309  33.241  1.00  0.00    -0.354 N 
ATOM     51  C   UNL A   1      39.637  29.601  29.914  1.00  0.00     0.074 A 
ATOM     52  C   UNL A   1      38.689  29.857  28.853  1.00  0.00     0.031 C 
ATOM     53  C   UNL A   1      38.017  33.981  34.344  1.00  0.00     0.029 A 
ATOM     54  C   UNL A   1      39.059  32.963  34.447  1.00  0.00     0.049 A 
ATOM     55  H   UNL A   1      39.637  31.601  32.982  1.00  0.00     0.167 HD
ATOM     56  C   UNL A   1      40.615  28.668  29.852  1.00  0.00     0.037 A 
ATOM     57  C   UNL A   1      39.844  32.734  35.519  1.00  0.00     0.037 A 
ATOM     58  C   UNL A   1      41.553  28.416  30.914  1.00  0.00     0.049 A 
ATOM     59  C   UNL A   1      40.870  31.627  35.457  1.00  0.00     0.074 A 
ATOM     60  C   UNL A   1      42.591  27.504  30.946  1.00  0.00     0.029 A 
ATOM     61  N   UNL A   1      41.557  29.074  32.135  1.00  0.00    -0.354 N 
ATOM     62  N   UNL A   1      41.162  30.819  34.466  1.00  0.00    -0.248 NA
ATOM     63  C   UNL A   1      41.678  31.404  36.665  1.00  0.00     0.031 C 
ATOM     64  C   UNL A   1      43.183  27.563  32.211  1.00  0.00     0.029 A 
ATOM     65  C   UNL A   1      42.560  28.563  32.941  1.00  0.00     0.049 A 
ATOM     66  H   UNL A   1      40.937  29.795  32.390  1.00  0.00     0.167 HD
ATOM     67  C   UNL A   1      42.205  30.018  34.918  1.00  0.00     0.074 A 
ATOM     68  C   UNL A   1      42.507  30.451  36.266  1.00  0.00     0.031 C 
ATOM     69  C   UNL A   1      42.856  29.016  34.277  1.00  0.00     0.037 A 
BRANCH  56  70
ATOM     70  C   UNL A   1      40.700  27.826  28.614  1.00  0.00     0.064 A 
ATOM     71  C   UNL A   1      39.991  26.622  28.487  1.00  0.00     0.173 A 
ATOM     72  C   UNL A   1      41.466  28.256  27.521  1.00  0.00     0.173 A 
ATOM     73  F   UNL A   1      39.259  26.156  29.510  1.00  0.00    -0.203 F 
ATOM     74  C   UNL A   1      40.059  25.872  27.315  1.00  0.00     0.198 A 
ATOM     75  C   UNL A   1      41.506  27.520  26.340  1.00  0.00     0.198 A 
ATOM     76  F   UNL A   1      42.163  29.400  27.591  1.00  0.00    -0.203 F 
ATOM     77  F   UNL A   1      39.406  24.705  27.230  1.00  0.00    -0.200 F 
ATOM     78  C   UNL A   1      40.808  26.327  26.239  1.00  0.00     0.200 A 
ATOM     79  F   UNL A   1      42.218  27.969  25.297  1.00  0.00    -0.200 F 
ATOM     80  F   UNL A   1      40.858  25.613  25.106  1.00  0.00    -0.200 F 
ENDBRANCH  56  70
BRANCH  57  81
ATOM     81  C   UNL A   1      39.678  33.541  36.759  1.00  0.00     0.064 A 
ATOM     82  C   UNL A   1      38.794  33.145  37.771  1.00  0.00     0.173 A 
ATOM     83  C   UNL A   1      40.361  34.755  36.931  1.00  0.00     0.173 A 
ATOM     84  F   UNL A   1      38.095  32.006  37.643  1.00  0.00    -0.203 F 
ATOM     85  C   UNL A   1      38.577  33.942  38.893  1.00  0.00     0.198 A 
ATOM     86  C   UNL A   1      40.170  35.535  38.070  1.00  0.00     0.198 A 
ATOM     87  F   UNL A   1      41.216  35.186  35.992  1.00  0.00    -0.203 F 
ATOM     88  F   UNL A   1      37.677  33.570  39.814  1.00  0.00    -0.200 F 
ATOM     89  C   UNL A   1      39.268  35.135  39.044  1.00  0.00     0.200 A 
ATOM     90  F   UNL A   1      40.850  36.680  38.217  1.00  0.00    -0.200 F 
ATOM     91  F   UNL A   1      39.056  35.904  40.121  1.00  0.00    -0.200 F 
ENDBRANCH  57  81
BRANCH  69  92
ATOM     92  C   UNL A   1      43.992  28.350  35.001  1.00  0.00     0.064 A 
ATOM     93  C   UNL A   1      43.823  27.142  35.693  1.00  0.00     0.173 A 
ATOM     94  C   UNL A   1      45.279  28.908  34.962  1.00  0.00     0.173 A 
ATOM     95  F   UNL A   1      42.611  26.571  35.771  1.00  0.00    -0.203 F 
ATOM     96  C   UNL A   1      44.893  26.535  36.346  1.00  0.00     0.198 A 
ATOM     97  C   UNL A   1      46.355  28.280  35.584  1.00  0.00     0.198 A 
ATOM     98  F   UNL A   1      45.500  30.057  34.304  1.00  0.00    -0.203 F 
ATOM     99  F   UNL A   1      44.697  25.411  37.048  1.00  0.00    -0.200 F 
ATOM    100  C   UNL A   1      46.159  27.100  36.284  1.00  0.00     0.200 A 
ATOM    101  F   UNL A   1      47.580  28.817  35.505  1.00  0.00    -0.200 F 
ATOM    102  F   UNL A   1      47.189  26.509  36.904  1.00  0.00    -0.200 F 
ENDBRANCH  69  92
ENDBRANCH  43  44
ENDBRANCH  36  38
ENDBRANCH  35  36
ENDBRANCH  34  35
ENDBRANCH  33  34
ENDBRANCH  32  33
ENDBRANCH  31  32
ENDBRANCH  30  31
ENDBRANCH  29  30
ENDBRANCH   1  29
TORSDOF 24
ENDMDL
