MODEL 1
REMARK VINA RESULT:      -8.8      0.000      0.000
REMARK SMILES CCC[C@]1(C(=O)OCCOCCOCCOCCOC(=O)c2ccc(-c3c4nc(c(-c5c(F)c(F)c(F)c(F)c5F)c5ccc([nH]5)c(-c5c(F)c(F)c(F)c(F)c5F)c5nc(c(-c6c(F)c(F)c(F)c(F)c6F)c6ccc3[nH]6)C=C5)C=C4)cc2)CCCN(C(=O)c2ccc(NS(=O)(=O)CC)cc2)C1
REMARK SMILES IDX 11 1 10 2 9 3 8 4 7 5 5 6 6 7 4 8 85 9 103 10 86 11 88 12
REMARK SMILES IDX 87 13 3 14 2 15 1 16 89 17 90 18 91 19 92 20 102 21 93 22
REMARK SMILES IDX 101 23 94 24 95 25 96 27 97 28 98 29 99 30 100 31 12 32
REMARK SMILES IDX 13 33 14 34 15 35 16 36 17 37 18 38 19 39 20 40 21 41 22 42
REMARK SMILES IDX 23 43 84 44 24 45 83 46 25 47 26 48 27 49 77 50 28 51 82 52
REMARK SMILES IDX 76 53 78 54 29 55 81 56 75 57 74 58 30 60 62 61 42 62 61 63
REMARK SMILES IDX 43 64 46 65 60 66 79 67 44 68 45 69 59 71 80 72 47 73 31 74
REMARK SMILES IDX 32 75 40 76 33 77 34 78 38 79 41 80 35 81 36 82 39 83 37 84
REMARK SMILES IDX 63 85 64 86 72 87 65 88 66 89 70 90 73 91 67 92 68 93 71 94
REMARK SMILES IDX 69 95 48 96 49 97 57 98 50 99 51 100 55 101 58 102 52 103
REMARK SMILES IDX 53 104 56 105 54 106
REMARK H PARENT 95 26 78 59 46 70
REMARK Flexibility Score: inf
ROOT
ATOM      1  C   UNL A   1      41.990  21.961  26.520  1.00  0.00     0.188 C 
ENDROOT
BRANCH   1   2
ATOM      2  O   UNL A   1      40.867  21.847  25.673  1.00  0.00    -0.376 OA
BRANCH   2   3
ATOM      3  C   UNL A   1      39.535  21.753  26.150  1.00  0.00     0.202 C 
BRANCH   3   4
ATOM      4  C   UNL A   1      38.312  21.228  25.377  1.00  0.00     0.261 C 
BRANCH   4   5
ATOM      5  O   UNL A   1      37.018  21.711  25.748  1.00  0.00    -0.463 OA
BRANCH   5   6
ATOM      6  C   UNL A   1      36.004  20.898  25.387  1.00  0.00     0.313 C 
ATOM      7  O   UNL A   1      36.180  19.765  24.943  1.00  0.00    -0.252 OA
BRANCH   6   8
ATOM      8  C   UNL A   1      34.598  21.514  25.510  1.00  0.00     0.086 C 
ATOM      9  C   UNL A   1      33.599  20.870  26.509  1.00  0.00     0.022 C 
ATOM     10  C   UNL A   1      35.005  22.871  26.113  1.00  0.00     0.138 C 
ATOM     11  C   UNL A   1      32.435  21.788  26.924  1.00  0.00     0.023 C 
ATOM     12  N   UNL A   1      33.865  23.725  26.345  1.00  0.00    -0.338 N 
ATOM     13  C   UNL A   1      32.863  23.207  27.273  1.00  0.00     0.120 C 
BRANCH   8  14
ATOM     14  C   UNL A   1      34.100  21.568  24.015  1.00  0.00     0.020 C 
BRANCH  14  15
ATOM     15  C   UNL A   1      32.621  21.689  23.627  1.00  0.00    -0.002 C 
ATOM     16  C   UNL A   1      32.152  20.589  22.700  1.00  0.00     0.004 C 
ENDBRANCH  14  15
ENDBRANCH   8  14
BRANCH  12  17
ATOM     17  C   UNL A   1      33.873  24.947  25.699  1.00  0.00     0.253 C 
ATOM     18  O   UNL A   1      34.889  25.532  25.333  1.00  0.00    -0.269 OA
BRANCH  17  19
ATOM     19  C   UNL A   1      32.605  25.533  25.280  1.00  0.00     0.040 A 
ATOM     20  C   UNL A   1      32.210  25.239  23.980  1.00  0.00     0.016 A 
ATOM     21  C   UNL A   1      31.875  26.413  26.069  1.00  0.00     0.016 A 
ATOM     22  C   UNL A   1      31.052  25.796  23.467  1.00  0.00     0.027 A 
ATOM     23  C   UNL A   1      30.760  27.043  25.507  1.00  0.00     0.027 A 
ATOM     24  C   UNL A   1      30.359  26.760  24.190  1.00  0.00     0.049 A 
BRANCH  24  25
ATOM     25  N   UNL A   1      29.526  27.720  23.543  1.00  0.00    -0.284 N 
ATOM     26  H   UNL A   1      28.561  27.524  23.506  1.00  0.00     0.180 HD
BRANCH  25  27
ATOM     27  S   UNL A   1      30.039  29.139  22.847  1.00  0.00     0.232 S 
ATOM     28  O   UNL A   1      29.286  29.328  21.626  1.00  0.00    -0.207 OA
ATOM     29  O   UNL A   1      29.954  30.115  23.915  1.00  0.00    -0.207 OA
BRANCH  27  30
ATOM     30  C   UNL A   1      31.779  28.969  22.417  1.00  0.00     0.156 C 
ATOM     31  C   UNL A   1      32.777  29.229  23.527  1.00  0.00     0.023 C 
ENDBRANCH  27  30
ENDBRANCH  25  27
ENDBRANCH  24  25
ENDBRANCH  17  19
ENDBRANCH  12  17
ENDBRANCH   6   8
ENDBRANCH   5   6
ENDBRANCH   4   5
ENDBRANCH   3   4
ENDBRANCH   2   3
ENDBRANCH   1   2
BRANCH   1  32
ATOM     32  C   UNL A   1      43.373  22.267  25.934  1.00  0.00     0.188 C 
BRANCH  32  33
ATOM     33  O   UNL A   1      43.387  22.702  24.590  1.00  0.00    -0.377 OA
BRANCH  33  34
ATOM     34  C   UNL A   1      44.595  22.572  23.853  1.00  0.00     0.188 C 
BRANCH  34  35
ATOM     35  C   UNL A   1      45.936  22.993  24.487  1.00  0.00     0.188 C 
BRANCH  35  36
ATOM     36  O   UNL A   1      46.300  24.343  24.250  1.00  0.00    -0.376 OA
BRANCH  36  37
ATOM     37  C   UNL A   1      46.096  25.306  25.271  1.00  0.00     0.202 C 
BRANCH  37  38
ATOM     38  C   UNL A   1      45.647  24.814  26.656  1.00  0.00     0.261 C 
BRANCH  38  39
ATOM     39  O   UNL A   1      44.697  25.629  27.358  1.00  0.00    -0.460 OA
BRANCH  39  40
ATOM     40  C   UNL A   1      43.798  26.339  26.647  1.00  0.00     0.338 C 
ATOM     41  O   UNL A   1      42.959  25.916  25.871  1.00  0.00    -0.246 OA
BRANCH  40  42
ATOM     42  C   UNL A   1      43.884  27.736  27.117  1.00  0.00     0.060 A 
ATOM     43  C   UNL A   1      44.818  28.078  28.107  1.00  0.00     0.016 A 
ATOM     44  C   UNL A   1      43.050  28.706  26.562  1.00  0.00     0.016 A 
ATOM     45  C   UNL A   1      44.894  29.393  28.571  1.00  0.00     0.010 A 
ATOM     46  C   UNL A   1      43.108  30.013  27.044  1.00  0.00     0.010 A 
ATOM     47  C   UNL A   1      44.003  30.352  28.075  1.00  0.00    -0.014 A 
BRANCH  47  48
ATOM     48  C   UNL A   1      43.805  31.640  28.780  1.00  0.00     0.031 A 
ATOM     49  C   UNL A   1      44.724  32.773  28.419  1.00  0.00     0.074 A 
ATOM     50  C   UNL A   1      42.885  31.787  29.748  1.00  0.00     0.049 A 
ATOM     51  N   UNL A   1      44.911  33.919  29.017  1.00  0.00    -0.248 NA
ATOM     52  C   UNL A   1      45.561  32.570  27.224  1.00  0.00     0.031 C 
ATOM     53  C   UNL A   1      41.899  30.785  30.140  1.00  0.00     0.029 A 
ATOM     54  N   UNL A   1      42.660  32.840  30.601  1.00  0.00    -0.354 N 
ATOM     55  C   UNL A   1      45.903  34.562  28.288  1.00  0.00     0.074 A 
ATOM     56  C   UNL A   1      46.292  33.673  27.216  1.00  0.00     0.031 C 
ATOM     57  C   UNL A   1      41.192  31.259  31.183  1.00  0.00     0.029 A 
ATOM     58  C   UNL A   1      41.714  32.573  31.560  1.00  0.00     0.049 A 
ATOM     59  H   UNL A   1      43.131  33.702  30.531  1.00  0.00     0.167 HD
ATOM     60  C   UNL A   1      46.444  35.784  28.500  1.00  0.00     0.037 A 
ATOM     61  C   UNL A   1      41.349  33.293  32.640  1.00  0.00     0.037 A 
ATOM     62  C   UNL A   1      46.052  36.655  29.574  1.00  0.00     0.049 A 
ATOM     63  C   UNL A   1      42.026  34.615  32.909  1.00  0.00     0.074 A 
ATOM     64  C   UNL A   1      46.530  37.917  29.877  1.00  0.00     0.029 A 
ATOM     65  N   UNL A   1      45.093  36.347  30.527  1.00  0.00    -0.354 N 
ATOM     66  N   UNL A   1      42.963  35.223  32.219  1.00  0.00    -0.248 NA
ATOM     67  C   UNL A   1      41.600  35.352  34.109  1.00  0.00     0.031 C 
ATOM     68  C   UNL A   1      45.904  38.347  31.049  1.00  0.00     0.029 A 
ATOM     69  C   UNL A   1      44.980  37.388  31.432  1.00  0.00     0.049 A 
ATOM     70  H   UNL A   1      44.570  35.514  30.554  1.00  0.00     0.167 HD
ATOM     71  C   UNL A   1      43.200  36.428  32.872  1.00  0.00     0.074 A 
ATOM     72  C   UNL A   1      42.316  36.463  34.017  1.00  0.00     0.031 C 
ATOM     73  C   UNL A   1      44.066  37.419  32.546  1.00  0.00     0.037 A 
BRANCH  60  74
ATOM     74  C   UNL A   1      47.543  36.226  27.580  1.00  0.00     0.064 A 
ATOM     75  C   UNL A   1      47.304  37.088  26.499  1.00  0.00     0.173 A 
ATOM     76  C   UNL A   1      48.862  35.799  27.800  1.00  0.00     0.173 A 
ATOM     77  F   UNL A   1      46.059  37.511  26.235  1.00  0.00    -0.203 F 
ATOM     78  C   UNL A   1      48.340  37.482  25.656  1.00  0.00     0.198 A 
ATOM     79  C   UNL A   1      49.900  36.222  26.976  1.00  0.00     0.198 A 
ATOM     80  F   UNL A   1      49.145  34.973  28.819  1.00  0.00    -0.203 F 
ATOM     81  F   UNL A   1      48.079  38.261  24.597  1.00  0.00    -0.200 F 
ATOM     82  C   UNL A   1      49.637  37.056  25.899  1.00  0.00     0.200 A 
ATOM     83  F   UNL A   1      51.155  35.820  27.221  1.00  0.00    -0.200 F 
ATOM     84  F   UNL A   1      50.634  37.444  25.092  1.00  0.00    -0.200 F 
ENDBRANCH  60  74
BRANCH  61  85
ATOM     85  C   UNL A   1      40.311  32.770  33.570  1.00  0.00     0.064 A 
ATOM     86  C   UNL A   1      40.629  31.803  34.535  1.00  0.00     0.173 A 
ATOM     87  C   UNL A   1      38.980  33.205  33.499  1.00  0.00     0.173 A 
ATOM     88  F   UNL A   1      41.882  31.335  34.626  1.00  0.00    -0.203 F 
ATOM     89  C   UNL A   1      39.651  31.276  35.377  1.00  0.00     0.198 A 
ATOM     90  C   UNL A   1      38.009  32.701  34.362  1.00  0.00     0.198 A 
ATOM     91  F   UNL A   1      38.620  34.126  32.593  1.00  0.00    -0.203 F 
ATOM     92  F   UNL A   1      39.972  30.315  36.252  1.00  0.00    -0.200 F 
ATOM     93  C   UNL A   1      38.343  31.730  35.293  1.00  0.00     0.200 A 
ATOM     94  F   UNL A   1      36.749  33.152  34.288  1.00  0.00    -0.200 F 
ATOM     95  F   UNL A   1      37.403  31.225  36.105  1.00  0.00    -0.200 F 
ENDBRANCH  61  85
BRANCH  73  96
ATOM     96  C   UNL A   1      44.054  38.669  33.378  1.00  0.00     0.064 A 
ATOM     97  C   UNL A   1      44.770  38.774  34.579  1.00  0.00     0.173 A 
ATOM     98  C   UNL A   1      43.388  39.814  32.907  1.00  0.00     0.173 A 
ATOM     99  F   UNL A   1      45.413  37.708  35.077  1.00  0.00    -0.203 F 
ATOM    100  C   UNL A   1      44.813  39.976  35.281  1.00  0.00     0.198 A 
ATOM    101  C   UNL A   1      43.460  41.021  33.596  1.00  0.00     0.198 A 
ATOM    102  F   UNL A   1      42.695  39.768  31.759  1.00  0.00    -0.203 F 
ATOM    103  F   UNL A   1      45.479  40.048  36.442  1.00  0.00    -0.200 F 
ATOM    104  C   UNL A   1      44.169  41.100  34.784  1.00  0.00     0.200 A 
ATOM    105  F   UNL A   1      42.854  42.109  33.101  1.00  0.00    -0.200 F 
ATOM    106  F   UNL A   1      44.234  42.262  35.449  1.00  0.00    -0.200 F 
ENDBRANCH  73  96
ENDBRANCH  47  48
ENDBRANCH  40  42
ENDBRANCH  39  40
ENDBRANCH  38  39
ENDBRANCH  37  38
ENDBRANCH  36  37
ENDBRANCH  35  36
ENDBRANCH  34  35
ENDBRANCH  33  34
ENDBRANCH  32  33
ENDBRANCH   1  32
TORSDOF 27
ENDMDL
MODEL 2
REMARK VINA RESULT:      -8.7      3.435      7.210
REMARK SMILES CCC[C@]1(C(=O)OCCOCCOCCOCCOC(=O)c2ccc(-c3c4nc(c(-c5c(F)c(F)c(F)c(F)c5F)c5ccc([nH]5)c(-c5c(F)c(F)c(F)c(F)c5F)c5nc(c(-c6c(F)c(F)c(F)c(F)c6F)c6ccc3[nH]6)C=C5)C=C4)cc2)CCCN(C(=O)c2ccc(NS(=O)(=O)CC)cc2)C1
REMARK SMILES IDX 11 1 10 2 9 3 8 4 7 5 5 6 6 7 4 8 85 9 103 10 86 11 88 12
REMARK SMILES IDX 87 13 3 14 2 15 1 16 89 17 90 18 91 19 92 20 102 21 93 22
REMARK SMILES IDX 101 23 94 24 95 25 96 27 97 28 98 29 99 30 100 31 12 32
REMARK SMILES IDX 13 33 14 34 15 35 16 36 17 37 18 38 19 39 20 40 21 41 22 42
REMARK SMILES IDX 23 43 84 44 24 45 83 46 25 47 26 48 27 49 77 50 28 51 82 52
REMARK SMILES IDX 76 53 78 54 29 55 81 56 75 57 74 58 30 60 62 61 42 62 61 63
REMARK SMILES IDX 43 64 46 65 60 66 79 67 44 68 45 69 59 71 80 72 47 73 31 74
REMARK SMILES IDX 32 75 40 76 33 77 34 78 38 79 41 80 35 81 36 82 39 83 37 84
REMARK SMILES IDX 63 85 64 86 72 87 65 88 66 89 70 90 73 91 67 92 68 93 71 94
REMARK SMILES IDX 69 95 48 96 49 97 57 98 50 99 51 100 55 101 58 102 52 103
REMARK SMILES IDX 53 104 56 105 54 106
REMARK H PARENT 95 26 78 59 46 70
REMARK Flexibility Score: inf
ROOT
ATOM      1  C   UNL A   1      40.410  25.762  26.525  1.00  0.00     0.188 C 
ENDROOT
BRANCH   1   2
ATOM      2  O   UNL A   1      40.157  24.569  27.236  1.00  0.00    -0.376 OA
BRANCH   2   3
ATOM      3  C   UNL A   1      38.899  23.916  27.244  1.00  0.00     0.202 C 
BRANCH   3   4
ATOM      4  C   UNL A   1      37.990  23.649  26.031  1.00  0.00     0.261 C 
BRANCH   4   5
ATOM      5  O   UNL A   1      36.584  23.511  26.255  1.00  0.00    -0.463 OA
BRANCH   5   6
ATOM      6  C   UNL A   1      35.987  22.600  25.459  1.00  0.00     0.313 C 
ATOM      7  O   UNL A   1      36.608  21.894  24.667  1.00  0.00    -0.252 OA
BRANCH   6   8
ATOM      8  C   UNL A   1      34.452  22.550  25.563  1.00  0.00     0.086 C 
ATOM      9  C   UNL A   1      33.810  22.559  26.977  1.00  0.00     0.022 C 
ATOM     10  C   UNL A   1      34.144  23.921  24.935  1.00  0.00     0.138 C 
ATOM     11  C   UNL A   1      32.332  22.983  27.002  1.00  0.00     0.023 C 
ATOM     12  N   UNL A   1      32.726  24.183  24.871  1.00  0.00    -0.338 N 
ATOM     13  C   UNL A   1      32.028  24.211  26.153  1.00  0.00     0.120 C 
BRANCH   8  14
ATOM     14  C   UNL A   1      34.074  21.305  24.672  1.00  0.00     0.020 C 
BRANCH  14  15
ATOM     15  C   UNL A   1      32.641  20.775  24.533  1.00  0.00    -0.002 C 
ATOM     16  C   UNL A   1      32.559  19.447  23.813  1.00  0.00     0.004 C 
ENDBRANCH  14  15
ENDBRANCH   8  14
BRANCH  12  17
ATOM     17  C   UNL A   1      32.201  24.416  23.614  1.00  0.00     0.253 C 
ATOM     18  O   UNL A   1      32.337  23.661  22.654  1.00  0.00    -0.269 OA
BRANCH  17  19
ATOM     19  C   UNL A   1      31.300  25.546  23.422  1.00  0.00     0.040 A 
ATOM     20  C   UNL A   1      31.828  26.621  22.717  1.00  0.00     0.016 A 
ATOM     21  C   UNL A   1      30.031  25.612  23.984  1.00  0.00     0.016 A 
ATOM     22  C   UNL A   1      31.074  27.765  22.533  1.00  0.00     0.027 A 
ATOM     23  C   UNL A   1      29.316  26.809  23.874  1.00  0.00     0.027 A 
ATOM     24  C   UNL A   1      29.847  27.905  23.171  1.00  0.00     0.049 A 
BRANCH  24  25
ATOM     25  N   UNL A   1      29.299  29.189  23.461  1.00  0.00    -0.284 N 
ATOM     26  H   UNL A   1      29.707  29.695  24.202  1.00  0.00     0.180 HD
BRANCH  25  27
ATOM     27  S   UNL A   1      28.034  29.909  22.658  1.00  0.00     0.232 S 
ATOM     28  O   UNL A   1      28.360  29.927  21.249  1.00  0.00    -0.207 OA
ATOM     29  O   UNL A   1      26.861  29.199  23.126  1.00  0.00    -0.207 OA
BRANCH  27  30
ATOM     30  C   UNL A   1      27.890  31.610  23.226  1.00  0.00     0.156 C 
ATOM     31  C   UNL A   1      28.503  32.674  22.339  1.00  0.00     0.023 C 
ENDBRANCH  27  30
ENDBRANCH  25  27
ENDBRANCH  24  25
ENDBRANCH  17  19
ENDBRANCH  12  17
ENDBRANCH   6   8
ENDBRANCH   5   6
ENDBRANCH   4   5
ENDBRANCH   3   4
ENDBRANCH   2   3
ENDBRANCH   1   2
BRANCH   1  32
ATOM     32  C   UNL A   1      41.848  26.182  26.206  1.00  0.00     0.188 C 
BRANCH  32  33
ATOM     33  O   UNL A   1      42.790  25.133  26.124  1.00  0.00    -0.377 OA
BRANCH  33  34
ATOM     34  C   UNL A   1      43.114  24.617  24.840  1.00  0.00     0.188 C 
BRANCH  34  35
ATOM     35  C   UNL A   1      43.692  23.194  24.702  1.00  0.00     0.188 C 
BRANCH  35  36
ATOM     36  O   UNL A   1      44.262  22.674  25.892  1.00  0.00    -0.376 OA
BRANCH  36  37
ATOM     37  C   UNL A   1      45.674  22.638  26.028  1.00  0.00     0.202 C 
BRANCH  37  38
ATOM     38  C   UNL A   1      46.486  23.831  25.499  1.00  0.00     0.261 C 
BRANCH  38  39
ATOM     39  O   UNL A   1      46.436  25.041  26.271  1.00  0.00    -0.460 OA
BRANCH  39  40
ATOM     40  C   UNL A   1      46.638  26.219  25.647  1.00  0.00     0.338 C 
ATOM     41  O   UNL A   1      46.912  26.404  24.474  1.00  0.00    -0.246 OA
BRANCH  40  42
ATOM     42  C   UNL A   1      46.282  27.281  26.608  1.00  0.00     0.060 A 
ATOM     43  C   UNL A   1      47.281  27.850  27.414  1.00  0.00     0.016 A 
ATOM     44  C   UNL A   1      44.962  27.722  26.696  1.00  0.00     0.016 A 
ATOM     45  C   UNL A   1      46.951  28.842  28.339  1.00  0.00     0.010 A 
ATOM     46  C   UNL A   1      44.628  28.694  27.638  1.00  0.00     0.010 A 
ATOM     47  C   UNL A   1      45.614  29.230  28.487  1.00  0.00    -0.014 A 
BRANCH  47  48
ATOM     48  C   UNL A   1      45.173  29.995  29.677  1.00  0.00     0.031 A 
ATOM     49  C   UNL A   1      44.910  29.218  30.937  1.00  0.00     0.074 A 
ATOM     50  C   UNL A   1      44.954  31.319  29.632  1.00  0.00     0.049 A 
ATOM     51  N   UNL A   1      44.322  29.593  32.042  1.00  0.00    -0.248 NA
ATOM     52  C   UNL A   1      45.360  27.816  30.937  1.00  0.00     0.031 C 
ATOM     53  C   UNL A   1      45.232  32.186  28.492  1.00  0.00     0.029 A 
ATOM     54  N   UNL A   1      44.411  32.158  30.574  1.00  0.00    -0.354 N 
ATOM     55  C   UNL A   1      44.308  28.468  32.856  1.00  0.00     0.074 A 
ATOM     56  C   UNL A   1      44.929  27.393  32.115  1.00  0.00     0.031 C 
ATOM     57  C   UNL A   1      44.827  33.435  28.788  1.00  0.00     0.029 A 
ATOM     58  C   UNL A   1      44.214  33.438  30.118  1.00  0.00     0.049 A 
ATOM     59  H   UNL A   1      44.185  31.870  31.488  1.00  0.00     0.167 HD
ATOM     60  C   UNL A   1      43.816  28.345  34.110  1.00  0.00     0.037 A 
ATOM     61  C   UNL A   1      43.573  34.474  30.694  1.00  0.00     0.037 A 
ATOM     62  C   UNL A   1      43.196  29.420  34.835  1.00  0.00     0.049 A 
ATOM     63  C   UNL A   1      42.953  34.292  32.059  1.00  0.00     0.074 A 
ATOM     64  C   UNL A   1      42.669  29.407  36.113  1.00  0.00     0.029 A 
ATOM     65  N   UNL A   1      43.013  30.702  34.336  1.00  0.00    -0.354 N 
ATOM     66  N   UNL A   1      42.941  33.229  32.829  1.00  0.00    -0.248 NA
ATOM     67  C   UNL A   1      42.253  35.450  32.634  1.00  0.00     0.031 C 
ATOM     68  C   UNL A   1      42.112  30.663  36.365  1.00  0.00     0.029 A 
ATOM     69  C   UNL A   1      42.359  31.481  35.275  1.00  0.00     0.049 A 
ATOM     70  H   UNL A   1      43.304  31.010  33.448  1.00  0.00     0.167 HD
ATOM     71  C   UNL A   1      42.279  33.606  33.993  1.00  0.00     0.074 A 
ATOM     72  C   UNL A   1      41.897  34.991  33.826  1.00  0.00     0.031 C 
ATOM     73  C   UNL A   1      42.020  32.872  35.103  1.00  0.00     0.037 A 
BRANCH  60  74
ATOM     74  C   UNL A   1      43.890  26.993  34.756  1.00  0.00     0.064 A 
ATOM     75  C   UNL A   1      42.805  26.104  34.741  1.00  0.00     0.173 A 
ATOM     76  C   UNL A   1      45.075  26.572  35.380  1.00  0.00     0.173 A 
ATOM     77  F   UNL A   1      41.644  26.464  34.173  1.00  0.00    -0.203 F 
ATOM     78  C   UNL A   1      42.895  24.855  35.351  1.00  0.00     0.198 A 
ATOM     79  C   UNL A   1      45.172  25.310  35.958  1.00  0.00     0.198 A 
ATOM     80  F   UNL A   1      46.142  27.384  35.424  1.00  0.00    -0.203 F 
ATOM     81  F   UNL A   1      41.828  24.044  35.371  1.00  0.00    -0.200 F 
ATOM     82  C   UNL A   1      44.079  24.456  35.951  1.00  0.00     0.200 A 
ATOM     83  F   UNL A   1      46.323  24.922  36.525  1.00  0.00    -0.200 F 
ATOM     84  F   UNL A   1      44.167  23.250  36.529  1.00  0.00    -0.200 F 
ENDBRANCH  60  74
BRANCH  61  85
ATOM     85  C   UNL A   1      43.454  35.772  29.976  1.00  0.00     0.064 A 
ATOM     86  C   UNL A   1      42.498  35.952  28.965  1.00  0.00     0.173 A 
ATOM     87  C   UNL A   1      44.305  36.849  30.264  1.00  0.00     0.173 A 
ATOM     88  F   UNL A   1      41.678  34.945  28.633  1.00  0.00    -0.203 F 
ATOM     89  C   UNL A   1      42.414  37.150  28.257  1.00  0.00     0.198 A 
ATOM     90  C   UNL A   1      44.199  38.057  29.578  1.00  0.00     0.198 A 
ATOM     91  F   UNL A   1      45.239  36.730  31.219  1.00  0.00    -0.203 F 
ATOM     92  F   UNL A   1      41.528  37.275  27.261  1.00  0.00    -0.200 F 
ATOM     93  C   UNL A   1      43.261  38.203  28.568  1.00  0.00     0.200 A 
ATOM     94  F   UNL A   1      45.010  39.077  29.891  1.00  0.00    -0.200 F 
ATOM     95  F   UNL A   1      43.178  39.355  27.889  1.00  0.00    -0.200 F 
ENDBRANCH  61  85
BRANCH  73  96
ATOM     96  C   UNL A   1      41.366  33.559  36.267  1.00  0.00     0.064 A 
ATOM     97  C   UNL A   1      42.091  34.339  37.177  1.00  0.00     0.173 A 
ATOM     98  C   UNL A   1      39.968  33.508  36.410  1.00  0.00     0.173 A 
ATOM     99  F   UNL A   1      43.428  34.411  37.091  1.00  0.00    -0.203 F 
ATOM    100  C   UNL A   1      41.443  35.038  38.193  1.00  0.00     0.198 A 
ATOM    101  C   UNL A   1      39.322  34.234  37.406  1.00  0.00     0.198 A 
ATOM    102  F   UNL A   1      39.228  32.781  35.559  1.00  0.00    -0.203 F 
ATOM    103  F   UNL A   1      42.157  35.756  39.071  1.00  0.00    -0.200 F 
ATOM    104  C   UNL A   1      40.060  34.995  38.299  1.00  0.00     0.200 A 
ATOM    105  F   UNL A   1      37.985  34.206  37.492  1.00  0.00    -0.200 F 
ATOM    106  F   UNL A   1      39.437  35.689  39.261  1.00  0.00    -0.200 F 
ENDBRANCH  73  96
ENDBRANCH  47  48
ENDBRANCH  40  42
ENDBRANCH  39  40
ENDBRANCH  38  39
ENDBRANCH  37  38
ENDBRANCH  36  37
ENDBRANCH  35  36
ENDBRANCH  34  35
ENDBRANCH  33  34
ENDBRANCH  32  33
ENDBRANCH   1  32
TORSDOF 27
ENDMDL
MODEL 3
REMARK VINA RESULT:      -8.5      5.831     12.309
REMARK SMILES CCC[C@]1(C(=O)OCCOCCOCCOCCOC(=O)c2ccc(-c3c4nc(c(-c5c(F)c(F)c(F)c(F)c5F)c5ccc([nH]5)c(-c5c(F)c(F)c(F)c(F)c5F)c5nc(c(-c6c(F)c(F)c(F)c(F)c6F)c6ccc3[nH]6)C=C5)C=C4)cc2)CCCN(C(=O)c2ccc(NS(=O)(=O)CC)cc2)C1
REMARK SMILES IDX 11 1 10 2 9 3 8 4 7 5 5 6 6 7 4 8 85 9 103 10 86 11 88 12
REMARK SMILES IDX 87 13 3 14 2 15 1 16 89 17 90 18 91 19 92 20 102 21 93 22
REMARK SMILES IDX 101 23 94 24 95 25 96 27 97 28 98 29 99 30 100 31 12 32
REMARK SMILES IDX 13 33 14 34 15 35 16 36 17 37 18 38 19 39 20 40 21 41 22 42
REMARK SMILES IDX 23 43 84 44 24 45 83 46 25 47 26 48 27 49 77 50 28 51 82 52
REMARK SMILES IDX 76 53 78 54 29 55 81 56 75 57 74 58 30 60 62 61 42 62 61 63
REMARK SMILES IDX 43 64 46 65 60 66 79 67 44 68 45 69 59 71 80 72 47 73 31 74
REMARK SMILES IDX 32 75 40 76 33 77 34 78 38 79 41 80 35 81 36 82 39 83 37 84
REMARK SMILES IDX 63 85 64 86 72 87 65 88 66 89 70 90 73 91 67 92 68 93 71 94
REMARK SMILES IDX 69 95 48 96 49 97 57 98 50 99 51 100 55 101 58 102 52 103
REMARK SMILES IDX 53 104 56 105 54 106
REMARK H PARENT 95 26 78 59 46 70
REMARK Flexibility Score: inf
ROOT
ATOM      1  C   UNL A   1      38.282  33.262  36.272  1.00  0.00     0.188 C 
ENDROOT
BRANCH   1   2
ATOM      2  O   UNL A   1      39.265  32.251  36.308  1.00  0.00    -0.376 OA
BRANCH   2   3
ATOM      3  C   UNL A   1      38.970  30.870  36.180  1.00  0.00     0.202 C 
BRANCH   3   4
ATOM      4  C   UNL A   1      38.267  30.182  34.995  1.00  0.00     0.261 C 
BRANCH   4   5
ATOM      5  O   UNL A   1      39.073  29.691  33.921  1.00  0.00    -0.463 OA
BRANCH   5   6
ATOM      6  C   UNL A   1      38.371  29.332  32.827  1.00  0.00     0.313 C 
ATOM      7  O   UNL A   1      37.519  28.445  32.839  1.00  0.00    -0.252 OA
BRANCH   6   8
ATOM      8  C   UNL A   1      38.759  30.070  31.532  1.00  0.00     0.086 C 
ATOM      9  C   UNL A   1      40.235  29.992  31.056  1.00  0.00     0.022 C 
ATOM     10  C   UNL A   1      37.936  29.225  30.543  1.00  0.00     0.138 C 
ATOM     11  C   UNL A   1      40.441  30.324  29.568  1.00  0.00     0.023 C 
ATOM     12  N   UNL A   1      38.079  29.689  29.184  1.00  0.00    -0.338 N 
ATOM     13  C   UNL A   1      39.434  29.655  28.641  1.00  0.00     0.120 C 
BRANCH   8  14
ATOM     14  C   UNL A   1      38.218  31.531  31.777  1.00  0.00     0.020 C 
BRANCH  14  15
ATOM     15  C   UNL A   1      39.128  32.718  32.113  1.00  0.00    -0.002 C 
ATOM     16  C   UNL A   1      38.394  33.874  32.757  1.00  0.00     0.004 C 
ENDBRANCH  14  15
ENDBRANCH   8  14
BRANCH  12  17
ATOM     17  C   UNL A   1      36.916  30.070  28.540  1.00  0.00     0.253 C 
ATOM     18  O   UNL A   1      36.196  29.308  27.899  1.00  0.00    -0.269 OA
BRANCH  17  19
ATOM     19  C   UNL A   1      36.408  31.422  28.740  1.00  0.00     0.040 A 
ATOM     20  C   UNL A   1      35.043  31.586  28.535  1.00  0.00     0.016 A 
ATOM     21  C   UNL A   1      37.227  32.510  29.014  1.00  0.00     0.016 A 
ATOM     22  C   UNL A   1      34.474  32.841  28.641  1.00  0.00     0.027 A 
ATOM     23  C   UNL A   1      36.656  33.786  29.024  1.00  0.00     0.027 A 
ATOM     24  C   UNL A   1      35.278  33.963  28.807  1.00  0.00     0.049 A 
BRANCH  24  25
ATOM     25  N   UNL A   1      34.845  35.258  28.397  1.00  0.00    -0.284 N 
ATOM     26  H   UNL A   1      35.375  35.709  27.699  1.00  0.00     0.180 HD
BRANCH  25  27
ATOM     27  S   UNL A   1      33.524  36.074  28.993  1.00  0.00     0.232 S 
ATOM     28  O   UNL A   1      33.734  37.485  28.753  1.00  0.00    -0.207 OA
ATOM     29  O   UNL A   1      32.387  35.395  28.404  1.00  0.00    -0.207 OA
BRANCH  27  30
ATOM     30  C   UNL A   1      33.442  35.809  30.770  1.00  0.00     0.156 C 
ATOM     31  C   UNL A   1      32.702  36.856  31.577  1.00  0.00     0.023 C 
ENDBRANCH  27  30
ENDBRANCH  25  27
ENDBRANCH  24  25
ENDBRANCH  17  19
ENDBRANCH  12  17
ENDBRANCH   6   8
ENDBRANCH   5   6
ENDBRANCH   4   5
ENDBRANCH   3   4
ENDBRANCH   2   3
ENDBRANCH   1   2
BRANCH   1  32
ATOM     32  C   UNL A   1      37.596  33.721  37.563  1.00  0.00     0.188 C 
BRANCH  32  33
ATOM     33  O   UNL A   1      38.279  33.416  38.762  1.00  0.00    -0.377 OA
BRANCH  33  34
ATOM     34  C   UNL A   1      39.091  34.424  39.349  1.00  0.00     0.188 C 
BRANCH  34  35
ATOM     35  C   UNL A   1      38.654  35.101  40.664  1.00  0.00     0.188 C 
BRANCH  35  36
ATOM     36  O   UNL A   1      39.537  36.108  41.128  1.00  0.00    -0.376 OA
BRANCH  36  37
ATOM     37  C   UNL A   1      40.523  35.776  42.092  1.00  0.00     0.202 C 
BRANCH  37  38
ATOM     38  C   UNL A   1      41.968  35.567  41.612  1.00  0.00     0.261 C 
BRANCH  38  39
ATOM     39  O   UNL A   1      42.158  35.345  40.206  1.00  0.00    -0.460 OA
BRANCH  39  40
ATOM     40  C   UNL A   1      42.691  36.331  39.459  1.00  0.00     0.338 C 
ATOM     41  O   UNL A   1      43.188  37.374  39.845  1.00  0.00    -0.246 OA
BRANCH  40  42
ATOM     42  C   UNL A   1      42.738  35.839  38.067  1.00  0.00     0.060 A 
ATOM     43  C   UNL A   1      41.541  35.596  37.378  1.00  0.00     0.016 A 
ATOM     44  C   UNL A   1      43.970  35.636  37.446  1.00  0.00     0.016 A 
ATOM     45  C   UNL A   1      41.575  35.113  36.068  1.00  0.00     0.010 A 
ATOM     46  C   UNL A   1      44.004  35.129  36.148  1.00  0.00     0.010 A 
ATOM     47  C   UNL A   1      42.809  34.831  35.468  1.00  0.00    -0.014 A 
BRANCH  47  48
ATOM     48  C   UNL A   1      42.886  33.995  34.248  1.00  0.00     0.031 A 
ATOM     49  C   UNL A   1      42.937  32.505  34.436  1.00  0.00     0.074 A 
ATOM     50  C   UNL A   1      42.968  34.533  33.020  1.00  0.00     0.049 A 
ATOM     51  N   UNL A   1      43.217  31.563  33.573  1.00  0.00    -0.248 NA
ATOM     52  C   UNL A   1      42.649  32.014  35.794  1.00  0.00     0.031 C 
ATOM     53  C   UNL A   1      42.866  35.955  32.709  1.00  0.00     0.029 A 
ATOM     54  N   UNL A   1      43.193  33.933  31.805  1.00  0.00    -0.354 N 
ATOM     55  C   UNL A   1      43.165  30.375  34.290  1.00  0.00     0.074 A 
ATOM     56  C   UNL A   1      42.845  30.712  35.659  1.00  0.00     0.031 C 
ATOM     57  C   UNL A   1      43.059  36.124  31.388  1.00  0.00     0.029 A 
ATOM     58  C   UNL A   1      43.351  34.827  30.775  1.00  0.00     0.049 A 
ATOM     59  H   UNL A   1      43.235  32.956  31.684  1.00  0.00     0.167 HD
ATOM     60  C   UNL A   1      43.370  29.115  33.842  1.00  0.00     0.037 A 
ATOM     61  C   UNL A   1      43.733  34.619  29.499  1.00  0.00     0.037 A 
ATOM     62  C   UNL A   1      43.693  28.793  32.480  1.00  0.00     0.049 A 
ATOM     63  C   UNL A   1      44.044  33.215  29.041  1.00  0.00     0.074 A 
ATOM     64  C   UNL A   1      43.916  27.550  31.917  1.00  0.00     0.029 A 
ATOM     65  N   UNL A   1      43.849  29.728  31.467  1.00  0.00    -0.354 N 
ATOM     66  N   UNL A   1      43.993  32.091  29.717  1.00  0.00    -0.248 NA
ATOM     67  C   UNL A   1      44.469  33.047  27.643  1.00  0.00     0.031 C 
ATOM     68  C   UNL A   1      44.266  27.736  30.578  1.00  0.00     0.029 A 
ATOM     69  C   UNL A   1      44.187  29.089  30.286  1.00  0.00     0.049 A 
ATOM     70  H   UNL A   1      43.736  30.700  31.571  1.00  0.00     0.167 HD
ATOM     71  C   UNL A   1      44.330  31.085  28.818  1.00  0.00     0.074 A 
ATOM     72  C   UNL A   1      44.592  31.730  27.549  1.00  0.00     0.031 C 
ATOM     73  C   UNL A   1      44.408  29.747  29.023  1.00  0.00     0.037 A 
BRANCH  60  74
ATOM     74  C   UNL A   1      43.296  28.001  34.845  1.00  0.00     0.064 A 
ATOM     75  C   UNL A   1      44.356  27.717  35.718  1.00  0.00     0.173 A 
ATOM     76  C   UNL A   1      42.133  27.220  34.947  1.00  0.00     0.173 A 
ATOM     77  F   UNL A   1      45.495  28.421  35.649  1.00  0.00    -0.203 F 
ATOM     78  C   UNL A   1      44.265  26.675  36.638  1.00  0.00     0.198 A 
ATOM     79  C   UNL A   1      42.034  26.203  35.891  1.00  0.00     0.198 A 
ATOM     80  F   UNL A   1      41.090  27.449  34.135  1.00  0.00    -0.203 F 
ATOM     81  F   UNL A   1      45.311  26.386  37.425  1.00  0.00    -0.200 F 
ATOM     82  C   UNL A   1      43.103  25.925  36.730  1.00  0.00     0.200 A 
ATOM     83  F   UNL A   1      40.904  25.488  35.986  1.00  0.00    -0.200 F 
ATOM     84  F   UNL A   1      43.015  24.928  37.621  1.00  0.00    -0.200 F 
ENDBRANCH  60  74
BRANCH  61  85
ATOM     85  C   UNL A   1      43.874  35.769  28.565  1.00  0.00     0.064 A 
ATOM     86  C   UNL A   1      45.108  36.414  28.395  1.00  0.00     0.173 A 
ATOM     87  C   UNL A   1      42.778  36.264  27.842  1.00  0.00     0.173 A 
ATOM     88  F   UNL A   1      46.180  35.996  29.083  1.00  0.00    -0.203 F 
ATOM     89  C   UNL A   1      45.234  37.520  27.557  1.00  0.00     0.198 A 
ATOM     90  C   UNL A   1      42.912  37.350  26.980  1.00  0.00     0.198 A 
ATOM     91  F   UNL A   1      41.574  35.687  27.969  1.00  0.00    -0.203 F 
ATOM     92  F   UNL A   1      46.413  38.148  27.456  1.00  0.00    -0.200 F 
ATOM     93  C   UNL A   1      44.138  37.984  26.846  1.00  0.00     0.200 A 
ATOM     94  F   UNL A   1      41.853  37.786  26.285  1.00  0.00    -0.200 F 
ATOM     95  F   UNL A   1      44.260  39.047  26.039  1.00  0.00    -0.200 F 
ENDBRANCH  61  85
BRANCH  73  96
ATOM     96  C   UNL A   1      44.706  28.868  27.843  1.00  0.00     0.064 A 
ATOM     97  C   UNL A   1      43.702  28.422  26.972  1.00  0.00     0.173 A 
ATOM     98  C   UNL A   1      46.038  28.550  27.530  1.00  0.00     0.173 A 
ATOM     99  F   UNL A   1      42.414  28.689  27.232  1.00  0.00    -0.203 F 
ATOM    100  C   UNL A   1      44.021  27.684  25.835  1.00  0.00     0.198 A 
ATOM    101  C   UNL A   1      46.355  27.840  26.376  1.00  0.00     0.198 A 
ATOM    102  F   UNL A   1      47.036  28.960  28.328  1.00  0.00    -0.203 F 
ATOM    103  F   UNL A   1      43.045  27.242  25.030  1.00  0.00    -0.200 F 
ATOM    104  C   UNL A   1      45.346  27.404  25.531  1.00  0.00     0.200 A 
ATOM    105  F   UNL A   1      47.637  27.590  26.076  1.00  0.00    -0.200 F 
ATOM    106  F   UNL A   1      45.652  26.715  24.423  1.00  0.00    -0.200 F 
ENDBRANCH  73  96
ENDBRANCH  47  48
ENDBRANCH  40  42
ENDBRANCH  39  40
ENDBRANCH  38  39
ENDBRANCH  37  38
ENDBRANCH  36  37
ENDBRANCH  35  36
ENDBRANCH  34  35
ENDBRANCH  33  34
ENDBRANCH  32  33
ENDBRANCH   1  32
TORSDOF 27
ENDMDL
