MODEL 1
REMARK VINA RESULT:     -10.4      0.000      0.000
REMARK SMILES O=C(OCCOCCOCCOCCOC(=O)C1CN(S(=O)(=O)c2ccc(F)cc2)C1)c1ccc(-c2c3nc(c(-c4c(F)c(F)c(F)c(F)c4F)c4ccc([nH]4)c(-c4c(F)c(F)c(F)c(F)c4F)c4nc(c(-c5c(F)c(F)c(F)c(F)c5F)c5ccc2[nH]5)C=C4)C=C3)cc1
REMARK SMILES IDX 9 1 8 2 7 3 6 4 5 5 4 6 3 7 2 8 1 9 32 10 33 11 94 12 34 13
REMARK SMILES IDX 93 14 35 15 36 16 37 17 87 18 38 19 92 20 86 21 88 22 39 23
REMARK SMILES IDX 91 24 85 25 84 26 40 28 72 29 52 30 71 31 53 32 56 33 70 34
REMARK SMILES IDX 89 35 54 36 55 37 69 39 90 40 57 41 41 42 42 43 50 44 43 45
REMARK SMILES IDX 44 46 48 47 51 48 45 49 46 50 49 51 47 52 73 53 74 54 82 55
REMARK SMILES IDX 75 56 76 57 80 58 83 59 77 60 78 61 81 62 79 63 58 64 59 65
REMARK SMILES IDX 67 66 60 67 61 68 65 69 68 70 62 71 63 72 66 73 64 74 10 75
REMARK SMILES IDX 11 76 12 77 13 78 14 79 15 80 16 81 17 82 18 83 19 84 31 85
REMARK SMILES IDX 20 86 21 87 22 88 23 89 24 90 25 91 30 92 26 93 29 94 27 95
REMARK SMILES IDX 28 96
REMARK H PARENT 88 27 56 38
REMARK Flexibility Score: inf
ROOT
ATOM      1  O   UNL A   1      33.197  34.496  29.910  1.00  0.00    -0.377 OA
ENDROOT
BRANCH   1   2
ATOM      2  C   UNL A   1      32.921  35.881  30.088  1.00  0.00     0.188 C 
BRANCH   2   3
ATOM      3  C   UNL A   1      33.139  36.448  31.488  1.00  0.00     0.188 C 
BRANCH   3   4
ATOM      4  O   UNL A   1      33.167  35.412  32.458  1.00  0.00    -0.376 OA
BRANCH   4   5
ATOM      5  C   UNL A   1      34.375  35.105  33.139  1.00  0.00     0.202 C 
BRANCH   5   6
ATOM      6  C   UNL A   1      35.483  34.396  32.361  1.00  0.00     0.261 C 
BRANCH   6   7
ATOM      7  O   UNL A   1      35.582  32.961  32.517  1.00  0.00    -0.460 OA
BRANCH   7   8
ATOM      8  C   UNL A   1      36.582  32.172  32.979  1.00  0.00     0.338 C 
ATOM      9  O   UNL A   1      36.700  31.974  34.185  1.00  0.00    -0.246 OA
BRANCH   8  10
ATOM     10  C   UNL A   1      37.539  31.521  32.061  1.00  0.00     0.060 A 
ATOM     11  C   UNL A   1      38.479  30.617  32.509  1.00  0.00     0.016 A 
ATOM     12  C   UNL A   1      37.441  31.719  30.683  1.00  0.00     0.016 A 
ATOM     13  C   UNL A   1      39.512  30.183  31.724  1.00  0.00     0.010 A 
ATOM     14  C   UNL A   1      38.363  31.105  29.824  1.00  0.00     0.010 A 
ATOM     15  C   UNL A   1      39.445  30.391  30.360  1.00  0.00    -0.014 A 
BRANCH  15  16
ATOM     16  C   UNL A   1      40.602  29.926  29.580  1.00  0.00     0.031 A 
ATOM     17  C   UNL A   1      41.789  30.832  29.500  1.00  0.00     0.074 A 
ATOM     18  C   UNL A   1      40.652  28.643  29.167  1.00  0.00     0.049 A 
ATOM     19  N   UNL A   1      42.908  30.666  28.853  1.00  0.00    -0.248 NA
ATOM     20  C   UNL A   1      41.720  32.091  30.268  1.00  0.00     0.031 C 
ATOM     21  C   UNL A   1      39.599  27.640  29.382  1.00  0.00     0.029 A 
ATOM     22  N   UNL A   1      41.648  27.936  28.550  1.00  0.00    -0.354 N 
ATOM     23  C   UNL A   1      43.648  31.813  29.095  1.00  0.00     0.074 A 
ATOM     24  C   UNL A   1      42.863  32.675  29.945  1.00  0.00     0.031 C 
ATOM     25  C   UNL A   1      40.033  26.441  28.966  1.00  0.00     0.029 A 
ATOM     26  C   UNL A   1      41.336  26.613  28.343  1.00  0.00     0.049 A 
ATOM     27  H   UNL A   1      42.506  28.337  28.281  1.00  0.00     0.167 HD
ATOM     28  C   UNL A   1      44.881  32.107  28.634  1.00  0.00     0.037 A 
ATOM     29  C   UNL A   1      42.015  25.664  27.673  1.00  0.00     0.037 A 
ATOM     30  C   UNL A   1      45.641  31.203  27.817  1.00  0.00     0.049 A 
ATOM     31  C   UNL A   1      43.326  26.069  27.058  1.00  0.00     0.074 A 
ATOM     32  C   UNL A   1      46.866  31.407  27.216  1.00  0.00     0.029 A 
ATOM     33  N   UNL A   1      45.240  29.910  27.505  1.00  0.00    -0.354 N 
ATOM     34  N   UNL A   1      43.979  27.201  27.180  1.00  0.00    -0.248 NA
ATOM     35  C   UNL A   1      43.983  25.085  26.192  1.00  0.00     0.031 C 
ATOM     36  C   UNL A   1      47.182  30.255  26.493  1.00  0.00     0.029 A 
ATOM     37  C   UNL A   1      46.187  29.308  26.697  1.00  0.00     0.049 A 
ATOM     38  H   UNL A   1      44.407  29.486  27.812  1.00  0.00     0.167 HD
ATOM     39  C   UNL A   1      45.129  27.065  26.420  1.00  0.00     0.074 A 
ATOM     40  C   UNL A   1      45.097  25.724  25.867  1.00  0.00     0.031 C 
ATOM     41  C   UNL A   1      46.116  27.963  26.185  1.00  0.00     0.037 A 
BRANCH  28  42
ATOM     42  C   UNL A   1      45.438  33.462  28.939  1.00  0.00     0.064 A 
ATOM     43  C   UNL A   1      45.293  34.501  28.008  1.00  0.00     0.173 A 
ATOM     44  C   UNL A   1      46.134  33.733  30.125  1.00  0.00     0.173 A 
ATOM     45  F   UNL A   1      44.615  34.296  26.868  1.00  0.00    -0.203 F 
ATOM     46  C   UNL A   1      45.851  35.754  28.239  1.00  0.00     0.198 A 
ATOM     47  C   UNL A   1      46.669  34.997  30.365  1.00  0.00     0.198 A 
ATOM     48  F   UNL A   1      46.264  32.785  31.065  1.00  0.00    -0.203 F 
ATOM     49  F   UNL A   1      45.723  36.722  27.321  1.00  0.00    -0.200 F 
ATOM     50  C   UNL A   1      46.539  36.001  29.417  1.00  0.00     0.200 A 
ATOM     51  F   UNL A   1      47.303  35.246  31.519  1.00  0.00    -0.200 F 
ATOM     52  F   UNL A   1      47.070  37.211  29.641  1.00  0.00    -0.200 F 
ENDBRANCH  28  42
BRANCH  29  53
ATOM     53  C   UNL A   1      41.442  24.302  27.483  1.00  0.00     0.064 A 
ATOM     54  C   UNL A   1      40.304  24.091  26.686  1.00  0.00     0.173 A 
ATOM     55  C   UNL A   1      42.034  23.174  28.068  1.00  0.00     0.173 A 
ATOM     56  F   UNL A   1      39.695  25.128  26.093  1.00  0.00    -0.203 F 
ATOM     57  C   UNL A   1      39.774  22.816  26.497  1.00  0.00     0.198 A 
ATOM     58  C   UNL A   1      41.525  21.894  27.848  1.00  0.00     0.198 A 
ATOM     59  F   UNL A   1      43.133  23.310  28.823  1.00  0.00    -0.203 F 
ATOM     60  F   UNL A   1      38.669  22.655  25.757  1.00  0.00    -0.200 F 
ATOM     61  C   UNL A   1      40.392  21.716  27.068  1.00  0.00     0.200 A 
ATOM     62  F   UNL A   1      42.145  20.829  28.375  1.00  0.00    -0.200 F 
ATOM     63  F   UNL A   1      39.904  20.486  26.857  1.00  0.00    -0.200 F 
ENDBRANCH  29  53
BRANCH  41  64
ATOM     64  C   UNL A   1      47.251  27.513  25.319  1.00  0.00     0.064 A 
ATOM     65  C   UNL A   1      48.336  26.824  25.882  1.00  0.00     0.173 A 
ATOM     66  C   UNL A   1      47.302  27.832  23.956  1.00  0.00     0.173 A 
ATOM     67  F   UNL A   1      48.335  26.508  27.186  1.00  0.00    -0.203 F 
ATOM     68  C   UNL A   1      49.442  26.488  25.111  1.00  0.00     0.198 A 
ATOM     69  C   UNL A   1      48.393  27.458  23.179  1.00  0.00     0.198 A 
ATOM     70  F   UNL A   1      46.280  28.478  23.374  1.00  0.00    -0.203 F 
ATOM     71  F   UNL A   1      50.489  25.873  25.679  1.00  0.00    -0.200 F 
ATOM     72  C   UNL A   1      49.467  26.799  23.760  1.00  0.00     0.200 A 
ATOM     73  F   UNL A   1      48.403  27.733  21.868  1.00  0.00    -0.200 F 
ATOM     74  F   UNL A   1      50.528  26.462  23.015  1.00  0.00    -0.200 F 
ENDBRANCH  41  64
ENDBRANCH  15  16
ENDBRANCH   8  10
ENDBRANCH   7   8
ENDBRANCH   6   7
ENDBRANCH   5   6
ENDBRANCH   4   5
ENDBRANCH   3   4
ENDBRANCH   2   3
ENDBRANCH   1   2
BRANCH   1  75
ATOM     75  C   UNL A   1      33.888  34.122  28.727  1.00  0.00     0.188 C 
BRANCH  75  76
ATOM     76  C   UNL A   1      34.370  32.659  28.538  1.00  0.00     0.188 C 
BRANCH  76  77
ATOM     77  O   UNL A   1      33.768  31.849  27.549  1.00  0.00    -0.376 OA
BRANCH  77  78
ATOM     78  C   UNL A   1      34.215  30.530  27.263  1.00  0.00     0.202 C 
BRANCH  78  79
ATOM     79  C   UNL A   1      33.411  29.230  27.497  1.00  0.00     0.261 C 
BRANCH  79  80
ATOM     80  O   UNL A   1      33.527  28.239  26.477  1.00  0.00    -0.463 OA
BRANCH  80  81
ATOM     81  C   UNL A   1      32.673  27.170  26.516  1.00  0.00     0.311 C 
ATOM     82  O   UNL A   1      31.499  27.258  26.866  1.00  0.00    -0.252 OA
BRANCH  81  83
ATOM     83  C   UNL A   1      33.315  25.932  25.877  1.00  0.00     0.129 C 
ATOM     84  C   UNL A   1      32.547  24.644  25.587  1.00  0.00     0.119 C 
ATOM     85  C   UNL A   1      33.477  25.999  24.333  1.00  0.00     0.119 C 
ATOM     86  N   UNL A   1      33.296  24.511  24.270  1.00  0.00    -0.196 NA
BRANCH  86  87
ATOM     87  S   UNL A   1      34.652  23.474  24.072  1.00  0.00     0.243 S 
ATOM     88  O   UNL A   1      35.213  23.688  22.757  1.00  0.00    -0.207 OA
ATOM     89  O   UNL A   1      35.466  23.575  25.268  1.00  0.00    -0.207 OA
BRANCH  87  90
ATOM     90  C   UNL A   1      33.875  21.874  24.056  1.00  0.00     0.082 A 
ATOM     91  C   UNL A   1      34.340  20.869  24.916  1.00  0.00     0.025 A 
ATOM     92  C   UNL A   1      32.775  21.648  23.221  1.00  0.00     0.025 A 
ATOM     93  C   UNL A   1      33.714  19.621  24.913  1.00  0.00     0.040 A 
ATOM     94  C   UNL A   1      32.152  20.400  23.229  1.00  0.00     0.040 A 
ATOM     95  C   UNL A   1      32.629  19.399  24.069  1.00  0.00     0.123 A 
ATOM     96  F   UNL A   1      32.030  18.200  24.071  1.00  0.00    -0.207 F 
ENDBRANCH  87  90
ENDBRANCH  86  87
ENDBRANCH  81  83
ENDBRANCH  80  81
ENDBRANCH  79  80
ENDBRANCH  78  79
ENDBRANCH  77  78
ENDBRANCH  76  77
ENDBRANCH  75  76
ENDBRANCH   1  75
TORSDOF 22
ENDMDL
MODEL 2
REMARK VINA RESULT:      -9.9      3.449      9.180
REMARK SMILES O=C(OCCOCCOCCOCCOC(=O)C1CN(S(=O)(=O)c2ccc(F)cc2)C1)c1ccc(-c2c3nc(c(-c4c(F)c(F)c(F)c(F)c4F)c4ccc([nH]4)c(-c4c(F)c(F)c(F)c(F)c4F)c4nc(c(-c5c(F)c(F)c(F)c(F)c5F)c5ccc2[nH]5)C=C4)C=C3)cc1
REMARK SMILES IDX 9 1 8 2 7 3 6 4 5 5 4 6 3 7 2 8 1 9 32 10 33 11 94 12 34 13
REMARK SMILES IDX 93 14 35 15 36 16 37 17 87 18 38 19 92 20 86 21 88 22 39 23
REMARK SMILES IDX 91 24 85 25 84 26 40 28 72 29 52 30 71 31 53 32 56 33 70 34
REMARK SMILES IDX 89 35 54 36 55 37 69 39 90 40 57 41 41 42 42 43 50 44 43 45
REMARK SMILES IDX 44 46 48 47 51 48 45 49 46 50 49 51 47 52 73 53 74 54 82 55
REMARK SMILES IDX 75 56 76 57 80 58 83 59 77 60 78 61 81 62 79 63 58 64 59 65
REMARK SMILES IDX 67 66 60 67 61 68 65 69 68 70 62 71 63 72 66 73 64 74 10 75
REMARK SMILES IDX 11 76 12 77 13 78 14 79 15 80 16 81 17 82 18 83 19 84 31 85
REMARK SMILES IDX 20 86 21 87 22 88 23 89 24 90 25 91 30 92 26 93 29 94 27 95
REMARK SMILES IDX 28 96
REMARK H PARENT 88 27 56 38
REMARK Flexibility Score: inf
ROOT
ATOM      1  O   UNL A   1      33.431  21.265  23.891  1.00  0.00    -0.377 OA
ENDROOT
BRANCH   1   2
ATOM      2  C   UNL A   1      33.085  20.479  25.027  1.00  0.00     0.188 C 
BRANCH   2   3
ATOM      3  C   UNL A   1      33.685  20.908  26.364  1.00  0.00     0.188 C 
BRANCH   3   4
ATOM      4  O   UNL A   1      34.134  22.253  26.312  1.00  0.00    -0.376 OA
BRANCH   4   5
ATOM      5  C   UNL A   1      35.522  22.538  26.211  1.00  0.00     0.202 C 
BRANCH   5   6
ATOM      6  C   UNL A   1      36.452  21.433  25.710  1.00  0.00     0.261 C 
BRANCH   6   7
ATOM      7  O   UNL A   1      37.807  21.813  25.375  1.00  0.00    -0.460 OA
BRANCH   7   8
ATOM      8  C   UNL A   1      38.963  21.740  26.078  1.00  0.00     0.338 C 
ATOM      9  O   UNL A   1      39.493  20.651  26.278  1.00  0.00    -0.246 OA
BRANCH   8  10
ATOM     10  C   UNL A   1      39.624  22.952  26.606  1.00  0.00     0.060 A 
ATOM     11  C   UNL A   1      39.135  24.217  26.353  1.00  0.00     0.016 A 
ATOM     12  C   UNL A   1      40.705  22.842  27.481  1.00  0.00     0.016 A 
ATOM     13  C   UNL A   1      39.851  25.349  26.634  1.00  0.00     0.010 A 
ATOM     14  C   UNL A   1      41.329  24.000  27.965  1.00  0.00     0.010 A 
ATOM     15  C   UNL A   1      40.939  25.257  27.479  1.00  0.00    -0.014 A 
BRANCH  15  16
ATOM     16  C   UNL A   1      41.680  26.505  27.715  1.00  0.00     0.031 A 
ATOM     17  C   UNL A   1      41.095  27.481  28.684  1.00  0.00     0.074 A 
ATOM     18  C   UNL A   1      42.939  26.628  27.246  1.00  0.00     0.049 A 
ATOM     19  N   UNL A   1      41.536  28.657  29.035  1.00  0.00    -0.248 NA
ATOM     20  C   UNL A   1      39.853  27.077  29.371  1.00  0.00     0.031 C 
ATOM     21  C   UNL A   1      43.650  25.621  26.446  1.00  0.00     0.029 A 
ATOM     22  N   UNL A   1      43.874  27.611  27.431  1.00  0.00    -0.354 N 
ATOM     23  C   UNL A   1      40.605  29.146  29.938  1.00  0.00     0.074 A 
ATOM     24  C   UNL A   1      39.570  28.152  30.089  1.00  0.00     0.031 C 
ATOM     25  C   UNL A   1      44.922  26.008  26.270  1.00  0.00     0.029 A 
ATOM     26  C   UNL A   1      45.081  27.340  26.829  1.00  0.00     0.049 A 
ATOM     27  H   UNL A   1      43.699  28.431  27.945  1.00  0.00     0.167 HD
ATOM     28  C   UNL A   1      40.627  30.334  30.577  1.00  0.00     0.037 A 
ATOM     29  C   UNL A   1      46.172  28.117  26.705  1.00  0.00     0.037 A 
ATOM     30  C   UNL A   1      41.696  31.280  30.423  1.00  0.00     0.049 A 
ATOM     31  C   UNL A   1      46.107  29.489  27.319  1.00  0.00     0.074 A 
ATOM     32  C   UNL A   1      41.805  32.551  30.946  1.00  0.00     0.029 A 
ATOM     33  N   UNL A   1      42.853  31.036  29.692  1.00  0.00    -0.354 N 
ATOM     34  N   UNL A   1      45.170  30.009  28.076  1.00  0.00    -0.248 NA
ATOM     35  C   UNL A   1      47.228  30.391  27.043  1.00  0.00     0.031 C 
ATOM     36  C   UNL A   1      43.004  33.100  30.488  1.00  0.00     0.029 A 
ATOM     37  C   UNL A   1      43.675  32.146  29.733  1.00  0.00     0.049 A 
ATOM     38  H   UNL A   1      43.057  30.199  29.217  1.00  0.00     0.167 HD
ATOM     39  C   UNL A   1      45.591  31.293  28.380  1.00  0.00     0.074 A 
ATOM     40  C   UNL A   1      46.886  31.459  27.748  1.00  0.00     0.031 C 
ATOM     41  C   UNL A   1      44.965  32.256  29.099  1.00  0.00     0.037 A 
BRANCH  28  42
ATOM     42  C   UNL A   1      39.449  30.693  31.427  1.00  0.00     0.064 A 
ATOM     43  C   UNL A   1      38.417  31.478  30.891  1.00  0.00     0.173 A 
ATOM     44  C   UNL A   1      39.346  30.295  32.766  1.00  0.00     0.173 A 
ATOM     45  F   UNL A   1      38.460  31.865  29.607  1.00  0.00    -0.203 F 
ATOM     46  C   UNL A   1      37.338  31.876  31.674  1.00  0.00     0.198 A 
ATOM     47  C   UNL A   1      38.251  30.674  33.541  1.00  0.00     0.198 A 
ATOM     48  F   UNL A   1      40.286  29.510  33.313  1.00  0.00    -0.203 F 
ATOM     49  F   UNL A   1      36.379  32.649  31.146  1.00  0.00    -0.200 F 
ATOM     50  C   UNL A   1      37.257  31.475  32.999  1.00  0.00     0.200 A 
ATOM     51  F   UNL A   1      38.154  30.256  34.811  1.00  0.00    -0.200 F 
ATOM     52  F   UNL A   1      36.214  31.854  33.750  1.00  0.00    -0.200 F 
ENDBRANCH  28  42
BRANCH  29  53
ATOM     53  C   UNL A   1      47.353  27.660  25.920  1.00  0.00     0.064 A 
ATOM     54  C   UNL A   1      48.466  27.073  26.547  1.00  0.00     0.173 A 
ATOM     55  C   UNL A   1      47.387  27.771  24.523  1.00  0.00     0.173 A 
ATOM     56  F   UNL A   1      48.492  26.933  27.880  1.00  0.00    -0.203 F 
ATOM     57  C   UNL A   1      49.566  26.633  25.813  1.00  0.00     0.198 A 
ATOM     58  C   UNL A   1      48.473  27.295  23.787  1.00  0.00     0.198 A 
ATOM     59  F   UNL A   1      46.346  28.304  23.868  1.00  0.00    -0.203 F 
ATOM     60  F   UNL A   1      50.624  26.108  26.446  1.00  0.00    -0.200 F 
ATOM     61  C   UNL A   1      49.564  26.733  24.432  1.00  0.00     0.200 A 
ATOM     62  F   UNL A   1      48.453  27.364  22.449  1.00  0.00    -0.200 F 
ATOM     63  F   UNL A   1      50.606  26.277  23.724  1.00  0.00    -0.200 F 
ENDBRANCH  29  53
BRANCH  41  64
ATOM     64  C   UNL A   1      45.687  33.557  29.265  1.00  0.00     0.064 A 
ATOM     65  C   UNL A   1      46.537  33.756  30.363  1.00  0.00     0.173 A 
ATOM     66  C   UNL A   1      45.476  34.627  28.386  1.00  0.00     0.173 A 
ATOM     67  F   UNL A   1      46.759  32.762  31.237  1.00  0.00    -0.203 F 
ATOM     68  C   UNL A   1      47.135  34.990  30.585  1.00  0.00     0.198 A 
ATOM     69  C   UNL A   1      46.109  35.848  28.590  1.00  0.00     0.198 A 
ATOM     70  F   UNL A   1      44.681  34.476  27.315  1.00  0.00    -0.203 F 
ATOM     71  F   UNL A   1      47.906  35.172  31.666  1.00  0.00    -0.200 F 
ATOM     72  C   UNL A   1      46.926  36.033  29.696  1.00  0.00     0.200 A 
ATOM     73  F   UNL A   1      45.929  36.846  27.714  1.00  0.00    -0.200 F 
ATOM     74  F   UNL A   1      47.515  37.218  29.902  1.00  0.00    -0.200 F 
ENDBRANCH  41  64
ENDBRANCH  15  16
ENDBRANCH   8  10
ENDBRANCH   7   8
ENDBRANCH   6   7
ENDBRANCH   5   6
ENDBRANCH   4   5
ENDBRANCH   3   4
ENDBRANCH   2   3
ENDBRANCH   1   2
BRANCH   1  75
ATOM     75  C   UNL A   1      32.366  21.692  23.054  1.00  0.00     0.188 C 
BRANCH  75  76
ATOM     76  C   UNL A   1      32.324  23.154  22.535  1.00  0.00     0.188 C 
BRANCH  76  77
ATOM     77  O   UNL A   1      33.316  23.602  21.633  1.00  0.00    -0.376 OA
BRANCH  77  78
ATOM     78  C   UNL A   1      33.009  24.383  20.485  1.00  0.00     0.202 C 
BRANCH  78  79
ATOM     79  C   UNL A   1      32.201  25.701  20.476  1.00  0.00     0.261 C 
BRANCH  79  80
ATOM     80  O   UNL A   1      32.045  26.339  21.744  1.00  0.00    -0.463 OA
BRANCH  80  81
ATOM     81  C   UNL A   1      33.102  27.053  22.240  1.00  0.00     0.311 C 
ATOM     82  O   UNL A   1      34.078  27.370  21.565  1.00  0.00    -0.252 OA
BRANCH  81  83
ATOM     83  C   UNL A   1      32.802  27.567  23.654  1.00  0.00     0.129 C 
ATOM     84  C   UNL A   1      33.050  26.744  24.917  1.00  0.00     0.119 C 
ATOM     85  C   UNL A   1      33.878  28.517  24.250  1.00  0.00     0.119 C 
ATOM     86  N   UNL A   1      33.549  27.997  25.618  1.00  0.00    -0.196 NA
BRANCH  86  87
ATOM     87  S   UNL A   1      32.567  28.917  26.689  1.00  0.00     0.243 S 
ATOM     88  O   UNL A   1      31.539  29.582  25.922  1.00  0.00    -0.207 OA
ATOM     89  O   UNL A   1      32.241  28.075  27.824  1.00  0.00    -0.207 OA
BRANCH  87  90
ATOM     90  C   UNL A   1      33.711  30.167  27.230  1.00  0.00     0.082 A 
ATOM     91  C   UNL A   1      35.069  29.850  27.373  1.00  0.00     0.025 A 
ATOM     92  C   UNL A   1      33.253  31.469  27.461  1.00  0.00     0.025 A 
ATOM     93  C   UNL A   1      35.965  30.840  27.780  1.00  0.00     0.040 A 
ATOM     94  C   UNL A   1      34.156  32.453  27.861  1.00  0.00     0.040 A 
ATOM     95  C   UNL A   1      35.500  32.130  28.022  1.00  0.00     0.123 A 
ATOM     96  F   UNL A   1      36.363  33.078  28.410  1.00  0.00    -0.207 F 
ENDBRANCH  87  90
ENDBRANCH  86  87
ENDBRANCH  81  83
ENDBRANCH  80  81
ENDBRANCH  79  80
ENDBRANCH  78  79
ENDBRANCH  77  78
ENDBRANCH  76  77
ENDBRANCH  75  76
ENDBRANCH   1  75
TORSDOF 22
ENDMDL
MODEL 3
REMARK VINA RESULT:      -9.6      1.792      2.472
REMARK SMILES O=C(OCCOCCOCCOCCOC(=O)C1CN(S(=O)(=O)c2ccc(F)cc2)C1)c1ccc(-c2c3nc(c(-c4c(F)c(F)c(F)c(F)c4F)c4ccc([nH]4)c(-c4c(F)c(F)c(F)c(F)c4F)c4nc(c(-c5c(F)c(F)c(F)c(F)c5F)c5ccc2[nH]5)C=C4)C=C3)cc1
REMARK SMILES IDX 9 1 8 2 7 3 6 4 5 5 4 6 3 7 2 8 1 9 32 10 33 11 94 12 34 13
REMARK SMILES IDX 93 14 35 15 36 16 37 17 87 18 38 19 92 20 86 21 88 22 39 23
REMARK SMILES IDX 91 24 85 25 84 26 40 28 72 29 52 30 71 31 53 32 56 33 70 34
REMARK SMILES IDX 89 35 54 36 55 37 69 39 90 40 57 41 41 42 42 43 50 44 43 45
REMARK SMILES IDX 44 46 48 47 51 48 45 49 46 50 49 51 47 52 73 53 74 54 82 55
REMARK SMILES IDX 75 56 76 57 80 58 83 59 77 60 78 61 81 62 79 63 58 64 59 65
REMARK SMILES IDX 67 66 60 67 61 68 65 69 68 70 62 71 63 72 66 73 64 74 10 75
REMARK SMILES IDX 11 76 12 77 13 78 14 79 15 80 16 81 17 82 18 83 19 84 31 85
REMARK SMILES IDX 20 86 21 87 22 88 23 89 24 90 25 91 30 92 26 93 29 94 27 95
REMARK SMILES IDX 28 96
REMARK H PARENT 88 27 56 38
REMARK Flexibility Score: inf
ROOT
ATOM      1  O   UNL A   1      33.444  32.576  28.420  1.00  0.00    -0.377 OA
ENDROOT
BRANCH   1   2
ATOM      2  C   UNL A   1      33.248  33.941  28.068  1.00  0.00     0.188 C 
BRANCH   2   3
ATOM      3  C   UNL A   1      33.715  34.983  29.081  1.00  0.00     0.188 C 
BRANCH   3   4
ATOM      4  O   UNL A   1      33.051  34.817  30.325  1.00  0.00    -0.376 OA
BRANCH   4   5
ATOM      5  C   UNL A   1      33.795  34.499  31.493  1.00  0.00     0.202 C 
BRANCH   5   6
ATOM      6  C   UNL A   1      35.243  34.039  31.324  1.00  0.00     0.261 C 
BRANCH   6   7
ATOM      7  O   UNL A   1      35.454  32.670  30.905  1.00  0.00    -0.460 OA
BRANCH   7   8
ATOM      8  C   UNL A   1      36.075  31.628  31.510  1.00  0.00     0.338 C 
ATOM      9  O   UNL A   1      35.700  31.246  32.614  1.00  0.00    -0.246 OA
BRANCH   8  10
ATOM     10  C   UNL A   1      37.198  30.918  30.863  1.00  0.00     0.060 A 
ATOM     11  C   UNL A   1      38.079  30.139  31.584  1.00  0.00     0.016 A 
ATOM     12  C   UNL A   1      37.331  30.924  29.474  1.00  0.00     0.016 A 
ATOM     13  C   UNL A   1      39.246  29.666  31.048  1.00  0.00     0.010 A 
ATOM     14  C   UNL A   1      38.406  30.256  28.874  1.00  0.00     0.010 A 
ATOM     15  C   UNL A   1      39.406  29.685  29.677  1.00  0.00    -0.014 A 
BRANCH  15  16
ATOM     16  C   UNL A   1      40.695  29.190  29.171  1.00  0.00     0.031 A 
ATOM     17  C   UNL A   1      41.885  30.082  29.324  1.00  0.00     0.074 A 
ATOM     18  C   UNL A   1      40.813  27.896  28.809  1.00  0.00     0.049 A 
ATOM     19  N   UNL A   1      43.113  29.890  28.934  1.00  0.00    -0.248 NA
ATOM     20  C   UNL A   1      41.673  31.361  30.030  1.00  0.00     0.031 C 
ATOM     21  C   UNL A   1      39.723  26.908  28.818  1.00  0.00     0.029 A 
ATOM     22  N   UNL A   1      41.907  27.164  28.434  1.00  0.00    -0.354 N 
ATOM     23  C   UNL A   1      43.802  31.035  29.301  1.00  0.00     0.074 A 
ATOM     24  C   UNL A   1      42.867  31.926  29.944  1.00  0.00     0.031 C 
ATOM     25  C   UNL A   1      40.219  25.696  28.533  1.00  0.00     0.029 A 
ATOM     26  C   UNL A   1      41.626  25.839  28.197  1.00  0.00     0.049 A 
ATOM     27  H   UNL A   1      42.808  27.549  28.344  1.00  0.00     0.167 HD
ATOM     28  C   UNL A   1      45.109  31.305  29.105  1.00  0.00     0.037 A 
ATOM     29  C   UNL A   1      42.418  24.867  27.709  1.00  0.00     0.037 A 
ATOM     30  C   UNL A   1      46.012  30.374  28.490  1.00  0.00     0.049 A 
ATOM     31  C   UNL A   1      43.835  25.243  27.377  1.00  0.00     0.074 A 
ATOM     32  C   UNL A   1      47.339  30.550  28.158  1.00  0.00     0.029 A 
ATOM     33  N   UNL A   1      45.667  29.076  28.130  1.00  0.00    -0.354 N 
ATOM     34  N   UNL A   1      44.464  26.372  27.609  1.00  0.00    -0.248 NA
ATOM     35  C   UNL A   1      44.647  24.231  26.694  1.00  0.00     0.031 C 
ATOM     36  C   UNL A   1      47.785  29.377  27.547  1.00  0.00     0.029 A 
ATOM     37  C   UNL A   1      46.755  28.445  27.557  1.00  0.00     0.049 A 
ATOM     38  H   UNL A   1      44.782  28.668  28.263  1.00  0.00     0.167 HD
ATOM     39  C   UNL A   1      45.747  26.205  27.114  1.00  0.00     0.074 A 
ATOM     40  C   UNL A   1      45.814  24.851  26.598  1.00  0.00     0.031 C 
ATOM     41  C   UNL A   1      46.774  27.088  27.073  1.00  0.00     0.037 A 
BRANCH  28  42
ATOM     42  C   UNL A   1      45.608  32.662  29.490  1.00  0.00     0.064 A 
ATOM     43  C   UNL A   1      46.069  32.891  30.795  1.00  0.00     0.173 A 
ATOM     44  C   UNL A   1      45.609  33.739  28.593  1.00  0.00     0.173 A 
ATOM     45  F   UNL A   1      46.109  31.886  31.683  1.00  0.00    -0.203 F 
ATOM     46  C   UNL A   1      46.484  34.157  31.197  1.00  0.00     0.198 A 
ATOM     47  C   UNL A   1      46.049  34.999  28.992  1.00  0.00     0.198 A 
ATOM     48  F   UNL A   1      45.216  33.562  27.323  1.00  0.00    -0.203 F 
ATOM     49  F   UNL A   1      46.893  34.356  32.458  1.00  0.00    -0.200 F 
ATOM     50  C   UNL A   1      46.473  35.210  30.296  1.00  0.00     0.200 A 
ATOM     51  F   UNL A   1      46.073  36.010  28.111  1.00  0.00    -0.200 F 
ATOM     52  F   UNL A   1      46.880  36.427  30.683  1.00  0.00    -0.200 F 
ENDBRANCH  28  42
BRANCH  29  53
ATOM     53  C   UNL A   1      41.879  23.505  27.434  1.00  0.00     0.064 A 
ATOM     54  C   UNL A   1      40.844  23.301  26.505  1.00  0.00     0.173 A 
ATOM     55  C   UNL A   1      42.403  22.371  28.070  1.00  0.00     0.173 A 
ATOM     56  F   UNL A   1      40.303  24.345  25.859  1.00  0.00    -0.203 F 
ATOM     57  C   UNL A   1      40.347  22.028  26.237  1.00  0.00     0.198 A 
ATOM     58  C   UNL A   1      41.930  21.092  27.773  1.00  0.00     0.198 A 
ATOM     59  F   UNL A   1      43.405  22.500  28.951  1.00  0.00    -0.203 F 
ATOM     60  F   UNL A   1      39.337  21.873  25.370  1.00  0.00    -0.200 F 
ATOM     61  C   UNL A   1      40.898  20.922  26.862  1.00  0.00     0.200 A 
ATOM     62  F   UNL A   1      42.489  20.023  28.355  1.00  0.00    -0.200 F 
ATOM     63  F   UNL A   1      40.445  19.693  26.578  1.00  0.00    -0.200 F 
ENDBRANCH  29  53
BRANCH  41  64
ATOM     64  C   UNL A   1      48.061  26.604  26.478  1.00  0.00     0.064 A 
ATOM     65  C   UNL A   1      49.015  25.969  27.287  1.00  0.00     0.173 A 
ATOM     66  C   UNL A   1      48.380  26.841  25.135  1.00  0.00     0.173 A 
ATOM     67  F   UNL A   1      48.757  25.732  28.583  1.00  0.00    -0.203 F 
ATOM     68  C   UNL A   1      50.254  25.605  26.773  1.00  0.00     0.198 A 
ATOM     69  C   UNL A   1      49.605  26.439  24.615  1.00  0.00     0.198 A 
ATOM     70  F   UNL A   1      47.491  27.434  24.323  1.00  0.00    -0.203 F 
ATOM     71  F   UNL A   1      51.169  25.043  27.575  1.00  0.00    -0.200 F 
ATOM     72  C   UNL A   1      50.546  25.834  25.437  1.00  0.00     0.200 A 
ATOM     73  F   UNL A   1      49.875  26.634  23.318  1.00  0.00    -0.200 F 
ATOM     74  F   UNL A   1      51.734  25.469  24.939  1.00  0.00    -0.200 F 
ENDBRANCH  41  64
ENDBRANCH  15  16
ENDBRANCH   8  10
ENDBRANCH   7   8
ENDBRANCH   6   7
ENDBRANCH   5   6
ENDBRANCH   4   5
ENDBRANCH   3   4
ENDBRANCH   2   3
ENDBRANCH   1   2
BRANCH   1  75
ATOM     75  C   UNL A   1      34.317  31.816  27.597  1.00  0.00     0.188 C 
BRANCH  75  76
ATOM     76  C   UNL A   1      34.193  30.269  27.551  1.00  0.00     0.188 C 
BRANCH  76  77
ATOM     77  O   UNL A   1      33.054  29.680  26.956  1.00  0.00    -0.376 OA
BRANCH  77  78
ATOM     78  C   UNL A   1      32.475  30.175  25.756  1.00  0.00     0.202 C 
BRANCH  78  79
ATOM     79  C   UNL A   1      31.320  29.515  24.968  1.00  0.00     0.261 C 
BRANCH  79  80
ATOM     80  O   UNL A   1      31.676  28.947  23.707  1.00  0.00    -0.463 OA
BRANCH  80  81
ATOM     81  C   UNL A   1      30.903  27.930  23.218  1.00  0.00     0.311 C 
ATOM     82  O   UNL A   1      29.780  28.101  22.751  1.00  0.00    -0.252 OA
BRANCH  81  83
ATOM     83  C   UNL A   1      31.702  26.622  23.141  1.00  0.00     0.129 C 
ATOM     84  C   UNL A   1      32.235  25.891  24.372  1.00  0.00     0.119 C 
ATOM     85  C   UNL A   1      30.846  25.340  22.944  1.00  0.00     0.119 C 
ATOM     86  N   UNL A   1      31.863  24.565  23.728  1.00  0.00    -0.196 NA
BRANCH  86  87
ATOM     87  S   UNL A   1      33.010  23.567  22.924  1.00  0.00     0.243 S 
ATOM     88  O   UNL A   1      32.508  22.212  22.897  1.00  0.00    -0.207 OA
ATOM     89  O   UNL A   1      33.417  24.249  21.711  1.00  0.00    -0.207 OA
BRANCH  87  90
ATOM     90  C   UNL A   1      34.370  23.600  24.069  1.00  0.00     0.082 A 
ATOM     91  C   UNL A   1      34.116  23.633  25.447  1.00  0.00     0.025 A 
ATOM     92  C   UNL A   1      35.682  23.541  23.585  1.00  0.00     0.025 A 
ATOM     93  C   UNL A   1      35.189  23.640  26.342  1.00  0.00     0.040 A 
ATOM     94  C   UNL A   1      36.746  23.542  24.486  1.00  0.00     0.040 A 
ATOM     95  C   UNL A   1      36.491  23.596  25.853  1.00  0.00     0.123 A 
ATOM     96  F   UNL A   1      37.517  23.600  26.715  1.00  0.00    -0.207 F 
ENDBRANCH  87  90
ENDBRANCH  86  87
ENDBRANCH  81  83
ENDBRANCH  80  81
ENDBRANCH  79  80
ENDBRANCH  78  79
ENDBRANCH  77  78
ENDBRANCH  76  77
ENDBRANCH  75  76
ENDBRANCH   1  75
TORSDOF 22
ENDMDL
