MODEL 1
REMARK VINA RESULT:      -9.9      0.000      0.000
REMARK SMILES CC(C)(C)C(=O)NCCC(=O)N1C[C@@H](O)C[C@@H]1C(=O)OCCOCCOCCOCCOC(=O)c1ccc(-c2c3nc(c(-c4c(F)c(F)c(F)c(F)c4F)c4ccc([nH]4)c(-c4c(F)c(F)c(F)c(F)c4F)c4nc(c(-c5c(F)c(F)c(F)c(F)c5F)c5ccc2[nH]5)C=C4)C=C3)cc1
REMARK SMILES IDX 24 1 23 2 22 3 21 4 20 5 18 6 19 7 17 8 12 9 13 10 14 11
REMARK SMILES IDX 16 12 10 13 11 14 9 15 8 16 7 17 5 18 6 19 2 21 1 22 3 23
REMARK SMILES IDX 4 24 15 25 25 27 26 28 27 29 28 30 29 31 30 32 31 33 32 34
REMARK SMILES IDX 33 35 34 36 35 37 36 38 97 39 37 40 96 41 38 42 39 43 40 44
REMARK SMILES IDX 90 45 41 46 95 47 89 48 91 49 42 50 94 51 88 52 87 53 43 55
REMARK SMILES IDX 75 56 55 57 74 58 56 59 59 60 73 61 92 62 57 63 58 64 72 66
REMARK SMILES IDX 93 67 60 68 44 69 45 70 53 71 46 72 47 73 51 74 54 75 48 76
REMARK SMILES IDX 49 77 52 78 50 79 76 80 77 81 85 82 78 83 79 84 83 85 86 86
REMARK SMILES IDX 80 87 81 88 84 89 82 90 61 91 62 92 70 93 63 94 64 95 68 96
REMARK SMILES IDX 71 97 65 98 66 99 69 100 67 101
REMARK H PARENT 7 20 15 26 91 54 59 65
REMARK Flexibility Score: inf
ROOT
ATOM      1  C   UNL A   1      34.277  29.095  27.031  1.00  0.00     0.188 C 
ENDROOT
BRANCH   1   2
ATOM      2  O   UNL A   1      33.201  29.329  26.142  1.00  0.00    -0.376 OA
BRANCH   2   3
ATOM      3  C   UNL A   1      31.896  29.034  26.603  1.00  0.00     0.202 C 
BRANCH   3   4
ATOM      4  C   UNL A   1      31.442  27.564  26.639  1.00  0.00     0.261 C 
BRANCH   4   5
ATOM      5  O   UNL A   1      31.688  26.767  25.465  1.00  0.00    -0.462 OA
BRANCH   5   6
ATOM      6  C   UNL A   1      30.634  26.483  24.657  1.00  0.00     0.329 C 
ATOM      7  O   UNL A   1      29.498  26.272  25.065  1.00  0.00    -0.250 OA
BRANCH   6   8
ATOM      8  C   UNL A   1      31.037  26.567  23.160  1.00  0.00     0.197 C 
ATOM      9  N   UNL A   1      32.450  26.975  22.998  1.00  0.00    -0.326 N 
ATOM     10  C   UNL A   1      32.540  28.412  22.806  1.00  0.00     0.152 C 
ATOM     11  C   UNL A   1      31.101  28.934  22.847  1.00  0.00     0.136 C 
ATOM     12  C   UNL A   1      30.256  27.702  22.519  1.00  0.00     0.070 C 
BRANCH   9  13
ATOM     13  C   UNL A   1      33.464  26.133  22.579  1.00  0.00     0.225 C 
ATOM     14  O   UNL A   1      33.951  26.195  21.452  1.00  0.00    -0.275 OA
BRANCH  13  15
ATOM     15  C   UNL A   1      33.866  25.018  23.543  1.00  0.00     0.121 C 
BRANCH  15  16
ATOM     16  C   UNL A   1      33.651  23.603  23.024  1.00  0.00     0.125 C 
BRANCH  16  17
ATOM     17  N   UNL A   1      33.787  22.620  24.080  1.00  0.00    -0.355 N 
ATOM     18  C   UNL A   1      34.841  21.880  24.515  1.00  0.00     0.225 C 
ATOM     19  O   UNL A   1      34.537  20.825  25.083  1.00  0.00    -0.275 OA
ATOM     20  H   UNL A   1      32.954  22.456  24.579  1.00  0.00     0.163 HD
BRANCH  18  21
ATOM     21  C   UNL A   1      36.306  22.347  24.410  1.00  0.00     0.041 C 
ATOM     22  C   UNL A   1      37.216  21.160  24.812  1.00  0.00     0.021 C 
ATOM     23  C   UNL A   1      36.525  23.472  25.431  1.00  0.00     0.021 C 
ATOM     24  C   UNL A   1      36.744  22.788  23.010  1.00  0.00     0.021 C 
ENDBRANCH  18  21
ENDBRANCH  16  17
ENDBRANCH  15  16
ENDBRANCH  13  15
ENDBRANCH   9  13
BRANCH  11  25
ATOM     25  O   UNL A   1      30.852  29.956  21.896  1.00  0.00    -0.391 OA
ATOM     26  H   UNL A   1      31.284  29.730  21.057  1.00  0.00     0.211 HD
ENDBRANCH  11  25
ENDBRANCH   6   8
ENDBRANCH   5   6
ENDBRANCH   4   5
ENDBRANCH   3   4
ENDBRANCH   2   3
ENDBRANCH   1   2
BRANCH   1  27
ATOM     27  C   UNL A   1      34.826  30.381  27.694  1.00  0.00     0.188 C 
BRANCH  27  28
ATOM     28  O   UNL A   1      33.989  31.512  27.885  1.00  0.00    -0.377 OA
BRANCH  28  29
ATOM     29  C   UNL A   1      34.472  32.606  28.640  1.00  0.00     0.188 C 
BRANCH  29  30
ATOM     30  C   UNL A   1      34.313  34.043  28.094  1.00  0.00     0.188 C 
BRANCH  30  31
ATOM     31  O   UNL A   1      33.224  34.770  28.637  1.00  0.00    -0.376 OA
BRANCH  31  32
ATOM     32  C   UNL A   1      33.387  36.153  28.884  1.00  0.00     0.202 C 
BRANCH  32  33
ATOM     33  C   UNL A   1      32.627  36.753  30.076  1.00  0.00     0.261 C 
BRANCH  33  34
ATOM     34  O   UNL A   1      33.276  36.643  31.348  1.00  0.00    -0.460 OA
BRANCH  34  35
ATOM     35  C   UNL A   1      32.918  35.607  32.132  1.00  0.00     0.338 C 
ATOM     36  O   UNL A   1      31.808  35.357  32.571  1.00  0.00    -0.246 OA
BRANCH  35  37
ATOM     37  C   UNL A   1      34.080  34.702  32.208  1.00  0.00     0.060 A 
ATOM     38  C   UNL A   1      33.950  33.483  32.888  1.00  0.00     0.016 A 
ATOM     39  C   UNL A   1      35.274  35.035  31.565  1.00  0.00     0.016 A 
ATOM     40  C   UNL A   1      35.015  32.587  32.918  1.00  0.00     0.010 A 
ATOM     41  C   UNL A   1      36.357  34.159  31.637  1.00  0.00     0.010 A 
ATOM     42  C   UNL A   1      36.236  32.942  32.332  1.00  0.00    -0.014 A 
BRANCH  42  43
ATOM     43  C   UNL A   1      37.445  32.152  32.649  1.00  0.00     0.031 A 
ATOM     44  C   UNL A   1      38.182  32.490  33.913  1.00  0.00     0.074 A 
ATOM     45  C   UNL A   1      37.869  31.160  31.848  1.00  0.00     0.049 A 
ATOM     46  N   UNL A   1      39.293  31.991  34.389  1.00  0.00    -0.248 NA
ATOM     47  C   UNL A   1      37.584  33.541  34.757  1.00  0.00     0.031 C 
ATOM     48  C   UNL A   1      37.210  30.723  30.618  1.00  0.00     0.029 A 
ATOM     49  N   UNL A   1      38.973  30.350  31.947  1.00  0.00    -0.354 N 
ATOM     50  C   UNL A   1      39.532  32.676  35.572  1.00  0.00     0.074 A 
ATOM     51  C   UNL A   1      38.464  33.634  35.740  1.00  0.00     0.031 C 
ATOM     52  C   UNL A   1      37.939  29.738  30.063  1.00  0.00     0.029 A 
ATOM     53  C   UNL A   1      39.129  29.502  30.878  1.00  0.00     0.049 A 
ATOM     54  H   UNL A   1      39.592  30.374  32.713  1.00  0.00     0.167 HD
ATOM     55  C   UNL A   1      40.556  32.514  36.440  1.00  0.00     0.037 A 
ATOM     56  C   UNL A   1      40.142  28.661  30.584  1.00  0.00     0.037 A 
ATOM     57  C   UNL A   1      41.611  31.553  36.268  1.00  0.00     0.049 A 
ATOM     58  C   UNL A   1      41.302  28.546  31.544  1.00  0.00     0.074 A 
ATOM     59  C   UNL A   1      42.670  31.279  37.113  1.00  0.00     0.029 A 
ATOM     60  N   UNL A   1      41.746  30.720  35.167  1.00  0.00    -0.354 N 
ATOM     61  N   UNL A   1      41.498  29.156  32.689  1.00  0.00    -0.248 NA
ATOM     62  C   UNL A   1      42.383  27.621  31.172  1.00  0.00     0.031 C 
ATOM     63  C   UNL A   1      43.486  30.331  36.490  1.00  0.00     0.029 A 
ATOM     64  C   UNL A   1      42.895  29.960  35.294  1.00  0.00     0.049 A 
ATOM     65  H   UNL A   1      41.118  30.677  34.410  1.00  0.00     0.167 HD
ATOM     66  C   UNL A   1      42.699  28.665  33.187  1.00  0.00     0.074 A 
ATOM     67  C   UNL A   1      43.180  27.694  32.228  1.00  0.00     0.031 C 
ATOM     68  C   UNL A   1      43.347  28.986  34.333  1.00  0.00     0.037 A 
BRANCH  55  69
ATOM     69  C   UNL A   1      40.616  33.421  37.632  1.00  0.00     0.064 A 
ATOM     70  C   UNL A   1      41.466  34.535  37.678  1.00  0.00     0.173 A 
ATOM     71  C   UNL A   1      39.759  33.202  38.722  1.00  0.00     0.173 A 
ATOM     72  F   UNL A   1      42.320  34.776  36.671  1.00  0.00    -0.203 F 
ATOM     73  C   UNL A   1      41.462  35.392  38.775  1.00  0.00     0.198 A 
ATOM     74  C   UNL A   1      39.735  34.078  39.802  1.00  0.00     0.198 A 
ATOM     75  F   UNL A   1      38.929  32.148  38.728  1.00  0.00    -0.203 F 
ATOM     76  F   UNL A   1      42.306  36.433  38.814  1.00  0.00    -0.200 F 
ATOM     77  C   UNL A   1      40.588  35.171  39.829  1.00  0.00     0.200 A 
ATOM     78  F   UNL A   1      38.882  33.868  40.813  1.00  0.00    -0.200 F 
ATOM     79  F   UNL A   1      40.570  36.009  40.874  1.00  0.00    -0.200 F 
ENDBRANCH  55  69
BRANCH  56  80
ATOM     80  C   UNL A   1      40.137  27.889  29.311  1.00  0.00     0.064 A 
ATOM     81  C   UNL A   1      39.471  26.660  29.206  1.00  0.00     0.173 A 
ATOM     82  C   UNL A   1      40.853  28.335  28.190  1.00  0.00     0.173 A 
ATOM     83  F   UNL A   1      38.793  26.173  30.256  1.00  0.00    -0.203 F 
ATOM     84  C   UNL A   1      39.554  25.889  28.046  1.00  0.00     0.198 A 
ATOM     85  C   UNL A   1      40.905  27.583  27.018  1.00  0.00     0.198 A 
ATOM     86  F   UNL A   1      41.513  29.503  28.235  1.00  0.00    -0.203 F 
ATOM     87  F   UNL A   1      38.969  24.685  28.001  1.00  0.00    -0.200 F 
ATOM     88  C   UNL A   1      40.269  26.354  26.952  1.00  0.00     0.200 A 
ATOM     89  F   UNL A   1      41.587  28.042  25.960  1.00  0.00    -0.200 F 
ATOM     90  F   UNL A   1      40.355  25.611  25.841  1.00  0.00    -0.200 F 
ENDBRANCH  56  80
BRANCH  68  91
ATOM     91  C   UNL A   1      44.621  28.250  34.643  1.00  0.00     0.064 A 
ATOM     92  C   UNL A   1      45.877  28.751  34.272  1.00  0.00     0.173 A 
ATOM     93  C   UNL A   1      44.583  27.048  35.368  1.00  0.00     0.173 A 
ATOM     94  F   UNL A   1      45.968  29.891  33.568  1.00  0.00    -0.203 F 
ATOM     95  C   UNL A   1      47.044  28.063  34.590  1.00  0.00     0.198 A 
ATOM     96  C   UNL A   1      45.754  26.383  35.717  1.00  0.00     0.198 A 
ATOM     97  F   UNL A   1      43.409  26.530  35.758  1.00  0.00    -0.203 F 
ATOM     98  F   UNL A   1      48.230  28.535  34.178  1.00  0.00    -0.200 F 
ATOM     99  C   UNL A   1      46.983  26.886  35.319  1.00  0.00     0.200 A 
ATOM    100  F   UNL A   1      45.692  25.256  36.440  1.00  0.00    -0.200 F 
ATOM    101  F   UNL A   1      48.109  26.231  35.634  1.00  0.00    -0.200 F 
ENDBRANCH  68  91
ENDBRANCH  42  43
ENDBRANCH  35  37
ENDBRANCH  34  35
ENDBRANCH  33  34
ENDBRANCH  32  33
ENDBRANCH  31  32
ENDBRANCH  30  31
ENDBRANCH  29  30
ENDBRANCH  28  29
ENDBRANCH  27  28
ENDBRANCH   1  27
TORSDOF 26
ENDMDL
MODEL 2
REMARK VINA RESULT:      -9.6      3.704     10.027
REMARK SMILES CC(C)(C)C(=O)NCCC(=O)N1C[C@@H](O)C[C@@H]1C(=O)OCCOCCOCCOCCOC(=O)c1ccc(-c2c3nc(c(-c4c(F)c(F)c(F)c(F)c4F)c4ccc([nH]4)c(-c4c(F)c(F)c(F)c(F)c4F)c4nc(c(-c5c(F)c(F)c(F)c(F)c5F)c5ccc2[nH]5)C=C4)C=C3)cc1
REMARK SMILES IDX 24 1 23 2 22 3 21 4 20 5 18 6 19 7 17 8 12 9 13 10 14 11
REMARK SMILES IDX 16 12 10 13 11 14 9 15 8 16 7 17 5 18 6 19 2 21 1 22 3 23
REMARK SMILES IDX 4 24 15 25 25 27 26 28 27 29 28 30 29 31 30 32 31 33 32 34
REMARK SMILES IDX 33 35 34 36 35 37 36 38 97 39 37 40 96 41 38 42 39 43 40 44
REMARK SMILES IDX 90 45 41 46 95 47 89 48 91 49 42 50 94 51 88 52 87 53 43 55
REMARK SMILES IDX 75 56 55 57 74 58 56 59 59 60 73 61 92 62 57 63 58 64 72 66
REMARK SMILES IDX 93 67 60 68 44 69 45 70 53 71 46 72 47 73 51 74 54 75 48 76
REMARK SMILES IDX 49 77 52 78 50 79 76 80 77 81 85 82 78 83 79 84 83 85 86 86
REMARK SMILES IDX 80 87 81 88 84 89 82 90 61 91 62 92 70 93 63 94 64 95 68 96
REMARK SMILES IDX 71 97 65 98 66 99 69 100 67 101
REMARK H PARENT 7 20 15 26 91 54 59 65
REMARK Flexibility Score: inf
ROOT
ATOM      1  C   UNL A   1      40.424  21.552  27.155  1.00  0.00     0.188 C 
ENDROOT
BRANCH   1   2
ATOM      2  O   UNL A   1      39.741  21.411  25.923  1.00  0.00    -0.376 OA
BRANCH   2   3
ATOM      3  C   UNL A   1      38.469  22.020  25.807  1.00  0.00     0.202 C 
BRANCH   3   4
ATOM      4  C   UNL A   1      37.431  21.385  24.864  1.00  0.00     0.261 C 
BRANCH   4   5
ATOM      5  O   UNL A   1      36.143  22.023  24.773  1.00  0.00    -0.462 OA
BRANCH   5   6
ATOM      6  C   UNL A   1      36.027  23.106  23.962  1.00  0.00     0.329 C 
ATOM      7  O   UNL A   1      36.817  23.375  23.065  1.00  0.00    -0.250 OA
BRANCH   6   8
ATOM      8  C   UNL A   1      34.717  23.886  24.254  1.00  0.00     0.197 C 
ATOM      9  N   UNL A   1      33.609  22.975  24.616  1.00  0.00    -0.326 N 
ATOM     10  C   UNL A   1      32.816  22.655  23.441  1.00  0.00     0.152 C 
ATOM     11  C   UNL A   1      33.464  23.411  22.278  1.00  0.00     0.136 C 
ATOM     12  C   UNL A   1      34.248  24.532  22.961  1.00  0.00     0.070 C 
BRANCH   9  13
ATOM     13  C   UNL A   1      33.082  22.851  25.889  1.00  0.00     0.225 C 
ATOM     14  O   UNL A   1      32.354  23.706  26.388  1.00  0.00    -0.275 OA
BRANCH  13  15
ATOM     15  C   UNL A   1      33.559  21.655  26.711  1.00  0.00     0.121 C 
BRANCH  15  16
ATOM     16  C   UNL A   1      33.232  20.291  26.120  1.00  0.00     0.125 C 
BRANCH  16  17
ATOM     17  N   UNL A   1      34.322  19.783  25.311  1.00  0.00    -0.355 N 
ATOM     18  C   UNL A   1      34.512  18.603  24.664  1.00  0.00     0.225 C 
ATOM     19  O   UNL A   1      35.695  18.297  24.476  1.00  0.00    -0.275 OA
ATOM     20  H   UNL A   1      35.069  20.416  25.209  1.00  0.00     0.163 HD
BRANCH  18  21
ATOM     21  C   UNL A   1      33.358  17.744  24.109  1.00  0.00     0.041 C 
ATOM     22  C   UNL A   1      33.970  16.654  23.195  1.00  0.00     0.021 C 
ATOM     23  C   UNL A   1      32.470  18.643  23.236  1.00  0.00     0.021 C 
ATOM     24  C   UNL A   1      32.526  17.018  25.170  1.00  0.00     0.021 C 
ENDBRANCH  18  21
ENDBRANCH  16  17
ENDBRANCH  15  16
ENDBRANCH  13  15
ENDBRANCH   9  13
BRANCH  11  25
ATOM     25  O   UNL A   1      32.518  23.964  21.378  1.00  0.00    -0.391 OA
ATOM     26  H   UNL A   1      31.689  24.144  21.850  1.00  0.00     0.211 HD
ENDBRANCH  11  25
ENDBRANCH   6   8
ENDBRANCH   5   6
ENDBRANCH   4   5
ENDBRANCH   3   4
ENDBRANCH   2   3
ENDBRANCH   1   2
BRANCH   1  27
ATOM     27  C   UNL A   1      41.382  20.379  27.472  1.00  0.00     0.188 C 
BRANCH  27  28
ATOM     28  O   UNL A   1      41.772  19.467  26.457  1.00  0.00    -0.377 OA
BRANCH  28  29
ATOM     29  C   UNL A   1      42.993  19.677  25.774  1.00  0.00     0.188 C 
BRANCH  29  30
ATOM     30  C   UNL A   1      43.598  21.096  25.706  1.00  0.00     0.188 C 
BRANCH  30  31
ATOM     31  O   UNL A   1      44.047  21.493  24.421  1.00  0.00    -0.376 OA
BRANCH  31  32
ATOM     32  C   UNL A   1      44.453  22.834  24.228  1.00  0.00     0.202 C 
BRANCH  32  33
ATOM     33  C   UNL A   1      45.797  23.260  24.835  1.00  0.00     0.261 C 
BRANCH  33  34
ATOM     34  O   UNL A   1      45.724  24.198  25.915  1.00  0.00    -0.460 OA
BRANCH  34  35
ATOM     35  C   UNL A   1      45.657  25.504  25.589  1.00  0.00     0.338 C 
ATOM     36  O   UNL A   1      46.031  26.032  24.555  1.00  0.00    -0.246 OA
BRANCH  35  37
ATOM     37  C   UNL A   1      44.861  26.170  26.637  1.00  0.00     0.060 A 
ATOM     38  C   UNL A   1      45.043  27.542  26.861  1.00  0.00     0.016 A 
ATOM     39  C   UNL A   1      43.904  25.451  27.356  1.00  0.00     0.016 A 
ATOM     40  C   UNL A   1      44.258  28.202  27.803  1.00  0.00     0.010 A 
ATOM     41  C   UNL A   1      43.152  26.103  28.333  1.00  0.00     0.010 A 
ATOM     42  C   UNL A   1      43.342  27.475  28.573  1.00  0.00    -0.014 A 
BRANCH  42  43
ATOM     43  C   UNL A   1      42.760  28.099  29.781  1.00  0.00     0.031 A 
ATOM     44  C   UNL A   1      41.408  28.739  29.648  1.00  0.00     0.074 A 
ATOM     45  C   UNL A   1      43.405  28.089  30.960  1.00  0.00     0.049 A 
ATOM     46  N   UNL A   1      40.707  29.399  30.533  1.00  0.00    -0.248 NA
ATOM     47  C   UNL A   1      40.757  28.622  28.330  1.00  0.00     0.031 C 
ATOM     48  C   UNL A   1      44.702  27.464  31.211  1.00  0.00     0.029 A 
ATOM     49  N   UNL A   1      43.054  28.640  32.167  1.00  0.00    -0.354 N 
ATOM     50  C   UNL A   1      39.547  29.786  29.876  1.00  0.00     0.074 A 
ATOM     51  C   UNL A   1      39.639  29.303  28.517  1.00  0.00     0.031 C 
ATOM     52  C   UNL A   1      45.051  27.691  32.491  1.00  0.00     0.029 A 
ATOM     53  C   UNL A   1      44.020  28.502  33.134  1.00  0.00     0.049 A 
ATOM     54  H   UNL A   1      42.193  29.090  32.325  1.00  0.00     0.167 HD
ATOM     55  C   UNL A   1      38.500  30.484  30.369  1.00  0.00     0.037 A 
ATOM     56  C   UNL A   1      44.070  29.010  34.383  1.00  0.00     0.037 A 
ATOM     57  C   UNL A   1      38.415  30.954  31.725  1.00  0.00     0.049 A 
ATOM     58  C   UNL A   1      42.910  29.836  34.886  1.00  0.00     0.074 A 
ATOM     59  C   UNL A   1      37.376  31.630  32.336  1.00  0.00     0.029 A 
ATOM     60  N   UNL A   1      39.416  30.808  32.673  1.00  0.00    -0.354 N 
ATOM     61  N   UNL A   1      41.791  30.154  34.280  1.00  0.00    -0.248 NA
ATOM     62  C   UNL A   1      43.019  30.373  36.251  1.00  0.00     0.031 C 
ATOM     63  C   UNL A   1      37.777  31.958  33.634  1.00  0.00     0.029 A 
ATOM     64  C   UNL A   1      39.034  31.420  33.855  1.00  0.00     0.049 A 
ATOM     65  H   UNL A   1      40.270  30.341  32.527  1.00  0.00     0.167 HD
ATOM     66  C   UNL A   1      41.053  30.893  35.197  1.00  0.00     0.074 A 
ATOM     67  C   UNL A   1      41.843  30.963  36.407  1.00  0.00     0.031 C 
ATOM     68  C   UNL A   1      39.831  31.463  35.054  1.00  0.00     0.037 A 
BRANCH  55  69
ATOM     69  C   UNL A   1      37.378  30.822  29.434  1.00  0.00     0.064 A 
ATOM     70  C   UNL A   1      36.398  29.885  29.078  1.00  0.00     0.173 A 
ATOM     71  C   UNL A   1      37.252  32.128  28.935  1.00  0.00     0.173 A 
ATOM     72  F   UNL A   1      36.485  28.618  29.512  1.00  0.00    -0.203 F 
ATOM     73  C   UNL A   1      35.336  30.241  28.252  1.00  0.00     0.198 A 
ATOM     74  C   UNL A   1      36.173  32.488  28.135  1.00  0.00     0.198 A 
ATOM     75  F   UNL A   1      38.167  33.060  29.243  1.00  0.00    -0.203 F 
ATOM     76  F   UNL A   1      34.427  29.321  27.897  1.00  0.00    -0.200 F 
ATOM     77  C   UNL A   1      35.217  31.544  27.791  1.00  0.00     0.200 A 
ATOM     78  F   UNL A   1      36.055  33.750  27.702  1.00  0.00    -0.200 F 
ATOM     79  F   UNL A   1      34.183  31.890  27.013  1.00  0.00    -0.200 F 
ENDBRANCH  55  69
BRANCH  56  80
ATOM     80  C   UNL A   1      45.270  28.795  35.238  1.00  0.00     0.064 A 
ATOM     81  C   UNL A   1      45.305  27.780  36.205  1.00  0.00     0.173 A 
ATOM     82  C   UNL A   1      46.385  29.643  35.149  1.00  0.00     0.173 A 
ATOM     83  F   UNL A   1      44.255  26.957  36.350  1.00  0.00    -0.203 F 
ATOM     84  C   UNL A   1      46.387  27.646  37.074  1.00  0.00     0.198 A 
ATOM     85  C   UNL A   1      47.482  29.486  35.993  1.00  0.00     0.198 A 
ATOM     86  F   UNL A   1      46.405  30.633  34.245  1.00  0.00    -0.203 F 
ATOM     87  F   UNL A   1      46.359  26.715  38.036  1.00  0.00    -0.200 F 
ATOM     88  C   UNL A   1      47.476  28.498  36.965  1.00  0.00     0.200 A 
ATOM     89  F   UNL A   1      48.537  30.303  35.875  1.00  0.00    -0.200 F 
ATOM     90  F   UNL A   1      48.513  28.375  37.805  1.00  0.00    -0.200 F 
ENDBRANCH  56  80
BRANCH  68  91
ATOM     91  C   UNL A   1      39.248  32.170  36.245  1.00  0.00     0.064 A 
ATOM     92  C   UNL A   1      39.582  33.496  36.558  1.00  0.00     0.173 A 
ATOM     93  C   UNL A   1      38.301  31.524  37.057  1.00  0.00     0.173 A 
ATOM     94  F   UNL A   1      40.490  34.156  35.821  1.00  0.00    -0.203 F 
ATOM     95  C   UNL A   1      39.012  34.137  37.654  1.00  0.00     0.198 A 
ATOM     96  C   UNL A   1      37.706  32.181  38.128  1.00  0.00     0.198 A 
ATOM     97  F   UNL A   1      37.938  30.259  36.795  1.00  0.00    -0.203 F 
ATOM     98  F   UNL A   1      39.387  35.387  37.965  1.00  0.00    -0.200 F 
ATOM     99  C   UNL A   1      38.069  33.485  38.432  1.00  0.00     0.200 A 
ATOM    100  F   UNL A   1      36.779  31.553  38.865  1.00  0.00    -0.200 F 
ATOM    101  F   UNL A   1      37.513  34.108  39.480  1.00  0.00    -0.200 F 
ENDBRANCH  68  91
ENDBRANCH  42  43
ENDBRANCH  35  37
ENDBRANCH  34  35
ENDBRANCH  33  34
ENDBRANCH  32  33
ENDBRANCH  31  32
ENDBRANCH  30  31
ENDBRANCH  29  30
ENDBRANCH  28  29
ENDBRANCH  27  28
ENDBRANCH   1  27
TORSDOF 26
ENDMDL
MODEL 3
REMARK VINA RESULT:      -9.4      3.505      5.703
REMARK SMILES CC(C)(C)C(=O)NCCC(=O)N1C[C@@H](O)C[C@@H]1C(=O)OCCOCCOCCOCCOC(=O)c1ccc(-c2c3nc(c(-c4c(F)c(F)c(F)c(F)c4F)c4ccc([nH]4)c(-c4c(F)c(F)c(F)c(F)c4F)c4nc(c(-c5c(F)c(F)c(F)c(F)c5F)c5ccc2[nH]5)C=C4)C=C3)cc1
REMARK SMILES IDX 24 1 23 2 22 3 21 4 20 5 18 6 19 7 17 8 12 9 13 10 14 11
REMARK SMILES IDX 16 12 10 13 11 14 9 15 8 16 7 17 5 18 6 19 2 21 1 22 3 23
REMARK SMILES IDX 4 24 15 25 25 27 26 28 27 29 28 30 29 31 30 32 31 33 32 34
REMARK SMILES IDX 33 35 34 36 35 37 36 38 97 39 37 40 96 41 38 42 39 43 40 44
REMARK SMILES IDX 90 45 41 46 95 47 89 48 91 49 42 50 94 51 88 52 87 53 43 55
REMARK SMILES IDX 75 56 55 57 74 58 56 59 59 60 73 61 92 62 57 63 58 64 72 66
REMARK SMILES IDX 93 67 60 68 44 69 45 70 53 71 46 72 47 73 51 74 54 75 48 76
REMARK SMILES IDX 49 77 52 78 50 79 76 80 77 81 85 82 78 83 79 84 83 85 86 86
REMARK SMILES IDX 80 87 81 88 84 89 82 90 61 91 62 92 70 93 63 94 64 95 68 96
REMARK SMILES IDX 71 97 65 98 66 99 69 100 67 101
REMARK H PARENT 7 20 15 26 91 54 59 65
REMARK Flexibility Score: inf
ROOT
ATOM      1  C   UNL A   1      31.625  23.412  27.129  1.00  0.00     0.188 C 
ENDROOT
BRANCH   1   2
ATOM      2  O   UNL A   1      32.329  22.323  26.562  1.00  0.00    -0.376 OA
BRANCH   2   3
ATOM      3  C   UNL A   1      31.614  21.463  25.694  1.00  0.00     0.202 C 
BRANCH   3   4
ATOM      4  C   UNL A   1      31.750  21.670  24.175  1.00  0.00     0.261 C 
BRANCH   4   5
ATOM      5  O   UNL A   1      33.081  21.672  23.625  1.00  0.00    -0.462 OA
BRANCH   5   6
ATOM      6  C   UNL A   1      33.416  22.678  22.776  1.00  0.00     0.329 C 
ATOM      7  O   UNL A   1      32.685  23.092  21.885  1.00  0.00    -0.250 OA
BRANCH   6   8
ATOM      8  C   UNL A   1      34.792  23.293  23.153  1.00  0.00     0.197 C 
ATOM      9  N   UNL A   1      35.253  22.826  24.479  1.00  0.00    -0.326 N 
ATOM     10  C   UNL A   1      34.869  23.777  25.508  1.00  0.00     0.152 C 
ATOM     11  C   UNL A   1      34.128  24.905  24.785  1.00  0.00     0.136 C 
ATOM     12  C   UNL A   1      34.610  24.790  23.338  1.00  0.00     0.070 C 
BRANCH   9  13
ATOM     13  C   UNL A   1      36.296  21.941  24.678  1.00  0.00     0.225 C 
ATOM     14  O   UNL A   1      37.406  22.106  24.176  1.00  0.00    -0.275 OA
BRANCH  13  15
ATOM     15  C   UNL A   1      35.969  20.662  25.447  1.00  0.00     0.121 C 
BRANCH  15  16
ATOM     16  C   UNL A   1      35.228  19.598  24.648  1.00  0.00     0.125 C 
BRANCH  16  17
ATOM     17  N   UNL A   1      34.068  19.104  25.363  1.00  0.00    -0.355 N 
ATOM     18  C   UNL A   1      33.329  17.970  25.241  1.00  0.00     0.225 C 
ATOM     19  O   UNL A   1      32.165  18.060  25.648  1.00  0.00    -0.275 OA
ATOM     20  H   UNL A   1      33.755  19.706  26.076  1.00  0.00     0.163 HD
BRANCH  18  21
ATOM     21  C   UNL A   1      33.904  16.633  24.731  1.00  0.00     0.041 C 
ATOM     22  C   UNL A   1      34.064  16.738  23.194  1.00  0.00     0.021 C 
ATOM     23  C   UNL A   1      32.879  15.528  25.022  1.00  0.00     0.021 C 
ATOM     24  C   UNL A   1      35.279  16.265  25.296  1.00  0.00     0.021 C 
ENDBRANCH  18  21
ENDBRANCH  16  17
ENDBRANCH  15  16
ENDBRANCH  13  15
ENDBRANCH   9  13
BRANCH  11  25
ATOM     25  O   UNL A   1      34.437  26.192  25.294  1.00  0.00    -0.391 OA
ATOM     26  H   UNL A   1      35.042  26.104  26.048  1.00  0.00     0.211 HD
ENDBRANCH  11  25
ENDBRANCH   6   8
ENDBRANCH   5   6
ENDBRANCH   4   5
ENDBRANCH   3   4
ENDBRANCH   2   3
ENDBRANCH   1   2
BRANCH   1  27
ATOM     27  C   UNL A   1      31.038  24.387  26.080  1.00  0.00     0.188 C 
BRANCH  27  28
ATOM     28  O   UNL A   1      30.441  25.611  26.482  1.00  0.00    -0.377 OA
BRANCH  28  29
ATOM     29  C   UNL A   1      30.592  26.752  25.661  1.00  0.00     0.188 C 
BRANCH  29  30
ATOM     30  C   UNL A   1      31.547  27.887  26.093  1.00  0.00     0.188 C 
BRANCH  30  31
ATOM     31  O   UNL A   1      31.418  29.090  25.354  1.00  0.00    -0.376 OA
BRANCH  31  32
ATOM     32  C   UNL A   1      31.907  30.290  25.921  1.00  0.00     0.202 C 
BRANCH  32  33
ATOM     33  C   UNL A   1      32.723  30.180  27.216  1.00  0.00     0.261 C 
BRANCH  33  34
ATOM     34  O   UNL A   1      34.115  30.497  27.105  1.00  0.00    -0.460 OA
BRANCH  34  35
ATOM     35  C   UNL A   1      34.689  31.117  28.155  1.00  0.00     0.338 C 
ATOM     36  O   UNL A   1      34.192  31.964  28.879  1.00  0.00    -0.246 OA
BRANCH  35  37
ATOM     37  C   UNL A   1      35.977  30.443  28.404  1.00  0.00     0.060 A 
ATOM     38  C   UNL A   1      36.173  29.781  29.624  1.00  0.00     0.016 A 
ATOM     39  C   UNL A   1      36.962  30.422  27.414  1.00  0.00     0.016 A 
ATOM     40  C   UNL A   1      37.357  29.086  29.854  1.00  0.00     0.010 A 
ATOM     41  C   UNL A   1      38.167  29.766  27.665  1.00  0.00     0.010 A 
ATOM     42  C   UNL A   1      38.376  29.114  28.893  1.00  0.00    -0.014 A 
BRANCH  42  43
ATOM     43  C   UNL A   1      39.734  28.668  29.269  1.00  0.00     0.031 A 
ATOM     44  C   UNL A   1      40.549  29.584  30.138  1.00  0.00     0.074 A 
ATOM     45  C   UNL A   1      40.226  27.486  28.864  1.00  0.00     0.049 A 
ATOM     46  N   UNL A   1      41.780  29.456  30.560  1.00  0.00    -0.248 NA
ATOM     47  C   UNL A   1      39.882  30.819  30.591  1.00  0.00     0.031 C 
ATOM     48  C   UNL A   1      39.509  26.504  28.051  1.00  0.00     0.029 A 
ATOM     49  N   UNL A   1      41.459  26.919  29.072  1.00  0.00    -0.354 N 
ATOM     50  C   UNL A   1      42.037  30.596  31.310  1.00  0.00     0.074 A 
ATOM     51  C   UNL A   1      40.845  31.412  31.277  1.00  0.00     0.031 C 
ATOM     52  C   UNL A   1      40.328  25.464  27.807  1.00  0.00     0.029 A 
ATOM     53  C   UNL A   1      41.631  25.724  28.417  1.00  0.00     0.049 A 
ATOM     54  H   UNL A   1      42.153  27.329  29.637  1.00  0.00     0.167 HD
ATOM     55  C   UNL A   1      43.171  30.927  31.966  1.00  0.00     0.037 A 
ATOM     56  C   UNL A   1      42.732  24.954  28.299  1.00  0.00     0.037 A 
ATOM     57  C   UNL A   1      44.350  30.105  31.998  1.00  0.00     0.049 A 
ATOM     58  C   UNL A   1      44.002  25.381  28.995  1.00  0.00     0.074 A 
ATOM     59  C   UNL A   1      45.535  30.329  32.673  1.00  0.00     0.029 A 
ATOM     60  N   UNL A   1      44.494  28.908  31.313  1.00  0.00    -0.354 N 
ATOM     61  N   UNL A   1      44.226  26.432  29.748  1.00  0.00    -0.248 NA
ATOM     62  C   UNL A   1      45.176  24.511  28.828  1.00  0.00     0.031 C 
ATOM     63  C   UNL A   1      46.424  29.304  32.338  1.00  0.00     0.029 A 
ATOM     64  C   UNL A   1      45.766  28.402  31.517  1.00  0.00     0.049 A 
ATOM     65  H   UNL A   1      43.796  28.482  30.764  1.00  0.00     0.167 HD
ATOM     66  C   UNL A   1      45.546  26.331  30.170  1.00  0.00     0.074 A 
ATOM     67  C   UNL A   1      46.071  25.107  29.603  1.00  0.00     0.031 C 
ATOM     68  C   UNL A   1      46.262  27.172  30.955  1.00  0.00     0.037 A 
BRANCH  55  69
ATOM     69  C   UNL A   1      43.215  32.251  32.669  1.00  0.00     0.064 A 
ATOM     70  C   UNL A   1      43.630  33.423  32.022  1.00  0.00     0.173 A 
ATOM     71  C   UNL A   1      42.774  32.353  33.997  1.00  0.00     0.173 A 
ATOM     72  F   UNL A   1      44.080  33.375  30.759  1.00  0.00    -0.203 F 
ATOM     73  C   UNL A   1      43.608  34.649  32.682  1.00  0.00     0.198 A 
ATOM     74  C   UNL A   1      42.724  33.584  34.643  1.00  0.00     0.198 A 
ATOM     75  F   UNL A   1      42.370  31.259  34.661  1.00  0.00    -0.203 F 
ATOM     76  F   UNL A   1      44.040  35.753  32.056  1.00  0.00    -0.200 F 
ATOM     77  C   UNL A   1      43.144  34.730  33.986  1.00  0.00     0.200 A 
ATOM     78  F   UNL A   1      42.264  33.660  35.899  1.00  0.00    -0.200 F 
ATOM     79  F   UNL A   1      43.103  35.914  34.612  1.00  0.00    -0.200 F 
ENDBRANCH  55  69
BRANCH  56  80
ATOM     80  C   UNL A   1      42.709  23.725  27.460  1.00  0.00     0.064 A 
ATOM     81  C   UNL A   1      42.314  22.488  27.990  1.00  0.00     0.173 A 
ATOM     82  C   UNL A   1      43.141  23.749  26.125  1.00  0.00     0.173 A 
ATOM     83  F   UNL A   1      41.916  22.403  29.268  1.00  0.00    -0.203 F 
ATOM     84  C   UNL A   1      42.392  21.319  27.232  1.00  0.00     0.198 A 
ATOM     85  C   UNL A   1      43.183  22.588  25.357  1.00  0.00     0.198 A 
ATOM     86  F   UNL A   1      43.534  24.904  25.567  1.00  0.00    -0.203 F 
ATOM     87  F   UNL A   1      42.079  20.141  27.788  1.00  0.00    -0.200 F 
ATOM     88  C   UNL A   1      42.823  21.371  25.915  1.00  0.00     0.200 A 
ATOM     89  F   UNL A   1      43.589  22.645  24.082  1.00  0.00    -0.200 F 
ATOM     90  F   UNL A   1      42.905  20.248  25.190  1.00  0.00    -0.200 F 
ENDBRANCH  56  80
BRANCH  68  91
ATOM     91  C   UNL A   1      47.674  26.779  31.292  1.00  0.00     0.064 A 
ATOM     92  C   UNL A   1      48.767  27.213  30.528  1.00  0.00     0.173 A 
ATOM     93  C   UNL A   1      47.938  25.997  32.428  1.00  0.00     0.173 A 
ATOM     94  F   UNL A   1      48.570  27.954  29.426  1.00  0.00    -0.203 F 
ATOM     95  C   UNL A   1      50.067  26.855  30.872  1.00  0.00     0.198 A 
ATOM     96  C   UNL A   1      49.241  25.673  32.790  1.00  0.00     0.198 A 
ATOM     97  F   UNL A   1      46.929  25.565  33.200  1.00  0.00    -0.203 F 
ATOM     98  F   UNL A   1      51.092  27.237  30.097  1.00  0.00    -0.200 F 
ATOM     99  C   UNL A   1      50.304  26.094  32.006  1.00  0.00     0.200 A 
ATOM    100  F   UNL A   1      49.467  24.954  33.899  1.00  0.00    -0.200 F 
ATOM    101  F   UNL A   1      51.558  25.760  32.343  1.00  0.00    -0.200 F 
ENDBRANCH  68  91
ENDBRANCH  42  43
ENDBRANCH  35  37
ENDBRANCH  34  35
ENDBRANCH  33  34
ENDBRANCH  32  33
ENDBRANCH  31  32
ENDBRANCH  30  31
ENDBRANCH  29  30
ENDBRANCH  28  29
ENDBRANCH  27  28
ENDBRANCH   1  27
TORSDOF 26
ENDMDL
