MODEL 1
REMARK VINA RESULT:     -10.7      0.000      0.000
REMARK SMILES Cc1ccc(/C=C/C(=O)N[C@](C)(C(=O)OCCOCCOCCOCCOC(=O)c2ccc(-c3c4nc(c(-c5c(F)c(F)c(F)c(F)c5F)c5ccc([nH]5)c(-c5c(F)c(F)c(F)c(F)c5F)c5nc(c(-c6c(F)c(F)c(F)c(F)c6F)c6ccc3[nH]6)C=C5)C=C4)cc2)C(F)(F)F)o1
REMARK SMILES IDX 20 1 19 2 18 3 17 4 16 5 15 6 13 7 14 8 11 9 12 10 10 11
REMARK SMILES IDX 8 12 9 13 7 15 6 16 5 17 1 18 2 19 3 20 97 21 4 22 93 23
REMARK SMILES IDX 94 24 95 25 96 26 21 27 22 28 23 29 24 30 25 31 26 32 27 33
REMARK SMILES IDX 28 34 29 35 30 36 31 37 92 38 32 39 91 40 33 41 34 42 35 43
REMARK SMILES IDX 85 44 36 45 90 46 84 47 86 48 37 49 89 50 83 51 82 52 38 54
REMARK SMILES IDX 70 55 50 56 69 57 51 58 54 59 68 60 87 61 52 62 53 63 67 65
REMARK SMILES IDX 88 66 55 67 39 68 40 69 48 70 41 71 42 72 46 73 49 74 43 75
REMARK SMILES IDX 44 76 47 77 45 78 71 79 72 80 80 81 73 82 74 83 78 84 81 85
REMARK SMILES IDX 75 86 76 87 79 88 77 89 56 90 57 91 65 92 58 93 59 94 63 95
REMARK SMILES IDX 66 96 60 97 61 98 64 99 62 100
REMARK H PARENT 10 14 86 53 54 64
REMARK Flexibility Score: inf
ROOT
ATOM      1  C   UNL A   1      39.334  21.102  25.985  1.00  0.00     0.188 C 
ENDROOT
BRANCH   1   2
ATOM      2  C   UNL A   1      37.917  21.598  25.673  1.00  0.00     0.188 C 
BRANCH   2   3
ATOM      3  O   UNL A   1      37.597  22.962  25.861  1.00  0.00    -0.376 OA
BRANCH   3   4
ATOM      4  C   UNL A   1      36.254  23.390  26.008  1.00  0.00     0.202 C 
BRANCH   4   5
ATOM      5  C   UNL A   1      35.520  24.298  25.001  1.00  0.00     0.261 C 
BRANCH   5   6
ATOM      6  O   UNL A   1      34.109  24.519  25.205  1.00  0.00    -0.461 OA
BRANCH   6   7
ATOM      7  C   UNL A   1      33.329  24.467  24.099  1.00  0.00     0.341 C 
ATOM      8  O   UNL A   1      33.808  24.485  22.968  1.00  0.00    -0.249 OA
BRANCH   7   9
ATOM      9  C   UNL A   1      31.816  24.599  24.363  1.00  0.00     0.231 C 
ATOM     10  C   UNL A   1      30.751  23.953  23.471  1.00  0.00     0.058 C 
BRANCH   9  11
ATOM     11  N   UNL A   1      31.704  24.149  25.786  1.00  0.00    -0.329 N 
ATOM     12  C   UNL A   1      31.999  22.970  26.407  1.00  0.00     0.245 C 
ATOM     13  O   UNL A   1      32.108  22.963  27.630  1.00  0.00    -0.270 OA
ATOM     14  H   UNL A   1      31.349  24.838  26.392  1.00  0.00     0.165 HD
BRANCH  12  15
ATOM     15  C   UNL A   1      32.017  21.677  25.678  1.00  0.00     0.075 C 
ATOM     16  C   UNL A   1      33.117  21.043  25.246  1.00  0.00     0.053 C 
BRANCH  16  17
ATOM     17  C   UNL A   1      33.001  19.900  24.399  1.00  0.00     0.127 A 
ATOM     18  C   UNL A   1      34.044  16.572  23.509  1.00  0.00     0.087 C 
ATOM     19  C   UNL A   1      33.345  17.872  23.558  1.00  0.00     0.101 A 
ATOM     20  C   UNL A   1      32.360  18.433  22.783  1.00  0.00     0.046 A 
ATOM     21  O   UNL A   1      33.713  18.731  24.549  1.00  0.00    -0.462 OA
ATOM     22  C   UNL A   1      32.156  19.729  23.304  1.00  0.00     0.050 A 
ENDBRANCH  16  17
ENDBRANCH  12  15
ENDBRANCH   9  11
BRANCH   9  23
ATOM     23  C   UNL A   1      31.610  26.120  24.128  1.00  0.00     0.422 C 
ATOM     24  F   UNL A   1      31.408  26.371  22.805  1.00  0.00    -0.168 F 
ATOM     25  F   UNL A   1      30.498  26.561  24.771  1.00  0.00    -0.168 F 
ATOM     26  F   UNL A   1      32.626  26.896  24.547  1.00  0.00    -0.168 F 
ENDBRANCH   9  23
ENDBRANCH   7   9
ENDBRANCH   6   7
ENDBRANCH   5   6
ENDBRANCH   4   5
ENDBRANCH   3   4
ENDBRANCH   2   3
ENDBRANCH   1   2
BRANCH   1  27
ATOM     27  O   UNL A   1      39.878  21.501  27.227  1.00  0.00    -0.377 OA
BRANCH  27  28
ATOM     28  C   UNL A   1      41.292  21.578  27.350  1.00  0.00     0.188 C 
BRANCH  28  29
ATOM     29  C   UNL A   1      42.177  21.196  26.151  1.00  0.00     0.188 C 
BRANCH  29  30
ATOM     30  O   UNL A   1      43.566  21.405  26.354  1.00  0.00    -0.376 OA
BRANCH  30  31
ATOM     31  C   UNL A   1      44.444  21.381  25.239  1.00  0.00     0.202 C 
BRANCH  31  32
ATOM     32  C   UNL A   1      44.279  22.457  24.151  1.00  0.00     0.261 C 
BRANCH  32  33
ATOM     33  O   UNL A   1      43.635  23.682  24.538  1.00  0.00    -0.460 OA
BRANCH  33  34
ATOM     34  C   UNL A   1      44.410  24.686  25.001  1.00  0.00     0.338 C 
ATOM     35  O   UNL A   1      45.522  24.990  24.627  1.00  0.00    -0.246 OA
BRANCH  34  36
ATOM     36  C   UNL A   1      43.593  25.500  25.930  1.00  0.00     0.060 A 
ATOM     37  C   UNL A   1      43.722  26.895  25.896  1.00  0.00     0.016 A 
ATOM     38  C   UNL A   1      42.725  24.893  26.838  1.00  0.00     0.016 A 
ATOM     39  C   UNL A   1      43.016  27.685  26.803  1.00  0.00     0.010 A 
ATOM     40  C   UNL A   1      42.036  25.685  27.763  1.00  0.00     0.010 A 
ATOM     41  C   UNL A   1      42.209  27.082  27.775  1.00  0.00    -0.014 A 
BRANCH  41  42
ATOM     42  C   UNL A   1      41.718  27.885  28.922  1.00  0.00     0.031 A 
ATOM     43  C   UNL A   1      42.443  27.768  30.237  1.00  0.00     0.074 A 
ATOM     44  C   UNL A   1      40.668  28.717  28.802  1.00  0.00     0.049 A 
ATOM     45  N   UNL A   1      42.166  28.313  31.394  1.00  0.00    -0.248 NA
ATOM     46  C   UNL A   1      43.646  26.918  30.249  1.00  0.00     0.031 C 
ATOM     47  C   UNL A   1      39.910  28.950  27.575  1.00  0.00     0.029 A 
ATOM     48  N   UNL A   1      40.048  29.510  29.736  1.00  0.00    -0.354 N 
ATOM     49  C   UNL A   1      43.142  27.856  32.270  1.00  0.00     0.074 A 
ATOM     50  C   UNL A   1      44.012  26.978  31.521  1.00  0.00     0.031 C 
ATOM     51  C   UNL A   1      38.911  29.812  27.838  1.00  0.00     0.029 A 
ATOM     52  C   UNL A   1      38.936  30.159  29.258  1.00  0.00     0.049 A 
ATOM     53  H   UNL A   1      40.370  29.605  30.662  1.00  0.00     0.167 HD
ATOM     54  C   UNL A   1      43.297  28.147  33.582  1.00  0.00     0.037 A 
ATOM     55  C   UNL A   1      38.024  30.915  29.904  1.00  0.00     0.037 A 
ATOM     56  C   UNL A   1      42.443  29.038  34.321  1.00  0.00     0.049 A 
ATOM     57  C   UNL A   1      38.193  31.173  31.383  1.00  0.00     0.074 A 
ATOM     58  C   UNL A   1      42.550  29.431  35.644  1.00  0.00     0.029 A 
ATOM     59  N   UNL A   1      41.320  29.665  33.805  1.00  0.00    -0.354 N 
ATOM     60  N   UNL A   1      39.143  30.773  32.194  1.00  0.00    -0.248 NA
ATOM     61  C   UNL A   1      37.161  31.991  32.037  1.00  0.00     0.031 C 
ATOM     62  C   UNL A   1      41.451  30.238  35.949  1.00  0.00     0.029 A 
ATOM     63  C   UNL A   1      40.704  30.412  34.795  1.00  0.00     0.049 A 
ATOM     64  H   UNL A   1      41.008  29.591  32.875  1.00  0.00     0.167 HD
ATOM     65  C   UNL A   1      38.845  31.322  33.437  1.00  0.00     0.074 A 
ATOM     66  C   UNL A   1      37.635  32.096  33.271  1.00  0.00     0.031 C 
ATOM     67  C   UNL A   1      39.511  31.197  34.611  1.00  0.00     0.037 A 
BRANCH  54  68
ATOM     68  C   UNL A   1      44.412  27.475  34.330  1.00  0.00     0.064 A 
ATOM     69  C   UNL A   1      45.666  28.077  34.493  1.00  0.00     0.173 A 
ATOM     70  C   UNL A   1      44.183  26.245  34.969  1.00  0.00     0.173 A 
ATOM     71  F   UNL A   1      45.939  29.244  33.891  1.00  0.00    -0.203 F 
ATOM     72  C   UNL A   1      46.655  27.471  35.265  1.00  0.00     0.198 A 
ATOM     73  C   UNL A   1      45.163  25.657  35.763  1.00  0.00     0.198 A 
ATOM     74  F   UNL A   1      42.999  25.628  34.844  1.00  0.00    -0.203 F 
ATOM     75  F   UNL A   1      47.858  28.051  35.386  1.00  0.00    -0.200 F 
ATOM     76  C   UNL A   1      46.399  26.270  35.909  1.00  0.00     0.200 A 
ATOM     77  F   UNL A   1      44.906  24.505  36.396  1.00  0.00    -0.200 F 
ATOM     78  F   UNL A   1      47.342  25.701  36.671  1.00  0.00    -0.200 F 
ENDBRANCH  54  68
BRANCH  55  79
ATOM     79  C   UNL A   1      36.838  31.454  29.182  1.00  0.00     0.064 A 
ATOM     80  C   UNL A   1      36.743  32.813  28.847  1.00  0.00     0.173 A 
ATOM     81  C   UNL A   1      35.739  30.634  28.882  1.00  0.00     0.173 A 
ATOM     82  F   UNL A   1      37.754  33.646  29.135  1.00  0.00    -0.203 F 
ATOM     83  C   UNL A   1      35.581  33.337  28.281  1.00  0.00     0.198 A 
ATOM     84  C   UNL A   1      34.593  31.153  28.282  1.00  0.00     0.198 A 
ATOM     85  F   UNL A   1      35.773  29.329  29.184  1.00  0.00    -0.203 F 
ATOM     86  F   UNL A   1      35.488  34.654  28.049  1.00  0.00    -0.200 F 
ATOM     87  C   UNL A   1      34.509  32.507  27.997  1.00  0.00     0.200 A 
ATOM     88  F   UNL A   1      33.564  30.343  27.999  1.00  0.00    -0.200 F 
ATOM     89  F   UNL A   1      33.388  33.014  27.467  1.00  0.00    -0.200 F 
ENDBRANCH  55  79
BRANCH  67  90
ATOM     90  C   UNL A   1      38.986  31.957  35.796  1.00  0.00     0.064 A 
ATOM     91  C   UNL A   1      38.170  31.354  36.764  1.00  0.00     0.173 A 
ATOM     92  C   UNL A   1      39.349  33.300  35.990  1.00  0.00     0.173 A 
ATOM     93  F   UNL A   1      37.785  30.076  36.623  1.00  0.00    -0.203 F 
ATOM     94  C   UNL A   1      37.710  32.075  37.864  1.00  0.00     0.198 A 
ATOM     95  C   UNL A   1      38.919  34.006  37.110  1.00  0.00     0.198 A 
ATOM     96  F   UNL A   1      40.138  33.924  35.102  1.00  0.00    -0.203 F 
ATOM     97  F   UNL A   1      36.886  31.494  38.746  1.00  0.00    -0.200 F 
ATOM     98  C   UNL A   1      38.091  33.397  38.040  1.00  0.00     0.200 A 
ATOM     99  F   UNL A   1      39.307  35.277  37.288  1.00  0.00    -0.200 F 
ATOM    100  F   UNL A   1      37.657  34.085  39.105  1.00  0.00    -0.200 F 
ENDBRANCH  67  90
ENDBRANCH  41  42
ENDBRANCH  34  36
ENDBRANCH  33  34
ENDBRANCH  32  33
ENDBRANCH  31  32
ENDBRANCH  30  31
ENDBRANCH  29  30
ENDBRANCH  28  29
ENDBRANCH  27  28
ENDBRANCH   1  27
TORSDOF 24
ENDMDL
MODEL 2
REMARK VINA RESULT:     -10.2      1.787      7.873
REMARK SMILES Cc1ccc(/C=C/C(=O)N[C@](C)(C(=O)OCCOCCOCCOCCOC(=O)c2ccc(-c3c4nc(c(-c5c(F)c(F)c(F)c(F)c5F)c5ccc([nH]5)c(-c5c(F)c(F)c(F)c(F)c5F)c5nc(c(-c6c(F)c(F)c(F)c(F)c6F)c6ccc3[nH]6)C=C5)C=C4)cc2)C(F)(F)F)o1
REMARK SMILES IDX 20 1 19 2 18 3 17 4 16 5 15 6 13 7 14 8 11 9 12 10 10 11
REMARK SMILES IDX 8 12 9 13 7 15 6 16 5 17 1 18 2 19 3 20 97 21 4 22 93 23
REMARK SMILES IDX 94 24 95 25 96 26 21 27 22 28 23 29 24 30 25 31 26 32 27 33
REMARK SMILES IDX 28 34 29 35 30 36 31 37 92 38 32 39 91 40 33 41 34 42 35 43
REMARK SMILES IDX 85 44 36 45 90 46 84 47 86 48 37 49 89 50 83 51 82 52 38 54
REMARK SMILES IDX 70 55 50 56 69 57 51 58 54 59 68 60 87 61 52 62 53 63 67 65
REMARK SMILES IDX 88 66 55 67 39 68 40 69 48 70 41 71 42 72 46 73 49 74 43 75
REMARK SMILES IDX 44 76 47 77 45 78 71 79 72 80 80 81 73 82 74 83 78 84 81 85
REMARK SMILES IDX 75 86 76 87 79 88 77 89 56 90 57 91 65 92 58 93 59 94 63 95
REMARK SMILES IDX 66 96 60 97 61 98 64 99 62 100
REMARK H PARENT 10 14 86 53 54 64
REMARK Flexibility Score: inf
ROOT
ATOM      1  C   UNL A   1      39.629  20.938  25.908  1.00  0.00     0.188 C 
ENDROOT
BRANCH   1   2
ATOM      2  C   UNL A   1      38.172  21.313  25.611  1.00  0.00     0.188 C 
BRANCH   2   3
ATOM      3  O   UNL A   1      37.836  22.661  25.351  1.00  0.00    -0.376 OA
BRANCH   3   4
ATOM      4  C   UNL A   1      36.855  23.337  26.121  1.00  0.00     0.202 C 
BRANCH   4   5
ATOM      5  C   UNL A   1      35.343  23.045  26.042  1.00  0.00     0.261 C 
BRANCH   5   6
ATOM      6  O   UNL A   1      34.439  24.162  26.182  1.00  0.00    -0.461 OA
BRANCH   6   7
ATOM      7  C   UNL A   1      33.309  24.113  25.439  1.00  0.00     0.341 C 
ATOM      8  O   UNL A   1      32.860  23.052  25.013  1.00  0.00    -0.249 OA
BRANCH   7   9
ATOM      9  C   UNL A   1      32.761  25.484  24.997  1.00  0.00     0.231 C 
ATOM     10  C   UNL A   1      33.519  26.797  25.212  1.00  0.00     0.058 C 
BRANCH   9  11
ATOM     11  N   UNL A   1      32.448  25.247  23.553  1.00  0.00    -0.329 N 
ATOM     12  C   UNL A   1      32.094  26.085  22.535  1.00  0.00     0.245 C 
ATOM     13  O   UNL A   1      32.198  25.681  21.380  1.00  0.00    -0.270 OA
ATOM     14  H   UNL A   1      32.511  24.302  23.284  1.00  0.00     0.165 HD
BRANCH  12  15
ATOM     15  C   UNL A   1      31.428  27.388  22.782  1.00  0.00     0.075 C 
ATOM     16  C   UNL A   1      30.166  27.693  22.445  1.00  0.00     0.053 C 
BRANCH  16  17
ATOM     17  C   UNL A   1      29.695  29.034  22.570  1.00  0.00     0.127 A 
ATOM     18  C   UNL A   1      28.037  31.892  21.140  1.00  0.00     0.087 C 
ATOM     19  C   UNL A   1      28.726  30.971  22.065  1.00  0.00     0.101 A 
ATOM     20  C   UNL A   1      29.172  31.104  23.357  1.00  0.00     0.046 A 
ATOM     21  O   UNL A   1      29.006  29.723  21.596  1.00  0.00    -0.462 OA
ATOM     22  C   UNL A   1      29.806  29.882  23.670  1.00  0.00     0.050 A 
ENDBRANCH  16  17
ENDBRANCH  12  15
ENDBRANCH   9  11
BRANCH   9  23
ATOM     23  C   UNL A   1      31.528  25.621  25.931  1.00  0.00     0.422 C 
ATOM     24  F   UNL A   1      31.562  24.667  26.902  1.00  0.00    -0.168 F 
ATOM     25  F   UNL A   1      31.540  26.818  26.574  1.00  0.00    -0.168 F 
ATOM     26  F   UNL A   1      30.338  25.536  25.307  1.00  0.00    -0.168 F 
ENDBRANCH   9  23
ENDBRANCH   7   9
ENDBRANCH   6   7
ENDBRANCH   5   6
ENDBRANCH   4   5
ENDBRANCH   3   4
ENDBRANCH   2   3
ENDBRANCH   1   2
BRANCH   1  27
ATOM     27  O   UNL A   1      40.140  21.355  27.158  1.00  0.00    -0.377 OA
BRANCH  27  28
ATOM     28  C   UNL A   1      41.522  21.672  27.250  1.00  0.00     0.188 C 
BRANCH  28  29
ATOM     29  C   UNL A   1      42.303  22.027  25.973  1.00  0.00     0.188 C 
BRANCH  29  30
ATOM     30  O   UNL A   1      43.684  21.700  26.016  1.00  0.00    -0.376 OA
BRANCH  30  31
ATOM     31  C   UNL A   1      44.487  21.916  24.866  1.00  0.00     0.202 C 
BRANCH  31  32
ATOM     32  C   UNL A   1      45.118  23.305  24.661  1.00  0.00     0.261 C 
BRANCH  32  33
ATOM     33  O   UNL A   1      44.261  24.444  24.844  1.00  0.00    -0.460 OA
BRANCH  33  34
ATOM     34  C   UNL A   1      44.836  25.625  25.161  1.00  0.00     0.338 C 
ATOM     35  O   UNL A   1      45.787  26.148  24.622  1.00  0.00    -0.246 OA
BRANCH  34  36
ATOM     36  C   UNL A   1      43.984  26.288  26.174  1.00  0.00     0.060 A 
ATOM     37  C   UNL A   1      44.181  27.650  26.433  1.00  0.00     0.016 A 
ATOM     38  C   UNL A   1      43.015  25.569  26.876  1.00  0.00     0.016 A 
ATOM     39  C   UNL A   1      43.440  28.288  27.429  1.00  0.00     0.010 A 
ATOM     40  C   UNL A   1      42.290  26.203  27.890  1.00  0.00     0.010 A 
ATOM     41  C   UNL A   1      42.527  27.556  28.198  1.00  0.00    -0.014 A 
BRANCH  41  42
ATOM     42  C   UNL A   1      41.981  28.145  29.445  1.00  0.00     0.031 A 
ATOM     43  C   UNL A   1      40.666  28.876  29.372  1.00  0.00     0.074 A 
ATOM     44  C   UNL A   1      42.620  28.020  30.623  1.00  0.00     0.049 A 
ATOM     45  N   UNL A   1      40.023  29.530  30.305  1.00  0.00    -0.248 NA
ATOM     46  C   UNL A   1      39.985  28.871  28.065  1.00  0.00     0.031 C 
ATOM     47  C   UNL A   1      43.874  27.302  30.832  1.00  0.00     0.029 A 
ATOM     48  N   UNL A   1      42.302  28.512  31.865  1.00  0.00    -0.354 N 
ATOM     49  C   UNL A   1      38.879  30.028  29.695  1.00  0.00     0.074 A 
ATOM     50  C   UNL A   1      38.918  29.618  28.310  1.00  0.00     0.031 C 
ATOM     51  C   UNL A   1      44.232  27.419  32.123  1.00  0.00     0.029 A 
ATOM     52  C   UNL A   1      43.254  28.252  32.821  1.00  0.00     0.049 A 
ATOM     53  H   UNL A   1      41.470  29.004  32.053  1.00  0.00     0.167 HD
ATOM     54  C   UNL A   1      37.883  30.762  30.245  1.00  0.00     0.037 A 
ATOM     55  C   UNL A   1      43.340  28.672  34.100  1.00  0.00     0.037 A 
ATOM     56  C   UNL A   1      37.834  31.152  31.630  1.00  0.00     0.049 A 
ATOM     57  C   UNL A   1      42.241  29.540  34.668  1.00  0.00     0.074 A 
ATOM     58  C   UNL A   1      36.843  31.855  32.290  1.00  0.00     0.029 A 
ATOM     59  N   UNL A   1      38.823  30.881  32.562  1.00  0.00    -0.354 N 
ATOM     60  N   UNL A   1      41.141  29.969  34.097  1.00  0.00    -0.248 NA
ATOM     61  C   UNL A   1      42.396  29.979  36.063  1.00  0.00     0.031 C 
ATOM     62  C   UNL A   1      37.263  32.073  33.604  1.00  0.00     0.029 A 
ATOM     63  C   UNL A   1      38.481  31.437  33.783  1.00  0.00     0.049 A 
ATOM     64  H   UNL A   1      39.644  30.368  32.383  1.00  0.00     0.167 HD
ATOM     65  C   UNL A   1      40.460  30.692  35.071  1.00  0.00     0.074 A 
ATOM     66  C   UNL A   1      41.261  30.630  36.273  1.00  0.00     0.031 C 
ATOM     67  C   UNL A   1      39.278  31.349  34.979  1.00  0.00     0.037 A 
BRANCH  54  68
ATOM     68  C   UNL A   1      36.771  31.230  29.354  1.00  0.00     0.064 A 
ATOM     69  C   UNL A   1      35.755  30.369  28.917  1.00  0.00     0.173 A 
ATOM     70  C   UNL A   1      36.678  32.588  29.007  1.00  0.00     0.173 A 
ATOM     71  F   UNL A   1      35.806  29.061  29.209  1.00  0.00    -0.203 F 
ATOM     72  C   UNL A   1      34.688  30.848  28.161  1.00  0.00     0.198 A 
ATOM     73  C   UNL A   1      35.594  33.068  28.276  1.00  0.00     0.198 A 
ATOM     74  F   UNL A   1      37.624  33.453  29.400  1.00  0.00    -0.203 F 
ATOM     75  F   UNL A   1      33.741  30.003  27.731  1.00  0.00    -0.200 F 
ATOM     76  C   UNL A   1      34.602  32.198  27.853  1.00  0.00     0.200 A 
ATOM     77  F   UNL A   1      35.506  34.375  27.994  1.00  0.00    -0.200 F 
ATOM     78  F   UNL A   1      33.561  32.661  27.148  1.00  0.00    -0.200 F 
ENDBRANCH  54  68
BRANCH  55  79
ATOM     79  C   UNL A   1      44.525  28.325  34.933  1.00  0.00     0.064 A 
ATOM     80  C   UNL A   1      45.664  29.143  34.958  1.00  0.00     0.173 A 
ATOM     81  C   UNL A   1      44.573  27.125  35.659  1.00  0.00     0.173 A 
ATOM     82  F   UNL A   1      45.682  30.288  34.260  1.00  0.00    -0.203 F 
ATOM     83  C   UNL A   1      46.817  28.755  35.640  1.00  0.00     0.198 A 
ATOM     84  C   UNL A   1      45.712  26.757  36.372  1.00  0.00     0.198 A 
ATOM     85  F   UNL A   1      43.515  26.302  35.667  1.00  0.00    -0.203 F 
ATOM     86  F   UNL A   1      47.917  29.517  35.578  1.00  0.00    -0.200 F 
ATOM     87  C   UNL A   1      46.839  27.564  36.348  1.00  0.00     0.200 A 
ATOM     88  F   UNL A   1      45.724  25.609  37.064  1.00  0.00    -0.200 F 
ATOM     89  F   UNL A   1      47.951  27.185  36.992  1.00  0.00    -0.200 F 
ENDBRANCH  55  79
BRANCH  67  90
ATOM     90  C   UNL A   1      38.744  32.004  36.223  1.00  0.00     0.064 A 
ATOM     91  C   UNL A   1      37.957  31.307  37.151  1.00  0.00     0.173 A 
ATOM     92  C   UNL A   1      39.069  33.339  36.512  1.00  0.00     0.173 A 
ATOM     93  F   UNL A   1      37.609  30.032  36.920  1.00  0.00    -0.203 F 
ATOM     94  C   UNL A   1      37.489  31.931  38.304  1.00  0.00     0.198 A 
ATOM     95  C   UNL A   1      38.631  33.948  37.684  1.00  0.00     0.198 A 
ATOM     96  F   UNL A   1      39.829  34.050  35.665  1.00  0.00    -0.203 F 
ATOM     97  F   UNL A   1      36.692  31.262  39.149  1.00  0.00    -0.200 F 
ATOM     98  C   UNL A   1      37.832  33.248  38.574  1.00  0.00     0.200 A 
ATOM     99  F   UNL A   1      38.983  35.213  37.952  1.00  0.00    -0.200 F 
ATOM    100  F   UNL A   1      37.390  33.843  39.691  1.00  0.00    -0.200 F 
ENDBRANCH  67  90
ENDBRANCH  41  42
ENDBRANCH  34  36
ENDBRANCH  33  34
ENDBRANCH  32  33
ENDBRANCH  31  32
ENDBRANCH  30  31
ENDBRANCH  29  30
ENDBRANCH  28  29
ENDBRANCH  27  28
ENDBRANCH   1  27
TORSDOF 24
ENDMDL
MODEL 3
REMARK VINA RESULT:      -9.9      3.195      8.546
REMARK SMILES Cc1ccc(/C=C/C(=O)N[C@](C)(C(=O)OCCOCCOCCOCCOC(=O)c2ccc(-c3c4nc(c(-c5c(F)c(F)c(F)c(F)c5F)c5ccc([nH]5)c(-c5c(F)c(F)c(F)c(F)c5F)c5nc(c(-c6c(F)c(F)c(F)c(F)c6F)c6ccc3[nH]6)C=C5)C=C4)cc2)C(F)(F)F)o1
REMARK SMILES IDX 20 1 19 2 18 3 17 4 16 5 15 6 13 7 14 8 11 9 12 10 10 11
REMARK SMILES IDX 8 12 9 13 7 15 6 16 5 17 1 18 2 19 3 20 97 21 4 22 93 23
REMARK SMILES IDX 94 24 95 25 96 26 21 27 22 28 23 29 24 30 25 31 26 32 27 33
REMARK SMILES IDX 28 34 29 35 30 36 31 37 92 38 32 39 91 40 33 41 34 42 35 43
REMARK SMILES IDX 85 44 36 45 90 46 84 47 86 48 37 49 89 50 83 51 82 52 38 54
REMARK SMILES IDX 70 55 50 56 69 57 51 58 54 59 68 60 87 61 52 62 53 63 67 65
REMARK SMILES IDX 88 66 55 67 39 68 40 69 48 70 41 71 42 72 46 73 49 74 43 75
REMARK SMILES IDX 44 76 47 77 45 78 71 79 72 80 80 81 73 82 74 83 78 84 81 85
REMARK SMILES IDX 75 86 76 87 79 88 77 89 56 90 57 91 65 92 58 93 59 94 63 95
REMARK SMILES IDX 66 96 60 97 61 98 64 99 62 100
REMARK H PARENT 10 14 86 53 54 64
REMARK Flexibility Score: inf
ROOT
ATOM      1  C   UNL A   1      29.871  28.636  22.363  1.00  0.00     0.188 C 
ENDROOT
BRANCH   1   2
ATOM      2  C   UNL A   1      28.950  27.976  23.395  1.00  0.00     0.188 C 
BRANCH   2   3
ATOM      3  O   UNL A   1      28.831  26.568  23.427  1.00  0.00    -0.376 OA
BRANCH   3   4
ATOM      4  C   UNL A   1      29.912  25.746  23.836  1.00  0.00     0.202 C 
BRANCH   4   5
ATOM      5  C   UNL A   1      30.290  24.414  23.158  1.00  0.00     0.261 C 
BRANCH   5   6
ATOM      6  O   UNL A   1      31.672  24.001  23.221  1.00  0.00    -0.461 OA
BRANCH   6   7
ATOM      7  C   UNL A   1      32.066  23.406  24.372  1.00  0.00     0.341 C 
ATOM      8  O   UNL A   1      31.263  22.873  25.133  1.00  0.00    -0.249 OA
BRANCH   7   9
ATOM      9  C   UNL A   1      33.543  23.635  24.749  1.00  0.00     0.231 C 
ATOM     10  C   UNL A   1      34.244  24.989  24.602  1.00  0.00     0.058 C 
BRANCH   9  11
ATOM     11  N   UNL A   1      33.590  23.130  26.157  1.00  0.00    -0.329 N 
ATOM     12  C   UNL A   1      33.954  21.930  26.696  1.00  0.00     0.245 C 
ATOM     13  O   UNL A   1      34.197  21.876  27.898  1.00  0.00    -0.270 OA
ATOM     14  H   UNL A   1      33.302  23.793  26.825  1.00  0.00     0.165 HD
BRANCH  12  15
ATOM     15  C   UNL A   1      33.896  20.667  25.919  1.00  0.00     0.075 C 
ATOM     16  C   UNL A   1      32.791  19.938  25.701  1.00  0.00     0.053 C 
BRANCH  16  17
ATOM     17  C   UNL A   1      32.888  18.650  25.094  1.00  0.00     0.127 A 
ATOM     18  C   UNL A   1      32.956  15.064  25.406  1.00  0.00     0.087 C 
ATOM     19  C   UNL A   1      32.952  16.439  24.868  1.00  0.00     0.101 A 
ATOM     20  C   UNL A   1      33.068  16.947  23.597  1.00  0.00     0.046 A 
ATOM     21  O   UNL A   1      32.811  17.452  25.769  1.00  0.00    -0.462 OA
ATOM     22  C   UNL A   1      33.049  18.350  23.743  1.00  0.00     0.050 A 
ENDBRANCH  16  17
ENDBRANCH  12  15
ENDBRANCH   9  11
BRANCH   9  23
ATOM     23  C   UNL A   1      34.256  22.743  23.697  1.00  0.00     0.422 C 
ATOM     24  F   UNL A   1      33.419  21.758  23.268  1.00  0.00    -0.168 F 
ATOM     25  F   UNL A   1      34.587  23.465  22.596  1.00  0.00    -0.168 F 
ATOM     26  F   UNL A   1      35.392  22.163  24.129  1.00  0.00    -0.168 F 
ENDBRANCH   9  23
ENDBRANCH   7   9
ENDBRANCH   6   7
ENDBRANCH   5   6
ENDBRANCH   4   5
ENDBRANCH   3   4
ENDBRANCH   2   3
ENDBRANCH   1   2
BRANCH   1  27
ATOM     27  O   UNL A   1      31.242  28.706  22.701  1.00  0.00    -0.377 OA
BRANCH  27  28
ATOM     28  C   UNL A   1      31.592  28.855  24.071  1.00  0.00     0.188 C 
BRANCH  28  29
ATOM     29  C   UNL A   1      31.090  30.083  24.850  1.00  0.00     0.188 C 
BRANCH  29  30
ATOM     30  O   UNL A   1      32.014  30.600  25.795  1.00  0.00    -0.376 OA
BRANCH  30  31
ATOM     31  C   UNL A   1      31.542  31.407  26.862  1.00  0.00     0.202 C 
BRANCH  31  32
ATOM     32  C   UNL A   1      31.849  32.915  26.834  1.00  0.00     0.261 C 
BRANCH  32  33
ATOM     33  O   UNL A   1      33.232  33.300  26.906  1.00  0.00    -0.460 OA
BRANCH  33  34
ATOM     34  C   UNL A   1      33.702  33.753  28.089  1.00  0.00     0.338 C 
ATOM     35  O   UNL A   1      33.171  34.546  28.836  1.00  0.00    -0.246 OA
BRANCH  34  36
ATOM     36  C   UNL A   1      34.907  32.965  28.431  1.00  0.00     0.060 A 
ATOM     37  C   UNL A   1      34.761  31.601  28.717  1.00  0.00     0.016 A 
ATOM     38  C   UNL A   1      36.165  33.568  28.488  1.00  0.00     0.016 A 
ATOM     39  C   UNL A   1      35.868  30.846  29.108  1.00  0.00     0.010 A 
ATOM     40  C   UNL A   1      37.268  32.815  28.902  1.00  0.00     0.010 A 
ATOM     41  C   UNL A   1      37.118  31.460  29.253  1.00  0.00    -0.014 A 
BRANCH  41  42
ATOM     42  C   UNL A   1      38.208  30.746  29.962  1.00  0.00     0.031 A 
ATOM     43  C   UNL A   1      38.449  31.074  31.412  1.00  0.00     0.074 A 
ATOM     44  C   UNL A   1      38.956  29.812  29.347  1.00  0.00     0.049 A 
ATOM     45  N   UNL A   1      39.379  30.636  32.222  1.00  0.00    -0.248 NA
ATOM     46  C   UNL A   1      37.514  32.028  32.033  1.00  0.00     0.031 C 
ATOM     47  C   UNL A   1      38.793  29.376  27.963  1.00  0.00     0.029 A 
ATOM     48  N   UNL A   1      40.016  29.073  29.811  1.00  0.00    -0.354 N 
ATOM     49  C   UNL A   1      39.154  31.275  33.434  1.00  0.00     0.074 A 
ATOM     50  C   UNL A   1      38.011  32.142  33.256  1.00  0.00     0.031 C 
ATOM     51  C   UNL A   1      39.737  28.460  27.681  1.00  0.00     0.029 A 
ATOM     52  C   UNL A   1      40.593  28.275  28.853  1.00  0.00     0.049 A 
ATOM     53  H   UNL A   1      40.333  29.110  30.742  1.00  0.00     0.167 HD
ATOM     54  C   UNL A   1      39.840  31.147  34.594  1.00  0.00     0.037 A 
ATOM     55  C   UNL A   1      41.705  27.513  28.909  1.00  0.00     0.037 A 
ATOM     56  C   UNL A   1      40.964  30.267  34.776  1.00  0.00     0.049 A 
ATOM     57  C   UNL A   1      42.484  27.437  30.201  1.00  0.00     0.074 A 
ATOM     58  C   UNL A   1      41.695  30.033  35.928  1.00  0.00     0.029 A 
ATOM     59  N   UNL A   1      41.526  29.486  33.779  1.00  0.00    -0.354 N 
ATOM     60  N   UNL A   1      42.239  28.010  31.355  1.00  0.00    -0.248 NA
ATOM     61  C   UNL A   1      43.696  26.603  30.198  1.00  0.00     0.031 C 
ATOM     62  C   UNL A   1      42.743  29.167  35.611  1.00  0.00     0.029 A 
ATOM     63  C   UNL A   1      42.618  28.798  34.282  1.00  0.00     0.049 A 
ATOM     64  H   UNL A   1      41.197  29.427  32.853  1.00  0.00     0.167 HD
ATOM     65  C   UNL A   1      43.238  27.576  32.220  1.00  0.00     0.074 A 
ATOM     66  C   UNL A   1      44.083  26.680  31.463  1.00  0.00     0.031 C 
ATOM     67  C   UNL A   1      43.439  27.891  33.523  1.00  0.00     0.037 A 
BRANCH  54  68
ATOM     68  C   UNL A   1      39.429  31.997  35.759  1.00  0.00     0.064 A 
ATOM     69  C   UNL A   1      39.891  33.309  35.924  1.00  0.00     0.173 A 
ATOM     70  C   UNL A   1      38.482  31.512  36.678  1.00  0.00     0.173 A 
ATOM     71  F   UNL A   1      40.806  33.813  35.082  1.00  0.00    -0.203 F 
ATOM     72  C   UNL A   1      39.426  34.106  36.967  1.00  0.00     0.198 A 
ATOM     73  C   UNL A   1      37.998  32.321  37.702  1.00  0.00     0.198 A 
ATOM     74  F   UNL A   1      38.008  30.263  36.564  1.00  0.00    -0.203 F 
ATOM     75  F   UNL A   1      39.901  35.350  37.122  1.00  0.00    -0.200 F 
ATOM     76  C   UNL A   1      38.471  33.616  37.847  1.00  0.00     0.200 A 
ATOM     77  F   UNL A   1      37.064  31.850  38.539  1.00  0.00    -0.200 F 
ATOM     78  F   UNL A   1      38.006  34.393  38.834  1.00  0.00    -0.200 F 
ENDBRANCH  54  68
BRANCH  55  79
ATOM     79  C   UNL A   1      42.189  26.790  27.700  1.00  0.00     0.064 A 
ATOM     80  C   UNL A   1      41.792  25.472  27.429  1.00  0.00     0.173 A 
ATOM     81  C   UNL A   1      43.123  27.377  26.832  1.00  0.00     0.173 A 
ATOM     82  F   UNL A   1      40.922  24.856  28.241  1.00  0.00    -0.203 F 
ATOM     83  C   UNL A   1      42.341  24.757  26.365  1.00  0.00     0.198 A 
ATOM     84  C   UNL A   1      43.643  26.673  25.747  1.00  0.00     0.198 A 
ATOM     85  F   UNL A   1      43.543  28.632  27.044  1.00  0.00    -0.203 F 
ATOM     86  F   UNL A   1      42.004  23.473  26.181  1.00  0.00    -0.200 F 
ATOM     87  C   UNL A   1      43.264  25.358  25.524  1.00  0.00     0.200 A 
ATOM     88  F   UNL A   1      44.526  27.263  24.930  1.00  0.00    -0.200 F 
ATOM     89  F   UNL A   1      43.801  24.665  24.511  1.00  0.00    -0.200 F 
ENDBRANCH  55  79
BRANCH  67  90
ATOM     90  C   UNL A   1      44.580  27.220  34.236  1.00  0.00     0.064 A 
ATOM     91  C   UNL A   1      44.445  25.959  34.833  1.00  0.00     0.173 A 
ATOM     92  C   UNL A   1      45.843  27.832  34.276  1.00  0.00     0.173 A 
ATOM     93  F   UNL A   1      43.257  25.334  34.832  1.00  0.00    -0.203 F 
ATOM     94  C   UNL A   1      45.522  25.351  35.473  1.00  0.00     0.198 A 
ATOM     95  C   UNL A   1      46.927  27.204  34.884  1.00  0.00     0.198 A 
ATOM     96  F   UNL A   1      46.033  29.034  33.710  1.00  0.00    -0.203 F 
ATOM     97  F   UNL A   1      45.355  24.170  36.086  1.00  0.00    -0.200 F 
ATOM     98  C   UNL A   1      46.763  25.969  35.491  1.00  0.00     0.200 A 
ATOM     99  F   UNL A   1      48.130  27.795  34.880  1.00  0.00    -0.200 F 
ATOM    100  F   UNL A   1      47.801  25.376  36.097  1.00  0.00    -0.200 F 
ENDBRANCH  67  90
ENDBRANCH  41  42
ENDBRANCH  34  36
ENDBRANCH  33  34
ENDBRANCH  32  33
ENDBRANCH  31  32
ENDBRANCH  30  31
ENDBRANCH  29  30
ENDBRANCH  28  29
ENDBRANCH  27  28
ENDBRANCH   1  27
TORSDOF 24
ENDMDL
