MODEL 1
REMARK VINA RESULT:     -10.4      0.000      0.000
REMARK SMILES COc1ccc2c(c1)c(CC(=O)OCCOCCOCCOCCOC(=O)c1ccc(-c3c4nc(c(-c5c(F)c(F)c(F)c(F)c5F)c5ccc([nH]5)c(-c5c(F)c(F)c(F)c(F)c5F)c5nc(c(-c6c(F)c(F)c(F)c(F)c6F)c6ccc3[nH]6)C=C5)C=C4)cc1)c(C)n2Cc1ccc(Br)cc1
REMARK SMILES IDX 18 1 17 2 16 3 15 4 14 5 13 6 11 7 12 8 10 9 9 10 3 11 4 12
REMARK SMILES IDX 8 13 5 14 7 15 6 16 93 17 91 18 92 19 2 20 1 21 94 22 95 23
REMARK SMILES IDX 96 24 101 25 97 26 100 27 98 28 99 29 19 30 20 31 21 32
REMARK SMILES IDX 22 33 23 34 24 35 25 36 26 37 27 38 28 39 29 40 90 41 30 42
REMARK SMILES IDX 89 43 31 44 32 45 33 46 83 47 34 48 88 49 82 50 84 51 35 52
REMARK SMILES IDX 87 53 81 54 80 55 36 57 68 58 48 59 67 60 49 61 52 62 66 63
REMARK SMILES IDX 85 64 50 65 51 66 65 68 86 69 53 70 37 71 38 72 46 73 39 74
REMARK SMILES IDX 40 75 44 76 47 77 41 78 42 79 45 80 43 81 69 82 70 83 78 84
REMARK SMILES IDX 71 85 72 86 76 87 79 88 73 89 74 90 77 91 75 92 54 93 55 94
REMARK SMILES IDX 63 95 56 96 57 97 61 98 64 99 58 100 59 101 62 102 60 103
REMARK H PARENT 84 56 52 67
REMARK Flexibility Score: inf
ROOT
ATOM      1  C   UNL A   1      31.539  29.445  26.849  1.00  0.00     0.188 C 
ENDROOT
BRANCH   1   2
ATOM      2  C   UNL A   1      31.492  28.291  27.844  1.00  0.00     0.188 C 
BRANCH   2   3
ATOM      3  O   UNL A   1      31.636  27.021  27.239  1.00  0.00    -0.376 OA
BRANCH   3   4
ATOM      4  C   UNL A   1      30.762  26.662  26.182  1.00  0.00     0.202 C 
BRANCH   4   5
ATOM      5  C   UNL A   1      31.110  26.991  24.714  1.00  0.00     0.261 C 
BRANCH   5   6
ATOM      6  O   UNL A   1      32.453  27.421  24.407  1.00  0.00    -0.463 OA
BRANCH   6   7
ATOM      7  C   UNL A   1      33.363  26.512  23.988  1.00  0.00     0.310 C 
ATOM      8  O   UNL A   1      33.922  26.593  22.897  1.00  0.00    -0.252 OA
BRANCH   7   9
ATOM      9  C   UNL A   1      33.742  25.430  25.009  1.00  0.00     0.160 C 
BRANCH   9  10
ATOM     10  C   UNL A   1      33.805  23.968  24.595  1.00  0.00    -0.008 A 
ATOM     11  C   UNL A   1      37.106  22.154  25.378  1.00  0.00     0.119 A 
ATOM     12  C   UNL A   1      36.652  20.880  25.071  1.00  0.00     0.048 A 
ATOM     13  C   UNL A   1      36.272  23.256  25.139  1.00  0.00     0.057 A 
ATOM     14  C   UNL A   1      35.364  20.683  24.542  1.00  0.00     0.031 A 
ATOM     15  C   UNL A   1      34.934  23.084  24.713  1.00  0.00     0.007 A 
ATOM     16  C   UNL A   1      34.517  21.798  24.363  1.00  0.00     0.049 A 
ATOM     17  N   UNL A   1      33.239  21.921  23.826  1.00  0.00    -0.340 N 
ATOM     18  C   UNL A   1      32.872  23.264  23.843  1.00  0.00     0.020 A 
ATOM     19  C   UNL A   1      31.701  23.831  23.123  1.00  0.00     0.065 C 
BRANCH  11  20
ATOM     20  O   UNL A   1      38.304  22.478  25.952  1.00  0.00    -0.497 OA
ATOM     21  C   UNL A   1      38.464  23.775  26.514  1.00  0.00     0.278 C 
ENDBRANCH  11  20
BRANCH  17  22
ATOM     22  C   UNL A   1      32.550  20.832  23.113  1.00  0.00     0.157 C 
BRANCH  22  23
ATOM     23  C   UNL A   1      32.644  19.467  23.765  1.00  0.00    -0.028 A 
ATOM     24  C   UNL A   1      33.054  18.342  23.033  1.00  0.00     0.007 A 
ATOM     25  C   UNL A   1      32.397  19.297  25.137  1.00  0.00     0.007 A 
ATOM     26  C   UNL A   1      33.140  17.076  23.618  1.00  0.00     0.016 A 
ATOM     27  C   UNL A   1      32.519  18.036  25.739  1.00  0.00     0.016 A 
ATOM     28  C   UNL A   1      32.868  16.928  24.971  1.00  0.00     0.017 A 
ATOM     29  Br  UNL A   1      32.989  15.217  25.762  1.00  0.00    -0.051 Br
ENDBRANCH  22  23
ENDBRANCH  17  22
ENDBRANCH   9  10
ENDBRANCH   7   9
ENDBRANCH   6   7
ENDBRANCH   5   6
ENDBRANCH   4   5
ENDBRANCH   3   4
ENDBRANCH   2   3
ENDBRANCH   1   2
BRANCH   1  30
ATOM     30  O   UNL A   1      32.553  30.411  26.861  1.00  0.00    -0.377 OA
BRANCH  30  31
ATOM     31  C   UNL A   1      33.861  29.989  26.613  1.00  0.00     0.188 C 
BRANCH  31  32
ATOM     32  C   UNL A   1      34.842  30.382  27.720  1.00  0.00     0.188 C 
BRANCH  32  33
ATOM     33  O   UNL A   1      34.573  31.455  28.624  1.00  0.00    -0.376 OA
BRANCH  33  34
ATOM     34  C   UNL A   1      35.030  32.774  28.353  1.00  0.00     0.202 C 
BRANCH  34  35
ATOM     35  C   UNL A   1      36.548  33.045  28.361  1.00  0.00     0.261 C 
BRANCH  35  36
ATOM     36  O   UNL A   1      37.073  33.398  29.645  1.00  0.00    -0.460 OA
BRANCH  36  37
ATOM     37  C   UNL A   1      37.059  32.449  30.623  1.00  0.00     0.338 C 
ATOM     38  O   UNL A   1      36.257  32.303  31.507  1.00  0.00    -0.246 OA
BRANCH  37  39
ATOM     39  C   UNL A   1      38.042  31.424  30.183  1.00  0.00     0.060 A 
ATOM     40  C   UNL A   1      37.731  30.062  30.214  1.00  0.00     0.016 A 
ATOM     41  C   UNL A   1      39.374  31.855  30.091  1.00  0.00     0.016 A 
ATOM     42  C   UNL A   1      38.775  29.143  30.328  1.00  0.00     0.010 A 
ATOM     43  C   UNL A   1      40.413  30.932  30.217  1.00  0.00     0.010 A 
ATOM     44  C   UNL A   1      40.116  29.579  30.392  1.00  0.00    -0.014 A 
BRANCH  44  45
ATOM     45  C   UNL A   1      41.164  28.550  30.331  1.00  0.00     0.031 A 
ATOM     46  C   UNL A   1      41.712  28.268  31.686  1.00  0.00     0.074 A 
ATOM     47  C   UNL A   1      41.535  27.765  29.296  1.00  0.00     0.049 A 
ATOM     48  N   UNL A   1      42.931  28.369  32.104  1.00  0.00    -0.248 NA
ATOM     49  C   UNL A   1      40.726  27.967  32.739  1.00  0.00     0.031 C 
ATOM     50  C   UNL A   1      40.923  27.642  27.975  1.00  0.00     0.029 A 
ATOM     51  N   UNL A   1      42.525  26.811  29.266  1.00  0.00    -0.354 N 
ATOM     52  C   UNL A   1      42.887  28.010  33.447  1.00  0.00     0.074 A 
ATOM     53  C   UNL A   1      41.501  27.924  33.819  1.00  0.00     0.031 C 
ATOM     54  C   UNL A   1      41.419  26.544  27.354  1.00  0.00     0.029 A 
ATOM     55  C   UNL A   1      42.453  25.942  28.183  1.00  0.00     0.049 A 
ATOM     56  H   UNL A   1      43.226  26.748  29.953  1.00  0.00     0.167 HD
ATOM     57  C   UNL A   1      43.989  27.584  34.115  1.00  0.00     0.037 A 
ATOM     58  C   UNL A   1      43.140  24.781  28.015  1.00  0.00     0.037 A 
ATOM     59  C   UNL A   1      45.205  28.012  33.484  1.00  0.00     0.049 A 
ATOM     60  C   UNL A   1      44.294  24.787  28.947  1.00  0.00     0.074 A 
ATOM     61  C   UNL A   1      45.749  29.240  33.159  1.00  0.00     0.029 A 
ATOM     62  N   UNL A   1      45.947  27.084  32.799  1.00  0.00    -0.354 N 
ATOM     63  N   UNL A   1      45.364  25.513  28.803  1.00  0.00    -0.248 NA
ATOM     64  C   UNL A   1      44.107  24.202  30.267  1.00  0.00     0.031 C 
ATOM     65  C   UNL A   1      46.472  29.022  31.952  1.00  0.00     0.029 A 
ATOM     66  C   UNL A   1      46.340  27.672  31.628  1.00  0.00     0.049 A 
ATOM     67  H   UNL A   1      46.157  26.169  33.095  1.00  0.00     0.167 HD
ATOM     68  C   UNL A   1      45.754  25.818  30.096  1.00  0.00     0.074 A 
ATOM     69  C   UNL A   1      45.018  24.896  30.949  1.00  0.00     0.031 C 
ATOM     70  C   UNL A   1      46.423  26.973  30.370  1.00  0.00     0.037 A 
BRANCH  57  71
ATOM     71  C   UNL A   1      43.941  26.476  35.133  1.00  0.00     0.064 A 
ATOM     72  C   UNL A   1      44.452  26.703  36.422  1.00  0.00     0.173 A 
ATOM     73  C   UNL A   1      43.687  25.125  34.802  1.00  0.00     0.173 A 
ATOM     74  F   UNL A   1      44.763  27.944  36.826  1.00  0.00    -0.203 F 
ATOM     75  C   UNL A   1      44.753  25.648  37.287  1.00  0.00     0.198 A 
ATOM     76  C   UNL A   1      43.927  24.083  35.691  1.00  0.00     0.198 A 
ATOM     77  F   UNL A   1      43.311  24.749  33.574  1.00  0.00    -0.203 F 
ATOM     78  F   UNL A   1      45.364  25.900  38.453  1.00  0.00    -0.200 F 
ATOM     79  C   UNL A   1      44.492  24.340  36.921  1.00  0.00     0.200 A 
ATOM     80  F   UNL A   1      43.688  22.822  35.306  1.00  0.00    -0.200 F 
ATOM     81  F   UNL A   1      44.834  23.325  37.725  1.00  0.00    -0.200 F 
ENDBRANCH  57  71
BRANCH  58  82
ATOM     82  C   UNL A   1      42.780  23.549  27.261  1.00  0.00     0.064 A 
ATOM     83  C   UNL A   1      43.590  23.066  26.214  1.00  0.00     0.173 A 
ATOM     84  C   UNL A   1      41.787  22.669  27.728  1.00  0.00     0.173 A 
ATOM     85  F   UNL A   1      44.594  23.814  25.733  1.00  0.00    -0.203 F 
ATOM     86  C   UNL A   1      43.430  21.778  25.688  1.00  0.00     0.198 A 
ATOM     87  C   UNL A   1      41.620  21.389  27.194  1.00  0.00     0.198 A 
ATOM     88  F   UNL A   1      41.021  22.994  28.778  1.00  0.00    -0.203 F 
ATOM     89  F   UNL A   1      44.265  21.333  24.738  1.00  0.00    -0.200 F 
ATOM     90  C   UNL A   1      42.449  20.938  26.185  1.00  0.00     0.200 A 
ATOM     91  F   UNL A   1      40.689  20.573  27.709  1.00  0.00    -0.200 F 
ATOM     92  F   UNL A   1      42.331  19.685  25.725  1.00  0.00    -0.200 F 
ENDBRANCH  58  82
BRANCH  70  93
ATOM     93  C   UNL A   1      47.043  27.720  29.230  1.00  0.00     0.064 A 
ATOM     94  C   UNL A   1      46.348  28.637  28.425  1.00  0.00     0.173 A 
ATOM     95  C   UNL A   1      48.433  27.630  29.069  1.00  0.00     0.173 A 
ATOM     96  F   UNL A   1      45.034  28.847  28.589  1.00  0.00    -0.203 F 
ATOM     97  C   UNL A   1      47.020  29.407  27.481  1.00  0.00     0.198 A 
ATOM     98  C   UNL A   1      49.104  28.431  28.153  1.00  0.00     0.198 A 
ATOM     99  F   UNL A   1      49.148  26.802  29.849  1.00  0.00    -0.203 F 
ATOM    100  F   UNL A   1      46.339  30.274  26.717  1.00  0.00    -0.200 F 
ATOM    101  C   UNL A   1      48.398  29.316  27.356  1.00  0.00     0.200 A 
ATOM    102  F   UNL A   1      50.441  28.373  28.071  1.00  0.00    -0.200 F 
ATOM    103  F   UNL A   1      49.049  30.106  26.490  1.00  0.00    -0.200 F 
ENDBRANCH  70  93
ENDBRANCH  44  45
ENDBRANCH  37  39
ENDBRANCH  36  37
ENDBRANCH  35  36
ENDBRANCH  34  35
ENDBRANCH  33  34
ENDBRANCH  32  33
ENDBRANCH  31  32
ENDBRANCH  30  31
ENDBRANCH   1  30
TORSDOF 24
ENDMDL
MODEL 2
REMARK VINA RESULT:      -9.3      1.496      2.281
REMARK SMILES COc1ccc2c(c1)c(CC(=O)OCCOCCOCCOCCOC(=O)c1ccc(-c3c4nc(c(-c5c(F)c(F)c(F)c(F)c5F)c5ccc([nH]5)c(-c5c(F)c(F)c(F)c(F)c5F)c5nc(c(-c6c(F)c(F)c(F)c(F)c6F)c6ccc3[nH]6)C=C5)C=C4)cc1)c(C)n2Cc1ccc(Br)cc1
REMARK SMILES IDX 18 1 17 2 16 3 15 4 14 5 13 6 11 7 12 8 10 9 9 10 3 11 4 12
REMARK SMILES IDX 8 13 5 14 7 15 6 16 93 17 91 18 92 19 2 20 1 21 94 22 95 23
REMARK SMILES IDX 96 24 101 25 97 26 100 27 98 28 99 29 19 30 20 31 21 32
REMARK SMILES IDX 22 33 23 34 24 35 25 36 26 37 27 38 28 39 29 40 90 41 30 42
REMARK SMILES IDX 89 43 31 44 32 45 33 46 83 47 34 48 88 49 82 50 84 51 35 52
REMARK SMILES IDX 87 53 81 54 80 55 36 57 68 58 48 59 67 60 49 61 52 62 66 63
REMARK SMILES IDX 85 64 50 65 51 66 65 68 86 69 53 70 37 71 38 72 46 73 39 74
REMARK SMILES IDX 40 75 44 76 47 77 41 78 42 79 45 80 43 81 69 82 70 83 78 84
REMARK SMILES IDX 71 85 72 86 76 87 79 88 73 89 74 90 77 91 75 92 54 93 55 94
REMARK SMILES IDX 63 95 56 96 57 97 61 98 64 99 58 100 59 101 62 102 60 103
REMARK H PARENT 84 56 52 67
REMARK Flexibility Score: inf
ROOT
ATOM      1  C   UNL A   1      31.571  29.607  26.956  1.00  0.00     0.188 C 
ENDROOT
BRANCH   1   2
ATOM      2  C   UNL A   1      31.315  28.422  27.879  1.00  0.00     0.188 C 
BRANCH   2   3
ATOM      3  O   UNL A   1      31.660  27.177  27.305  1.00  0.00    -0.376 OA
BRANCH   3   4
ATOM      4  C   UNL A   1      30.870  26.670  26.243  1.00  0.00     0.202 C 
BRANCH   4   5
ATOM      5  C   UNL A   1      30.971  27.265  24.821  1.00  0.00     0.261 C 
BRANCH   5   6
ATOM      6  O   UNL A   1      32.282  27.501  24.268  1.00  0.00    -0.463 OA
BRANCH   6   7
ATOM      7  C   UNL A   1      33.071  26.448  23.952  1.00  0.00     0.310 C 
ATOM      8  O   UNL A   1      33.755  26.418  22.932  1.00  0.00    -0.252 OA
BRANCH   7   9
ATOM      9  C   UNL A   1      33.146  25.333  25.006  1.00  0.00     0.160 C 
BRANCH   9  10
ATOM     10  C   UNL A   1      33.326  23.884  24.583  1.00  0.00    -0.008 A 
ATOM     11  C   UNL A   1      36.729  22.307  25.436  1.00  0.00     0.119 A 
ATOM     12  C   UNL A   1      36.376  21.006  25.108  1.00  0.00     0.048 A 
ATOM     13  C   UNL A   1      35.823  23.348  25.184  1.00  0.00     0.057 A 
ATOM     14  C   UNL A   1      35.119  20.721  24.546  1.00  0.00     0.031 A 
ATOM     15  C   UNL A   1      34.513  23.083  24.723  1.00  0.00     0.007 A 
ATOM     16  C   UNL A   1      34.198  21.773  24.353  1.00  0.00     0.049 A 
ATOM     17  N   UNL A   1      32.929  21.808  23.785  1.00  0.00    -0.340 N 
ATOM     18  C   UNL A   1      32.465  23.122  23.802  1.00  0.00     0.020 A 
ATOM     19  C   UNL A   1      31.274  23.609  23.057  1.00  0.00     0.065 C 
BRANCH  11  20
ATOM     20  O   UNL A   1      37.886  22.712  26.043  1.00  0.00    -0.497 OA
ATOM     21  C   UNL A   1      39.037  21.883  25.939  1.00  0.00     0.278 C 
ENDBRANCH  11  20
BRANCH  17  22
ATOM     22  C   UNL A   1      32.338  20.678  23.047  1.00  0.00     0.157 C 
BRANCH  22  23
ATOM     23  C   UNL A   1      32.546  19.314  23.672  1.00  0.00    -0.028 A 
ATOM     24  C   UNL A   1      32.335  19.106  25.044  1.00  0.00     0.007 A 
ATOM     25  C   UNL A   1      32.883  18.198  22.888  1.00  0.00     0.007 A 
ATOM     26  C   UNL A   1      32.528  17.855  25.635  1.00  0.00     0.016 A 
ATOM     27  C   UNL A   1      33.041  16.932  23.470  1.00  0.00     0.016 A 
ATOM     28  C   UNL A   1      32.884  16.772  24.845  1.00  0.00     0.017 A 
ATOM     29  Br  UNL A   1      33.141  15.080  25.645  1.00  0.00    -0.051 Br
ENDBRANCH  22  23
ENDBRANCH  17  22
ENDBRANCH   9  10
ENDBRANCH   7   9
ENDBRANCH   6   7
ENDBRANCH   5   6
ENDBRANCH   4   5
ENDBRANCH   3   4
ENDBRANCH   2   3
ENDBRANCH   1   2
BRANCH   1  30
ATOM     30  O   UNL A   1      32.737  30.381  27.026  1.00  0.00    -0.377 OA
BRANCH  30  31
ATOM     31  C   UNL A   1      33.882  29.899  26.389  1.00  0.00     0.188 C 
BRANCH  31  32
ATOM     32  C   UNL A   1      34.927  29.350  27.362  1.00  0.00     0.188 C 
BRANCH  32  33
ATOM     33  O   UNL A   1      35.052  29.844  28.697  1.00  0.00    -0.376 OA
BRANCH  33  34
ATOM     34  C   UNL A   1      35.585  31.136  28.955  1.00  0.00     0.202 C 
BRANCH  34  35
ATOM     35  C   UNL A   1      36.872  31.563  28.220  1.00  0.00     0.261 C 
BRANCH  35  36
ATOM     36  O   UNL A   1      37.694  32.473  28.958  1.00  0.00    -0.460 OA
BRANCH  36  37
ATOM     37  C   UNL A   1      38.338  31.999  30.061  1.00  0.00     0.338 C 
ATOM     38  O   UNL A   1      38.034  32.137  31.218  1.00  0.00    -0.246 OA
BRANCH  37  39
ATOM     39  C   UNL A   1      39.300  30.990  29.546  1.00  0.00     0.060 A 
ATOM     40  C   UNL A   1      38.904  29.675  29.292  1.00  0.00     0.016 A 
ATOM     41  C   UNL A   1      40.657  31.319  29.677  1.00  0.00     0.016 A 
ATOM     42  C   UNL A   1      39.868  28.667  29.344  1.00  0.00     0.010 A 
ATOM     43  C   UNL A   1      41.615  30.306  29.741  1.00  0.00     0.010 A 
ATOM     44  C   UNL A   1      41.216  28.972  29.629  1.00  0.00    -0.014 A 
BRANCH  44  45
ATOM     45  C   UNL A   1      42.198  27.887  29.490  1.00  0.00     0.031 A 
ATOM     46  C   UNL A   1      43.032  27.764  30.717  1.00  0.00     0.074 A 
ATOM     47  C   UNL A   1      42.306  26.947  28.527  1.00  0.00     0.049 A 
ATOM     48  N   UNL A   1      44.316  27.854  30.836  1.00  0.00    -0.248 NA
ATOM     49  C   UNL A   1      42.305  27.668  31.995  1.00  0.00     0.031 C 
ATOM     50  C   UNL A   1      41.407  26.677  27.407  1.00  0.00     0.029 A 
ATOM     51  N   UNL A   1      43.241  25.944  28.419  1.00  0.00    -0.354 N 
ATOM     52  C   UNL A   1      44.570  27.686  32.193  1.00  0.00     0.074 A 
ATOM     53  C   UNL A   1      43.302  27.731  32.871  1.00  0.00     0.031 C 
ATOM     54  C   UNL A   1      41.723  25.478  26.859  1.00  0.00     0.029 A 
ATOM     55  C   UNL A   1      42.904  24.939  27.519  1.00  0.00     0.049 A 
ATOM     56  H   UNL A   1      44.077  25.937  28.936  1.00  0.00     0.167 HD
ATOM     57  C   UNL A   1      45.784  27.295  32.657  1.00  0.00     0.037 A 
ATOM     58  C   UNL A   1      43.507  23.729  27.376  1.00  0.00     0.037 A 
ATOM     59  C   UNL A   1      46.835  27.563  31.717  1.00  0.00     0.049 A 
ATOM     60  C   UNL A   1      44.842  23.798  28.019  1.00  0.00     0.074 A 
ATOM     61  C   UNL A   1      47.321  28.701  31.102  1.00  0.00     0.029 A 
ATOM     62  N   UNL A   1      47.380  26.509  31.029  1.00  0.00    -0.354 N 
ATOM     63  N   UNL A   1      45.869  24.436  27.536  1.00  0.00    -0.248 NA
ATOM     64  C   UNL A   1      44.945  23.413  29.419  1.00  0.00     0.031 C 
ATOM     65  C   UNL A   1      47.746  28.278  29.811  1.00  0.00     0.029 A 
ATOM     66  C   UNL A   1      47.511  26.906  29.726  1.00  0.00     0.049 A 
ATOM     67  H   UNL A   1      47.630  25.633  31.403  1.00  0.00     0.167 HD
ATOM     68  C   UNL A   1      46.549  24.895  28.652  1.00  0.00     0.074 A 
ATOM     69  C   UNL A   1      46.003  24.142  29.773  1.00  0.00     0.031 C 
ATOM     70  C   UNL A   1      47.290  26.037  28.599  1.00  0.00     0.037 A 
BRANCH  57  71
ATOM     71  C   UNL A   1      45.941  26.343  33.812  1.00  0.00     0.064 A 
ATOM     72  C   UNL A   1      45.320  25.084  33.757  1.00  0.00     0.173 A 
ATOM     73  C   UNL A   1      46.424  26.735  35.082  1.00  0.00     0.173 A 
ATOM     74  F   UNL A   1      44.794  24.631  32.609  1.00  0.00    -0.203 F 
ATOM     75  C   UNL A   1      45.135  24.307  34.903  1.00  0.00     0.198 A 
ATOM     76  C   UNL A   1      46.295  25.929  36.209  1.00  0.00     0.198 A 
ATOM     77  F   UNL A   1      46.931  27.953  35.310  1.00  0.00    -0.203 F 
ATOM     78  F   UNL A   1      44.420  23.177  34.829  1.00  0.00    -0.200 F 
ATOM     79  C   UNL A   1      45.620  24.731  36.127  1.00  0.00     0.200 A 
ATOM     80  F   UNL A   1      46.753  26.370  37.389  1.00  0.00    -0.200 F 
ATOM     81  F   UNL A   1      45.391  24.016  37.236  1.00  0.00    -0.200 F 
ENDBRANCH  57  71
BRANCH  58  82
ATOM     82  C   UNL A   1      42.957  22.427  26.910  1.00  0.00     0.064 A 
ATOM     83  C   UNL A   1      43.505  21.752  25.801  1.00  0.00     0.173 A 
ATOM     84  C   UNL A   1      42.064  21.684  27.704  1.00  0.00     0.173 A 
ATOM     85  F   UNL A   1      44.402  22.362  25.013  1.00  0.00    -0.203 F 
ATOM     86  C   UNL A   1      43.197  20.415  25.522  1.00  0.00     0.198 A 
ATOM     87  C   UNL A   1      41.747  20.354  27.417  1.00  0.00     0.198 A 
ATOM     88  F   UNL A   1      41.554  22.201  28.830  1.00  0.00    -0.203 F 
ATOM     89  F   UNL A   1      43.792  19.790  24.496  1.00  0.00    -0.200 F 
ATOM     90  C   UNL A   1      42.324  19.715  26.336  1.00  0.00     0.200 A 
ATOM     91  F   UNL A   1      40.927  19.677  28.234  1.00  0.00    -0.200 F 
ATOM     92  F   UNL A   1      42.072  18.419  26.106  1.00  0.00    -0.200 F 
ENDBRANCH  58  82
BRANCH  70  93
ATOM     93  C   UNL A   1      47.653  26.582  27.253  1.00  0.00     0.064 A 
ATOM     94  C   UNL A   1      48.795  26.195  26.533  1.00  0.00     0.173 A 
ATOM     95  C   UNL A   1      46.713  27.392  26.600  1.00  0.00     0.173 A 
ATOM     96  F   UNL A   1      49.690  25.344  27.057  1.00  0.00    -0.203 F 
ATOM     97  C   UNL A   1      48.994  26.627  25.225  1.00  0.00     0.198 A 
ATOM     98  C   UNL A   1      46.896  27.787  25.280  1.00  0.00     0.198 A 
ATOM     99  F   UNL A   1      45.582  27.750  27.229  1.00  0.00    -0.203 F 
ATOM    100  F   UNL A   1      50.093  26.250  24.556  1.00  0.00    -0.200 F 
ATOM    101  C   UNL A   1      48.039  27.409  24.594  1.00  0.00     0.200 A 
ATOM    102  F   UNL A   1      45.947  28.503  24.660  1.00  0.00    -0.200 F 
ATOM    103  F   UNL A   1      48.203  27.769  23.314  1.00  0.00    -0.200 F 
ENDBRANCH  70  93
ENDBRANCH  44  45
ENDBRANCH  37  39
ENDBRANCH  36  37
ENDBRANCH  35  36
ENDBRANCH  34  35
ENDBRANCH  33  34
ENDBRANCH  32  33
ENDBRANCH  31  32
ENDBRANCH  30  31
ENDBRANCH   1  30
TORSDOF 24
ENDMDL
MODEL 3
REMARK VINA RESULT:      -9.1      5.893     11.379
REMARK SMILES COc1ccc2c(c1)c(CC(=O)OCCOCCOCCOCCOC(=O)c1ccc(-c3c4nc(c(-c5c(F)c(F)c(F)c(F)c5F)c5ccc([nH]5)c(-c5c(F)c(F)c(F)c(F)c5F)c5nc(c(-c6c(F)c(F)c(F)c(F)c6F)c6ccc3[nH]6)C=C5)C=C4)cc1)c(C)n2Cc1ccc(Br)cc1
REMARK SMILES IDX 18 1 17 2 16 3 15 4 14 5 13 6 11 7 12 8 10 9 9 10 3 11 4 12
REMARK SMILES IDX 8 13 5 14 7 15 6 16 93 17 91 18 92 19 2 20 1 21 94 22 95 23
REMARK SMILES IDX 96 24 101 25 97 26 100 27 98 28 99 29 19 30 20 31 21 32
REMARK SMILES IDX 22 33 23 34 24 35 25 36 26 37 27 38 28 39 29 40 90 41 30 42
REMARK SMILES IDX 89 43 31 44 32 45 33 46 83 47 34 48 88 49 82 50 84 51 35 52
REMARK SMILES IDX 87 53 81 54 80 55 36 57 68 58 48 59 67 60 49 61 52 62 66 63
REMARK SMILES IDX 85 64 50 65 51 66 65 68 86 69 53 70 37 71 38 72 46 73 39 74
REMARK SMILES IDX 40 75 44 76 47 77 41 78 42 79 45 80 43 81 69 82 70 83 78 84
REMARK SMILES IDX 71 85 72 86 76 87 79 88 73 89 74 90 77 91 75 92 54 93 55 94
REMARK SMILES IDX 63 95 56 96 57 97 61 98 64 99 58 100 59 101 62 102 60 103
REMARK H PARENT 84 56 52 67
REMARK Flexibility Score: inf
ROOT
ATOM      1  C   UNL A   1      41.603  33.347  34.471  1.00  0.00     0.188 C 
ENDROOT
BRANCH   1   2
ATOM      2  C   UNL A   1      42.552  34.517  34.701  1.00  0.00     0.188 C 
BRANCH   2   3
ATOM      3  O   UNL A   1      42.478  35.508  33.694  1.00  0.00    -0.376 OA
BRANCH   3   4
ATOM      4  C   UNL A   1      43.618  35.748  32.886  1.00  0.00     0.202 C 
BRANCH   4   5
ATOM      5  C   UNL A   1      43.644  35.325  31.400  1.00  0.00     0.261 C 
BRANCH   5   6
ATOM      6  O   UNL A   1      42.793  36.030  30.472  1.00  0.00    -0.463 OA
BRANCH   6   7
ATOM      7  C   UNL A   1      42.496  35.464  29.280  1.00  0.00     0.310 C 
ATOM      8  O   UNL A   1      42.492  34.248  29.109  1.00  0.00    -0.252 OA
BRANCH   7   9
ATOM      9  C   UNL A   1      42.050  36.434  28.176  1.00  0.00     0.160 C 
BRANCH   9  10
ATOM     10  C   UNL A   1      43.042  37.407  27.558  1.00  0.00    -0.008 A 
ATOM     11  C   UNL A   1      41.545  40.680  26.201  1.00  0.00     0.119 A 
ATOM     12  C   UNL A   1      42.757  41.315  25.973  1.00  0.00     0.048 A 
ATOM     13  C   UNL A   1      41.539  39.340  26.614  1.00  0.00     0.057 A 
ATOM     14  C   UNL A   1      43.973  40.636  26.169  1.00  0.00     0.031 A 
ATOM     15  C   UNL A   1      42.742  38.664  26.926  1.00  0.00     0.007 A 
ATOM     16  C   UNL A   1      43.949  39.306  26.641  1.00  0.00     0.049 A 
ATOM     17  N   UNL A   1      44.962  38.382  26.877  1.00  0.00    -0.340 N 
ATOM     18  C   UNL A   1      44.389  37.185  27.299  1.00  0.00     0.020 A 
ATOM     19  C   UNL A   1      45.112  35.889  27.399  1.00  0.00     0.065 C 
BRANCH  11  20
ATOM     20  O   UNL A   1      40.300  41.240  26.110  1.00  0.00    -0.497 OA
ATOM     21  C   UNL A   1      39.608  41.564  27.310  1.00  0.00     0.278 C 
ENDBRANCH  11  20
BRANCH  17  22
ATOM     22  C   UNL A   1      46.361  38.587  26.461  1.00  0.00     0.157 C 
BRANCH  22  23
ATOM     23  C   UNL A   1      47.222  39.362  27.438  1.00  0.00    -0.028 A 
ATOM     24  C   UNL A   1      47.652  40.666  27.149  1.00  0.00     0.007 A 
ATOM     25  C   UNL A   1      47.555  38.830  28.695  1.00  0.00     0.007 A 
ATOM     26  C   UNL A   1      48.451  41.390  28.037  1.00  0.00     0.016 A 
ATOM     27  C   UNL A   1      48.324  39.567  29.607  1.00  0.00     0.016 A 
ATOM     28  C   UNL A   1      48.787  40.835  29.263  1.00  0.00     0.017 A 
ATOM     29  Br  UNL A   1      49.864  41.816  30.465  1.00  0.00    -0.051 Br
ENDBRANCH  22  23
ENDBRANCH  17  22
ENDBRANCH   9  10
ENDBRANCH   7   9
ENDBRANCH   6   7
ENDBRANCH   5   6
ENDBRANCH   4   5
ENDBRANCH   3   4
ENDBRANCH   2   3
ENDBRANCH   1   2
BRANCH   1  30
ATOM     30  O   UNL A   1      40.603  33.367  33.490  1.00  0.00    -0.377 OA
BRANCH  30  31
ATOM     31  C   UNL A   1      39.281  33.186  33.899  1.00  0.00     0.188 C 
BRANCH  31  32
ATOM     32  C   UNL A   1      38.484  34.491  33.962  1.00  0.00     0.188 C 
BRANCH  32  33
ATOM     33  O   UNL A   1      37.123  34.568  33.536  1.00  0.00    -0.376 OA
BRANCH  33  34
ATOM     34  C   UNL A   1      36.117  33.773  34.148  1.00  0.00     0.202 C 
BRANCH  34  35
ATOM     35  C   UNL A   1      34.779  33.576  33.406  1.00  0.00     0.261 C 
BRANCH  35  36
ATOM     36  O   UNL A   1      34.809  32.554  32.404  1.00  0.00    -0.460 OA
BRANCH  36  37
ATOM     37  C   UNL A   1      34.885  32.943  31.101  1.00  0.00     0.338 C 
ATOM     38  O   UNL A   1      34.341  33.875  30.569  1.00  0.00    -0.246 OA
BRANCH  37  39
ATOM     39  C   UNL A   1      36.038  32.192  30.538  1.00  0.00     0.060 A 
ATOM     40  C   UNL A   1      36.041  30.795  30.495  1.00  0.00     0.016 A 
ATOM     41  C   UNL A   1      37.231  32.916  30.402  1.00  0.00     0.016 A 
ATOM     42  C   UNL A   1      37.269  30.131  30.489  1.00  0.00     0.010 A 
ATOM     43  C   UNL A   1      38.456  32.248  30.408  1.00  0.00     0.010 A 
ATOM     44  C   UNL A   1      38.480  30.855  30.507  1.00  0.00    -0.014 A 
BRANCH  44  45
ATOM     45  C   UNL A   1      39.724  30.095  30.318  1.00  0.00     0.031 A 
ATOM     46  C   UNL A   1      40.458  29.949  31.605  1.00  0.00     0.074 A 
ATOM     47  C   UNL A   1      40.157  29.414  29.235  1.00  0.00     0.049 A 
ATOM     48  N   UNL A   1      41.658  30.329  31.900  1.00  0.00    -0.248 NA
ATOM     49  C   UNL A   1      39.682  29.431  32.745  1.00  0.00     0.031 C 
ATOM     50  C   UNL A   1      39.457  29.151  27.980  1.00  0.00     0.029 A 
ATOM     51  N   UNL A   1      41.331  28.714  29.084  1.00  0.00    -0.354 N 
ATOM     52  C   UNL A   1      41.837  29.972  33.233  1.00  0.00     0.074 A 
ATOM     53  C   UNL A   1      40.552  29.570  33.740  1.00  0.00     0.031 C 
ATOM     54  C   UNL A   1      40.124  28.196  27.287  1.00  0.00     0.029 A 
ATOM     55  C   UNL A   1      41.349  27.850  27.995  1.00  0.00     0.049 A 
ATOM     56  H   UNL A   1      42.094  28.815  29.696  1.00  0.00     0.167 HD
ATOM     57  C   UNL A   1      43.069  29.812  33.778  1.00  0.00     0.037 A 
ATOM     58  C   UNL A   1      42.263  26.878  27.733  1.00  0.00     0.037 A 
ATOM     59  C   UNL A   1      44.083  30.507  33.037  1.00  0.00     0.049 A 
ATOM     60  C   UNL A   1      43.474  27.151  28.545  1.00  0.00     0.074 A 
ATOM     61  C   UNL A   1      44.295  31.827  32.686  1.00  0.00     0.029 A 
ATOM     62  N   UNL A   1      44.943  29.774  32.261  1.00  0.00    -0.354 N 
ATOM     63  N   UNL A   1      44.329  28.103  28.310  1.00  0.00    -0.248 NA
ATOM     64  C   UNL A   1      43.563  26.541  29.864  1.00  0.00     0.031 C 
ATOM     65  C   UNL A   1      44.921  31.779  31.408  1.00  0.00     0.029 A 
ATOM     66  C   UNL A   1      45.069  30.434  31.069  1.00  0.00     0.049 A 
ATOM     67  H   UNL A   1      45.387  28.932  32.514  1.00  0.00     0.167 HD
ATOM     68  C   UNL A   1      44.769  28.493  29.564  1.00  0.00     0.074 A 
ATOM     69  C   UNL A   1      44.355  27.427  30.467  1.00  0.00     0.031 C 
ATOM     70  C   UNL A   1      45.180  29.771  29.795  1.00  0.00     0.037 A 
BRANCH  57  71
ATOM     71  C   UNL A   1      43.381  28.725  34.771  1.00  0.00     0.064 A 
ATOM     72  C   UNL A   1      44.015  29.058  35.980  1.00  0.00     0.173 A 
ATOM     73  C   UNL A   1      43.350  27.348  34.452  1.00  0.00     0.173 A 
ATOM     74  F   UNL A   1      44.133  30.339  36.360  1.00  0.00    -0.203 F 
ATOM     75  C   UNL A   1      44.634  28.089  36.774  1.00  0.00     0.198 A 
ATOM     76  C   UNL A   1      43.911  26.380  35.279  1.00  0.00     0.198 A 
ATOM     77  F   UNL A   1      42.886  26.895  33.282  1.00  0.00    -0.203 F 
ATOM     78  F   UNL A   1      45.342  28.465  37.847  1.00  0.00    -0.200 F 
ATOM     79  C   UNL A   1      44.583  26.752  36.423  1.00  0.00     0.200 A 
ATOM     80  F   UNL A   1      43.869  25.093  34.907  1.00  0.00    -0.200 F 
ATOM     81  F   UNL A   1      45.225  25.830  37.151  1.00  0.00    -0.200 F 
ENDBRANCH  57  71
BRANCH  58  82
ATOM     82  C   UNL A   1      42.119  25.594  26.993  1.00  0.00     0.064 A 
ATOM     83  C   UNL A   1      42.892  25.317  25.848  1.00  0.00     0.173 A 
ATOM     84  C   UNL A   1      41.424  24.504  27.547  1.00  0.00     0.173 A 
ATOM     85  F   UNL A   1      43.628  26.282  25.277  1.00  0.00    -0.203 F 
ATOM     86  C   UNL A   1      42.981  24.028  25.309  1.00  0.00     0.198 A 
ATOM     87  C   UNL A   1      41.504  23.220  27.001  1.00  0.00     0.198 A 
ATOM     88  F   UNL A   1      40.731  24.638  28.685  1.00  0.00    -0.203 F 
ATOM     89  F   UNL A   1      43.781  23.793  24.259  1.00  0.00    -0.200 F 
ATOM     90  C   UNL A   1      42.292  22.978  25.892  1.00  0.00     0.200 A 
ATOM     91  F   UNL A   1      40.859  22.206  27.596  1.00  0.00    -0.200 F 
ATOM     92  F   UNL A   1      42.421  21.733  25.415  1.00  0.00    -0.200 F 
ENDBRANCH  58  82
BRANCH  70  93
ATOM     93  C   UNL A   1      45.492  30.638  28.615  1.00  0.00     0.064 A 
ATOM     94  C   UNL A   1      44.524  31.356  27.894  1.00  0.00     0.173 A 
ATOM     95  C   UNL A   1      46.841  30.884  28.323  1.00  0.00     0.173 A 
ATOM     96  F   UNL A   1      43.219  31.246  28.183  1.00  0.00    -0.203 F 
ATOM     97  C   UNL A   1      44.899  32.260  26.904  1.00  0.00     0.198 A 
ATOM     98  C   UNL A   1      47.211  31.818  27.362  1.00  0.00     0.198 A 
ATOM     99  F   UNL A   1      47.804  30.257  29.018  1.00  0.00    -0.203 F 
ATOM    100  F   UNL A   1      43.960  32.933  26.223  1.00  0.00    -0.200 F 
ATOM    101  C   UNL A   1      46.240  32.502  26.650  1.00  0.00     0.200 A 
ATOM    102  F   UNL A   1      48.508  32.083  27.154  1.00  0.00    -0.200 F 
ATOM    103  F   UNL A   1      46.597  33.421  25.741  1.00  0.00    -0.200 F 
ENDBRANCH  70  93
ENDBRANCH  44  45
ENDBRANCH  37  39
ENDBRANCH  36  37
ENDBRANCH  35  36
ENDBRANCH  34  35
ENDBRANCH  33  34
ENDBRANCH  32  33
ENDBRANCH  31  32
ENDBRANCH  30  31
ENDBRANCH   1  30
TORSDOF 24
ENDMDL
