MODEL 1
REMARK VINA RESULT:     -10.6      0.000      0.000
REMARK SMILES CC[C@@H]1CCC[C@@](Cc2cccc(O)c2)(C(=O)OCCOCCOCCOCCOC(=O)c2ccc(-c3c4nc(c(-c5c(F)c(F)c(F)c(F)c5F)c5ccc([nH]5)c(-c5c(F)c(F)c(F)c(F)c5F)c5nc(c(-c6c(F)c(F)c(F)c(F)c6F)c6ccc3[nH]6)C=C5)C=C4)cc2)C1
REMARK SMILES IDX 23 1 22 2 21 3 20 4 19 5 18 6 16 7 17 8 7 9 3 10 4 11 96 12
REMARK SMILES IDX 5 13 6 14 2 15 1 16 8 17 9 18 10 19 15 20 11 21 13 22 12 23
REMARK SMILES IDX 14 24 24 26 25 27 26 28 27 29 28 30 29 31 30 32 31 33 32 34
REMARK SMILES IDX 33 35 34 36 95 37 35 38 94 39 36 40 37 41 38 42 88 43 39 44
REMARK SMILES IDX 93 45 87 46 89 47 40 48 92 49 86 50 85 51 41 53 73 54 53 55
REMARK SMILES IDX 72 56 54 57 57 58 71 59 90 60 55 61 56 62 70 64 91 65 58 66
REMARK SMILES IDX 42 67 43 68 51 69 44 70 45 71 49 72 52 73 46 74 47 75 50 76
REMARK SMILES IDX 48 77 74 78 75 79 83 80 76 81 77 82 81 83 84 84 78 85 79 86
REMARK SMILES IDX 82 87 80 88 59 89 60 90 68 91 61 92 62 93 66 94 69 95 63 96
REMARK SMILES IDX 64 97 67 98 65 99
REMARK H PARENT 14 25 89 52 57 63
REMARK Flexibility Score: inf
ROOT
ATOM      1  C   UNL A   1      35.318  22.029  25.887  1.00  0.00     0.188 C 
ENDROOT
BRANCH   1   2
ATOM      2  C   UNL A   1      34.012  21.600  25.232  1.00  0.00     0.188 C 
BRANCH   2   3
ATOM      3  O   UNL A   1      32.861  21.445  26.041  1.00  0.00    -0.376 OA
BRANCH   3   4
ATOM      4  C   UNL A   1      31.604  21.901  25.554  1.00  0.00     0.202 C 
BRANCH   4   5
ATOM      5  C   UNL A   1      30.750  22.833  26.430  1.00  0.00     0.261 C 
BRANCH   5   6
ATOM      6  O   UNL A   1      31.227  24.196  26.582  1.00  0.00    -0.463 OA
BRANCH   6   7
ATOM      7  C   UNL A   1      30.412  25.191  26.138  1.00  0.00     0.312 C 
ATOM      8  O   UNL A   1      29.249  25.312  26.517  1.00  0.00    -0.252 OA
BRANCH   7   9
ATOM      9  C   UNL A   1      31.015  26.106  25.033  1.00  0.00     0.072 C 
ATOM     10  C   UNL A   1      32.297  27.814  26.538  1.00  0.00    -0.010 C 
ATOM     11  C   UNL A   1      33.588  27.630  25.740  1.00  0.00     0.003 C 
ATOM     12  C   UNL A   1      31.079  27.562  25.617  1.00  0.00     0.022 C 
ATOM     13  C   UNL A   1      33.686  26.293  25.019  1.00  0.00     0.001 C 
ATOM     14  C   UNL A   1      32.392  25.752  24.404  1.00  0.00     0.019 C 
BRANCH  10  15
ATOM     15  C   UNL A   1      32.203  29.151  27.319  1.00  0.00     0.000 C 
ATOM     16  C   UNL A   1      33.261  30.207  27.032  1.00  0.00     0.004 C 
ENDBRANCH  10  15
BRANCH   9  17
ATOM     17  C   UNL A   1      29.923  26.037  23.892  1.00  0.00     0.054 C 
BRANCH  17  18
ATOM     18  C   UNL A   1      29.460  27.394  23.368  1.00  0.00    -0.043 A 
ATOM     19  C   UNL A   1      28.138  27.829  23.542  1.00  0.00     0.004 A 
ATOM     20  C   UNL A   1      30.328  28.205  22.623  1.00  0.00     0.049 A 
ATOM     21  C   UNL A   1      27.658  28.961  22.877  1.00  0.00     0.004 A 
ATOM     22  C   UNL A   1      29.856  29.363  22.010  1.00  0.00     0.115 A 
ATOM     23  C   UNL A   1      28.517  29.729  22.098  1.00  0.00     0.046 A 
BRANCH  22  24
ATOM     24  O   UNL A   1      30.745  30.119  21.305  1.00  0.00    -0.508 OA
ATOM     25  H   UNL A   1      30.751  31.051  21.404  1.00  0.00     0.293 HD
ENDBRANCH  22  24
ENDBRANCH  17  18
ENDBRANCH   9  17
ENDBRANCH   7   9
ENDBRANCH   6   7
ENDBRANCH   5   6
ENDBRANCH   4   5
ENDBRANCH   3   4
ENDBRANCH   2   3
ENDBRANCH   1   2
BRANCH   1  26
ATOM     26  O   UNL A   1      36.154  22.860  25.126  1.00  0.00    -0.377 OA
BRANCH  26  27
ATOM     27  C   UNL A   1      36.916  23.831  25.802  1.00  0.00     0.188 C 
BRANCH  27  28
ATOM     28  C   UNL A   1      38.368  23.472  26.119  1.00  0.00     0.188 C 
BRANCH  28  29
ATOM     29  O   UNL A   1      38.740  22.116  26.339  1.00  0.00    -0.376 OA
BRANCH  29  30
ATOM     30  C   UNL A   1      38.582  21.094  25.367  1.00  0.00     0.202 C 
BRANCH  30  31
ATOM     31  C   UNL A   1      39.398  19.796  25.379  1.00  0.00     0.261 C 
BRANCH  31  32
ATOM     32  O   UNL A   1      40.218  19.579  26.526  1.00  0.00    -0.460 OA
BRANCH  32  33
ATOM     33  C   UNL A   1      41.537  19.438  26.264  1.00  0.00     0.338 C 
ATOM     34  O   UNL A   1      42.091  18.496  25.735  1.00  0.00    -0.246 OA
BRANCH  33  35
ATOM     35  C   UNL A   1      42.215  20.703  26.598  1.00  0.00     0.060 A 
ATOM     36  C   UNL A   1      42.214  21.135  27.930  1.00  0.00     0.016 A 
ATOM     37  C   UNL A   1      42.789  21.483  25.593  1.00  0.00     0.016 A 
ATOM     38  C   UNL A   1      42.752  22.376  28.259  1.00  0.00     0.010 A 
ATOM     39  C   UNL A   1      43.303  22.737  25.918  1.00  0.00     0.010 A 
ATOM     40  C   UNL A   1      43.247  23.201  27.245  1.00  0.00    -0.014 A 
BRANCH  40  41
ATOM     41  C   UNL A   1      43.508  24.629  27.529  1.00  0.00     0.031 A 
ATOM     42  C   UNL A   1      44.935  25.096  27.554  1.00  0.00     0.074 A 
ATOM     43  C   UNL A   1      42.499  25.485  27.749  1.00  0.00     0.049 A 
ATOM     44  N   UNL A   1      45.422  26.268  27.865  1.00  0.00    -0.248 NA
ATOM     45  C   UNL A   1      45.954  24.099  27.184  1.00  0.00     0.031 C 
ATOM     46  C   UNL A   1      41.079  25.149  27.696  1.00  0.00     0.029 A 
ATOM     47  N   UNL A   1      42.522  26.816  28.077  1.00  0.00    -0.354 N 
ATOM     48  C   UNL A   1      46.801  26.146  27.741  1.00  0.00     0.074 A 
ATOM     49  C   UNL A   1      47.076  24.780  27.358  1.00  0.00     0.031 C 
ATOM     50  C   UNL A   1      40.362  26.244  28.002  1.00  0.00     0.029 A 
ATOM     51  C   UNL A   1      41.276  27.343  28.310  1.00  0.00     0.049 A 
ATOM     52  H   UNL A   1      43.351  27.343  28.138  1.00  0.00     0.167 HD
ATOM     53  C   UNL A   1      47.748  27.095  27.926  1.00  0.00     0.037 A 
ATOM     54  C   UNL A   1      40.926  28.565  28.753  1.00  0.00     0.037 A 
ATOM     55  C   UNL A   1      47.460  28.451  28.311  1.00  0.00     0.049 A 
ATOM     56  C   UNL A   1      42.006  29.581  29.034  1.00  0.00     0.074 A 
ATOM     57  C   UNL A   1      48.340  29.498  28.510  1.00  0.00     0.029 A 
ATOM     58  N   UNL A   1      46.187  28.943  28.566  1.00  0.00    -0.354 N 
ATOM     59  N   UNL A   1      43.306  29.470  28.895  1.00  0.00    -0.248 NA
ATOM     60  C   UNL A   1      41.568  30.893  29.530  1.00  0.00     0.031 C 
ATOM     61  C   UNL A   1      47.609  30.605  28.948  1.00  0.00     0.029 A 
ATOM     62  C   UNL A   1      46.263  30.271  28.953  1.00  0.00     0.049 A 
ATOM     63  H   UNL A   1      45.354  28.425  28.484  1.00  0.00     0.167 HD
ATOM     64  C   UNL A   1      43.836  30.704  29.252  1.00  0.00     0.074 A 
ATOM     65  C   UNL A   1      42.716  31.551  29.602  1.00  0.00     0.031 C 
ATOM     66  C   UNL A   1      45.133  31.101  29.287  1.00  0.00     0.037 A 
BRANCH  53  67
ATOM     67  C   UNL A   1      49.183  26.688  27.751  1.00  0.00     0.064 A 
ATOM     68  C   UNL A   1      49.795  26.652  26.489  1.00  0.00     0.173 A 
ATOM     69  C   UNL A   1      49.964  26.354  28.867  1.00  0.00     0.173 A 
ATOM     70  F   UNL A   1      49.089  26.945  25.386  1.00  0.00    -0.203 F 
ATOM     71  C   UNL A   1      51.127  26.269  26.349  1.00  0.00     0.198 A 
ATOM     72  C   UNL A   1      51.305  26.006  28.727  1.00  0.00     0.198 A 
ATOM     73  F   UNL A   1      49.430  26.374  30.098  1.00  0.00    -0.203 F 
ATOM     74  F   UNL A   1      51.675  26.191  25.128  1.00  0.00    -0.200 F 
ATOM     75  C   UNL A   1      51.883  25.956  27.468  1.00  0.00     0.200 A 
ATOM     76  F   UNL A   1      52.037  25.717  29.812  1.00  0.00    -0.200 F 
ATOM     77  F   UNL A   1      53.167  25.596  27.333  1.00  0.00    -0.200 F 
ENDBRANCH  53  67
BRANCH  54  78
ATOM     78  C   UNL A   1      39.493  28.893  28.978  1.00  0.00     0.064 A 
ATOM     79  C   UNL A   1      38.695  29.396  27.940  1.00  0.00     0.173 A 
ATOM     80  C   UNL A   1      38.896  28.729  30.236  1.00  0.00     0.173 A 
ATOM     81  F   UNL A   1      39.225  29.592  26.724  1.00  0.00    -0.203 F 
ATOM     82  C   UNL A   1      37.364  29.744  28.159  1.00  0.00     0.198 A 
ATOM     83  C   UNL A   1      37.555  29.044  30.445  1.00  0.00     0.198 A 
ATOM     84  F   UNL A   1      39.612  28.249  31.264  1.00  0.00    -0.203 F 
ATOM     85  F   UNL A   1      36.639  30.273  27.163  1.00  0.00    -0.200 F 
ATOM     86  C   UNL A   1      36.793  29.562  29.410  1.00  0.00     0.200 A 
ATOM     87  F   UNL A   1      37.004  28.848  31.651  1.00  0.00    -0.200 F 
ATOM     88  F   UNL A   1      35.512  29.893  29.619  1.00  0.00    -0.200 F 
ENDBRANCH  54  78
BRANCH  66  89
ATOM     89  C   UNL A   1      45.410  32.528  29.669  1.00  0.00     0.064 A 
ATOM     90  C   UNL A   1      45.410  33.563  28.723  1.00  0.00     0.173 A 
ATOM     91  C   UNL A   1      45.629  32.869  31.013  1.00  0.00     0.173 A 
ATOM     92  F   UNL A   1      45.218  33.289  27.423  1.00  0.00    -0.203 F 
ATOM     93  C   UNL A   1      45.648  34.881  29.102  1.00  0.00     0.198 A 
ATOM     94  C   UNL A   1      45.830  34.192  31.395  1.00  0.00     0.198 A 
ATOM     95  F   UNL A   1      45.629  31.920  31.962  1.00  0.00    -0.203 F 
ATOM     96  F   UNL A   1      45.697  35.845  28.174  1.00  0.00    -0.200 F 
ATOM     97  C   UNL A   1      45.848  35.196  30.439  1.00  0.00     0.200 A 
ATOM     98  F   UNL A   1      46.004  34.496  32.689  1.00  0.00    -0.200 F 
ATOM     99  F   UNL A   1      46.066  36.467  30.803  1.00  0.00    -0.200 F 
ENDBRANCH  66  89
ENDBRANCH  40  41
ENDBRANCH  33  35
ENDBRANCH  32  33
ENDBRANCH  31  32
ENDBRANCH  30  31
ENDBRANCH  29  30
ENDBRANCH  28  29
ENDBRANCH  27  28
ENDBRANCH  26  27
ENDBRANCH   1  26
TORSDOF 24
ENDMDL
MODEL 2
REMARK VINA RESULT:     -10.6      4.642     10.256
REMARK SMILES CC[C@@H]1CCC[C@@](Cc2cccc(O)c2)(C(=O)OCCOCCOCCOCCOC(=O)c2ccc(-c3c4nc(c(-c5c(F)c(F)c(F)c(F)c5F)c5ccc([nH]5)c(-c5c(F)c(F)c(F)c(F)c5F)c5nc(c(-c6c(F)c(F)c(F)c(F)c6F)c6ccc3[nH]6)C=C5)C=C4)cc2)C1
REMARK SMILES IDX 23 1 22 2 21 3 20 4 19 5 18 6 16 7 17 8 7 9 3 10 4 11 96 12
REMARK SMILES IDX 5 13 6 14 2 15 1 16 8 17 9 18 10 19 15 20 11 21 13 22 12 23
REMARK SMILES IDX 14 24 24 26 25 27 26 28 27 29 28 30 29 31 30 32 31 33 32 34
REMARK SMILES IDX 33 35 34 36 95 37 35 38 94 39 36 40 37 41 38 42 88 43 39 44
REMARK SMILES IDX 93 45 87 46 89 47 40 48 92 49 86 50 85 51 41 53 73 54 53 55
REMARK SMILES IDX 72 56 54 57 57 58 71 59 90 60 55 61 56 62 70 64 91 65 58 66
REMARK SMILES IDX 42 67 43 68 51 69 44 70 45 71 49 72 52 73 46 74 47 75 50 76
REMARK SMILES IDX 48 77 74 78 75 79 83 80 76 81 77 82 81 83 84 84 78 85 79 86
REMARK SMILES IDX 82 87 80 88 59 89 60 90 68 91 61 92 62 93 66 94 69 95 63 96
REMARK SMILES IDX 64 97 67 98 65 99
REMARK H PARENT 14 25 89 52 57 63
REMARK Flexibility Score: inf
ROOT
ATOM      1  C   UNL A   1      33.993  28.267  22.511  1.00  0.00     0.188 C 
ENDROOT
BRANCH   1   2
ATOM      2  C   UNL A   1      33.216  26.965  22.377  1.00  0.00     0.188 C 
BRANCH   2   3
ATOM      3  O   UNL A   1      33.654  26.002  21.437  1.00  0.00    -0.376 OA
BRANCH   3   4
ATOM      4  C   UNL A   1      32.871  24.833  21.224  1.00  0.00     0.202 C 
BRANCH   4   5
ATOM      5  C   UNL A   1      33.214  23.545  21.991  1.00  0.00     0.261 C 
BRANCH   5   6
ATOM      6  O   UNL A   1      32.268  23.128  23.011  1.00  0.00    -0.463 OA
BRANCH   6   7
ATOM      7  C   UNL A   1      32.609  23.366  24.307  1.00  0.00     0.312 C 
ATOM      8  O   UNL A   1      32.664  24.499  24.779  1.00  0.00    -0.252 OA
BRANCH   7   9
ATOM      9  C   UNL A   1      33.033  22.113  25.127  1.00  0.00     0.072 C 
ATOM     10  C   UNL A   1      35.620  22.480  25.166  1.00  0.00    -0.010 C 
ATOM     11  C   UNL A   1      35.677  22.301  26.683  1.00  0.00     0.003 C 
ATOM     12  C   UNL A   1      34.438  21.661  24.591  1.00  0.00     0.022 C 
ATOM     13  C   UNL A   1      34.368  22.615  27.393  1.00  0.00     0.001 C 
ATOM     14  C   UNL A   1      33.083  22.186  26.679  1.00  0.00     0.019 C 
BRANCH  10  15
ATOM     15  C   UNL A   1      36.959  22.212  24.430  1.00  0.00     0.000 C 
ATOM     16  C   UNL A   1      37.869  21.132  25.001  1.00  0.00     0.004 C 
ENDBRANCH  10  15
BRANCH   9  17
ATOM     17  C   UNL A   1      31.940  21.045  24.721  1.00  0.00     0.054 C 
BRANCH  17  18
ATOM     18  C   UNL A   1      32.492  19.663  24.383  1.00  0.00    -0.043 A 
ATOM     19  C   UNL A   1      32.528  19.198  23.060  1.00  0.00     0.004 A 
ATOM     20  C   UNL A   1      32.899  18.789  25.400  1.00  0.00     0.049 A 
ATOM     21  C   UNL A   1      32.823  17.862  22.774  1.00  0.00     0.004 A 
ATOM     22  C   UNL A   1      33.247  17.473  25.100  1.00  0.00     0.115 A 
ATOM     23  C   UNL A   1      33.176  16.990  23.799  1.00  0.00     0.046 A 
BRANCH  22  24
ATOM     24  O   UNL A   1      33.644  16.669  26.127  1.00  0.00    -0.508 OA
ATOM     25  H   UNL A   1      34.532  16.696  26.428  1.00  0.00     0.293 HD
ENDBRANCH  22  24
ENDBRANCH  17  18
ENDBRANCH   9  17
ENDBRANCH   7   9
ENDBRANCH   6   7
ENDBRANCH   5   6
ENDBRANCH   4   5
ENDBRANCH   3   4
ENDBRANCH   2   3
ENDBRANCH   1   2
BRANCH   1  26
ATOM     26  O   UNL A   1      33.653  29.087  23.598  1.00  0.00    -0.377 OA
BRANCH  26  27
ATOM     27  C   UNL A   1      32.557  28.710  24.395  1.00  0.00     0.188 C 
BRANCH  27  28
ATOM     28  C   UNL A   1      31.345  29.642  24.388  1.00  0.00     0.188 C 
BRANCH  28  29
ATOM     29  O   UNL A   1      31.015  30.398  25.549  1.00  0.00    -0.376 OA
BRANCH  29  30
ATOM     30  C   UNL A   1      31.980  30.869  26.475  1.00  0.00     0.202 C 
BRANCH  30  31
ATOM     31  C   UNL A   1      32.117  32.347  26.860  1.00  0.00     0.261 C 
BRANCH  31  32
ATOM     32  O   UNL A   1      32.843  32.621  28.057  1.00  0.00    -0.460 OA
BRANCH  32  33
ATOM     33  C   UNL A   1      33.930  33.409  27.894  1.00  0.00     0.338 C 
ATOM     34  O   UNL A   1      33.955  34.593  27.628  1.00  0.00    -0.246 OA
BRANCH  33  35
ATOM     35  C   UNL A   1      35.129  32.623  28.239  1.00  0.00     0.060 A 
ATOM     36  C   UNL A   1      34.983  31.256  28.504  1.00  0.00     0.016 A 
ATOM     37  C   UNL A   1      36.370  33.247  28.362  1.00  0.00     0.016 A 
ATOM     38  C   UNL A   1      36.076  30.511  28.936  1.00  0.00     0.010 A 
ATOM     39  C   UNL A   1      37.459  32.507  28.821  1.00  0.00     0.010 A 
ATOM     40  C   UNL A   1      37.303  31.148  29.147  1.00  0.00    -0.014 A 
BRANCH  40  41
ATOM     41  C   UNL A   1      38.362  30.455  29.911  1.00  0.00     0.031 A 
ATOM     42  C   UNL A   1      38.567  30.842  31.347  1.00  0.00     0.074 A 
ATOM     43  C   UNL A   1      39.112  29.500  29.340  1.00  0.00     0.049 A 
ATOM     44  N   UNL A   1      39.482  30.447  32.194  1.00  0.00    -0.248 NA
ATOM     45  C   UNL A   1      37.612  31.816  31.903  1.00  0.00     0.031 C 
ATOM     46  C   UNL A   1      38.962  29.012  27.972  1.00  0.00     0.029 A 
ATOM     47  N   UNL A   1      40.165  28.781  29.846  1.00  0.00    -0.354 N 
ATOM     48  C   UNL A   1      39.220  31.132  33.374  1.00  0.00     0.074 A 
ATOM     49  C   UNL A   1      38.083  31.990  33.128  1.00  0.00     0.031 C 
ATOM     50  C   UNL A   1      39.905  28.083  27.738  1.00  0.00     0.029 A 
ATOM     51  C   UNL A   1      40.746  27.944  28.926  1.00  0.00     0.049 A 
ATOM     52  H   UNL A   1      40.474  28.857  30.777  1.00  0.00     0.167 HD
ATOM     53  C   UNL A   1      39.871  31.045  34.557  1.00  0.00     0.037 A 
ATOM     54  C   UNL A   1      41.851  27.182  29.031  1.00  0.00     0.037 A 
ATOM     55  C   UNL A   1      41.004  30.189  34.787  1.00  0.00     0.049 A 
ATOM     56  C   UNL A   1      42.609  27.165  30.335  1.00  0.00     0.074 A 
ATOM     57  C   UNL A   1      41.729  30.010  35.951  1.00  0.00     0.029 A 
ATOM     58  N   UNL A   1      41.584  29.374  33.824  1.00  0.00    -0.354 N 
ATOM     59  N   UNL A   1      42.348  27.796  31.456  1.00  0.00    -0.248 NA
ATOM     60  C   UNL A   1      43.815  26.327  30.389  1.00  0.00     0.031 C 
ATOM     61  C   UNL A   1      42.786  29.137  35.676  1.00  0.00     0.029 A 
ATOM     62  C   UNL A   1      42.678  28.716  34.360  1.00  0.00     0.049 A 
ATOM     63  H   UNL A   1      41.265  29.279  32.898  1.00  0.00     0.167 HD
ATOM     64  C   UNL A   1      43.333  27.405  32.354  1.00  0.00     0.074 A 
ATOM     65  C   UNL A   1      44.189  26.474  31.651  1.00  0.00     0.031 C 
ATOM     66  C   UNL A   1      43.513  27.782  33.645  1.00  0.00     0.037 A 
BRANCH  53  67
ATOM     67  C   UNL A   1      39.396  31.923  35.678  1.00  0.00     0.064 A 
ATOM     68  C   UNL A   1      38.429  31.493  36.600  1.00  0.00     0.173 A 
ATOM     69  C   UNL A   1      39.935  33.207  35.848  1.00  0.00     0.173 A 
ATOM     70  F   UNL A   1      37.867  30.281  36.474  1.00  0.00    -0.203 F 
ATOM     71  C   UNL A   1      38.001  32.325  37.631  1.00  0.00     0.198 A 
ATOM     72  C   UNL A   1      39.531  34.023  36.901  1.00  0.00     0.198 A 
ATOM     73  F   UNL A   1      40.864  33.669  34.997  1.00  0.00    -0.203 F 
ATOM     74  F   UNL A   1      37.038  31.912  38.468  1.00  0.00    -0.200 F 
ATOM     75  C   UNL A   1      38.558  33.585  37.786  1.00  0.00     0.200 A 
ATOM     76  F   UNL A   1      40.081  35.235  37.056  1.00  0.00    -0.200 F 
ATOM     77  F   UNL A   1      38.151  34.382  38.785  1.00  0.00    -0.200 F 
ENDBRANCH  53  67
BRANCH  54  78
ATOM     78  C   UNL A   1      42.318  26.385  27.866  1.00  0.00     0.064 A 
ATOM     79  C   UNL A   1      43.279  26.894  26.980  1.00  0.00     0.173 A 
ATOM     80  C   UNL A   1      41.803  25.108  27.603  1.00  0.00     0.173 A 
ATOM     81  F   UNL A   1      43.787  28.119  27.176  1.00  0.00    -0.203 F 
ATOM     82  C   UNL A   1      43.687  26.166  25.864  1.00  0.00     0.198 A 
ATOM     83  C   UNL A   1      42.237  24.366  26.505  1.00  0.00     0.198 A 
ATOM     84  F   UNL A   1      40.883  24.571  28.418  1.00  0.00    -0.203 F 
ATOM     85  F   UNL A   1      44.568  26.698  25.005  1.00  0.00    -0.200 F 
ATOM     86  C   UNL A   1      43.170  24.900  25.631  1.00  0.00     0.200 A 
ATOM     87  F   UNL A   1      41.749  23.136  26.296  1.00  0.00    -0.200 F 
ATOM     88  F   UNL A   1      43.566  24.199  24.561  1.00  0.00    -0.200 F 
ENDBRANCH  54  78
BRANCH  66  89
ATOM     89  C   UNL A   1      44.650  27.150  34.399  1.00  0.00     0.064 A 
ATOM     90  C   UNL A   1      44.495  25.947  35.103  1.00  0.00     0.173 A 
ATOM     91  C   UNL A   1      45.926  27.735  34.372  1.00  0.00     0.173 A 
ATOM     92  F   UNL A   1      43.294  25.354  35.170  1.00  0.00    -0.203 F 
ATOM     93  C   UNL A   1      45.567  25.369  35.777  1.00  0.00     0.198 A 
ATOM     94  C   UNL A   1      47.004  27.136  35.016  1.00  0.00     0.198 A 
ATOM     95  F   UNL A   1      46.133  28.881  33.705  1.00  0.00    -0.203 F 
ATOM     96  F   UNL A   1      45.384  24.249  36.487  1.00  0.00    -0.200 F 
ATOM     97  C   UNL A   1      46.823  25.958  35.725  1.00  0.00     0.200 A 
ATOM     98  F   UNL A   1      48.220  27.696  34.948  1.00  0.00    -0.200 F 
ATOM     99  F   UNL A   1      47.856  25.393  36.365  1.00  0.00    -0.200 F 
ENDBRANCH  66  89
ENDBRANCH  40  41
ENDBRANCH  33  35
ENDBRANCH  32  33
ENDBRANCH  31  32
ENDBRANCH  30  31
ENDBRANCH  29  30
ENDBRANCH  28  29
ENDBRANCH  27  28
ENDBRANCH  26  27
ENDBRANCH   1  26
TORSDOF 24
ENDMDL
MODEL 3
REMARK VINA RESULT:     -10.6      1.165      7.131
REMARK SMILES CC[C@@H]1CCC[C@@](Cc2cccc(O)c2)(C(=O)OCCOCCOCCOCCOC(=O)c2ccc(-c3c4nc(c(-c5c(F)c(F)c(F)c(F)c5F)c5ccc([nH]5)c(-c5c(F)c(F)c(F)c(F)c5F)c5nc(c(-c6c(F)c(F)c(F)c(F)c6F)c6ccc3[nH]6)C=C5)C=C4)cc2)C1
REMARK SMILES IDX 23 1 22 2 21 3 20 4 19 5 18 6 16 7 17 8 7 9 3 10 4 11 96 12
REMARK SMILES IDX 5 13 6 14 2 15 1 16 8 17 9 18 10 19 15 20 11 21 13 22 12 23
REMARK SMILES IDX 14 24 24 26 25 27 26 28 27 29 28 30 29 31 30 32 31 33 32 34
REMARK SMILES IDX 33 35 34 36 95 37 35 38 94 39 36 40 37 41 38 42 88 43 39 44
REMARK SMILES IDX 93 45 87 46 89 47 40 48 92 49 86 50 85 51 41 53 73 54 53 55
REMARK SMILES IDX 72 56 54 57 57 58 71 59 90 60 55 61 56 62 70 64 91 65 58 66
REMARK SMILES IDX 42 67 43 68 51 69 44 70 45 71 49 72 52 73 46 74 47 75 50 76
REMARK SMILES IDX 48 77 74 78 75 79 83 80 76 81 77 82 81 83 84 84 78 85 79 86
REMARK SMILES IDX 82 87 80 88 59 89 60 90 68 91 61 92 62 93 66 94 69 95 63 96
REMARK SMILES IDX 64 97 67 98 65 99
REMARK H PARENT 14 25 89 52 57 63
REMARK Flexibility Score: inf
ROOT
ATOM      1  C   UNL A   1      34.765  21.874  25.298  1.00  0.00     0.188 C 
ENDROOT
BRANCH   1   2
ATOM      2  C   UNL A   1      33.380  21.749  24.680  1.00  0.00     0.188 C 
BRANCH   2   3
ATOM      3  O   UNL A   1      32.273  21.503  25.529  1.00  0.00    -0.376 OA
BRANCH   3   4
ATOM      4  C   UNL A   1      31.096  22.288  25.379  1.00  0.00     0.202 C 
BRANCH   4   5
ATOM      5  C   UNL A   1      30.583  23.113  26.571  1.00  0.00     0.261 C 
BRANCH   5   6
ATOM      6  O   UNL A   1      31.219  24.400  26.790  1.00  0.00    -0.463 OA
BRANCH   6   7
ATOM      7  C   UNL A   1      30.607  25.492  26.255  1.00  0.00     0.312 C 
ATOM      8  O   UNL A   1      29.450  25.802  26.529  1.00  0.00    -0.252 OA
BRANCH   7   9
ATOM      9  C   UNL A   1      31.433  26.265  25.187  1.00  0.00     0.072 C 
ATOM     10  C   UNL A   1      32.307  28.237  26.661  1.00  0.00    -0.010 C 
ATOM     11  C   UNL A   1      33.750  28.005  26.213  1.00  0.00     0.003 C 
ATOM     12  C   UNL A   1      31.337  27.792  25.540  1.00  0.00     0.022 C 
ATOM     13  C   UNL A   1      34.033  26.585  25.747  1.00  0.00     0.001 C 
ATOM     14  C   UNL A   1      32.925  25.894  24.946  1.00  0.00     0.019 C 
BRANCH  10  15
ATOM     15  C   UNL A   1      32.013  29.667  27.186  1.00  0.00     0.000 C 
ATOM     16  C   UNL A   1      31.529  30.699  26.176  1.00  0.00     0.004 C 
ENDBRANCH  10  15
BRANCH   9  17
ATOM     17  C   UNL A   1      30.635  25.975  23.854  1.00  0.00     0.054 C 
BRANCH  17  18
ATOM     18  C   UNL A   1      29.893  27.178  23.279  1.00  0.00    -0.043 A 
ATOM     19  C   UNL A   1      30.576  28.198  22.599  1.00  0.00     0.004 A 
ATOM     20  C   UNL A   1      28.517  27.337  23.494  1.00  0.00     0.049 A 
ATOM     21  C   UNL A   1      29.938  29.397  22.269  1.00  0.00     0.004 A 
ATOM     22  C   UNL A   1      27.876  28.513  23.111  1.00  0.00     0.115 A 
ATOM     23  C   UNL A   1      28.582  29.562  22.534  1.00  0.00     0.046 A 
BRANCH  22  24
ATOM     24  O   UNL A   1      26.534  28.609  23.335  1.00  0.00    -0.508 OA
ATOM     25  H   UNL A   1      26.121  28.047  23.962  1.00  0.00     0.293 HD
ENDBRANCH  22  24
ENDBRANCH  17  18
ENDBRANCH   9  17
ENDBRANCH   7   9
ENDBRANCH   6   7
ENDBRANCH   5   6
ENDBRANCH   4   5
ENDBRANCH   3   4
ENDBRANCH   2   3
ENDBRANCH   1   2
BRANCH   1  26
ATOM     26  O   UNL A   1      35.624  22.818  24.716  1.00  0.00    -0.377 OA
BRANCH  26  27
ATOM     27  C   UNL A   1      36.270  23.737  25.564  1.00  0.00     0.188 C 
BRANCH  27  28
ATOM     28  C   UNL A   1      37.778  23.563  25.751  1.00  0.00     0.188 C 
BRANCH  28  29
ATOM     29  O   UNL A   1      38.313  22.300  26.129  1.00  0.00    -0.376 OA
BRANCH  29  30
ATOM     30  C   UNL A   1      38.312  21.164  25.278  1.00  0.00     0.202 C 
BRANCH  30  31
ATOM     31  C   UNL A   1      39.132  19.902  25.568  1.00  0.00     0.261 C 
BRANCH  31  32
ATOM     32  O   UNL A   1      40.091  20.004  26.619  1.00  0.00    -0.460 OA
BRANCH  32  33
ATOM     33  C   UNL A   1      41.358  19.687  26.265  1.00  0.00     0.338 C 
ATOM     34  O   UNL A   1      41.750  18.660  25.749  1.00  0.00    -0.246 OA
BRANCH  33  35
ATOM     35  C   UNL A   1      42.209  20.872  26.475  1.00  0.00     0.060 A 
ATOM     36  C   UNL A   1      42.546  21.234  27.785  1.00  0.00     0.016 A 
ATOM     37  C   UNL A   1      42.613  21.652  25.390  1.00  0.00     0.016 A 
ATOM     38  C   UNL A   1      43.258  22.407  28.021  1.00  0.00     0.010 A 
ATOM     39  C   UNL A   1      43.301  22.840  25.628  1.00  0.00     0.010 A 
ATOM     40  C   UNL A   1      43.588  23.239  26.946  1.00  0.00    -0.014 A 
BRANCH  40  41
ATOM     41  C   UNL A   1      44.038  24.623  27.208  1.00  0.00     0.031 A 
ATOM     42  C   UNL A   1      43.023  25.615  27.699  1.00  0.00     0.074 A 
ATOM     43  C   UNL A   1      45.317  24.980  27.022  1.00  0.00     0.049 A 
ATOM     44  N   UNL A   1      43.149  26.899  27.913  1.00  0.00    -0.248 NA
ATOM     45  C   UNL A   1      41.677  25.087  27.979  1.00  0.00     0.031 C 
ATOM     46  C   UNL A   1      46.392  24.086  26.600  1.00  0.00     0.029 A 
ATOM     47  N   UNL A   1      45.923  26.203  27.153  1.00  0.00    -0.354 N 
ATOM     48  C   UNL A   1      41.900  27.332  28.339  1.00  0.00     0.074 A 
ATOM     49  C   UNL A   1      41.021  26.185  28.324  1.00  0.00     0.031 C 
ATOM     50  C   UNL A   1      47.527  24.796  26.487  1.00  0.00     0.029 A 
ATOM     51  C   UNL A   1      47.247  26.198  26.789  1.00  0.00     0.049 A 
ATOM     52  H   UNL A   1      45.455  27.007  27.476  1.00  0.00     0.167 HD
ATOM     53  C   UNL A   1      41.526  28.577  28.714  1.00  0.00     0.037 A 
ATOM     54  C   UNL A   1      48.115  27.222  26.684  1.00  0.00     0.037 A 
ATOM     55  C   UNL A   1      42.411  29.712  28.722  1.00  0.00     0.049 A 
ATOM     56  C   UNL A   1      47.652  28.616  27.028  1.00  0.00     0.074 A 
ATOM     57  C   UNL A   1      42.141  31.014  29.098  1.00  0.00     0.029 A 
ATOM     58  N   UNL A   1      43.739  29.676  28.320  1.00  0.00    -0.354 N 
ATOM     59  N   UNL A   1      46.478  29.020  27.451  1.00  0.00    -0.248 NA
ATOM     60  C   UNL A   1      48.637  29.696  26.881  1.00  0.00     0.031 C 
ATOM     61  C   UNL A   1      43.287  31.781  28.864  1.00  0.00     0.029 A 
ATOM     62  C   UNL A   1      44.293  30.943  28.409  1.00  0.00     0.049 A 
ATOM     63  H   UNL A   1      44.217  28.871  28.017  1.00  0.00     0.167 HD
ATOM     64  C   UNL A   1      46.593  30.389  27.653  1.00  0.00     0.074 A 
ATOM     65  C   UNL A   1      47.955  30.745  27.318  1.00  0.00     0.031 C 
ATOM     66  C   UNL A   1      45.657  31.274  28.080  1.00  0.00     0.037 A 
BRANCH  53  67
ATOM     67  C   UNL A   1      40.092  28.782  29.112  1.00  0.00     0.064 A 
ATOM     68  C   UNL A   1      39.110  29.151  28.181  1.00  0.00     0.173 A 
ATOM     69  C   UNL A   1      39.692  28.582  30.441  1.00  0.00     0.173 A 
ATOM     70  F   UNL A   1      39.440  29.373  26.900  1.00  0.00    -0.203 F 
ATOM     71  C   UNL A   1      37.786  29.338  28.572  1.00  0.00     0.198 A 
ATOM     72  C   UNL A   1      38.362  28.736  30.822  1.00  0.00     0.198 A 
ATOM     73  F   UNL A   1      40.591  28.227  31.373  1.00  0.00    -0.203 F 
ATOM     74  F   UNL A   1      36.874  29.742  27.676  1.00  0.00    -0.200 F 
ATOM     75  C   UNL A   1      37.411  29.122  29.890  1.00  0.00     0.200 A 
ATOM     76  F   UNL A   1      38.001  28.512  32.093  1.00  0.00    -0.200 F 
ATOM     77  F   UNL A   1      36.136  29.294  30.263  1.00  0.00    -0.200 F 
ENDBRANCH  53  67
BRANCH  54  78
ATOM     78  C   UNL A   1      49.505  26.973  26.218  1.00  0.00     0.064 A 
ATOM     79  C   UNL A   1      49.828  27.010  24.853  1.00  0.00     0.173 A 
ATOM     80  C   UNL A   1      50.535  26.675  27.121  1.00  0.00     0.173 A 
ATOM     81  F   UNL A   1      48.874  27.270  23.947  1.00  0.00    -0.203 F 
ATOM     82  C   UNL A   1      51.121  26.735  24.411  1.00  0.00     0.198 A 
ATOM     83  C   UNL A   1      51.835  26.434  26.681  1.00  0.00     0.198 A 
ATOM     84  F   UNL A   1      50.283  26.628  28.438  1.00  0.00    -0.203 F 
ATOM     85  F   UNL A   1      51.389  26.726  23.098  1.00  0.00    -0.200 F 
ATOM     86  C   UNL A   1      52.124  26.454  25.326  1.00  0.00     0.200 A 
ATOM     87  F   UNL A   1      52.805  26.182  27.570  1.00  0.00    -0.200 F 
ATOM     88  F   UNL A   1      53.368  26.194  24.900  1.00  0.00    -0.200 F 
ENDBRANCH  54  78
BRANCH  66  89
ATOM     89  C   UNL A   1      46.085  32.704  28.256  1.00  0.00     0.064 A 
ATOM     90  C   UNL A   1      46.657  33.165  29.451  1.00  0.00     0.173 A 
ATOM     91  C   UNL A   1      45.966  33.613  27.193  1.00  0.00     0.173 A 
ATOM     92  F   UNL A   1      46.782  32.341  30.502  1.00  0.00    -0.203 F 
ATOM     93  C   UNL A   1      47.066  34.489  29.585  1.00  0.00     0.198 A 
ATOM     94  C   UNL A   1      46.409  34.926  27.318  1.00  0.00     0.198 A 
ATOM     95  F   UNL A   1      45.435  33.223  26.024  1.00  0.00    -0.203 F 
ATOM     96  F   UNL A   1      47.560  34.921  30.752  1.00  0.00    -0.200 F 
ATOM     97  C   UNL A   1      46.951  35.366  28.516  1.00  0.00     0.200 A 
ATOM     98  F   UNL A   1      46.314  35.766  26.277  1.00  0.00    -0.200 F 
ATOM     99  F   UNL A   1      47.355  36.637  28.643  1.00  0.00    -0.200 F 
ENDBRANCH  66  89
ENDBRANCH  40  41
ENDBRANCH  33  35
ENDBRANCH  32  33
ENDBRANCH  31  32
ENDBRANCH  30  31
ENDBRANCH  29  30
ENDBRANCH  28  29
ENDBRANCH  27  28
ENDBRANCH  26  27
ENDBRANCH   1  26
TORSDOF 24
ENDMDL
