MODEL 1
REMARK VINA RESULT:      -7.9      0.000      0.000
REMARK SMILES O=C(OCCOCCOCCOCCOC(=O)c1ccc(-c2c3nc(c(-c4c(F)c(F)c(F)c(F)c4F)c4ccc([nH]4)c(-c4c(F)c(F)c(F)c(F)c4F)c4nc(c(-c5c(F)c(F)c(F)c(F)c5F)c5ccc2[nH]5)C=C4)C=C3)cc1)c1ccc(/C=C/c2ccnc(-c3cccc([N+](=O)[O-])c3)[n+]2[O-])cc1
REMARK SMILES IDX 8 1 7 2 6 3 5 4 4 5 3 6 2 7 1 8 81 9 82 10 104 11 83 12
REMARK SMILES IDX 103 13 84 14 85 15 86 16 87 17 88 18 101 19 89 20 91 21
REMARK SMILES IDX 102 22 90 23 92 24 93 25 100 26 94 27 96 28 95 29 97 30
REMARK SMILES IDX 98 31 99 32 9 33 10 34 11 35 12 36 13 37 14 38 15 39 16 40
REMARK SMILES IDX 17 41 18 42 19 43 80 44 20 45 79 46 21 47 22 48 23 49 73 50
REMARK SMILES IDX 24 51 78 52 72 53 74 54 25 55 77 56 71 57 70 58 26 60 58 61
REMARK SMILES IDX 38 62 57 63 39 64 42 65 56 66 75 67 40 68 41 69 55 71 76 72
REMARK SMILES IDX 43 73 27 74 28 75 36 76 29 77 30 78 34 79 37 80 31 81 32 82
REMARK SMILES IDX 35 83 33 84 59 85 60 86 68 87 61 88 62 89 66 90 69 91 63 92
REMARK SMILES IDX 64 93 67 94 65 95 44 96 45 97 53 98 46 99 47 100 51 101
REMARK SMILES IDX 54 102 48 103 49 104 52 105 50 106
REMARK H PARENT 74 59 42 70
REMARK Flexibility Score: inf
ROOT
ATOM      1  C   UNL A   1      38.256  34.898  32.652  1.00  0.00     0.188 C 
ENDROOT
BRANCH   1   2
ATOM      2  C   UNL A   1      38.812  34.537  31.272  1.00  0.00     0.188 C 
BRANCH   2   3
ATOM      3  O   UNL A   1      39.845  33.561  31.409  1.00  0.00    -0.376 OA
BRANCH   3   4
ATOM      4  C   UNL A   1      40.650  33.309  30.268  1.00  0.00     0.202 C 
BRANCH   4   5
ATOM      5  C   UNL A   1      41.971  34.074  30.203  1.00  0.00     0.261 C 
BRANCH   5   6
ATOM      6  O   UNL A   1      42.938  33.626  31.165  1.00  0.00    -0.460 OA
BRANCH   6   7
ATOM      7  C   UNL A   1      43.151  32.336  31.528  1.00  0.00     0.338 C 
ATOM      8  O   UNL A   1      42.497  31.831  32.436  1.00  0.00    -0.246 OA
BRANCH   7   9
ATOM      9  C   UNL A   1      44.136  31.489  30.813  1.00  0.00     0.060 A 
ATOM     10  C   UNL A   1      43.870  30.882  29.586  1.00  0.00     0.016 A 
ATOM     11  C   UNL A   1      45.429  31.409  31.330  1.00  0.00     0.016 A 
ATOM     12  C   UNL A   1      44.824  30.098  28.944  1.00  0.00     0.009 A 
ATOM     13  C   UNL A   1      46.403  30.654  30.666  1.00  0.00     0.009 A 
ATOM     14  C   UNL A   1      46.097  29.959  29.486  1.00  0.00    -0.025 A 
BRANCH  14  15
ATOM     15  C   UNL A   1      47.119  29.110  28.871  1.00  0.00     0.012 C 
ATOM     16  C   UNL A   1      46.941  28.344  27.779  1.00  0.00     0.053 C 
BRANCH  16  17
ATOM     17  C   UNL A   1      47.966  27.375  27.374  1.00  0.00     0.134 A 
ATOM     18  C   UNL A   1      48.196  26.230  28.133  1.00  0.00     0.100 A 
ATOM     19  N   UNL A   1      48.705  27.614  26.206  1.00  0.00    -0.228 N 
ATOM     20  C   UNL A   1      49.120  25.326  27.660  1.00  0.00     0.259 A 
ATOM     21  C   UNL A   1      49.608  26.637  25.795  1.00  0.00     0.333 A 
ATOM     22  O   UNL A   1      48.546  28.695  25.529  1.00  0.00    -0.710 OA
ATOM     23  N   UNL A   1      49.805  25.488  26.509  1.00  0.00    -0.049 NA
BRANCH  21  24
ATOM     24  C   UNL A   1      50.303  26.814  24.523  1.00  0.00     0.076 A 
ATOM     25  C   UNL A   1      51.690  26.607  24.436  1.00  0.00     0.017 A 
ATOM     26  C   UNL A   1      49.584  27.066  23.343  1.00  0.00     0.102 A 
ATOM     27  C   UNL A   1      52.340  26.608  23.199  1.00  0.00     0.008 A 
ATOM     28  C   UNL A   1      50.238  27.065  22.105  1.00  0.00     0.270 A 
ATOM     29  C   UNL A   1      51.615  26.831  22.028  1.00  0.00     0.085 A 
BRANCH  28  30
ATOM     30  N   UNL A   1      49.463  27.283  20.878  1.00  0.00     0.062 N 
ATOM     31  O   UNL A   1      48.238  27.103  20.930  1.00  0.00    -0.258 OA
ATOM     32  O   UNL A   1      50.078  27.621  19.856  1.00  0.00    -0.258 OA
ENDBRANCH  28  30
ENDBRANCH  21  24
ENDBRANCH  16  17
ENDBRANCH  14  15
ENDBRANCH   7   9
ENDBRANCH   6   7
ENDBRANCH   5   6
ENDBRANCH   4   5
ENDBRANCH   3   4
ENDBRANCH   2   3
ENDBRANCH   1   2
BRANCH   1  33
ATOM     33  O   UNL A   1      36.896  34.525  32.869  1.00  0.00    -0.377 OA
BRANCH  33  34
ATOM     34  C   UNL A   1      36.051  34.531  31.724  1.00  0.00     0.188 C 
BRANCH  34  35
ATOM     35  C   UNL A   1      34.855  33.554  31.675  1.00  0.00     0.188 C 
BRANCH  35  36
ATOM     36  O   UNL A   1      33.667  34.070  31.088  1.00  0.00    -0.376 OA
BRANCH  36  37
ATOM     37  C   UNL A   1      33.869  34.950  29.982  1.00  0.00     0.202 C 
BRANCH  37  38
ATOM     38  C   UNL A   1      33.228  34.475  28.671  1.00  0.00     0.261 C 
BRANCH  38  39
ATOM     39  O   UNL A   1      34.081  33.678  27.835  1.00  0.00    -0.460 OA
BRANCH  39  40
ATOM     40  C   UNL A   1      33.854  32.349  27.757  1.00  0.00     0.338 C 
ATOM     41  O   UNL A   1      32.948  31.786  27.168  1.00  0.00    -0.246 OA
BRANCH  40  42
ATOM     42  C   UNL A   1      35.055  31.678  28.309  1.00  0.00     0.060 A 
ATOM     43  C   UNL A   1      34.989  30.308  28.610  1.00  0.00     0.016 A 
ATOM     44  C   UNL A   1      36.278  32.357  28.381  1.00  0.00     0.016 A 
ATOM     45  C   UNL A   1      36.146  29.616  28.984  1.00  0.00     0.010 A 
ATOM     46  C   UNL A   1      37.426  31.672  28.779  1.00  0.00     0.010 A 
ATOM     47  C   UNL A   1      37.361  30.307  29.108  1.00  0.00    -0.014 A 
BRANCH  47  48
ATOM     48  C   UNL A   1      38.488  29.722  29.873  1.00  0.00     0.031 A 
ATOM     49  C   UNL A   1      38.642  30.184  31.295  1.00  0.00     0.074 A 
ATOM     50  C   UNL A   1      39.388  28.887  29.328  1.00  0.00     0.049 A 
ATOM     51  N   UNL A   1      39.612  29.972  32.144  1.00  0.00    -0.248 NA
ATOM     52  C   UNL A   1      37.550  31.021  31.820  1.00  0.00     0.031 C 
ATOM     53  C   UNL A   1      39.339  28.348  27.973  1.00  0.00     0.029 A 
ATOM     54  N   UNL A   1      40.546  28.370  29.859  1.00  0.00    -0.354 N 
ATOM     55  C   UNL A   1      39.255  30.666  33.293  1.00  0.00     0.074 A 
ATOM     56  C   UNL A   1      37.995  31.320  33.027  1.00  0.00     0.031 C 
ATOM     57  C   UNL A   1      40.436  27.594  27.767  1.00  0.00     0.029 A 
ATOM     58  C   UNL A   1      41.282  27.634  28.961  1.00  0.00     0.049 A 
ATOM     59  H   UNL A   1      40.824  28.515  30.792  1.00  0.00     0.167 HD
ATOM     60  C   UNL A   1      39.920  30.754  34.467  1.00  0.00     0.037 A 
ATOM     61  C   UNL A   1      42.509  27.088  29.087  1.00  0.00     0.037 A 
ATOM     62  C   UNL A   1      41.183  30.126  34.722  1.00  0.00     0.049 A 
ATOM     63  C   UNL A   1      43.266  27.248  30.385  1.00  0.00     0.074 A 
ATOM     64  C   UNL A   1      41.936  30.141  35.881  1.00  0.00     0.029 A 
ATOM     65  N   UNL A   1      41.891  29.381  33.790  1.00  0.00    -0.354 N 
ATOM     66  N   UNL A   1      42.911  27.875  31.481  1.00  0.00    -0.248 NA
ATOM     67  C   UNL A   1      44.598  26.629  30.460  1.00  0.00     0.031 C 
ATOM     68  C   UNL A   1      43.125  29.449  35.635  1.00  0.00     0.029 A 
ATOM     69  C   UNL A   1      43.085  28.950  34.342  1.00  0.00     0.049 A 
ATOM     70  H   UNL A   1      41.589  29.188  32.873  1.00  0.00     0.167 HD
ATOM     71  C   UNL A   1      43.953  27.697  32.382  1.00  0.00     0.074 A 
ATOM     72  C   UNL A   1      44.958  26.904  31.706  1.00  0.00     0.031 C 
ATOM     73  C   UNL A   1      44.065  28.145  33.658  1.00  0.00     0.037 A 
BRANCH  60  74
ATOM     74  C   UNL A   1      39.298  31.607  35.532  1.00  0.00     0.064 A 
ATOM     75  C   UNL A   1      39.669  32.948  35.715  1.00  0.00     0.173 A 
ATOM     76  C   UNL A   1      38.344  31.062  36.404  1.00  0.00     0.173 A 
ATOM     77  F   UNL A   1      40.598  33.505  34.924  1.00  0.00    -0.203 F 
ATOM     78  C   UNL A   1      39.138  33.700  36.758  1.00  0.00     0.198 A 
ATOM     79  C   UNL A   1      37.790  31.829  37.425  1.00  0.00     0.198 A 
ATOM     80  F   UNL A   1      37.960  29.784  36.274  1.00  0.00    -0.203 F 
ATOM     81  F   UNL A   1      39.560  34.956  36.959  1.00  0.00    -0.200 F 
ATOM     82  C   UNL A   1      38.196  33.143  37.609  1.00  0.00     0.200 A 
ATOM     83  F   UNL A   1      36.875  31.290  38.243  1.00  0.00    -0.200 F 
ATOM     84  F   UNL A   1      37.690  33.866  38.617  1.00  0.00    -0.200 F 
ENDBRANCH  60  74
BRANCH  61  85
ATOM     85  C   UNL A   1      43.112  26.350  27.945  1.00  0.00     0.064 A 
ATOM     86  C   UNL A   1      43.078  24.950  27.890  1.00  0.00     0.173 A 
ATOM     87  C   UNL A   1      43.739  27.027  26.889  1.00  0.00     0.173 A 
ATOM     88  F   UNL A   1      42.517  24.254  28.890  1.00  0.00    -0.203 F 
ATOM     89  C   UNL A   1      43.653  24.255  26.827  1.00  0.00     0.198 A 
ATOM     90  C   UNL A   1      44.293  26.334  25.814  1.00  0.00     0.198 A 
ATOM     91  F   UNL A   1      43.808  28.366  26.898  1.00  0.00    -0.203 F 
ATOM     92  F   UNL A   1      43.637  22.916  26.817  1.00  0.00    -0.200 F 
ATOM     93  C   UNL A   1      44.252  24.948  25.786  1.00  0.00     0.200 A 
ATOM     94  F   UNL A   1      44.864  27.008  24.807  1.00  0.00    -0.200 F 
ATOM     95  F   UNL A   1      44.797  24.281  24.759  1.00  0.00    -0.200 F 
ENDBRANCH  61  85
BRANCH  73  96
ATOM     96  C   UNL A   1      45.285  27.748  34.438  1.00  0.00     0.064 A 
ATOM     97  C   UNL A   1      45.357  26.534  35.134  1.00  0.00     0.173 A 
ATOM     98  C   UNL A   1      46.432  28.558  34.408  1.00  0.00     0.173 A 
ATOM     99  F   UNL A   1      44.286  25.729  35.201  1.00  0.00    -0.203 F 
ATOM    100  C   UNL A   1      46.530  26.149  35.780  1.00  0.00     0.198 A 
ATOM    101  C   UNL A   1      47.610  28.157  35.030  1.00  0.00     0.198 A 
ATOM    102  F   UNL A   1      46.417  29.725  33.746  1.00  0.00    -0.203 F 
ATOM    103  F   UNL A   1      46.569  24.996  36.464  1.00  0.00    -0.200 F 
ATOM    104  C   UNL A   1      47.657  26.955  35.719  1.00  0.00     0.200 A 
ATOM    105  F   UNL A   1      48.703  28.929  34.954  1.00  0.00    -0.200 F 
ATOM    106  F   UNL A   1      48.790  26.572  36.324  1.00  0.00    -0.200 F 
ENDBRANCH  73  96
ENDBRANCH  47  48
ENDBRANCH  40  42
ENDBRANCH  39  40
ENDBRANCH  38  39
ENDBRANCH  37  38
ENDBRANCH  36  37
ENDBRANCH  35  36
ENDBRANCH  34  35
ENDBRANCH  33  34
ENDBRANCH   1  33
TORSDOF 24
ENDMDL
MODEL 2
REMARK VINA RESULT:      -7.1      5.235     12.512
REMARK SMILES O=C(OCCOCCOCCOCCOC(=O)c1ccc(-c2c3nc(c(-c4c(F)c(F)c(F)c(F)c4F)c4ccc([nH]4)c(-c4c(F)c(F)c(F)c(F)c4F)c4nc(c(-c5c(F)c(F)c(F)c(F)c5F)c5ccc2[nH]5)C=C4)C=C3)cc1)c1ccc(/C=C/c2ccnc(-c3cccc([N+](=O)[O-])c3)[n+]2[O-])cc1
REMARK SMILES IDX 8 1 7 2 6 3 5 4 4 5 3 6 2 7 1 8 81 9 82 10 104 11 83 12
REMARK SMILES IDX 103 13 84 14 85 15 86 16 87 17 88 18 101 19 89 20 91 21
REMARK SMILES IDX 102 22 90 23 92 24 93 25 100 26 94 27 96 28 95 29 97 30
REMARK SMILES IDX 98 31 99 32 9 33 10 34 11 35 12 36 13 37 14 38 15 39 16 40
REMARK SMILES IDX 17 41 18 42 19 43 80 44 20 45 79 46 21 47 22 48 23 49 73 50
REMARK SMILES IDX 24 51 78 52 72 53 74 54 25 55 77 56 71 57 70 58 26 60 58 61
REMARK SMILES IDX 38 62 57 63 39 64 42 65 56 66 75 67 40 68 41 69 55 71 76 72
REMARK SMILES IDX 43 73 27 74 28 75 36 76 29 77 30 78 34 79 37 80 31 81 32 82
REMARK SMILES IDX 35 83 33 84 59 85 60 86 68 87 61 88 62 89 66 90 69 91 63 92
REMARK SMILES IDX 64 93 67 94 65 95 44 96 45 97 53 98 46 99 47 100 51 101
REMARK SMILES IDX 54 102 48 103 49 104 52 105 50 106
REMARK H PARENT 74 59 42 70
REMARK Flexibility Score: inf
ROOT
ATOM      1  C   UNL A   1      46.696  25.991  31.178  1.00  0.00     0.188 C 
ENDROOT
BRANCH   1   2
ATOM      2  C   UNL A   1      45.853  25.971  29.901  1.00  0.00     0.188 C 
BRANCH   2   3
ATOM      3  O   UNL A   1      46.211  24.841  29.105  1.00  0.00    -0.376 OA
BRANCH   3   4
ATOM      4  C   UNL A   1      45.416  24.582  27.957  1.00  0.00     0.202 C 
BRANCH   4   5
ATOM      5  C   UNL A   1      43.956  25.022  28.046  1.00  0.00     0.261 C 
BRANCH   5   6
ATOM      6  O   UNL A   1      43.574  25.945  27.014  1.00  0.00    -0.460 OA
BRANCH   6   7
ATOM      7  C   UNL A   1      42.371  25.973  26.387  1.00  0.00     0.338 C 
ATOM      8  O   UNL A   1      42.177  25.287  25.387  1.00  0.00    -0.246 OA
BRANCH   7   9
ATOM      9  C   UNL A   1      41.250  26.789  26.912  1.00  0.00     0.060 A 
ATOM     10  C   UNL A   1      40.369  26.331  27.891  1.00  0.00     0.016 A 
ATOM     11  C   UNL A   1      41.158  28.118  26.501  1.00  0.00     0.016 A 
ATOM     12  C   UNL A   1      39.331  27.130  28.363  1.00  0.00     0.009 A 
ATOM     13  C   UNL A   1      40.139  28.937  27.002  1.00  0.00     0.009 A 
ATOM     14  C   UNL A   1      39.192  28.437  27.909  1.00  0.00    -0.025 A 
BRANCH  14  15
ATOM     15  C   UNL A   1      38.091  29.300  28.342  1.00  0.00     0.012 C 
ATOM     16  C   UNL A   1      38.194  30.611  28.623  1.00  0.00     0.053 C 
BRANCH  16  17
ATOM     17  C   UNL A   1      37.078  31.329  29.248  1.00  0.00     0.134 A 
ATOM     18  C   UNL A   1      35.853  31.439  28.595  1.00  0.00     0.100 A 
ATOM     19  N   UNL A   1      37.259  31.897  30.518  1.00  0.00    -0.228 N 
ATOM     20  C   UNL A   1      34.825  32.062  29.265  1.00  0.00     0.259 A 
ATOM     21  C   UNL A   1      36.160  32.496  31.127  1.00  0.00     0.333 A 
ATOM     22  O   UNL A   1      38.402  31.857  31.107  1.00  0.00    -0.710 OA
ATOM     23  N   UNL A   1      34.941  32.565  30.512  1.00  0.00    -0.049 NA
BRANCH  21  24
ATOM     24  C   UNL A   1      36.298  32.991  32.494  1.00  0.00     0.076 A 
ATOM     25  C   UNL A   1      35.503  34.058  32.947  1.00  0.00     0.017 A 
ATOM     26  C   UNL A   1      37.129  32.332  33.415  1.00  0.00     0.102 A 
ATOM     27  C   UNL A   1      35.502  34.432  34.293  1.00  0.00     0.008 A 
ATOM     28  C   UNL A   1      37.126  32.708  34.763  1.00  0.00     0.270 A 
ATOM     29  C   UNL A   1      36.309  33.755  35.208  1.00  0.00     0.085 A 
BRANCH  28  30
ATOM     30  N   UNL A   1      37.965  31.977  35.720  1.00  0.00     0.062 N 
ATOM     31  O   UNL A   1      39.152  31.787  35.418  1.00  0.00    -0.258 OA
ATOM     32  O   UNL A   1      37.436  31.579  36.768  1.00  0.00    -0.258 OA
ENDBRANCH  28  30
ENDBRANCH  21  24
ENDBRANCH  16  17
ENDBRANCH  14  15
ENDBRANCH   7   9
ENDBRANCH   6   7
ENDBRANCH   5   6
ENDBRANCH   4   5
ENDBRANCH   3   4
ENDBRANCH   2   3
ENDBRANCH   1   2
BRANCH   1  33
ATOM     33  O   UNL A   1      46.241  25.121  32.213  1.00  0.00    -0.377 OA
BRANCH  33  34
ATOM     34  C   UNL A   1      44.834  25.071  32.420  1.00  0.00     0.188 C 
BRANCH  34  35
ATOM     35  C   UNL A   1      44.144  26.250  33.143  1.00  0.00     0.188 C 
BRANCH  35  36
ATOM     36  O   UNL A   1      43.766  26.003  34.492  1.00  0.00    -0.376 OA
BRANCH  36  37
ATOM     37  C   UNL A   1      42.980  27.028  35.099  1.00  0.00     0.202 C 
BRANCH  37  38
ATOM     38  C   UNL A   1      41.480  26.942  34.792  1.00  0.00     0.261 C 
BRANCH  38  39
ATOM     39  O   UNL A   1      40.858  28.192  34.457  1.00  0.00    -0.460 OA
BRANCH  39  40
ATOM     40  C   UNL A   1      40.238  28.308  33.262  1.00  0.00     0.338 C 
ATOM     41  O   UNL A   1      39.126  27.912  32.964  1.00  0.00    -0.246 OA
BRANCH  40  42
ATOM     42  C   UNL A   1      41.058  29.234  32.446  1.00  0.00     0.060 A 
ATOM     43  C   UNL A   1      40.928  29.202  31.048  1.00  0.00     0.016 A 
ATOM     44  C   UNL A   1      41.828  30.231  33.059  1.00  0.00     0.016 A 
ATOM     45  C   UNL A   1      41.571  30.166  30.262  1.00  0.00     0.010 A 
ATOM     46  C   UNL A   1      42.488  31.175  32.273  1.00  0.00     0.010 A 
ATOM     47  C   UNL A   1      42.385  31.132  30.873  1.00  0.00    -0.014 A 
BRANCH  47  48
ATOM     48  C   UNL A   1      43.379  31.892  30.078  1.00  0.00     0.031 A 
ATOM     49  C   UNL A   1      44.711  31.231  29.865  1.00  0.00     0.074 A 
ATOM     50  C   UNL A   1      43.159  33.139  29.631  1.00  0.00     0.049 A 
ATOM     51  N   UNL A   1      45.814  31.714  29.357  1.00  0.00    -0.248 NA
ATOM     52  C   UNL A   1      44.813  29.831  30.311  1.00  0.00     0.031 C 
ATOM     53  C   UNL A   1      41.907  33.880  29.751  1.00  0.00     0.029 A 
ATOM     54  N   UNL A   1      44.014  34.015  29.004  1.00  0.00    -0.354 N 
ATOM     55  C   UNL A   1      46.741  30.683  29.441  1.00  0.00     0.074 A 
ATOM     56  C   UNL A   1      46.082  29.560  30.067  1.00  0.00     0.031 C 
ATOM     57  C   UNL A   1      42.082  35.113  29.238  1.00  0.00     0.029 A 
ATOM     58  C   UNL A   1      43.469  35.259  28.792  1.00  0.00     0.049 A 
ATOM     59  H   UNL A   1      44.929  33.775  28.734  1.00  0.00     0.167 HD
ATOM     60  C   UNL A   1      48.031  30.673  29.037  1.00  0.00     0.037 A 
ATOM     61  C   UNL A   1      44.040  36.388  28.325  1.00  0.00     0.037 A 
ATOM     62  C   UNL A   1      48.694  31.797  28.440  1.00  0.00     0.049 A 
ATOM     63  C   UNL A   1      45.501  36.377  27.935  1.00  0.00     0.074 A 
ATOM     64  C   UNL A   1      49.995  31.888  27.983  1.00  0.00     0.029 A 
ATOM     65  N   UNL A   1      48.105  33.035  28.234  1.00  0.00    -0.354 N 
ATOM     66  N   UNL A   1      46.365  35.392  27.983  1.00  0.00    -0.248 NA
ATOM     67  C   UNL A   1      46.065  37.639  27.430  1.00  0.00     0.031 C 
ATOM     68  C   UNL A   1      50.210  33.199  27.548  1.00  0.00     0.029 A 
ATOM     69  C   UNL A   1      49.025  33.907  27.678  1.00  0.00     0.049 A 
ATOM     70  H   UNL A   1      47.172  33.262  28.453  1.00  0.00     0.167 HD
ATOM     71  C   UNL A   1      47.559  35.902  27.486  1.00  0.00     0.074 A 
ATOM     72  C   UNL A   1      47.310  37.286  27.142  1.00  0.00     0.031 C 
ATOM     73  C   UNL A   1      48.752  35.277  27.324  1.00  0.00     0.037 A 
BRANCH  60  74
ATOM     74  C   UNL A   1      48.806  29.414  29.285  1.00  0.00     0.064 A 
ATOM     75  C   UNL A   1      49.503  29.198  30.484  1.00  0.00     0.173 A 
ATOM     76  C   UNL A   1      48.882  28.426  28.293  1.00  0.00     0.173 A 
ATOM     77  F   UNL A   1      49.484  30.127  31.452  1.00  0.00    -0.203 F 
ATOM     78  C   UNL A   1      50.279  28.058  30.664  1.00  0.00     0.198 A 
ATOM     79  C   UNL A   1      49.633  27.271  28.491  1.00  0.00     0.198 A 
ATOM     80  F   UNL A   1      48.240  28.586  27.127  1.00  0.00    -0.203 F 
ATOM     81  F   UNL A   1      50.994  27.907  31.788  1.00  0.00    -0.200 F 
ATOM     82  C   UNL A   1      50.341  27.093  29.671  1.00  0.00     0.200 A 
ATOM     83  F   UNL A   1      49.686  26.337  27.531  1.00  0.00    -0.200 F 
ATOM     84  F   UNL A   1      51.094  25.999  29.843  1.00  0.00    -0.200 F 
ENDBRANCH  60  74
BRANCH  61  85
ATOM     85  C   UNL A   1      43.237  37.634  28.212  1.00  0.00     0.064 A 
ATOM     86  C   UNL A   1      43.252  38.599  29.229  1.00  0.00     0.173 A 
ATOM     87  C   UNL A   1      42.432  37.884  27.091  1.00  0.00     0.173 A 
ATOM     88  F   UNL A   1      43.980  38.392  30.336  1.00  0.00    -0.203 F 
ATOM     89  C   UNL A   1      42.490  39.762  29.132  1.00  0.00     0.198 A 
ATOM     90  C   UNL A   1      41.690  39.058  26.982  1.00  0.00     0.198 A 
ATOM     91  F   UNL A   1      42.374  36.989  26.094  1.00  0.00    -0.203 F 
ATOM     92  F   UNL A   1      42.496  40.651  30.134  1.00  0.00    -0.200 F 
ATOM     93  C   UNL A   1      41.717  39.995  28.004  1.00  0.00     0.200 A 
ATOM     94  F   UNL A   1      40.950  39.283  25.888  1.00  0.00    -0.200 F 
ATOM     95  F   UNL A   1      40.991  41.118  27.906  1.00  0.00    -0.200 F 
ENDBRANCH  61  85
BRANCH  73  96
ATOM     96  C   UNL A   1      49.873  36.054  26.696  1.00  0.00     0.064 A 
ATOM     97  C   UNL A   1      50.786  36.789  27.464  1.00  0.00     0.173 A 
ATOM     98  C   UNL A   1      50.087  35.981  25.310  1.00  0.00     0.173 A 
ATOM     99  F   UNL A   1      50.621  36.897  28.791  1.00  0.00    -0.203 F 
ATOM    100  C   UNL A   1      51.868  37.432  26.866  1.00  0.00     0.198 A 
ATOM    101  C   UNL A   1      51.185  36.601  24.720  1.00  0.00     0.198 A 
ATOM    102  F   UNL A   1      49.248  35.281  24.533  1.00  0.00    -0.203 F 
ATOM    103  F   UNL A   1      52.715  38.153  27.615  1.00  0.00    -0.200 F 
ATOM    104  C   UNL A   1      52.072  37.328  25.497  1.00  0.00     0.200 A 
ATOM    105  F   UNL A   1      51.389  36.484  23.401  1.00  0.00    -0.200 F 
ATOM    106  F   UNL A   1      53.125  37.931  24.928  1.00  0.00    -0.200 F 
ENDBRANCH  73  96
ENDBRANCH  47  48
ENDBRANCH  40  42
ENDBRANCH  39  40
ENDBRANCH  38  39
ENDBRANCH  37  38
ENDBRANCH  36  37
ENDBRANCH  35  36
ENDBRANCH  34  35
ENDBRANCH  33  34
ENDBRANCH   1  33
TORSDOF 24
ENDMDL
MODEL 3
REMARK VINA RESULT:      -6.8      2.218      2.850
REMARK SMILES O=C(OCCOCCOCCOCCOC(=O)c1ccc(-c2c3nc(c(-c4c(F)c(F)c(F)c(F)c4F)c4ccc([nH]4)c(-c4c(F)c(F)c(F)c(F)c4F)c4nc(c(-c5c(F)c(F)c(F)c(F)c5F)c5ccc2[nH]5)C=C4)C=C3)cc1)c1ccc(/C=C/c2ccnc(-c3cccc([N+](=O)[O-])c3)[n+]2[O-])cc1
REMARK SMILES IDX 8 1 7 2 6 3 5 4 4 5 3 6 2 7 1 8 81 9 82 10 104 11 83 12
REMARK SMILES IDX 103 13 84 14 85 15 86 16 87 17 88 18 101 19 89 20 91 21
REMARK SMILES IDX 102 22 90 23 92 24 93 25 100 26 94 27 96 28 95 29 97 30
REMARK SMILES IDX 98 31 99 32 9 33 10 34 11 35 12 36 13 37 14 38 15 39 16 40
REMARK SMILES IDX 17 41 18 42 19 43 80 44 20 45 79 46 21 47 22 48 23 49 73 50
REMARK SMILES IDX 24 51 78 52 72 53 74 54 25 55 77 56 71 57 70 58 26 60 58 61
REMARK SMILES IDX 38 62 57 63 39 64 42 65 56 66 75 67 40 68 41 69 55 71 76 72
REMARK SMILES IDX 43 73 27 74 28 75 36 76 29 77 30 78 34 79 37 80 31 81 32 82
REMARK SMILES IDX 35 83 33 84 59 85 60 86 68 87 61 88 62 89 66 90 69 91 63 92
REMARK SMILES IDX 64 93 67 94 65 95 44 96 45 97 53 98 46 99 47 100 51 101
REMARK SMILES IDX 54 102 48 103 49 104 52 105 50 106
REMARK H PARENT 74 59 42 70
REMARK Flexibility Score: inf
ROOT
ATOM      1  C   UNL A   1      38.435  34.685  31.585  1.00  0.00     0.188 C 
ENDROOT
BRANCH   1   2
ATOM      2  C   UNL A   1      39.096  34.345  30.248  1.00  0.00     0.188 C 
BRANCH   2   3
ATOM      3  O   UNL A   1      40.215  33.487  30.468  1.00  0.00    -0.376 OA
BRANCH   3   4
ATOM      4  C   UNL A   1      41.450  33.875  29.886  1.00  0.00     0.202 C 
BRANCH   4   5
ATOM      5  C   UNL A   1      42.583  32.855  29.988  1.00  0.00     0.261 C 
BRANCH   5   6
ATOM      6  O   UNL A   1      42.146  31.497  29.821  1.00  0.00    -0.460 OA
BRANCH   6   7
ATOM      7  C   UNL A   1      42.749  30.563  29.045  1.00  0.00     0.338 C 
ATOM      8  O   UNL A   1      42.157  30.078  28.085  1.00  0.00    -0.246 OA
BRANCH   7   9
ATOM      9  C   UNL A   1      44.148  30.140  29.298  1.00  0.00     0.060 A 
ATOM     10  C   UNL A   1      44.833  30.439  30.475  1.00  0.00     0.016 A 
ATOM     11  C   UNL A   1      44.754  29.292  28.371  1.00  0.00     0.016 A 
ATOM     12  C   UNL A   1      46.144  30.018  30.677  1.00  0.00     0.009 A 
ATOM     13  C   UNL A   1      46.058  28.834  28.589  1.00  0.00     0.009 A 
ATOM     14  C   UNL A   1      46.780  29.227  29.727  1.00  0.00    -0.025 A 
BRANCH  14  15
ATOM     15  C   UNL A   1      48.172  28.797  29.875  1.00  0.00     0.012 C 
ATOM     16  C   UNL A   1      48.922  28.245  28.905  1.00  0.00     0.053 C 
BRANCH  16  17
ATOM     17  C   UNL A   1      50.231  27.660  29.217  1.00  0.00     0.134 A 
ATOM     18  C   UNL A   1      50.706  27.647  30.527  1.00  0.00     0.100 A 
ATOM     19  N   UNL A   1      50.995  27.106  28.179  1.00  0.00    -0.228 N 
ATOM     20  C   UNL A   1      51.907  27.020  30.764  1.00  0.00     0.259 A 
ATOM     21  C   UNL A   1      52.192  26.478  28.514  1.00  0.00     0.333 A 
ATOM     22  O   UNL A   1      50.598  27.164  26.958  1.00  0.00    -0.710 OA
ATOM     23  N   UNL A   1      52.641  26.419  29.804  1.00  0.00    -0.049 NA
BRANCH  21  24
ATOM     24  C   UNL A   1      52.945  25.796  27.465  1.00  0.00     0.076 A 
ATOM     25  C   UNL A   1      52.272  25.128  26.428  1.00  0.00     0.017 A 
ATOM     26  C   UNL A   1      54.344  25.903  27.403  1.00  0.00     0.102 A 
ATOM     27  C   UNL A   1      52.972  24.617  25.332  1.00  0.00     0.008 A 
ATOM     28  C   UNL A   1      55.041  25.391  26.303  1.00  0.00     0.270 A 
ATOM     29  C   UNL A   1      54.359  24.751  25.262  1.00  0.00     0.085 A 
BRANCH  28  30
ATOM     30  N   UNL A   1      56.499  25.554  26.231  1.00  0.00     0.062 N 
ATOM     31  O   UNL A   1      57.199  24.762  26.878  1.00  0.00    -0.258 OA
ATOM     32  O   UNL A   1      56.944  26.481  25.540  1.00  0.00    -0.258 OA
ENDBRANCH  28  30
ENDBRANCH  21  24
ENDBRANCH  16  17
ENDBRANCH  14  15
ENDBRANCH   7   9
ENDBRANCH   6   7
ENDBRANCH   5   6
ENDBRANCH   4   5
ENDBRANCH   3   4
ENDBRANCH   2   3
ENDBRANCH   1   2
BRANCH   1  33
ATOM     33  O   UNL A   1      37.244  33.953  31.872  1.00  0.00    -0.377 OA
BRANCH  33  34
ATOM     34  C   UNL A   1      36.155  34.148  30.978  1.00  0.00     0.188 C 
BRANCH  34  35
ATOM     35  C   UNL A   1      34.736  33.738  31.431  1.00  0.00     0.188 C 
BRANCH  35  36
ATOM     36  O   UNL A   1      33.674  34.521  30.899  1.00  0.00    -0.376 OA
BRANCH  36  37
ATOM     37  C   UNL A   1      33.848  34.942  29.546  1.00  0.00     0.202 C 
BRANCH  37  38
ATOM     38  C   UNL A   1      33.510  33.871  28.501  1.00  0.00     0.261 C 
BRANCH  38  39
ATOM     39  O   UNL A   1      34.628  33.095  28.047  1.00  0.00    -0.460 OA
BRANCH  39  40
ATOM     40  C   UNL A   1      34.456  31.772  27.834  1.00  0.00     0.338 C 
ATOM     41  O   UNL A   1      33.586  31.236  27.171  1.00  0.00    -0.246 OA
BRANCH  40  42
ATOM     42  C   UNL A   1      35.673  31.097  28.346  1.00  0.00     0.060 A 
ATOM     43  C   UNL A   1      35.592  29.745  28.717  1.00  0.00     0.016 A 
ATOM     44  C   UNL A   1      36.913  31.745  28.312  1.00  0.00     0.016 A 
ATOM     45  C   UNL A   1      36.753  29.041  29.055  1.00  0.00     0.010 A 
ATOM     46  C   UNL A   1      38.066  31.050  28.674  1.00  0.00     0.010 A 
ATOM     47  C   UNL A   1      37.990  29.705  29.073  1.00  0.00    -0.014 A 
BRANCH  47  48
ATOM     48  C   UNL A   1      39.146  29.127  29.798  1.00  0.00     0.031 A 
ATOM     49  C   UNL A   1      39.515  29.782  31.099  1.00  0.00     0.074 A 
ATOM     50  C   UNL A   1      39.894  28.127  29.304  1.00  0.00     0.049 A 
ATOM     51  N   UNL A   1      40.560  29.600  31.862  1.00  0.00    -0.248 NA
ATOM     52  C   UNL A   1      38.574  30.801  31.594  1.00  0.00     0.031 C 
ATOM     53  C   UNL A   1      39.631  27.394  28.069  1.00  0.00     0.029 A 
ATOM     54  N   UNL A   1      41.059  27.576  29.784  1.00  0.00    -0.354 N 
ATOM     55  C   UNL A   1      40.410  30.495  32.912  1.00  0.00     0.074 A 
ATOM     56  C   UNL A   1      39.190  31.233  32.680  1.00  0.00     0.031 C 
ATOM     57  C   UNL A   1      40.624  26.505  27.873  1.00  0.00     0.029 A 
ATOM     58  C   UNL A   1      41.610  26.637  28.946  1.00  0.00     0.049 A 
ATOM     59  H   UNL A   1      41.462  27.832  30.645  1.00  0.00     0.167 HD
ATOM     60  C   UNL A   1      41.220  30.691  33.977  1.00  0.00     0.037 A 
ATOM     61  C   UNL A   1      42.790  25.989  29.026  1.00  0.00     0.037 A 
ATOM     62  C   UNL A   1      42.446  29.978  34.195  1.00  0.00     0.049 A 
ATOM     63  C   UNL A   1      43.714  26.264  30.191  1.00  0.00     0.074 A 
ATOM     64  C   UNL A   1      43.334  30.090  35.247  1.00  0.00     0.029 A 
ATOM     65  N   UNL A   1      42.964  29.028  33.327  1.00  0.00    -0.354 N 
ATOM     66  N   UNL A   1      43.553  27.085  31.200  1.00  0.00    -0.248 NA
ATOM     67  C   UNL A   1      44.985  25.524  30.223  1.00  0.00     0.031 C 
ATOM     68  C   UNL A   1      44.418  29.245  34.991  1.00  0.00     0.029 A 
ATOM     69  C   UNL A   1      44.175  28.562  33.810  1.00  0.00     0.049 A 
ATOM     70  H   UNL A   1      42.535  28.730  32.493  1.00  0.00     0.167 HD
ATOM     71  C   UNL A   1      44.680  26.937  32.001  1.00  0.00     0.074 A 
ATOM     72  C   UNL A   1      45.519  25.947  31.360  1.00  0.00     0.031 C 
ATOM     73  C   UNL A   1      44.988  27.561  33.166  1.00  0.00     0.037 A 
BRANCH  60  74
ATOM     74  C   UNL A   1      40.813  31.758  34.948  1.00  0.00     0.064 A 
ATOM     75  C   UNL A   1      41.318  33.065  34.865  1.00  0.00     0.173 A 
ATOM     76  C   UNL A   1      39.933  31.458  35.998  1.00  0.00     0.173 A 
ATOM     77  F   UNL A   1      42.185  33.393  33.896  1.00  0.00    -0.203 F 
ATOM     78  C   UNL A   1      40.988  34.021  35.821  1.00  0.00     0.198 A 
ATOM     79  C   UNL A   1      39.579  32.427  36.932  1.00  0.00     0.198 A 
ATOM     80  F   UNL A   1      39.427  30.223  36.124  1.00  0.00    -0.203 F 
ATOM     81  F   UNL A   1      41.540  35.241  35.763  1.00  0.00    -0.200 F 
ATOM     82  C   UNL A   1      40.116  33.703  36.851  1.00  0.00     0.200 A 
ATOM     83  F   UNL A   1      38.731  32.120  37.923  1.00  0.00    -0.200 F 
ATOM     84  F   UNL A   1      39.805  34.622  37.775  1.00  0.00    -0.200 F 
ENDBRANCH  60  74
BRANCH  61  85
ATOM     85  C   UNL A   1      43.180  25.024  27.964  1.00  0.00     0.064 A 
ATOM     86  C   UNL A   1      42.860  23.664  28.068  1.00  0.00     0.173 A 
ATOM     87  C   UNL A   1      43.885  25.441  26.825  1.00  0.00     0.173 A 
ATOM     88  F   UNL A   1      42.214  23.210  29.153  1.00  0.00    -0.203 F 
ATOM     89  C   UNL A   1      43.235  22.755  27.079  1.00  0.00     0.198 A 
ATOM     90  C   UNL A   1      44.238  24.537  25.824  1.00  0.00     0.198 A 
ATOM     91  F   UNL A   1      44.225  26.730  26.679  1.00  0.00    -0.203 F 
ATOM     92  F   UNL A   1      42.947  21.455  27.222  1.00  0.00    -0.200 F 
ATOM     93  C   UNL A   1      43.916  23.195  25.954  1.00  0.00     0.200 A 
ATOM     94  F   UNL A   1      44.889  24.967  24.734  1.00  0.00    -0.200 F 
ATOM     95  F   UNL A   1      44.268  22.323  24.998  1.00  0.00    -0.200 F 
ENDBRANCH  61  85
BRANCH  73  96
ATOM     96  C   UNL A   1      46.254  27.160  33.865  1.00  0.00     0.064 A 
ATOM     97  C   UNL A   1      47.421  27.932  33.785  1.00  0.00     0.173 A 
ATOM     98  C   UNL A   1      46.267  26.033  34.703  1.00  0.00     0.173 A 
ATOM     99  F   UNL A   1      47.464  29.013  32.991  1.00  0.00    -0.203 F 
ATOM    100  C   UNL A   1      48.559  27.585  34.511  1.00  0.00     0.198 A 
ATOM    101  C   UNL A   1      47.396  25.707  35.448  1.00  0.00     0.198 A 
ATOM    102  F   UNL A   1      45.172  25.268  34.823  1.00  0.00    -0.203 F 
ATOM    103  F   UNL A   1      49.674  28.321  34.399  1.00  0.00    -0.200 F 
ATOM    104  C   UNL A   1      48.541  26.480  35.349  1.00  0.00     0.200 A 
ATOM    105  F   UNL A   1      47.371  24.649  36.271  1.00  0.00    -0.200 F 
ATOM    106  F   UNL A   1      49.631  26.161  36.062  1.00  0.00    -0.200 F 
ENDBRANCH  73  96
ENDBRANCH  47  48
ENDBRANCH  40  42
ENDBRANCH  39  40
ENDBRANCH  38  39
ENDBRANCH  37  38
ENDBRANCH  36  37
ENDBRANCH  35  36
ENDBRANCH  34  35
ENDBRANCH  33  34
ENDBRANCH   1  33
TORSDOF 24
ENDMDL
