MODEL 1
REMARK VINA RESULT:     -11.2      0.000      0.000
REMARK SMILES O=C(OCCOCCOCCOCCOC(=O)c1ccc(-c2c3nc(c(-c4c(F)c(F)c(F)c(F)c4F)c4ccc([nH]4)c(-c4c(F)c(F)c(F)c(F)c4F)c4nc(c(-c5c(F)c(F)c(F)c(F)c5F)c5ccc2[nH]5)C=C4)C=C3)cc1)C1=Cc2cc(Cl)cc(Cl)c2O[C@@H]1C(F)(F)F
REMARK SMILES IDX 10 1 9 2 8 3 7 4 6 5 5 6 4 7 3 8 2 9 1 10 81 11 82 12 92 13
REMARK SMILES IDX 83 14 91 15 84 16 90 17 85 18 88 19 86 20 87 21 89 22 93 23
REMARK SMILES IDX 94 24 95 25 96 26 11 27 12 28 13 29 14 30 15 31 16 32 17 33
REMARK SMILES IDX 18 34 19 35 80 36 20 37 79 38 21 39 22 40 23 41 73 42 24 43
REMARK SMILES IDX 78 44 72 45 74 46 25 47 77 48 71 49 70 50 26 52 58 53 38 54
REMARK SMILES IDX 57 55 39 56 42 57 56 58 75 59 40 60 41 61 55 63 76 64 43 65
REMARK SMILES IDX 27 66 28 67 36 68 29 69 30 70 34 71 37 72 31 73 32 74 35 75
REMARK SMILES IDX 33 76 59 77 60 78 68 79 61 80 62 81 66 82 69 83 63 84 64 85
REMARK SMILES IDX 67 86 65 87 44 88 45 89 53 90 46 91 47 92 51 93 54 94 48 95
REMARK SMILES IDX 49 96 52 97 50 98
REMARK H PARENT 74 51 42 62
REMARK Flexibility Score: inf
ROOT
ATOM      1  C   UNL A   1      32.885  35.752  29.992  1.00  0.00     0.188 C 
ENDROOT
BRANCH   1   2
ATOM      2  O   UNL A   1      32.942  34.559  29.243  1.00  0.00    -0.377 OA
BRANCH   2   3
ATOM      3  C   UNL A   1      33.882  34.629  28.192  1.00  0.00     0.188 C 
BRANCH   3   4
ATOM      4  C   UNL A   1      34.933  33.512  28.192  1.00  0.00     0.188 C 
BRANCH   4   5
ATOM      5  O   UNL A   1      34.648  32.154  27.751  1.00  0.00    -0.376 OA
BRANCH   5   6
ATOM      6  C   UNL A   1      33.330  31.211  27.762  1.00  0.00     0.202 C 
BRANCH   6   7
ATOM      7  C   UNL A   1      33.084  29.161  27.069  1.00  0.00     0.261 C 
BRANCH   7   8
ATOM      8  O   UNL A   1      31.843  28.585  26.357  1.00  0.00    -0.460 OA
BRANCH   8   9
ATOM      9  C   UNL A   1      31.808  27.248  26.360  1.00  0.00     0.338 C 
ATOM     10  O   UNL A   1      31.352  26.484  27.170  1.00  0.00    -0.246 OA
BRANCH   9  11
ATOM     11  C   UNL A   1      32.783  27.083  25.311  1.00  0.00     0.087 C 
ATOM     12  C   UNL A   1      33.884  26.179  25.731  1.00  0.00     0.027 C 
ATOM     13  C   UNL A   1      31.513  26.703  23.900  1.00  0.00     0.316 C 
ATOM     14  C   UNL A   1      34.091  24.494  25.098  1.00  0.00     0.020 A 
ATOM     15  O   UNL A   1      31.664  24.868  23.294  1.00  0.00    -0.474 OA
ATOM     16  C   UNL A   1      35.090  23.705  25.602  1.00  0.00     0.032 A 
ATOM     17  C   UNL A   1      32.970  23.789  23.978  1.00  0.00     0.146 A 
ATOM     18  C   UNL A   1      35.105  22.379  25.127  1.00  0.00     0.043 A 
ATOM     19  C   UNL A   1      33.047  22.468  23.616  1.00  0.00     0.085 A 
ATOM     20  Cl  UNL A   1      36.359  21.346  25.740  1.00  0.00    -0.084 Cl
ATOM     21  C   UNL A   1      34.149  21.794  24.198  1.00  0.00     0.045 A 
ATOM     22  Cl  UNL A   1      31.934  21.631  22.639  1.00  0.00    -0.080 Cl
BRANCH  13  23
ATOM     23  C   UNL A   1      31.646  28.101  23.099  1.00  0.00     0.430 C 
ATOM     24  F   UNL A   1      30.855  29.111  23.500  1.00  0.00    -0.167 F 
ATOM     25  F   UNL A   1      32.917  28.556  23.321  1.00  0.00    -0.167 F 
ATOM     26  F   UNL A   1      31.555  27.995  21.753  1.00  0.00    -0.167 F 
ENDBRANCH  13  23
ENDBRANCH   9  11
ENDBRANCH   8   9
ENDBRANCH   7   8
ENDBRANCH   6   7
ENDBRANCH   5   6
ENDBRANCH   4   5
ENDBRANCH   3   4
ENDBRANCH   2   3
ENDBRANCH   1   2
BRANCH   1  27
ATOM     27  C   UNL A   1      33.606  35.731  31.342  1.00  0.00     0.188 C 
BRANCH  27  28
ATOM     28  O   UNL A   1      33.014  35.189  32.511  1.00  0.00    -0.376 OA
BRANCH  28  29
ATOM     29  C   UNL A   1      33.410  33.928  33.025  1.00  0.00     0.202 C 
BRANCH  29  30
ATOM     30  C   UNL A   1      34.345  33.008  32.225  1.00  0.00     0.261 C 
BRANCH  30  31
ATOM     31  O   UNL A   1      35.596  32.704  32.857  1.00  0.00    -0.460 OA
BRANCH  31  32
ATOM     32  C   UNL A   1      36.676  33.343  32.358  1.00  0.00     0.338 C 
ATOM     33  O   UNL A   1      36.972  34.518  32.500  1.00  0.00    -0.246 OA
BRANCH  32  34
ATOM     34  C   UNL A   1      37.584  32.361  31.729  1.00  0.00     0.060 A 
ATOM     35  C   UNL A   1      38.417  31.596  32.562  1.00  0.00     0.016 A 
ATOM     36  C   UNL A   1      37.645  32.217  30.343  1.00  0.00     0.016 A 
ATOM     37  C   UNL A   1      39.345  30.713  32.013  1.00  0.00     0.010 A 
ATOM     38  C   UNL A   1      38.604  31.366  29.791  1.00  0.00     0.010 A 
ATOM     39  C   UNL A   1      39.485  30.651  30.623  1.00  0.00    -0.014 A 
BRANCH  39  40
ATOM     40  C   UNL A   1      40.722  30.092  30.034  1.00  0.00     0.031 A 
ATOM     41  C   UNL A   1      41.859  31.043  29.795  1.00  0.00     0.074 A 
ATOM     42  C   UNL A   1      40.821  28.803  29.679  1.00  0.00     0.049 A 
ATOM     43  N   UNL A   1      42.969  30.869  29.128  1.00  0.00    -0.248 NA
ATOM     44  C   UNL A   1      41.707  32.386  30.379  1.00  0.00     0.031 C 
ATOM     45  C   UNL A   1      39.808  27.781  29.914  1.00  0.00     0.029 A 
ATOM     46  N   UNL A   1      41.822  28.147  29.007  1.00  0.00    -0.354 N 
ATOM     47  C   UNL A   1      43.630  32.090  29.183  1.00  0.00     0.074 A 
ATOM     48  C   UNL A   1      42.790  32.999  29.931  1.00  0.00     0.031 C 
ATOM     49  C   UNL A   1      40.219  26.630  29.355  1.00  0.00     0.029 A 
ATOM     50  C   UNL A   1      41.499  26.855  28.683  1.00  0.00     0.049 A 
ATOM     51  H   UNL A   1      42.686  28.564  28.780  1.00  0.00     0.167 HD
ATOM     52  C   UNL A   1      44.828  32.422  28.649  1.00  0.00     0.037 A 
ATOM     53  C   UNL A   1      42.144  25.975  27.890  1.00  0.00     0.037 A 
ATOM     54  C   UNL A   1      45.643  31.510  27.894  1.00  0.00     0.049 A 
ATOM     55  C   UNL A   1      43.442  26.381  27.238  1.00  0.00     0.074 A 
ATOM     56  C   UNL A   1      46.884  31.729  27.325  1.00  0.00     0.029 A 
ATOM     57  N   UNL A   1      45.284  30.205  27.586  1.00  0.00    -0.354 N 
ATOM     58  N   UNL A   1      44.078  27.528  27.300  1.00  0.00    -0.248 NA
ATOM     59  C   UNL A   1      44.114  25.371  26.409  1.00  0.00     0.031 C 
ATOM     60  C   UNL A   1      47.242  30.582  26.611  1.00  0.00     0.029 A 
ATOM     61  C   UNL A   1      46.265  29.617  26.805  1.00  0.00     0.049 A 
ATOM     62  H   UNL A   1      44.456  29.762  27.880  1.00  0.00     0.167 HD
ATOM     63  C   UNL A   1      45.237  27.367  26.550  1.00  0.00     0.074 A 
ATOM     64  C   UNL A   1      45.215  26.012  26.040  1.00  0.00     0.031 C 
ATOM     65  C   UNL A   1      46.232  28.260  26.316  1.00  0.00     0.037 A 
BRANCH  52  66
ATOM     66  C   UNL A   1      45.281  33.846  28.811  1.00  0.00     0.064 A 
ATOM     67  C   UNL A   1      46.259  34.219  29.747  1.00  0.00     0.173 A 
ATOM     68  C   UNL A   1      44.705  34.860  28.031  1.00  0.00     0.173 A 
ATOM     69  F   UNL A   1      46.832  33.293  30.532  1.00  0.00    -0.203 F 
ATOM     70  C   UNL A   1      46.603  35.556  29.932  1.00  0.00     0.198 A 
ATOM     71  C   UNL A   1      45.082  36.191  28.189  1.00  0.00     0.198 A 
ATOM     72  F   UNL A   1      43.768  34.563  27.117  1.00  0.00    -0.203 F 
ATOM     73  F   UNL A   1      47.479  35.895  30.888  1.00  0.00    -0.200 F 
ATOM     74  C   UNL A   1      46.018  36.539  29.149  1.00  0.00     0.200 A 
ATOM     75  F   UNL A   1      44.527  37.138  27.419  1.00  0.00    -0.200 F 
ATOM     76  F   UNL A   1      46.347  37.826  29.330  1.00  0.00    -0.200 F 
ENDBRANCH  52  66
BRANCH  53  77
ATOM     77  C   UNL A   1      41.548  24.634  27.656  1.00  0.00     0.064 A 
ATOM     78  C   UNL A   1      40.431  24.474  26.827  1.00  0.00     0.173 A 
ATOM     79  C   UNL A   1      42.106  23.481  28.229  1.00  0.00     0.173 A 
ATOM     80  F   UNL A   1      39.847  25.549  26.276  1.00  0.00    -0.203 F 
ATOM     81  C   UNL A   1      39.892  23.213  26.580  1.00  0.00     0.198 A 
ATOM     82  C   UNL A   1      41.585  22.219  27.959  1.00  0.00     0.198 A 
ATOM     83  F   UNL A   1      43.176  23.580  29.032  1.00  0.00    -0.203 F 
ATOM     84  F   UNL A   1      38.805  23.091  25.806  1.00  0.00    -0.200 F 
ATOM     85  C   UNL A   1      40.476  22.085  27.137  1.00  0.00     0.200 A 
ATOM     86  F   UNL A   1      42.163  21.130  28.485  1.00  0.00    -0.200 F 
ATOM     87  F   UNL A   1      39.971  20.871  26.882  1.00  0.00    -0.200 F 
ENDBRANCH  53  77
BRANCH  65  88
ATOM     88  C   UNL A   1      47.421  27.791  25.523  1.00  0.00     0.064 A 
ATOM     89  C   UNL A   1      48.550  27.226  26.132  1.00  0.00     0.173 A 
ATOM     90  C   UNL A   1      47.387  27.835  24.118  1.00  0.00     0.173 A 
ATOM     91  F   UNL A   1      48.639  27.170  27.470  1.00  0.00    -0.203 F 
ATOM     92  C   UNL A   1      49.606  26.737  25.366  1.00  0.00     0.198 A 
ATOM     93  C   UNL A   1      48.428  27.314  23.357  1.00  0.00     0.198 A 
ATOM     94  F   UNL A   1      46.325  28.357  23.485  1.00  0.00    -0.203 F 
ATOM     95  F   UNL A   1      50.692  26.236  25.971  1.00  0.00    -0.200 F 
ATOM     96  C   UNL A   1      49.539  26.770  23.982  1.00  0.00     0.200 A 
ATOM     97  F   UNL A   1      48.350  27.329  22.020  1.00  0.00    -0.200 F 
ATOM     98  F   UNL A   1      50.548  26.281  23.248  1.00  0.00    -0.200 F 
ENDBRANCH  65  88
ENDBRANCH  39  40
ENDBRANCH  32  34
ENDBRANCH  31  32
ENDBRANCH  30  31
ENDBRANCH  29  30
ENDBRANCH  28  29
ENDBRANCH  27  28
ENDBRANCH   1  27
TORSDOF 21
ENDMDL
MODEL 2
REMARK VINA RESULT:     -11.2      5.175      8.477
REMARK SMILES O=C(OCCOCCOCCOCCOC(=O)c1ccc(-c2c3nc(c(-c4c(F)c(F)c(F)c(F)c4F)c4ccc([nH]4)c(-c4c(F)c(F)c(F)c(F)c4F)c4nc(c(-c5c(F)c(F)c(F)c(F)c5F)c5ccc2[nH]5)C=C4)C=C3)cc1)C1=Cc2cc(Cl)cc(Cl)c2O[C@@H]1C(F)(F)F
REMARK SMILES IDX 10 1 9 2 8 3 7 4 6 5 5 6 4 7 3 8 2 9 1 10 81 11 82 12 92 13
REMARK SMILES IDX 83 14 91 15 84 16 90 17 85 18 88 19 86 20 87 21 89 22 93 23
REMARK SMILES IDX 94 24 95 25 96 26 11 27 12 28 13 29 14 30 15 31 16 32 17 33
REMARK SMILES IDX 18 34 19 35 80 36 20 37 79 38 21 39 22 40 23 41 73 42 24 43
REMARK SMILES IDX 78 44 72 45 74 46 25 47 77 48 71 49 70 50 26 52 58 53 38 54
REMARK SMILES IDX 57 55 39 56 42 57 56 58 75 59 40 60 41 61 55 63 76 64 43 65
REMARK SMILES IDX 27 66 28 67 36 68 29 69 30 70 34 71 37 72 31 73 32 74 35 75
REMARK SMILES IDX 33 76 59 77 60 78 68 79 61 80 62 81 66 82 69 83 63 84 64 85
REMARK SMILES IDX 67 86 65 87 44 88 45 89 53 90 46 91 47 92 51 93 54 94 48 95
REMARK SMILES IDX 49 96 52 97 50 98
REMARK H PARENT 74 51 42 62
REMARK Flexibility Score: inf
ROOT
ATOM      1  C   UNL A   1      37.256  33.673  33.515  1.00  0.00     0.188 C 
ENDROOT
BRANCH   1   2
ATOM      2  O   UNL A   1      38.506  33.067  33.750  1.00  0.00    -0.377 OA
BRANCH   2   3
ATOM      3  C   UNL A   1      38.388  31.695  34.060  1.00  0.00     0.188 C 
BRANCH   3   4
ATOM      4  C   UNL A   1      39.421  31.171  35.066  1.00  0.00     0.188 C 
BRANCH   4   5
ATOM      5  O   UNL A   1      39.882  29.790  35.084  1.00  0.00    -0.376 OA
BRANCH   5   6
ATOM      6  C   UNL A   1      40.975  28.949  34.233  1.00  0.00     0.202 C 
BRANCH   6   7
ATOM      7  C   UNL A   1      41.522  26.845  34.371  1.00  0.00     0.261 C 
BRANCH   7   8
ATOM      8  O   UNL A   1      42.767  26.274  35.079  1.00  0.00    -0.460 OA
BRANCH   8   9
ATOM      9  C   UNL A   1      42.735  24.942  35.207  1.00  0.00     0.338 C 
ATOM     10  O   UNL A   1      41.881  24.224  35.657  1.00  0.00    -0.246 OA
BRANCH   9  11
ATOM     11  C   UNL A   1      44.147  24.752  34.984  1.00  0.00     0.087 C 
ATOM     12  C   UNL A   1      44.872  24.527  36.261  1.00  0.00     0.027 C 
ATOM     13  C   UNL A   1      43.962  23.444  33.570  1.00  0.00     0.316 C 
ATOM     14  C   UNL A   1      45.544  22.920  36.761  1.00  0.00     0.020 A 
ATOM     15  O   UNL A   1      44.585  21.698  34.139  1.00  0.00    -0.474 OA
ATOM     16  C   UNL A   1      46.128  22.790  37.993  1.00  0.00     0.032 A 
ATOM     17  C   UNL A   1      45.338  21.497  35.792  1.00  0.00     0.146 A 
ATOM     18  C   UNL A   1      46.522  21.482  38.334  1.00  0.00     0.043 A 
ATOM     19  C   UNL A   1      45.718  20.258  36.242  1.00  0.00     0.085 A 
ATOM     20  Cl  UNL A   1      47.271  21.274  39.887  1.00  0.00    -0.084 Cl
ATOM     21  C   UNL A   1      46.331  20.292  37.518  1.00  0.00     0.045 A 
ATOM     22  Cl  UNL A   1      45.447  18.778  35.448  1.00  0.00    -0.080 Cl
BRANCH  13  23
ATOM     23  C   UNL A   1      44.419  24.384  32.337  1.00  0.00     0.430 C 
ATOM     24  F   UNL A   1      45.740  24.506  32.121  1.00  0.00    -0.167 F 
ATOM     25  F   UNL A   1      43.942  23.792  31.199  1.00  0.00    -0.167 F 
ATOM     26  F   UNL A   1      43.869  25.620  32.331  1.00  0.00    -0.167 F 
ENDBRANCH  13  23
ENDBRANCH   9  11
ENDBRANCH   8   9
ENDBRANCH   7   8
ENDBRANCH   6   7
ENDBRANCH   5   6
ENDBRANCH   4   5
ENDBRANCH   3   4
ENDBRANCH   2   3
ENDBRANCH   1   2
BRANCH   1  27
ATOM     27  C   UNL A   1      36.653  33.452  32.126  1.00  0.00     0.188 C 
BRANCH  27  28
ATOM     28  O   UNL A   1      35.749  32.396  31.849  1.00  0.00    -0.376 OA
BRANCH  28  29
ATOM     29  C   UNL A   1      34.526  32.628  31.167  1.00  0.00     0.202 C 
BRANCH  29  30
ATOM     30  C   UNL A   1      34.514  33.229  29.754  1.00  0.00     0.261 C 
BRANCH  30  31
ATOM     31  O   UNL A   1      35.393  32.602  28.811  1.00  0.00    -0.460 OA
BRANCH  31  32
ATOM     32  C   UNL A   1      35.066  31.342  28.452  1.00  0.00     0.338 C 
ATOM     33  O   UNL A   1      34.026  30.965  27.938  1.00  0.00    -0.246 OA
BRANCH  32  34
ATOM     34  C   UNL A   1      36.243  30.462  28.614  1.00  0.00     0.060 A 
ATOM     35  C   UNL A   1      36.444  29.844  29.860  1.00  0.00     0.016 A 
ATOM     36  C   UNL A   1      37.153  30.273  27.575  1.00  0.00     0.016 A 
ATOM     37  C   UNL A   1      37.579  29.068  30.086  1.00  0.00     0.010 A 
ATOM     38  C   UNL A   1      38.312  29.533  27.815  1.00  0.00     0.010 A 
ATOM     39  C   UNL A   1      38.548  28.970  29.083  1.00  0.00    -0.014 A 
BRANCH  39  40
ATOM     40  C   UNL A   1      39.925  28.554  29.430  1.00  0.00     0.031 A 
ATOM     41  C   UNL A   1      40.762  29.530  30.205  1.00  0.00     0.074 A 
ATOM     42  C   UNL A   1      40.434  27.378  29.034  1.00  0.00     0.049 A 
ATOM     43  N   UNL A   1      42.041  29.507  30.473  1.00  0.00    -0.248 NA
ATOM     44  C   UNL A   1      40.054  30.707  30.734  1.00  0.00     0.031 C 
ATOM     45  C   UNL A   1      39.699  26.335  28.330  1.00  0.00     0.029 A 
ATOM     46  N   UNL A   1      41.710  26.888  29.143  1.00  0.00    -0.354 N 
ATOM     47  C   UNL A   1      42.295  30.680  31.172  1.00  0.00     0.074 A 
ATOM     48  C   UNL A   1      41.045  31.401  31.269  1.00  0.00     0.031 C 
ATOM     49  C   UNL A   1      40.549  25.337  28.029  1.00  0.00     0.029 A 
ATOM     50  C   UNL A   1      41.893  25.703  28.478  1.00  0.00     0.049 A 
ATOM     51  H   UNL A   1      42.424  27.341  29.650  1.00  0.00     0.167 HD
ATOM     52  C   UNL A   1      43.471  31.120  31.679  1.00  0.00     0.037 A 
ATOM     53  C   UNL A   1      43.028  25.022  28.219  1.00  0.00     0.037 A 
ATOM     54  C   UNL A   1      44.708  30.399  31.559  1.00  0.00     0.049 A 
ATOM     55  C   UNL A   1      44.344  25.560  28.724  1.00  0.00     0.074 A 
ATOM     56  C   UNL A   1      45.955  30.736  32.052  1.00  0.00     0.029 A 
ATOM     57  N   UNL A   1      44.856  29.199  30.877  1.00  0.00    -0.354 N 
ATOM     58  N   UNL A   1      44.586  26.661  29.397  1.00  0.00    -0.248 NA
ATOM     59  C   UNL A   1      45.543  24.761  28.436  1.00  0.00     0.031 C 
ATOM     60  C   UNL A   1      46.870  29.778  31.605  1.00  0.00     0.029 A 
ATOM     61  C   UNL A   1      46.181  28.798  30.907  1.00  0.00     0.049 A 
ATOM     62  H   UNL A   1      44.126  28.705  30.438  1.00  0.00     0.167 HD
ATOM     63  C   UNL A   1      45.954  26.669  29.643  1.00  0.00     0.074 A 
ATOM     64  C   UNL A   1      46.489  25.464  29.043  1.00  0.00     0.031 C 
ATOM     65  C   UNL A   1      46.695  27.587  30.314  1.00  0.00     0.037 A 
BRANCH  52  66
ATOM     66  C   UNL A   1      43.471  32.469  32.342  1.00  0.00     0.064 A 
ATOM     67  C   UNL A   1      43.246  32.625  33.719  1.00  0.00     0.173 A 
ATOM     68  C   UNL A   1      43.675  33.628  31.578  1.00  0.00     0.173 A 
ATOM     69  F   UNL A   1      43.027  31.552  34.495  1.00  0.00    -0.203 F 
ATOM     70  C   UNL A   1      43.172  33.892  34.294  1.00  0.00     0.198 A 
ATOM     71  C   UNL A   1      43.643  34.890  32.165  1.00  0.00     0.198 A 
ATOM     72  F   UNL A   1      43.899  33.540  30.259  1.00  0.00    -0.203 F 
ATOM     73  F   UNL A   1      42.875  34.019  35.595  1.00  0.00    -0.200 F 
ATOM     74  C   UNL A   1      43.377  35.022  33.518  1.00  0.00     0.200 A 
ATOM     75  F   UNL A   1      43.857  35.981  31.415  1.00  0.00    -0.200 F 
ATOM     76  F   UNL A   1      43.302  36.241  34.072  1.00  0.00    -0.200 F 
ENDBRANCH  52  66
BRANCH  53  77
ATOM     77  C   UNL A   1      42.960  23.772  27.420  1.00  0.00     0.064 A 
ATOM     78  C   UNL A   1      43.345  23.753  26.073  1.00  0.00     0.173 A 
ATOM     79  C   UNL A   1      42.542  22.563  27.996  1.00  0.00     0.173 A 
ATOM     80  F   UNL A   1      43.729  24.889  25.470  1.00  0.00    -0.203 F 
ATOM     81  C   UNL A   1      43.314  22.573  25.332  1.00  0.00     0.198 A 
ATOM     82  C   UNL A   1      42.539  21.379  27.263  1.00  0.00     0.198 A 
ATOM     83  F   UNL A   1      42.162  22.527  29.282  1.00  0.00    -0.203 F 
ATOM     84  F   UNL A   1      43.660  22.588  24.038  1.00  0.00    -0.200 F 
ATOM     85  C   UNL A   1      42.921  21.385  25.930  1.00  0.00     0.200 A 
ATOM     86  F   UNL A   1      42.176  20.230  27.850  1.00  0.00    -0.200 F 
ATOM     87  F   UNL A   1      42.912  20.247  25.223  1.00  0.00    -0.200 F 
ENDBRANCH  53  77
BRANCH  65  88
ATOM     88  C   UNL A   1      48.160  27.305  30.499  1.00  0.00     0.064 A 
ATOM     89  C   UNL A   1      48.646  26.560  31.582  1.00  0.00     0.173 A 
ATOM     90  C   UNL A   1      49.082  27.722  29.523  1.00  0.00     0.173 A 
ATOM     91  F   UNL A   1      47.812  26.147  32.548  1.00  0.00    -0.203 F 
ATOM     92  C   UNL A   1      50.002  26.255  31.689  1.00  0.00     0.198 A 
ATOM     93  C   UNL A   1      50.429  27.386  29.616  1.00  0.00     0.198 A 
ATOM     94  F   UNL A   1      48.667  28.429  28.461  1.00  0.00    -0.203 F 
ATOM     95  F   UNL A   1      50.451  25.574  32.753  1.00  0.00    -0.200 F 
ATOM     96  C   UNL A   1      50.889  26.657  30.702  1.00  0.00     0.200 A 
ATOM     97  F   UNL A   1      51.278  27.758  28.649  1.00  0.00    -0.200 F 
ATOM     98  F   UNL A   1      52.189  26.345  30.797  1.00  0.00    -0.200 F 
ENDBRANCH  65  88
ENDBRANCH  39  40
ENDBRANCH  32  34
ENDBRANCH  31  32
ENDBRANCH  30  31
ENDBRANCH  29  30
ENDBRANCH  28  29
ENDBRANCH  27  28
ENDBRANCH   1  27
TORSDOF 21
ENDMDL
MODEL 3
REMARK VINA RESULT:     -10.6      5.458     12.101
REMARK SMILES O=C(OCCOCCOCCOCCOC(=O)c1ccc(-c2c3nc(c(-c4c(F)c(F)c(F)c(F)c4F)c4ccc([nH]4)c(-c4c(F)c(F)c(F)c(F)c4F)c4nc(c(-c5c(F)c(F)c(F)c(F)c5F)c5ccc2[nH]5)C=C4)C=C3)cc1)C1=Cc2cc(Cl)cc(Cl)c2O[C@@H]1C(F)(F)F
REMARK SMILES IDX 10 1 9 2 8 3 7 4 6 5 5 6 4 7 3 8 2 9 1 10 81 11 82 12 92 13
REMARK SMILES IDX 83 14 91 15 84 16 90 17 85 18 88 19 86 20 87 21 89 22 93 23
REMARK SMILES IDX 94 24 95 25 96 26 11 27 12 28 13 29 14 30 15 31 16 32 17 33
REMARK SMILES IDX 18 34 19 35 80 36 20 37 79 38 21 39 22 40 23 41 73 42 24 43
REMARK SMILES IDX 78 44 72 45 74 46 25 47 77 48 71 49 70 50 26 52 58 53 38 54
REMARK SMILES IDX 57 55 39 56 42 57 56 58 75 59 40 60 41 61 55 63 76 64 43 65
REMARK SMILES IDX 27 66 28 67 36 68 29 69 30 70 34 71 37 72 31 73 32 74 35 75
REMARK SMILES IDX 33 76 59 77 60 78 68 79 61 80 62 81 66 82 69 83 63 84 64 85
REMARK SMILES IDX 67 86 65 87 44 88 45 89 53 90 46 91 47 92 51 93 54 94 48 95
REMARK SMILES IDX 49 96 52 97 50 98
REMARK H PARENT 74 51 42 62
REMARK Flexibility Score: inf
ROOT
ATOM      1  C   UNL A   1      42.633  21.730  26.021  1.00  0.00     0.188 C 
ENDROOT
BRANCH   1   2
ATOM      2  O   UNL A   1      42.492  21.129  27.288  1.00  0.00    -0.377 OA
BRANCH   2   3
ATOM      3  C   UNL A   1      42.073  22.047  28.274  1.00  0.00     0.188 C 
BRANCH   3   4
ATOM      4  C   UNL A   1      41.631  23.414  27.737  1.00  0.00     0.188 C 
BRANCH   4   5
ATOM      5  O   UNL A   1      40.234  23.798  27.597  1.00  0.00    -0.376 OA
BRANCH   5   6
ATOM      6  C   UNL A   1      39.465  25.201  27.342  1.00  0.00     0.202 C 
BRANCH   6   7
ATOM      7  C   UNL A   1      39.618  27.086  28.425  1.00  0.00     0.261 C 
BRANCH   7   8
ATOM      8  O   UNL A   1      38.864  28.389  28.092  1.00  0.00    -0.460 OA
BRANCH   8   9
ATOM      9  C   UNL A   1      39.187  29.405  28.900  1.00  0.00     0.338 C 
ATOM     10  O   UNL A   1      40.259  29.895  29.143  1.00  0.00    -0.246 OA
BRANCH   9  11
ATOM     11  C   UNL A   1      37.927  29.427  29.601  1.00  0.00     0.087 C 
ATOM     12  C   UNL A   1      38.107  29.143  31.047  1.00  0.00     0.027 C 
ATOM     13  C   UNL A   1      37.308  31.109  28.869  1.00  0.00     0.316 C 
ATOM     14  C   UNL A   1      37.941  30.400  32.342  1.00  0.00     0.020 A 
ATOM     15  O   UNL A   1      37.230  32.484  30.235  1.00  0.00    -0.474 OA
ATOM     16  C   UNL A   1      38.203  30.063  33.644  1.00  0.00     0.032 A 
ATOM     17  C   UNL A   1      37.607  32.061  31.972  1.00  0.00     0.146 A 
ATOM     18  C   UNL A   1      38.152  31.130  34.561  1.00  0.00     0.043 A 
ATOM     19  C   UNL A   1      37.629  33.033  32.939  1.00  0.00     0.085 A 
ATOM     20  Cl  UNL A   1      38.475  30.745  36.223  1.00  0.00    -0.084 Cl
ATOM     21  C   UNL A   1      37.886  32.524  34.236  1.00  0.00     0.045 A 
ATOM     22  Cl  UNL A   1      37.454  34.706  32.683  1.00  0.00    -0.080 Cl
BRANCH  13  23
ATOM     23  C   UNL A   1      36.165  30.518  27.891  1.00  0.00     0.430 C 
ATOM     24  F   UNL A   1      35.225  29.739  28.452  1.00  0.00    -0.167 F 
ATOM     25  F   UNL A   1      35.472  31.594  27.410  1.00  0.00    -0.167 F 
ATOM     26  F   UNL A   1      36.632  29.894  26.784  1.00  0.00    -0.167 F 
ENDBRANCH  13  23
ENDBRANCH   9  11
ENDBRANCH   8   9
ENDBRANCH   7   8
ENDBRANCH   6   7
ENDBRANCH   5   6
ENDBRANCH   4   5
ENDBRANCH   3   4
ENDBRANCH   2   3
ENDBRANCH   1   2
BRANCH   1  27
ATOM     27  C   UNL A   1      43.988  21.540  25.336  1.00  0.00     0.188 C 
BRANCH  27  28
ATOM     28  O   UNL A   1      45.217  21.791  25.999  1.00  0.00    -0.376 OA
BRANCH  28  29
ATOM     29  C   UNL A   1      46.030  22.902  25.656  1.00  0.00     0.202 C 
BRANCH  29  30
ATOM     30  C   UNL A   1      45.657  23.819  24.481  1.00  0.00     0.261 C 
BRANCH  30  31
ATOM     31  O   UNL A   1      45.396  25.186  24.828  1.00  0.00    -0.460 OA
BRANCH  31  32
ATOM     32  C   UNL A   1      44.101  25.500  25.045  1.00  0.00     0.338 C 
ATOM     33  O   UNL A   1      43.123  24.810  24.812  1.00  0.00    -0.246 OA
BRANCH  32  34
ATOM     34  C   UNL A   1      44.020  26.776  25.788  1.00  0.00     0.060 A 
ATOM     35  C   UNL A   1      45.218  27.441  26.100  1.00  0.00     0.016 A 
ATOM     36  C   UNL A   1      42.794  27.295  26.203  1.00  0.00     0.016 A 
ATOM     37  C   UNL A   1      45.199  28.605  26.865  1.00  0.00     0.010 A 
ATOM     38  C   UNL A   1      42.778  28.436  27.006  1.00  0.00     0.010 A 
ATOM     39  C   UNL A   1      43.982  29.064  27.377  1.00  0.00    -0.014 A 
BRANCH  39  40
ATOM     40  C   UNL A   1      43.972  29.995  28.526  1.00  0.00     0.031 A 
ATOM     41  C   UNL A   1      43.824  29.395  29.894  1.00  0.00     0.074 A 
ATOM     42  C   UNL A   1      44.044  31.325  28.365  1.00  0.00     0.049 A 
ATOM     43  N   UNL A   1      43.596  29.976  31.043  1.00  0.00    -0.248 NA
ATOM     44  C   UNL A   1      43.929  27.928  29.968  1.00  0.00     0.031 C 
ATOM     45  C   UNL A   1      44.245  32.012  27.095  1.00  0.00     0.029 A 
ATOM     46  N   UNL A   1      43.915  32.333  29.287  1.00  0.00    -0.354 N 
ATOM     47  C   UNL A   1      43.497  28.945  31.967  1.00  0.00     0.074 A 
ATOM     48  C   UNL A   1      43.670  27.704  31.246  1.00  0.00     0.031 C 
ATOM     49  C   UNL A   1      44.185  33.338  27.309  1.00  0.00     0.029 A 
ATOM     50  C   UNL A   1      43.891  33.582  28.722  1.00  0.00     0.049 A 
ATOM     51  H   UNL A   1      43.848  32.175  30.257  1.00  0.00     0.167 HD
ATOM     52  C   UNL A   1      43.273  29.028  33.300  1.00  0.00     0.037 A 
ATOM     53  C   UNL A   1      43.610  34.778  29.278  1.00  0.00     0.037 A 
ATOM     54  C   UNL A   1      43.087  30.270  33.999  1.00  0.00     0.049 A 
ATOM     55  C   UNL A   1      43.288  34.851  30.750  1.00  0.00     0.074 A 
ATOM     56  C   UNL A   1      42.876  30.477  35.349  1.00  0.00     0.029 A 
ATOM     57  N   UNL A   1      43.069  31.519  33.393  1.00  0.00    -0.354 N 
ATOM     58  N   UNL A   1      43.208  33.880  31.630  1.00  0.00    -0.248 NA
ATOM     59  C   UNL A   1      43.018  36.184  31.306  1.00  0.00     0.031 C 
ATOM     60  C   UNL A   1      42.657  31.843  35.549  1.00  0.00     0.029 A 
ATOM     61  C   UNL A   1      42.816  32.499  34.338  1.00  0.00     0.049 A 
ATOM     62  H   UNL A   1      43.216  31.683  32.434  1.00  0.00     0.167 HD
ATOM     63  C   UNL A   1      42.916  34.486  32.846  1.00  0.00     0.074 A 
ATOM     64  C   UNL A   1      42.828  35.909  32.590  1.00  0.00     0.031 C 
ATOM     65  C   UNL A   1      42.746  33.914  34.065  1.00  0.00     0.037 A 
BRANCH  52  66
ATOM     66  C   UNL A   1      43.152  27.736  34.058  1.00  0.00     0.064 A 
ATOM     67  C   UNL A   1      41.910  27.139  34.327  1.00  0.00     0.173 A 
ATOM     68  C   UNL A   1      44.303  27.097  34.545  1.00  0.00     0.173 A 
ATOM     69  F   UNL A   1      40.776  27.716  33.900  1.00  0.00    -0.203 F 
ATOM     70  C   UNL A   1      41.822  25.984  35.100  1.00  0.00     0.198 A 
ATOM     71  C   UNL A   1      44.213  25.918  35.281  1.00  0.00     0.198 A 
ATOM     72  F   UNL A   1      45.517  27.618  34.315  1.00  0.00    -0.203 F 
ATOM     73  F   UNL A   1      40.621  25.479  35.412  1.00  0.00    -0.200 F 
ATOM     74  C   UNL A   1      42.973  25.372  35.571  1.00  0.00     0.200 A 
ATOM     75  F   UNL A   1      45.329  25.320  35.722  1.00  0.00    -0.200 F 
ATOM     76  F   UNL A   1      42.887  24.262  36.318  1.00  0.00    -0.200 F 
ENDBRANCH  52  66
BRANCH  53  77
ATOM     77  C   UNL A   1      43.599  35.993  28.424  1.00  0.00     0.064 A 
ATOM     78  C   UNL A   1      42.412  36.460  27.845  1.00  0.00     0.173 A 
ATOM     79  C   UNL A   1      44.770  36.732  28.197  1.00  0.00     0.173 A 
ATOM     80  F   UNL A   1      41.271  35.774  28.013  1.00  0.00    -0.203 F 
ATOM     81  C   UNL A   1      42.395  37.619  27.072  1.00  0.00     0.198 A 
ATOM     82  C   UNL A   1      44.747  37.906  27.448  1.00  0.00     0.198 A 
ATOM     83  F   UNL A   1      45.934  36.327  28.727  1.00  0.00    -0.203 F 
ATOM     84  F   UNL A   1      41.251  38.028  26.507  1.00  0.00    -0.200 F 
ATOM     85  C   UNL A   1      43.560  38.347  26.883  1.00  0.00     0.200 A 
ATOM     86  F   UNL A   1      45.872  38.615  27.282  1.00  0.00    -0.200 F 
ATOM     87  F   UNL A   1      43.539  39.473  26.156  1.00  0.00    -0.200 F 
ENDBRANCH  53  77
BRANCH  65  88
ATOM     88  C   UNL A   1      42.511  34.824  35.239  1.00  0.00     0.064 A 
ATOM     89  C   UNL A   1      41.227  35.246  35.612  1.00  0.00     0.173 A 
ATOM     90  C   UNL A   1      43.590  35.210  36.052  1.00  0.00     0.173 A 
ATOM     91  F   UNL A   1      40.163  34.916  34.864  1.00  0.00    -0.203 F 
ATOM     92  C   UNL A   1      41.034  36.033  36.746  1.00  0.00     0.198 A 
ATOM     93  C   UNL A   1      43.389  35.966  37.203  1.00  0.00     0.198 A 
ATOM     94  F   UNL A   1      44.838  34.826  35.746  1.00  0.00    -0.203 F 
ATOM     95  F   UNL A   1      39.803  36.457  37.062  1.00  0.00    -0.200 F 
ATOM     96  C   UNL A   1      42.112  36.381  37.546  1.00  0.00     0.200 A 
ATOM     97  F   UNL A   1      44.430  36.283  37.984  1.00  0.00    -0.200 F 
ATOM     98  F   UNL A   1      41.920  37.121  38.647  1.00  0.00    -0.200 F 
ENDBRANCH  65  88
ENDBRANCH  39  40
ENDBRANCH  32  34
ENDBRANCH  31  32
ENDBRANCH  30  31
ENDBRANCH  29  30
ENDBRANCH  28  29
ENDBRANCH  27  28
ENDBRANCH   1  27
TORSDOF 21
ENDMDL
