MODEL 1
REMARK VINA RESULT:     -11.0      0.000      0.000
REMARK SMILES Cc1nn(C)c(C)c1CCC(=O)Nc1sccc1C(=O)OCCOCCOCCOCCOC(=O)c1ccc(-c2c3nc(c(-c4c(F)c(F)c(F)c(F)c4F)c4ccc([nH]4)c(-c4c(F)c(F)c(F)c(F)c4F)c4nc(c(-c5c(F)c(F)c(F)c(F)c5F)c5ccc2[nH]5)C=C4)C=C3)cc1
REMARK SMILES IDX 26 1 25 2 24 3 23 4 22 5 21 6 19 7 20 8 18 9 14 10 15 11
REMARK SMILES IDX 16 12 17 13 13 14 11 15 12 16 10 18 9 19 8 20 1 21 2 22 3 23
REMARK SMILES IDX 4 24 6 25 5 26 7 27 27 28 28 29 29 30 30 31 31 32 32 33
REMARK SMILES IDX 33 34 34 35 35 36 36 37 37 38 98 39 38 40 97 41 39 42 40 43
REMARK SMILES IDX 41 44 91 45 42 46 96 47 90 48 92 49 43 50 95 51 89 52 88 53
REMARK SMILES IDX 44 55 76 56 56 57 75 58 57 59 60 60 74 61 93 62 58 63 59 64
REMARK SMILES IDX 73 66 94 67 61 68 45 69 46 70 54 71 47 72 48 73 52 74 55 75
REMARK SMILES IDX 49 76 50 77 53 78 51 79 77 80 78 81 86 82 79 83 80 84 84 85
REMARK SMILES IDX 87 86 81 87 82 88 85 89 83 90 62 91 63 92 71 93 64 94 65 95
REMARK SMILES IDX 69 96 72 97 66 98 67 99 70 100 68 101
REMARK H PARENT 13 17 92 54 60 65
REMARK Flexibility Score: inf
ROOT
ATOM      1  C   UNL A   1      31.322  27.693  22.681  1.00  0.00     0.188 C 
ENDROOT
BRANCH   1   2
ATOM      2  C   UNL A   1      30.824  26.353  23.241  1.00  0.00     0.188 C 
BRANCH   2   3
ATOM      3  O   UNL A   1      31.145  25.901  24.543  1.00  0.00    -0.376 OA
BRANCH   3   4
ATOM      4  C   UNL A   1      31.126  24.543  24.924  1.00  0.00     0.202 C 
BRANCH   4   5
ATOM      5  C   UNL A   1      30.701  24.048  26.307  1.00  0.00     0.261 C 
BRANCH   5   6
ATOM      6  O   UNL A   1      31.675  23.822  27.338  1.00  0.00    -0.460 OA
BRANCH   6   7
ATOM      7  C   UNL A   1      32.468  22.487  27.284  1.00  0.00     0.341 C 
ATOM      8  O   UNL A   1      33.016  22.496  28.445  1.00  0.00    -0.246 OA
BRANCH   7   9
ATOM      9  C   UNL A   1      32.737  21.211  25.548  1.00  0.00     0.094 A 
ATOM     10  C   UNL A   1      33.008  21.437  24.056  1.00  0.00     0.110 A 
ATOM     11  S   UNL A   1      32.546  20.147  23.011  1.00  0.00    -0.126 S 
ATOM     12  C   UNL A   1      32.520  18.992  24.214  1.00  0.00     0.068 A 
ATOM     13  C   UNL A   1      32.724  19.547  25.446  1.00  0.00     0.029 A 
BRANCH  10  14
ATOM     14  N   UNL A   1      33.328  22.482  23.175  1.00  0.00    -0.317 N 
ATOM     15  C   UNL A   1      34.319  23.420  23.150  1.00  0.00     0.225 C 
ATOM     16  O   UNL A   1      34.097  24.505  22.602  1.00  0.00    -0.275 OA
ATOM     17  H   UNL A   1      32.706  22.554  22.416  1.00  0.00     0.170 HD
BRANCH  15  18
ATOM     18  C   UNL A   1      35.716  23.072  23.599  1.00  0.00     0.105 C 
BRANCH  18  19
ATOM     19  C   UNL A   1      36.055  23.488  25.000  1.00  0.00     0.049 C 
BRANCH  19  20
ATOM     20  C   UNL A   1      37.320  22.876  25.431  1.00  0.00    -0.004 A 
ATOM     21  C   UNL A   1      38.695  25.064  27.233  1.00  0.00     0.069 C 
ATOM     22  C   UNL A   1      38.741  23.783  26.472  1.00  0.00     0.063 A 
ATOM     23  N   UNL A   1      39.906  22.535  26.968  1.00  0.00    -0.178 NA
ATOM     24  N   UNL A   1      39.394  20.907  26.230  1.00  0.00    -0.272 N 
ATOM     25  C   UNL A   1      37.817  21.089  25.293  1.00  0.00     0.038 A 
ATOM     26  C   UNL A   1      40.335  19.823  26.023  1.00  0.00     0.174 C 
ATOM     27  C   UNL A   1      37.171  19.848  24.745  1.00  0.00     0.066 C 
ENDBRANCH  19  20
ENDBRANCH  18  19
ENDBRANCH  15  18
ENDBRANCH  10  14
ENDBRANCH   7   9
ENDBRANCH   6   7
ENDBRANCH   5   6
ENDBRANCH   4   5
ENDBRANCH   3   4
ENDBRANCH   2   3
ENDBRANCH   1   2
BRANCH   1  28
ATOM     28  O   UNL A   1      30.674  28.874  23.082  1.00  0.00    -0.377 OA
BRANCH  28  29
ATOM     29  C   UNL A   1      30.827  29.321  24.408  1.00  0.00     0.188 C 
BRANCH  29  30
ATOM     30  C   UNL A   1      32.230  29.553  24.999  1.00  0.00     0.188 C 
BRANCH  30  31
ATOM     31  O   UNL A   1      32.339  30.413  26.109  1.00  0.00    -0.376 OA
BRANCH  31  32
ATOM     32  C   UNL A   1      31.459  31.460  26.454  1.00  0.00     0.202 C 
BRANCH  32  33
ATOM     33  C   UNL A   1      31.892  32.799  27.072  1.00  0.00     0.261 C 
BRANCH  33  34
ATOM     34  O   UNL A   1      33.267  33.159  26.994  1.00  0.00    -0.460 OA
BRANCH  34  35
ATOM     35  C   UNL A   1      33.806  33.706  28.105  1.00  0.00     0.338 C 
ATOM     36  O   UNL A   1      33.316  34.563  28.813  1.00  0.00    -0.246 OA
BRANCH  35  37
ATOM     37  C   UNL A   1      35.031  32.946  28.429  1.00  0.00     0.060 A 
ATOM     38  C   UNL A   1      34.941  31.558  28.615  1.00  0.00     0.016 A 
ATOM     39  C   UNL A   1      36.262  33.596  28.518  1.00  0.00     0.016 A 
ATOM     40  C   UNL A   1      36.076  30.819  28.923  1.00  0.00     0.010 A 
ATOM     41  C   UNL A   1      37.391  32.865  28.888  1.00  0.00     0.010 A 
ATOM     42  C   UNL A   1      37.287  31.482  29.131  1.00  0.00    -0.014 A 
BRANCH  42  43
ATOM     43  C   UNL A   1      38.357  30.781  29.872  1.00  0.00     0.031 A 
ATOM     44  C   UNL A   1      38.514  31.105  31.331  1.00  0.00     0.074 A 
ATOM     45  C   UNL A   1      39.126  29.851  29.284  1.00  0.00     0.049 A 
ATOM     46  N   UNL A   1      39.413  30.691  32.183  1.00  0.00    -0.248 NA
ATOM     47  C   UNL A   1      37.519  32.028  31.905  1.00  0.00     0.031 C 
ATOM     48  C   UNL A   1      39.008  29.404  27.899  1.00  0.00     0.029 A 
ATOM     49  N   UNL A   1      40.173  29.124  29.790  1.00  0.00    -0.354 N 
ATOM     50  C   UNL A   1      39.099  31.310  33.385  1.00  0.00     0.074 A 
ATOM     51  C   UNL A   1      37.948  32.152  33.150  1.00  0.00     0.031 C 
ATOM     52  C   UNL A   1      39.966  28.492  27.656  1.00  0.00     0.029 A 
ATOM     53  C   UNL A   1      40.784  28.325  28.857  1.00  0.00     0.049 A 
ATOM     54  H   UNL A   1      40.458  29.169  30.731  1.00  0.00     0.167 HD
ATOM     55  C   UNL A   1      39.715  31.179  34.583  1.00  0.00     0.037 A 
ATOM     56  C   UNL A   1      41.900  27.578  28.961  1.00  0.00     0.037 A 
ATOM     57  C   UNL A   1      40.864  30.342  34.804  1.00  0.00     0.049 A 
ATOM     58  C   UNL A   1      42.632  27.535  30.281  1.00  0.00     0.074 A 
ATOM     59  C   UNL A   1      41.565  30.138  35.977  1.00  0.00     0.029 A 
ATOM     60  N   UNL A   1      41.484  29.580  33.825  1.00  0.00    -0.354 N 
ATOM     61  N   UNL A   1      42.329  28.111  31.421  1.00  0.00    -0.248 NA
ATOM     62  C   UNL A   1      43.863  26.732  30.330  1.00  0.00     0.031 C 
ATOM     63  C   UNL A   1      42.654  29.308  35.693  1.00  0.00     0.029 A 
ATOM     64  C   UNL A   1      42.581  28.928  34.362  1.00  0.00     0.049 A 
ATOM     65  H   UNL A   1      41.188  29.512  32.889  1.00  0.00     0.167 HD
ATOM     66  C   UNL A   1      43.305  27.708  32.326  1.00  0.00     0.074 A 
ATOM     67  C   UNL A   1      44.198  26.825  31.607  1.00  0.00     0.031 C 
ATOM     68  C   UNL A   1      43.450  28.038  33.634  1.00  0.00     0.037 A 
BRANCH  55  69
ATOM     69  C   UNL A   1      39.185  31.985  35.733  1.00  0.00     0.064 A 
ATOM     70  C   UNL A   1      38.302  31.439  36.677  1.00  0.00     0.173 A 
ATOM     71  C   UNL A   1      39.604  33.311  35.917  1.00  0.00     0.173 A 
ATOM     72  F   UNL A   1      37.856  30.182  36.537  1.00  0.00    -0.203 F 
ATOM     73  C   UNL A   1      37.842  32.199  37.749  1.00  0.00     0.198 A 
ATOM     74  C   UNL A   1      39.171  34.055  37.011  1.00  0.00     0.198 A 
ATOM     75  F   UNL A   1      40.446  33.883  35.043  1.00  0.00    -0.203 F 
ATOM     76  F   UNL A   1      36.962  31.672  38.611  1.00  0.00    -0.200 F 
ATOM     77  C   UNL A   1      38.286  33.501  37.922  1.00  0.00     0.200 A 
ATOM     78  F   UNL A   1      39.614  35.308  37.183  1.00  0.00    -0.200 F 
ATOM     79  F   UNL A   1      37.856  34.224  38.964  1.00  0.00    -0.200 F 
ENDBRANCH  55  69
BRANCH  56  80
ATOM     80  C   UNL A   1      42.421  26.833  27.782  1.00  0.00     0.064 A 
ATOM     81  C   UNL A   1      42.289  25.440  27.690  1.00  0.00     0.173 A 
ATOM     82  C   UNL A   1      43.114  27.489  26.754  1.00  0.00     0.173 A 
ATOM     83  F   UNL A   1      41.657  24.761  28.659  1.00  0.00    -0.203 F 
ATOM     84  C   UNL A   1      42.861  24.730  26.637  1.00  0.00     0.198 A 
ATOM     85  C   UNL A   1      43.652  26.782  25.680  1.00  0.00     0.198 A 
ATOM     86  F   UNL A   1      43.274  28.820  26.793  1.00  0.00    -0.203 F 
ATOM     87  F   UNL A   1      42.784  23.392  26.615  1.00  0.00    -0.200 F 
ATOM     88  C   UNL A   1      43.538  25.402  25.631  1.00  0.00     0.200 A 
ATOM     89  F   UNL A   1      44.295  27.437  24.705  1.00  0.00    -0.200 F 
ATOM     90  F   UNL A   1      44.096  24.717  24.623  1.00  0.00    -0.200 F 
ENDBRANCH  56  80
BRANCH  68  91
ATOM     91  C   UNL A   1      44.579  27.395  34.392  1.00  0.00     0.064 A 
ATOM     92  C   UNL A   1      45.850  27.983  34.475  1.00  0.00     0.173 A 
ATOM     93  C   UNL A   1      44.369  26.192  35.085  1.00  0.00     0.173 A 
ATOM     94  F   UNL A   1      46.108  29.128  33.826  1.00  0.00    -0.203 F 
ATOM     95  C   UNL A   1      46.877  27.372  35.190  1.00  0.00     0.198 A 
ATOM     96  C   UNL A   1      45.385  25.606  35.833  1.00  0.00     0.198 A 
ATOM     97  F   UNL A   1      43.169  25.592  35.052  1.00  0.00    -0.203 F 
ATOM     98  F   UNL A   1      48.101  27.920  35.202  1.00  0.00    -0.200 F 
ATOM     99  C   UNL A   1      46.642  26.190  35.875  1.00  0.00     0.200 A 
ATOM    100  F   UNL A   1      45.148  24.476  36.514  1.00  0.00    -0.200 F 
ATOM    101  F   UNL A   1      47.629  25.608  36.572  1.00  0.00    -0.200 F 
ENDBRANCH  68  91
ENDBRANCH  42  43
ENDBRANCH  35  37
ENDBRANCH  34  35
ENDBRANCH  33  34
ENDBRANCH  32  33
ENDBRANCH  31  32
ENDBRANCH  30  31
ENDBRANCH  29  30
ENDBRANCH  28  29
ENDBRANCH   1  28
TORSDOF 24
ENDMDL
MODEL 2
REMARK VINA RESULT:     -10.3      2.050      7.573
REMARK SMILES Cc1nn(C)c(C)c1CCC(=O)Nc1sccc1C(=O)OCCOCCOCCOCCOC(=O)c1ccc(-c2c3nc(c(-c4c(F)c(F)c(F)c(F)c4F)c4ccc([nH]4)c(-c4c(F)c(F)c(F)c(F)c4F)c4nc(c(-c5c(F)c(F)c(F)c(F)c5F)c5ccc2[nH]5)C=C4)C=C3)cc1
REMARK SMILES IDX 26 1 25 2 24 3 23 4 22 5 21 6 19 7 20 8 18 9 14 10 15 11
REMARK SMILES IDX 16 12 17 13 13 14 11 15 12 16 10 18 9 19 8 20 1 21 2 22 3 23
REMARK SMILES IDX 4 24 6 25 5 26 7 27 27 28 28 29 29 30 30 31 31 32 32 33
REMARK SMILES IDX 33 34 34 35 35 36 36 37 37 38 98 39 38 40 97 41 39 42 40 43
REMARK SMILES IDX 41 44 91 45 42 46 96 47 90 48 92 49 43 50 95 51 89 52 88 53
REMARK SMILES IDX 44 55 76 56 56 57 75 58 57 59 60 60 74 61 93 62 58 63 59 64
REMARK SMILES IDX 73 66 94 67 61 68 45 69 46 70 54 71 47 72 48 73 52 74 55 75
REMARK SMILES IDX 49 76 50 77 53 78 51 79 77 80 78 81 86 82 79 83 80 84 84 85
REMARK SMILES IDX 87 86 81 87 82 88 85 89 83 90 62 91 63 92 71 93 64 94 65 95
REMARK SMILES IDX 69 96 72 97 66 98 67 99 70 100 68 101
REMARK H PARENT 13 17 92 54 60 65
REMARK Flexibility Score: inf
ROOT
ATOM      1  C   UNL A   1      30.399  29.694  23.274  1.00  0.00     0.188 C 
ENDROOT
BRANCH   1   2
ATOM      2  C   UNL A   1      29.143  28.818  23.367  1.00  0.00     0.188 C 
BRANCH   2   3
ATOM      3  O   UNL A   1      29.173  27.415  23.175  1.00  0.00    -0.376 OA
BRANCH   3   4
ATOM      4  C   UNL A   1      29.501  26.496  24.193  1.00  0.00     0.202 C 
BRANCH   4   5
ATOM      5  C   UNL A   1      30.688  25.534  24.127  1.00  0.00     0.261 C 
BRANCH   5   6
ATOM      6  O   UNL A   1      31.984  25.992  23.710  1.00  0.00    -0.460 OA
BRANCH   6   7
ATOM      7  C   UNL A   1      33.171  25.740  24.681  1.00  0.00     0.341 C 
ATOM      8  O   UNL A   1      34.030  26.575  24.218  1.00  0.00    -0.246 OA
BRANCH   7   9
ATOM      9  C   UNL A   1      33.316  24.162  26.165  1.00  0.00     0.094 A 
ATOM     10  C   UNL A   1      34.454  23.337  26.777  1.00  0.00     0.110 A 
ATOM     11  S   UNL A   1      33.994  21.823  27.460  1.00  0.00    -0.126 S 
ATOM     12  C   UNL A   1      32.384  22.227  27.628  1.00  0.00     0.068 A 
ATOM     13  C   UNL A   1      32.111  23.441  27.065  1.00  0.00     0.029 A 
BRANCH  10  14
ATOM     14  N   UNL A   1      35.857  23.293  26.783  1.00  0.00    -0.317 N 
ATOM     15  C   UNL A   1      36.796  23.117  25.807  1.00  0.00     0.225 C 
ATOM     16  O   UNL A   1      37.881  22.608  26.111  1.00  0.00    -0.275 OA
ATOM     17  H   UNL A   1      36.246  23.415  27.679  1.00  0.00     0.170 HD
BRANCH  15  18
ATOM     18  C   UNL A   1      36.598  23.709  24.435  1.00  0.00     0.105 C 
BRANCH  18  19
ATOM     19  C   UNL A   1      36.315  22.714  23.349  1.00  0.00     0.049 C 
BRANCH  19  20
ATOM     20  C   UNL A   1      35.205  21.829  23.733  1.00  0.00    -0.004 A 
ATOM     21  C   UNL A   1      32.675  23.051  22.310  1.00  0.00     0.069 C 
ATOM     22  C   UNL A   1      33.296  22.121  23.296  1.00  0.00     0.063 A 
ATOM     23  N   UNL A   1      32.423  20.637  23.737  1.00  0.00    -0.178 NA
ATOM     24  N   UNL A   1      33.616  19.449  24.527  1.00  0.00    -0.272 N 
ATOM     25  C   UNL A   1      35.321  20.153  24.531  1.00  0.00     0.038 A 
ATOM     26  C   UNL A   1      33.178  18.391  25.417  1.00  0.00     0.174 C 
ATOM     27  C   UNL A   1      36.448  19.276  25.001  1.00  0.00     0.066 C 
ENDBRANCH  19  20
ENDBRANCH  18  19
ENDBRANCH  15  18
ENDBRANCH  10  14
ENDBRANCH   7   9
ENDBRANCH   6   7
ENDBRANCH   5   6
ENDBRANCH   4   5
ENDBRANCH   3   4
ENDBRANCH   2   3
ENDBRANCH   1   2
BRANCH   1  28
ATOM     28  O   UNL A   1      31.590  29.230  23.858  1.00  0.00    -0.377 OA
BRANCH  28  29
ATOM     29  C   UNL A   1      31.720  29.257  25.259  1.00  0.00     0.188 C 
BRANCH  29  30
ATOM     30  C   UNL A   1      33.099  29.461  25.913  1.00  0.00     0.188 C 
BRANCH  30  31
ATOM     31  O   UNL A   1      33.135  29.996  27.216  1.00  0.00    -0.376 OA
BRANCH  31  32
ATOM     32  C   UNL A   1      33.658  31.249  27.597  1.00  0.00     0.202 C 
BRANCH  32  33
ATOM     33  C   UNL A   1      32.869  32.569  27.579  1.00  0.00     0.261 C 
BRANCH  33  34
ATOM     34  O   UNL A   1      33.603  33.789  27.613  1.00  0.00    -0.460 OA
BRANCH  34  35
ATOM     35  C   UNL A   1      33.476  34.532  28.733  1.00  0.00     0.338 C 
ATOM     36  O   UNL A   1      32.529  35.224  29.052  1.00  0.00    -0.246 OA
BRANCH  35  37
ATOM     37  C   UNL A   1      34.619  34.214  29.614  1.00  0.00     0.060 A 
ATOM     38  C   UNL A   1      35.923  34.393  29.127  1.00  0.00     0.016 A 
ATOM     39  C   UNL A   1      34.402  33.771  30.920  1.00  0.00     0.016 A 
ATOM     40  C   UNL A   1      37.016  34.100  29.933  1.00  0.00     0.010 A 
ATOM     41  C   UNL A   1      35.499  33.417  31.707  1.00  0.00     0.010 A 
ATOM     42  C   UNL A   1      36.804  33.543  31.196  1.00  0.00    -0.014 A 
BRANCH  42  43
ATOM     43  C   UNL A   1      37.924  32.837  31.852  1.00  0.00     0.031 A 
ATOM     44  C   UNL A   1      38.516  31.659  31.131  1.00  0.00     0.074 A 
ATOM     45  C   UNL A   1      38.434  33.258  33.021  1.00  0.00     0.049 A 
ATOM     46  N   UNL A   1      39.446  30.828  31.518  1.00  0.00    -0.248 NA
ATOM     47  C   UNL A   1      37.977  31.378  29.788  1.00  0.00     0.031 C 
ATOM     48  C   UNL A   1      37.989  34.433  33.765  1.00  0.00     0.029 A 
ATOM     49  N   UNL A   1      39.437  32.726  33.789  1.00  0.00    -0.354 N 
ATOM     50  C   UNL A   1      39.595  29.924  30.475  1.00  0.00     0.074 A 
ATOM     51  C   UNL A   1      38.641  30.284  29.452  1.00  0.00     0.031 C 
ATOM     52  C   UNL A   1      38.704  34.520  34.901  1.00  0.00     0.029 A 
ATOM     53  C   UNL A   1      39.623  33.386  34.977  1.00  0.00     0.049 A 
ATOM     54  H   UNL A   1      39.974  31.948  33.514  1.00  0.00     0.167 HD
ATOM     55  C   UNL A   1      40.461  28.888  30.380  1.00  0.00     0.037 A 
ATOM     56  C   UNL A   1      40.422  33.079  36.017  1.00  0.00     0.037 A 
ATOM     57  C   UNL A   1      41.402  28.535  31.407  1.00  0.00     0.049 A 
ATOM     58  C   UNL A   1      41.300  31.853  35.929  1.00  0.00     0.074 A 
ATOM     59  C   UNL A   1      42.324  27.504  31.412  1.00  0.00     0.029 A 
ATOM     60  N   UNL A   1      41.534  29.199  32.618  1.00  0.00    -0.354 N 
ATOM     61  N   UNL A   1      41.449  31.005  34.938  1.00  0.00    -0.248 NA
ATOM     62  C   UNL A   1      42.126  31.544  37.106  1.00  0.00     0.031 C 
ATOM     63  C   UNL A   1      42.963  27.500  32.655  1.00  0.00     0.029 A 
ATOM     64  C   UNL A   1      42.501  28.580  33.391  1.00  0.00     0.049 A 
ATOM     65  H   UNL A   1      41.018  29.993  32.886  1.00  0.00     0.167 HD
ATOM     66  C   UNL A   1      42.411  30.091  35.357  1.00  0.00     0.074 A 
ATOM     67  C   UNL A   1      42.821  30.500  36.683  1.00  0.00     0.031 C 
ATOM     68  C   UNL A   1      42.910  29.012  34.704  1.00  0.00     0.037 A 
BRANCH  55  69
ATOM     69  C   UNL A   1      40.403  28.041  29.141  1.00  0.00     0.064 A 
ATOM     70  C   UNL A   1      41.134  28.363  27.988  1.00  0.00     0.173 A 
ATOM     71  C   UNL A   1      39.636  26.867  29.125  1.00  0.00     0.173 A 
ATOM     72  F   UNL A   1      41.868  29.485  27.943  1.00  0.00    -0.203 F 
ATOM     73  C   UNL A   1      41.083  27.549  26.859  1.00  0.00     0.198 A 
ATOM     74  C   UNL A   1      39.618  26.037  28.008  1.00  0.00     0.198 A 
ATOM     75  F   UNL A   1      38.916  26.513  30.201  1.00  0.00    -0.203 F 
ATOM     76  F   UNL A   1      41.752  27.901  25.752  1.00  0.00    -0.200 F 
ATOM     77  C   UNL A   1      40.336  26.382  26.874  1.00  0.00     0.200 A 
ATOM     78  F   UNL A   1      38.906  24.901  28.032  1.00  0.00    -0.200 F 
ATOM     79  F   UNL A   1      40.302  25.592  25.792  1.00  0.00    -0.200 F 
ENDBRANCH  55  69
BRANCH  56  80
ATOM     80  C   UNL A   1      40.414  33.916  37.248  1.00  0.00     0.064 A 
ATOM     81  C   UNL A   1      39.446  33.728  38.245  1.00  0.00     0.173 A 
ATOM     82  C   UNL A   1      41.334  34.960  37.425  1.00  0.00     0.173 A 
ATOM     83  F   UNL A   1      38.527  32.760  38.112  1.00  0.00    -0.203 F 
ATOM     84  C   UNL A   1      39.377  34.573  39.350  1.00  0.00     0.198 A 
ATOM     85  C   UNL A   1      41.288  35.780  38.550  1.00  0.00     0.198 A 
ATOM     86  F   UNL A   1      42.279  35.189  36.500  1.00  0.00    -0.203 F 
ATOM     87  F   UNL A   1      38.394  34.417  40.249  1.00  0.00    -0.200 F 
ATOM     88  C   UNL A   1      40.300  35.596  39.504  1.00  0.00     0.200 A 
ATOM     89  F   UNL A   1      42.190  36.759  38.701  1.00  0.00    -0.200 F 
ATOM     90  F   UNL A   1      40.227  36.414  40.563  1.00  0.00    -0.200 F 
ENDBRANCH  56  80
BRANCH  68  91
ATOM     91  C   UNL A   1      43.999  28.229  35.385  1.00  0.00     0.064 A 
ATOM     92  C   UNL A   1      43.719  27.173  36.266  1.00  0.00     0.173 A 
ATOM     93  C   UNL A   1      45.347  28.515  35.114  1.00  0.00     0.173 A 
ATOM     94  F   UNL A   1      42.449  26.864  36.567  1.00  0.00    -0.203 F 
ATOM     95  C   UNL A   1      44.746  26.460  36.877  1.00  0.00     0.198 A 
ATOM     96  C   UNL A   1      46.370  27.771  35.694  1.00  0.00     0.198 A 
ATOM     97  F   UNL A   1      45.673  29.505  34.269  1.00  0.00    -0.203 F 
ATOM     98  F   UNL A   1      44.455  25.497  37.764  1.00  0.00    -0.200 F 
ATOM     99  C   UNL A   1      46.070  26.753  36.585  1.00  0.00     0.200 A 
ATOM    100  F   UNL A   1      47.648  28.041  35.391  1.00  0.00    -0.200 F 
ATOM    101  F   UNL A   1      47.057  26.057  37.167  1.00  0.00    -0.200 F 
ENDBRANCH  68  91
ENDBRANCH  42  43
ENDBRANCH  35  37
ENDBRANCH  34  35
ENDBRANCH  33  34
ENDBRANCH  32  33
ENDBRANCH  31  32
ENDBRANCH  30  31
ENDBRANCH  29  30
ENDBRANCH  28  29
ENDBRANCH   1  28
TORSDOF 24
ENDMDL
MODEL 3
REMARK VINA RESULT:     -10.0      1.094      2.055
REMARK SMILES Cc1nn(C)c(C)c1CCC(=O)Nc1sccc1C(=O)OCCOCCOCCOCCOC(=O)c1ccc(-c2c3nc(c(-c4c(F)c(F)c(F)c(F)c4F)c4ccc([nH]4)c(-c4c(F)c(F)c(F)c(F)c4F)c4nc(c(-c5c(F)c(F)c(F)c(F)c5F)c5ccc2[nH]5)C=C4)C=C3)cc1
REMARK SMILES IDX 26 1 25 2 24 3 23 4 22 5 21 6 19 7 20 8 18 9 14 10 15 11
REMARK SMILES IDX 16 12 17 13 13 14 11 15 12 16 10 18 9 19 8 20 1 21 2 22 3 23
REMARK SMILES IDX 4 24 6 25 5 26 7 27 27 28 28 29 29 30 30 31 31 32 32 33
REMARK SMILES IDX 33 34 34 35 35 36 36 37 37 38 98 39 38 40 97 41 39 42 40 43
REMARK SMILES IDX 41 44 91 45 42 46 96 47 90 48 92 49 43 50 95 51 89 52 88 53
REMARK SMILES IDX 44 55 76 56 56 57 75 58 57 59 60 60 74 61 93 62 58 63 59 64
REMARK SMILES IDX 73 66 94 67 61 68 45 69 46 70 54 71 47 72 48 73 52 74 55 75
REMARK SMILES IDX 49 76 50 77 53 78 51 79 77 80 78 81 86 82 79 83 80 84 84 85
REMARK SMILES IDX 87 86 81 87 82 88 85 89 83 90 62 91 63 92 71 93 64 94 65 95
REMARK SMILES IDX 69 96 72 97 66 98 67 99 70 100 68 101
REMARK H PARENT 13 17 92 54 60 65
REMARK Flexibility Score: inf
ROOT
ATOM      1  C   UNL A   1      30.309  29.745  22.756  1.00  0.00     0.188 C 
ENDROOT
BRANCH   1   2
ATOM      2  C   UNL A   1      28.813  29.606  22.444  1.00  0.00     0.188 C 
BRANCH   2   3
ATOM      3  O   UNL A   1      28.153  28.354  22.400  1.00  0.00    -0.376 OA
BRANCH   3   4
ATOM      4  C   UNL A   1      27.831  27.601  23.548  1.00  0.00     0.202 C 
BRANCH   4   5
ATOM      5  C   UNL A   1      28.568  26.330  23.972  1.00  0.00     0.261 C 
BRANCH   5   6
ATOM      6  O   UNL A   1      29.546  26.363  25.023  1.00  0.00    -0.460 OA
BRANCH   6   7
ATOM      7  C   UNL A   1      29.830  25.030  25.769  1.00  0.00     0.341 C 
ATOM      8  O   UNL A   1      29.232  25.256  26.883  1.00  0.00    -0.246 OA
BRANCH   7   9
ATOM      9  C   UNL A   1      31.151  23.436  25.114  1.00  0.00     0.094 A 
ATOM     10  C   UNL A   1      32.198  23.268  24.008  1.00  0.00     0.110 A 
ATOM     11  S   UNL A   1      32.529  21.645  23.534  1.00  0.00    -0.126 S 
ATOM     12  C   UNL A   1      31.931  20.964  24.935  1.00  0.00     0.068 A 
ATOM     13  C   UNL A   1      31.349  21.902  25.739  1.00  0.00     0.029 A 
BRANCH  10  14
ATOM     14  N   UNL A   1      32.865  24.039  23.043  1.00  0.00    -0.317 N 
ATOM     15  C   UNL A   1      34.108  24.600  22.982  1.00  0.00     0.225 C 
ATOM     16  O   UNL A   1      34.267  25.623  22.308  1.00  0.00    -0.275 OA
ATOM     17  H   UNL A   1      32.321  24.213  22.241  1.00  0.00     0.170 HD
BRANCH  15  18
ATOM     18  C   UNL A   1      35.303  23.880  23.556  1.00  0.00     0.105 C 
BRANCH  18  19
ATOM     19  C   UNL A   1      35.389  23.887  25.052  1.00  0.00     0.049 C 
BRANCH  19  20
ATOM     20  C   UNL A   1      36.457  22.988  25.515  1.00  0.00    -0.004 A 
ATOM     21  C   UNL A   1      35.535  20.115  24.611  1.00  0.00     0.069 C 
ATOM     22  C   UNL A   1      36.427  21.011  25.401  1.00  0.00     0.063 A 
ATOM     23  N   UNL A   1      38.054  20.435  25.827  1.00  0.00    -0.178 NA
ATOM     24  N   UNL A   1      39.100  21.894  26.314  1.00  0.00    -0.272 N 
ATOM     25  C   UNL A   1      38.149  23.462  26.126  1.00  0.00     0.038 A 
ATOM     26  C   UNL A   1      40.272  21.757  27.156  1.00  0.00     0.174 C 
ATOM     27  C   UNL A   1      38.875  24.761  26.336  1.00  0.00     0.066 C 
ENDBRANCH  19  20
ENDBRANCH  18  19
ENDBRANCH  15  18
ENDBRANCH  10  14
ENDBRANCH   7   9
ENDBRANCH   6   7
ENDBRANCH   5   6
ENDBRANCH   4   5
ENDBRANCH   3   4
ENDBRANCH   2   3
ENDBRANCH   1   2
BRANCH   1  28
ATOM     28  O   UNL A   1      30.693  30.165  24.041  1.00  0.00    -0.377 OA
BRANCH  28  29
ATOM     29  C   UNL A   1      31.438  29.289  24.853  1.00  0.00     0.188 C 
BRANCH  29  30
ATOM     30  C   UNL A   1      32.387  29.840  25.932  1.00  0.00     0.188 C 
BRANCH  30  31
ATOM     31  O   UNL A   1      31.838  30.676  26.924  1.00  0.00    -0.376 OA
BRANCH  31  32
ATOM     32  C   UNL A   1      31.452  32.024  26.770  1.00  0.00     0.202 C 
BRANCH  32  33
ATOM     33  C   UNL A   1      32.303  33.232  27.193  1.00  0.00     0.261 C 
BRANCH  33  34
ATOM     34  O   UNL A   1      33.388  33.006  28.088  1.00  0.00    -0.460 OA
BRANCH  34  35
ATOM     35  C   UNL A   1      34.452  33.827  27.956  1.00  0.00     0.338 C 
ATOM     36  O   UNL A   1      34.435  35.023  27.744  1.00  0.00    -0.246 OA
BRANCH  35  37
ATOM     37  C   UNL A   1      35.661  33.051  28.303  1.00  0.00     0.060 A 
ATOM     38  C   UNL A   1      35.604  31.650  28.270  1.00  0.00     0.016 A 
ATOM     39  C   UNL A   1      36.850  33.707  28.629  1.00  0.00     0.016 A 
ATOM     40  C   UNL A   1      36.725  30.896  28.593  1.00  0.00     0.010 A 
ATOM     41  C   UNL A   1      37.958  32.950  29.014  1.00  0.00     0.010 A 
ATOM     42  C   UNL A   1      37.880  31.546  29.035  1.00  0.00    -0.014 A 
BRANCH  42  43
ATOM     43  C   UNL A   1      38.886  30.762  29.782  1.00  0.00     0.031 A 
ATOM     44  C   UNL A   1      39.035  31.048  31.250  1.00  0.00     0.074 A 
ATOM     45  C   UNL A   1      39.605  29.794  29.191  1.00  0.00     0.049 A 
ATOM     46  N   UNL A   1      39.888  30.561  32.111  1.00  0.00    -0.248 NA
ATOM     47  C   UNL A   1      38.091  32.025  31.824  1.00  0.00     0.031 C 
ATOM     48  C   UNL A   1      39.485  29.381  27.796  1.00  0.00     0.029 A 
ATOM     49  N   UNL A   1      40.592  28.991  29.703  1.00  0.00    -0.354 N 
ATOM     50  C   UNL A   1      39.591  31.177  33.319  1.00  0.00     0.074 A 
ATOM     51  C   UNL A   1      38.503  32.097  33.078  1.00  0.00     0.031 C 
ATOM     52  C   UNL A   1      40.386  28.413  27.554  1.00  0.00     0.029 A 
ATOM     53  C   UNL A   1      41.167  28.171  28.765  1.00  0.00     0.049 A 
ATOM     54  H   UNL A   1      40.860  29.000  30.650  1.00  0.00     0.167 HD
ATOM     55  C   UNL A   1      40.174  30.984  34.525  1.00  0.00     0.037 A 
ATOM     56  C   UNL A   1      42.229  27.350  28.876  1.00  0.00     0.037 A 
ATOM     57  C   UNL A   1      41.261  30.070  34.751  1.00  0.00     0.049 A 
ATOM     58  C   UNL A   1      42.931  27.235  30.208  1.00  0.00     0.074 A 
ATOM     59  C   UNL A   1      41.924  29.798  35.933  1.00  0.00     0.029 A 
ATOM     60  N   UNL A   1      41.849  29.286  33.769  1.00  0.00    -0.354 N 
ATOM     61  N   UNL A   1      42.644  27.809  31.353  1.00  0.00    -0.248 NA
ATOM     62  C   UNL A   1      44.105  26.352  30.264  1.00  0.00     0.031 C 
ATOM     63  C   UNL A   1      42.961  28.905  35.653  1.00  0.00     0.029 A 
ATOM     64  C   UNL A   1      42.890  28.554  34.314  1.00  0.00     0.049 A 
ATOM     65  H   UNL A   1      41.568  29.256  32.827  1.00  0.00     0.167 HD
ATOM     66  C   UNL A   1      43.573  27.326  32.268  1.00  0.00     0.074 A 
ATOM     67  C   UNL A   1      44.421  26.400  31.549  1.00  0.00     0.031 C 
ATOM     68  C   UNL A   1      43.713  27.622  33.585  1.00  0.00     0.037 A 
BRANCH  55  69
ATOM     69  C   UNL A   1      39.675  31.802  35.681  1.00  0.00     0.064 A 
ATOM     70  C   UNL A   1      40.262  33.028  36.029  1.00  0.00     0.173 A 
ATOM     71  C   UNL A   1      38.565  31.372  36.422  1.00  0.00     0.173 A 
ATOM     72  F   UNL A   1      41.338  33.476  35.364  1.00  0.00    -0.203 F 
ATOM     73  C   UNL A   1      39.767  33.782  37.090  1.00  0.00     0.198 A 
ATOM     74  C   UNL A   1      38.050  32.146  37.458  1.00  0.00     0.198 A 
ATOM     75  F   UNL A   1      37.967  30.207  36.133  1.00  0.00    -0.203 F 
ATOM     76  F   UNL A   1      40.373  34.926  37.436  1.00  0.00    -0.200 F 
ATOM     77  C   UNL A   1      38.656  33.347  37.796  1.00  0.00     0.200 A 
ATOM     78  F   UNL A   1      36.967  31.730  38.128  1.00  0.00    -0.200 F 
ATOM     79  F   UNL A   1      38.171  34.082  38.805  1.00  0.00    -0.200 F 
ENDBRANCH  55  69
BRANCH  56  80
ATOM     80  C   UNL A   1      42.724  26.594  27.693  1.00  0.00     0.064 A 
ATOM     81  C   UNL A   1      42.395  25.243  27.508  1.00  0.00     0.173 A 
ATOM     82  C   UNL A   1      43.584  27.187  26.756  1.00  0.00     0.173 A 
ATOM     83  F   UNL A   1      41.597  24.621  28.388  1.00  0.00    -0.203 F 
ATOM     84  C   UNL A   1      42.935  24.508  26.455  1.00  0.00     0.198 A 
ATOM     85  C   UNL A   1      44.093  26.461  25.682  1.00  0.00     0.198 A 
ATOM     86  F   UNL A   1      43.936  28.475  26.887  1.00  0.00    -0.203 F 
ATOM     87  F   UNL A   1      42.664  23.200  26.346  1.00  0.00    -0.200 F 
ATOM     88  C   UNL A   1      43.781  25.118  25.541  1.00  0.00     0.200 A 
ATOM     89  F   UNL A   1      44.899  27.058  24.794  1.00  0.00    -0.200 F 
ATOM     90  F   UNL A   1      44.307  24.407  24.534  1.00  0.00    -0.200 F 
ENDBRANCH  56  80
BRANCH  68  91
ATOM     91  C   UNL A   1      44.783  26.893  34.351  1.00  0.00     0.064 A 
ATOM     92  C   UNL A   1      46.073  27.420  34.515  1.00  0.00     0.173 A 
ATOM     93  C   UNL A   1      44.495  25.666  34.970  1.00  0.00     0.173 A 
ATOM     94  F   UNL A   1      46.404  28.585  33.938  1.00  0.00    -0.203 F 
ATOM     95  C   UNL A   1      47.043  26.729  35.236  1.00  0.00     0.198 A 
ATOM     96  C   UNL A   1      45.455  24.999  35.726  1.00  0.00     0.198 A 
ATOM     97  F   UNL A   1      43.274  25.121  34.859  1.00  0.00    -0.203 F 
ATOM     98  F   UNL A   1      48.286  27.222  35.325  1.00  0.00    -0.200 F 
ATOM     99  C   UNL A   1      46.731  25.524  35.847  1.00  0.00     0.200 A 
ATOM    100  F   UNL A   1      45.143  23.846  36.335  1.00  0.00    -0.200 F 
ATOM    101  F   UNL A   1      47.664  24.866  36.550  1.00  0.00    -0.200 F 
ENDBRANCH  68  91
ENDBRANCH  42  43
ENDBRANCH  35  37
ENDBRANCH  34  35
ENDBRANCH  33  34
ENDBRANCH  32  33
ENDBRANCH  31  32
ENDBRANCH  30  31
ENDBRANCH  29  30
ENDBRANCH  28  29
ENDBRANCH   1  28
TORSDOF 24
ENDMDL
