MODEL 1
REMARK VINA RESULT:     -10.3      0.000      0.000
REMARK SMILES C[C@@H]1[C@H](C(=O)OCCOCCOCCOCCOC(=O)c2ccc(-c3c4nc(c(-c5c(F)c(F)c(F)c(F)c5F)c5ccc([nH]5)c(-c5c(F)c(F)c(F)c(F)c5F)c5nc(c(-c6c(F)c(F)c(F)c(F)c6F)c6ccc3[nH]6)C=C5)C=C4)cc2)CCN1S(=O)(=O)c1cc(F)cc(F)c1
REMARK SMILES IDX 12 1 11 2 10 3 9 4 8 5 7 6 6 7 4 8 5 9 3 10 1 11 2 12 86 13
REMARK SMILES IDX 84 14 85 15 87 16 88 17 89 18 90 19 91 20 97 21 92 22 95 23
REMARK SMILES IDX 93 24 94 25 96 26 13 27 14 28 15 29 16 30 17 31 18 32 19 33
REMARK SMILES IDX 20 34 21 35 22 36 83 37 23 38 82 39 24 40 25 41 26 42 76 43
REMARK SMILES IDX 27 44 81 45 75 46 77 47 28 48 80 49 74 50 73 51 29 53 61 54
REMARK SMILES IDX 41 55 60 56 42 57 45 58 59 59 78 60 43 61 44 62 58 64 79 65
REMARK SMILES IDX 46 66 30 67 31 68 39 69 32 70 33 71 37 72 40 73 34 74 35 75
REMARK SMILES IDX 38 76 36 77 62 78 63 79 71 80 64 81 65 82 69 83 72 84 66 85
REMARK SMILES IDX 67 86 70 87 68 88 47 89 48 90 56 91 49 92 50 93 54 94 57 95
REMARK SMILES IDX 51 96 52 97 55 98 53 99
REMARK H PARENT 77 52 45 63
REMARK Flexibility Score: inf
ROOT
ATOM      1  O   UNL A   1      33.970  21.120  26.974  1.00  0.00    -0.377 OA
ENDROOT
BRANCH   1   2
ATOM      2  C   UNL A   1      34.241  22.504  27.186  1.00  0.00     0.188 C 
BRANCH   2   3
ATOM      3  C   UNL A   1      33.349  23.545  26.488  1.00  0.00     0.188 C 
BRANCH   3   4
ATOM      4  O   UNL A   1      34.097  24.511  25.766  1.00  0.00    -0.376 OA
BRANCH   4   5
ATOM      5  C   UNL A   1      35.307  24.066  25.178  1.00  0.00     0.202 C 
BRANCH   5   6
ATOM      6  C   UNL A   1      35.238  23.516  23.745  1.00  0.00     0.261 C 
BRANCH   6   7
ATOM      7  O   UNL A   1      34.752  24.445  22.766  1.00  0.00    -0.463 OA
BRANCH   7   8
ATOM      8  C   UNL A   1      33.478  24.306  22.340  1.00  0.00     0.310 C 
ATOM      9  O   UNL A   1      32.880  23.238  22.307  1.00  0.00    -0.252 OA
BRANCH   8  10
ATOM     10  C   UNL A   1      32.818  25.628  22.004  1.00  0.00     0.118 C 
ATOM     11  C   UNL A   1      31.119  25.500  23.963  1.00  0.00     0.027 C 
ATOM     12  C   UNL A   1      31.411  25.970  22.541  1.00  0.00     0.084 C 
ATOM     13  N   UNL A   1      31.346  27.467  22.378  1.00  0.00    -0.194 NA
ATOM     14  C   UNL A   1      33.651  26.780  22.537  1.00  0.00     0.034 C 
ATOM     15  C   UNL A   1      32.751  27.986  22.346  1.00  0.00     0.104 C 
BRANCH  13  16
ATOM     16  S   UNL A   1      30.273  28.505  23.182  1.00  0.00     0.243 S 
ATOM     17  O   UNL A   1      30.037  29.667  22.354  1.00  0.00    -0.207 OA
ATOM     18  O   UNL A   1      29.159  27.666  23.586  1.00  0.00    -0.207 OA
BRANCH  16  19
ATOM     19  C   UNL A   1      31.004  29.077  24.698  1.00  0.00     0.088 A 
ATOM     20  C   UNL A   1      30.852  30.441  24.997  1.00  0.00     0.061 A 
ATOM     21  C   UNL A   1      31.756  28.269  25.550  1.00  0.00     0.061 A 
ATOM     22  C   UNL A   1      31.463  30.978  26.123  1.00  0.00     0.127 A 
ATOM     23  C   UNL A   1      32.353  28.835  26.677  1.00  0.00     0.127 A 
ATOM     24  F   UNL A   1      31.337  32.284  26.383  1.00  0.00    -0.207 F 
ATOM     25  C   UNL A   1      32.219  30.185  26.972  1.00  0.00     0.078 A 
ATOM     26  F   UNL A   1      33.090  28.062  27.484  1.00  0.00    -0.207 F 
ENDBRANCH  16  19
ENDBRANCH  13  16
ENDBRANCH   8  10
ENDBRANCH   7   8
ENDBRANCH   6   7
ENDBRANCH   5   6
ENDBRANCH   4   5
ENDBRANCH   3   4
ENDBRANCH   2   3
ENDBRANCH   1   2
BRANCH   1  27
ATOM     27  C   UNL A   1      34.052  20.591  25.648  1.00  0.00     0.188 C 
BRANCH  27  28
ATOM     28  C   UNL A   1      35.427  20.315  24.996  1.00  0.00     0.188 C 
BRANCH  28  29
ATOM     29  O   UNL A   1      36.540  20.815  25.720  1.00  0.00    -0.376 OA
BRANCH  29  30
ATOM     30  C   UNL A   1      37.782  20.857  25.028  1.00  0.00     0.202 C 
BRANCH  30  31
ATOM     31  C   UNL A   1      38.749  19.709  25.344  1.00  0.00     0.261 C 
BRANCH  31  32
ATOM     32  O   UNL A   1      39.693  19.982  26.394  1.00  0.00    -0.460 OA
BRANCH  32  33
ATOM     33  C   UNL A   1      40.980  19.641  26.184  1.00  0.00     0.338 C 
ATOM     34  O   UNL A   1      41.415  18.584  25.762  1.00  0.00    -0.246 OA
BRANCH  33  35
ATOM     35  C   UNL A   1      41.802  20.844  26.401  1.00  0.00     0.060 A 
ATOM     36  C   UNL A   1      42.226  21.154  27.698  1.00  0.00     0.016 A 
ATOM     37  C   UNL A   1      42.118  21.677  25.326  1.00  0.00     0.016 A 
ATOM     38  C   UNL A   1      42.937  22.330  27.931  1.00  0.00     0.010 A 
ATOM     39  C   UNL A   1      42.813  22.863  25.563  1.00  0.00     0.010 A 
ATOM     40  C   UNL A   1      43.193  23.212  26.872  1.00  0.00    -0.014 A 
BRANCH  40  41
ATOM     41  C   UNL A   1      43.673  24.585  27.157  1.00  0.00     0.031 A 
ATOM     42  C   UNL A   1      42.689  25.587  27.692  1.00  0.00     0.074 A 
ATOM     43  C   UNL A   1      44.956  24.935  26.960  1.00  0.00     0.049 A 
ATOM     44  N   UNL A   1      42.859  26.851  27.982  1.00  0.00    -0.248 NA
ATOM     45  C   UNL A   1      41.322  25.093  27.932  1.00  0.00     0.031 C 
ATOM     46  C   UNL A   1      46.010  24.045  26.480  1.00  0.00     0.029 A 
ATOM     47  N   UNL A   1      45.583  26.143  27.134  1.00  0.00    -0.354 N 
ATOM     48  C   UNL A   1      41.627  27.303  28.436  1.00  0.00     0.074 A 
ATOM     49  C   UNL A   1      40.708  26.188  28.353  1.00  0.00     0.031 C 
ATOM     50  C   UNL A   1      47.156  24.744  26.384  1.00  0.00     0.029 A 
ATOM     51  C   UNL A   1      46.906  26.133  26.769  1.00  0.00     0.049 A 
ATOM     52  H   UNL A   1      45.128  26.941  27.487  1.00  0.00     0.167 HD
ATOM     53  C   UNL A   1      41.292  28.534  28.889  1.00  0.00     0.037 A 
ATOM     54  C   UNL A   1      47.803  27.138  26.733  1.00  0.00     0.037 A 
ATOM     55  C   UNL A   1      42.204  29.644  28.962  1.00  0.00     0.049 A 
ATOM     56  C   UNL A   1      47.386  28.521  27.169  1.00  0.00     0.074 A 
ATOM     57  C   UNL A   1      41.964  30.928  29.419  1.00  0.00     0.029 A 
ATOM     58  N   UNL A   1      43.529  29.603  28.554  1.00  0.00    -0.354 N 
ATOM     59  N   UNL A   1      46.229  28.932  27.629  1.00  0.00    -0.248 NA
ATOM     60  C   UNL A   1      48.403  29.579  27.083  1.00  0.00     0.031 C 
ATOM     61  C   UNL A   1      43.131  31.679  29.240  1.00  0.00     0.029 A 
ATOM     62  C   UNL A   1      44.113  30.848  28.725  1.00  0.00     0.049 A 
ATOM     63  H   UNL A   1      43.986  28.808  28.198  1.00  0.00     0.167 HD
ATOM     64  C   UNL A   1      46.388  30.282  27.916  1.00  0.00     0.074 A 
ATOM     65  C   UNL A   1      47.758  30.619  27.589  1.00  0.00     0.031 C 
ATOM     66  C   UNL A   1      45.482  31.164  28.406  1.00  0.00     0.037 A 
BRANCH  53  67
ATOM     67  C   UNL A   1      39.871  28.748  29.317  1.00  0.00     0.064 A 
ATOM     68  C   UNL A   1      39.466  28.557  30.647  1.00  0.00     0.173 A 
ATOM     69  C   UNL A   1      38.909  29.176  28.392  1.00  0.00     0.173 A 
ATOM     70  F   UNL A   1      40.347  28.133  31.567  1.00  0.00    -0.203 F 
ATOM     71  C   UNL A   1      38.143  28.763  31.028  1.00  0.00     0.198 A 
ATOM     72  C   UNL A   1      37.593  29.408  28.782  1.00  0.00     0.198 A 
ATOM     73  F   UNL A   1      39.244  29.373  27.108  1.00  0.00    -0.203 F 
ATOM     74  F   UNL A   1      37.768  28.530  32.293  1.00  0.00    -0.200 F 
ATOM     75  C   UNL A   1      37.209  29.196  30.098  1.00  0.00     0.200 A 
ATOM     76  F   UNL A   1      36.694  29.835  27.884  1.00  0.00    -0.200 F 
ATOM     77  F   UNL A   1      35.937  29.399  30.468  1.00  0.00    -0.200 F 
ENDBRANCH  53  67
BRANCH  54  78
ATOM     78  C   UNL A   1      49.188  26.885  26.254  1.00  0.00     0.064 A 
ATOM     79  C   UNL A   1      49.534  27.068  24.908  1.00  0.00     0.173 A 
ATOM     80  C   UNL A   1      50.186  26.424  27.127  1.00  0.00     0.173 A 
ATOM     81  F   UNL A   1      48.608  27.480  24.030  1.00  0.00    -0.203 F 
ATOM     82  C   UNL A   1      50.818  26.781  24.449  1.00  0.00     0.198 A 
ATOM     83  C   UNL A   1      51.477  26.165  26.672  1.00  0.00     0.198 A 
ATOM     84  F   UNL A   1      49.905  26.227  28.423  1.00  0.00    -0.203 F 
ATOM     85  F   UNL A   1      51.108  26.917  23.148  1.00  0.00    -0.200 F 
ATOM     86  C   UNL A   1      51.790  26.336  25.332  1.00  0.00     0.200 A 
ATOM     87  F   UNL A   1      52.415  25.744  27.530  1.00  0.00    -0.200 F 
ATOM     88  F   UNL A   1      53.024  26.060  24.889  1.00  0.00    -0.200 F 
ENDBRANCH  54  78
BRANCH  66  89
ATOM     89  C   UNL A   1      45.950  32.569  28.662  1.00  0.00     0.064 A 
ATOM     90  C   UNL A   1      46.547  32.940  29.875  1.00  0.00     0.173 A 
ATOM     91  C   UNL A   1      45.842  33.544  27.659  1.00  0.00     0.173 A 
ATOM     92  F   UNL A   1      46.661  32.047  30.871  1.00  0.00    -0.203 F 
ATOM     93  C   UNL A   1      46.997  34.240  30.084  1.00  0.00     0.198 A 
ATOM     94  C   UNL A   1      46.321  34.836  27.860  1.00  0.00     0.198 A 
ATOM     95  F   UNL A   1      45.287  33.241  26.476  1.00  0.00    -0.203 F 
ATOM     96  F   UNL A   1      47.522  34.584  31.268  1.00  0.00    -0.200 F 
ATOM     97  C   UNL A   1      46.890  35.186  29.074  1.00  0.00     0.200 A 
ATOM     98  F   UNL A   1      46.231  35.742  26.877  1.00  0.00    -0.200 F 
ATOM     99  F   UNL A   1      47.333  36.435  29.274  1.00  0.00    -0.200 F 
ENDBRANCH  66  89
ENDBRANCH  40  41
ENDBRANCH  33  35
ENDBRANCH  32  33
ENDBRANCH  31  32
ENDBRANCH  30  31
ENDBRANCH  29  30
ENDBRANCH  28  29
ENDBRANCH  27  28
ENDBRANCH   1  27
TORSDOF 22
ENDMDL
MODEL 2
REMARK VINA RESULT:     -10.3      1.476      7.241
REMARK SMILES C[C@@H]1[C@H](C(=O)OCCOCCOCCOCCOC(=O)c2ccc(-c3c4nc(c(-c5c(F)c(F)c(F)c(F)c5F)c5ccc([nH]5)c(-c5c(F)c(F)c(F)c(F)c5F)c5nc(c(-c6c(F)c(F)c(F)c(F)c6F)c6ccc3[nH]6)C=C5)C=C4)cc2)CCN1S(=O)(=O)c1cc(F)cc(F)c1
REMARK SMILES IDX 12 1 11 2 10 3 9 4 8 5 7 6 6 7 4 8 5 9 3 10 1 11 2 12 86 13
REMARK SMILES IDX 84 14 85 15 87 16 88 17 89 18 90 19 91 20 97 21 92 22 95 23
REMARK SMILES IDX 93 24 94 25 96 26 13 27 14 28 15 29 16 30 17 31 18 32 19 33
REMARK SMILES IDX 20 34 21 35 22 36 83 37 23 38 82 39 24 40 25 41 26 42 76 43
REMARK SMILES IDX 27 44 81 45 75 46 77 47 28 48 80 49 74 50 73 51 29 53 61 54
REMARK SMILES IDX 41 55 60 56 42 57 45 58 59 59 78 60 43 61 44 62 58 64 79 65
REMARK SMILES IDX 46 66 30 67 31 68 39 69 32 70 33 71 37 72 40 73 34 74 35 75
REMARK SMILES IDX 38 76 36 77 62 78 63 79 71 80 64 81 65 82 69 83 72 84 66 85
REMARK SMILES IDX 67 86 70 87 68 88 47 89 48 90 56 91 49 92 50 93 54 94 57 95
REMARK SMILES IDX 51 96 52 97 55 98 53 99
REMARK H PARENT 77 52 45 63
REMARK Flexibility Score: inf
ROOT
ATOM      1  O   UNL A   1      33.825  21.085  27.003  1.00  0.00    -0.377 OA
ENDROOT
BRANCH   1   2
ATOM      2  C   UNL A   1      33.872  22.485  27.270  1.00  0.00     0.188 C 
BRANCH   2   3
ATOM      3  C   UNL A   1      32.716  23.369  26.773  1.00  0.00     0.188 C 
BRANCH   3   4
ATOM      4  O   UNL A   1      33.166  24.505  26.053  1.00  0.00    -0.376 OA
BRANCH   4   5
ATOM      5  C   UNL A   1      34.390  24.368  25.352  1.00  0.00     0.202 C 
BRANCH   5   6
ATOM      6  C   UNL A   1      34.343  23.700  23.969  1.00  0.00     0.261 C 
BRANCH   6   7
ATOM      7  O   UNL A   1      34.529  24.594  22.861  1.00  0.00    -0.463 OA
BRANCH   7   8
ATOM      8  C   UNL A   1      33.574  24.627  21.908  1.00  0.00     0.310 C 
ATOM      9  O   UNL A   1      33.186  23.641  21.293  1.00  0.00    -0.252 OA
BRANCH   8  10
ATOM     10  C   UNL A   1      32.948  25.996  21.744  1.00  0.00     0.118 C 
ATOM     11  C   UNL A   1      31.096  25.577  23.516  1.00  0.00     0.027 C 
ATOM     12  C   UNL A   1      31.503  26.269  22.219  1.00  0.00     0.084 C 
ATOM     13  N   UNL A   1      31.457  27.773  22.300  1.00  0.00    -0.194 NA
ATOM     14  C   UNL A   1      33.739  27.032  22.524  1.00  0.00     0.034 C 
ATOM     15  C   UNL A   1      32.861  28.267  22.464  1.00  0.00     0.104 C 
BRANCH  13  16
ATOM     16  S   UNL A   1      30.326  28.682  23.178  1.00  0.00     0.243 S 
ATOM     17  O   UNL A   1      30.045  29.903  22.456  1.00  0.00    -0.207 OA
ATOM     18  O   UNL A   1      29.248  27.759  23.486  1.00  0.00    -0.207 OA
BRANCH  16  19
ATOM     19  C   UNL A   1      31.011  29.146  24.752  1.00  0.00     0.088 A 
ATOM     20  C   UNL A   1      30.953  30.509  25.087  1.00  0.00     0.061 A 
ATOM     21  C   UNL A   1      31.643  28.254  25.616  1.00  0.00     0.061 A 
ATOM     22  C   UNL A   1      31.539  30.959  26.264  1.00  0.00     0.127 A 
ATOM     23  C   UNL A   1      32.217  28.734  26.793  1.00  0.00     0.127 A 
ATOM     24  F   UNL A   1      31.505  32.263  26.561  1.00  0.00    -0.207 F 
ATOM     25  C   UNL A   1      32.177  30.081  27.126  1.00  0.00     0.078 A 
ATOM     26  F   UNL A   1      32.840  27.879  27.613  1.00  0.00    -0.207 F 
ENDBRANCH  16  19
ENDBRANCH  13  16
ENDBRANCH   8  10
ENDBRANCH   7   8
ENDBRANCH   6   7
ENDBRANCH   5   6
ENDBRANCH   4   5
ENDBRANCH   3   4
ENDBRANCH   2   3
ENDBRANCH   1   2
BRANCH   1  27
ATOM     27  C   UNL A   1      34.084  20.621  25.675  1.00  0.00     0.188 C 
BRANCH  27  28
ATOM     28  C   UNL A   1      35.525  20.275  25.232  1.00  0.00     0.188 C 
BRANCH  28  29
ATOM     29  O   UNL A   1      36.476  21.309  25.437  1.00  0.00    -0.376 OA
BRANCH  29  30
ATOM     30  C   UNL A   1      37.735  21.152  24.795  1.00  0.00     0.202 C 
BRANCH  30  31
ATOM     31  C   UNL A   1      38.629  20.043  25.366  1.00  0.00     0.261 C 
BRANCH  31  32
ATOM     32  O   UNL A   1      39.280  20.367  26.606  1.00  0.00    -0.460 OA
BRANCH  32  33
ATOM     33  C   UNL A   1      40.604  20.617  26.571  1.00  0.00     0.338 C 
ATOM     34  O   UNL A   1      41.486  19.915  26.109  1.00  0.00    -0.246 OA
BRANCH  33  35
ATOM     35  C   UNL A   1      40.811  21.992  27.055  1.00  0.00     0.060 A 
ATOM     36  C   UNL A   1      40.067  23.033  26.488  1.00  0.00     0.016 A 
ATOM     37  C   UNL A   1      41.765  22.250  28.041  1.00  0.00     0.016 A 
ATOM     38  C   UNL A   1      40.308  24.349  26.879  1.00  0.00     0.010 A 
ATOM     39  C   UNL A   1      42.019  23.569  28.418  1.00  0.00     0.010 A 
ATOM     40  C   UNL A   1      41.317  24.627  27.811  1.00  0.00    -0.014 A 
BRANCH  40  41
ATOM     41  C   UNL A   1      41.780  26.021  28.003  1.00  0.00     0.031 A 
ATOM     42  C   UNL A   1      43.134  26.402  27.473  1.00  0.00     0.074 A 
ATOM     43  C   UNL A   1      41.012  26.936  28.621  1.00  0.00     0.049 A 
ATOM     44  N   UNL A   1      43.769  27.543  27.550  1.00  0.00    -0.248 NA
ATOM     45  C   UNL A   1      43.874  25.348  26.759  1.00  0.00     0.031 C 
ATOM     46  C   UNL A   1      39.670  26.698  29.145  1.00  0.00     0.029 A 
ATOM     47  N   UNL A   1      41.265  28.252  28.917  1.00  0.00    -0.354 N 
ATOM     48  C   UNL A   1      44.979  27.345  26.898  1.00  0.00     0.074 A 
ATOM     49  C   UNL A   1      45.005  25.967  26.458  1.00  0.00     0.031 C 
ATOM     50  C   UNL A   1      39.220  27.832  29.714  1.00  0.00     0.029 A 
ATOM     51  C   UNL A   1      40.254  28.862  29.617  1.00  0.00     0.049 A 
ATOM     52  H   UNL A   1      42.093  28.715  28.654  1.00  0.00     0.167 HD
ATOM     53  C   UNL A   1      45.975  28.234  26.676  1.00  0.00     0.037 A 
ATOM     54  C   UNL A   1      40.184  30.104  30.135  1.00  0.00     0.037 A 
ATOM     55  C   UNL A   1      45.953  29.602  27.121  1.00  0.00     0.049 A 
ATOM     56  C   UNL A   1      41.341  31.053  29.942  1.00  0.00     0.074 A 
ATOM     57  C   UNL A   1      46.908  30.586  26.935  1.00  0.00     0.029 A 
ATOM     58  N   UNL A   1      44.923  30.175  27.853  1.00  0.00    -0.354 N 
ATOM     59  N   UNL A   1      42.467  30.870  29.295  1.00  0.00    -0.248 NA
ATOM     60  C   UNL A   1      41.215  32.385  30.552  1.00  0.00     0.031 C 
ATOM     61  C   UNL A   1      46.480  31.740  27.599  1.00  0.00     0.029 A 
ATOM     62  C   UNL A   1      45.233  31.493  28.150  1.00  0.00     0.049 A 
ATOM     63  H   UNL A   1      44.097  29.714  28.122  1.00  0.00     0.167 HD
ATOM     64  C   UNL A   1      43.164  32.067  29.392  1.00  0.00     0.074 A 
ATOM     65  C   UNL A   1      42.331  32.976  30.151  1.00  0.00     0.031 C 
ATOM     66  C   UNL A   1      44.386  32.388  28.896  1.00  0.00     0.037 A 
BRANCH  53  67
ATOM     67  C   UNL A   1      47.186  27.744  25.940  1.00  0.00     0.064 A 
ATOM     68  C   UNL A   1      47.235  27.720  24.537  1.00  0.00     0.173 A 
ATOM     69  C   UNL A   1      48.321  27.318  26.644  1.00  0.00     0.173 A 
ATOM     70  F   UNL A   1      46.169  28.102  23.817  1.00  0.00    -0.203 F 
ATOM     71  C   UNL A   1      48.368  27.264  23.869  1.00  0.00     0.198 A 
ATOM     72  C   UNL A   1      49.462  26.889  25.973  1.00  0.00     0.198 A 
ATOM     73  F   UNL A   1      48.326  27.321  27.985  1.00  0.00    -0.203 F 
ATOM     74  F   UNL A   1      48.376  27.206  22.530  1.00  0.00    -0.200 F 
ATOM     75  C   UNL A   1      49.483  26.857  24.586  1.00  0.00     0.200 A 
ATOM     76  F   UNL A   1      50.542  26.505  26.667  1.00  0.00    -0.200 F 
ATOM     77  F   UNL A   1      50.575  26.423  23.941  1.00  0.00    -0.200 F 
ENDBRANCH  53  67
BRANCH  54  78
ATOM     78  C   UNL A   1      38.981  30.527  30.899  1.00  0.00     0.064 A 
ATOM     79  C   UNL A   1      37.924  31.200  30.271  1.00  0.00     0.173 A 
ATOM     80  C   UNL A   1      38.878  30.296  32.279  1.00  0.00     0.173 A 
ATOM     81  F   UNL A   1      37.989  31.470  28.959  1.00  0.00    -0.203 F 
ATOM     82  C   UNL A   1      36.820  31.644  30.997  1.00  0.00     0.198 A 
ATOM     83  C   UNL A   1      37.761  30.714  32.998  1.00  0.00     0.198 A 
ATOM     84  F   UNL A   1      39.864  29.661  32.929  1.00  0.00    -0.203 F 
ATOM     85  F   UNL A   1      35.848  32.329  30.380  1.00  0.00    -0.200 F 
ATOM     86  C   UNL A   1      36.736  31.395  32.358  1.00  0.00     0.200 A 
ATOM     87  F   UNL A   1      37.679  30.464  34.311  1.00  0.00    -0.200 F 
ATOM     88  F   UNL A   1      35.675  31.822  33.055  1.00  0.00    -0.200 F 
ENDBRANCH  54  78
BRANCH  66  89
ATOM     89  C   UNL A   1      44.879  33.789  29.119  1.00  0.00     0.064 A 
ATOM     90  C   UNL A   1      44.534  34.840  28.259  1.00  0.00     0.173 A 
ATOM     91  C   UNL A   1      45.670  34.091  30.240  1.00  0.00     0.173 A 
ATOM     92  F   UNL A   1      43.792  34.601  27.166  1.00  0.00    -0.203 F 
ATOM     93  C   UNL A   1      44.981  36.137  28.496  1.00  0.00     0.198 A 
ATOM     94  C   UNL A   1      46.089  35.395  30.492  1.00  0.00     0.198 A 
ATOM     95  F   UNL A   1      46.021  33.124  31.101  1.00  0.00    -0.203 F 
ATOM     96  F   UNL A   1      44.677  37.117  27.635  1.00  0.00    -0.200 F 
ATOM     97  C   UNL A   1      45.752  36.415  29.616  1.00  0.00     0.200 A 
ATOM     98  F   UNL A   1      46.819  35.663  31.582  1.00  0.00    -0.200 F 
ATOM     99  F   UNL A   1      46.173  37.666  29.847  1.00  0.00    -0.200 F 
ENDBRANCH  66  89
ENDBRANCH  40  41
ENDBRANCH  33  35
ENDBRANCH  32  33
ENDBRANCH  31  32
ENDBRANCH  30  31
ENDBRANCH  29  30
ENDBRANCH  28  29
ENDBRANCH  27  28
ENDBRANCH   1  27
TORSDOF 22
ENDMDL
MODEL 3
REMARK VINA RESULT:      -9.9      1.134      2.073
REMARK SMILES C[C@@H]1[C@H](C(=O)OCCOCCOCCOCCOC(=O)c2ccc(-c3c4nc(c(-c5c(F)c(F)c(F)c(F)c5F)c5ccc([nH]5)c(-c5c(F)c(F)c(F)c(F)c5F)c5nc(c(-c6c(F)c(F)c(F)c(F)c6F)c6ccc3[nH]6)C=C5)C=C4)cc2)CCN1S(=O)(=O)c1cc(F)cc(F)c1
REMARK SMILES IDX 12 1 11 2 10 3 9 4 8 5 7 6 6 7 4 8 5 9 3 10 1 11 2 12 86 13
REMARK SMILES IDX 84 14 85 15 87 16 88 17 89 18 90 19 91 20 97 21 92 22 95 23
REMARK SMILES IDX 93 24 94 25 96 26 13 27 14 28 15 29 16 30 17 31 18 32 19 33
REMARK SMILES IDX 20 34 21 35 22 36 83 37 23 38 82 39 24 40 25 41 26 42 76 43
REMARK SMILES IDX 27 44 81 45 75 46 77 47 28 48 80 49 74 50 73 51 29 53 61 54
REMARK SMILES IDX 41 55 60 56 42 57 45 58 59 59 78 60 43 61 44 62 58 64 79 65
REMARK SMILES IDX 46 66 30 67 31 68 39 69 32 70 33 71 37 72 40 73 34 74 35 75
REMARK SMILES IDX 38 76 36 77 62 78 63 79 71 80 64 81 65 82 69 83 72 84 66 85
REMARK SMILES IDX 67 86 70 87 68 88 47 89 48 90 56 91 49 92 50 93 54 94 57 95
REMARK SMILES IDX 51 96 52 97 55 98 53 99
REMARK H PARENT 77 52 45 63
REMARK Flexibility Score: inf
ROOT
ATOM      1  O   UNL A   1      33.911  20.918  26.943  1.00  0.00    -0.377 OA
ENDROOT
BRANCH   1   2
ATOM      2  C   UNL A   1      33.869  22.315  27.227  1.00  0.00     0.188 C 
BRANCH   2   3
ATOM      3  C   UNL A   1      32.498  22.992  27.393  1.00  0.00     0.188 C 
BRANCH   3   4
ATOM      4  O   UNL A   1      32.406  24.222  26.691  1.00  0.00    -0.376 OA
BRANCH   4   5
ATOM      5  C   UNL A   1      33.381  24.455  25.690  1.00  0.00     0.202 C 
BRANCH   5   6
ATOM      6  C   UNL A   1      33.208  23.723  24.350  1.00  0.00     0.261 C 
BRANCH   6   7
ATOM      7  O   UNL A   1      33.993  24.252  23.270  1.00  0.00    -0.463 OA
BRANCH   7   8
ATOM      8  C   UNL A   1      33.397  24.396  22.068  1.00  0.00     0.310 C 
ATOM      9  O   UNL A   1      33.188  23.471  21.291  1.00  0.00    -0.252 OA
BRANCH   8  10
ATOM     10  C   UNL A   1      32.910  25.808  21.813  1.00  0.00     0.118 C 
ATOM     11  C   UNL A   1      30.856  25.593  23.387  1.00  0.00     0.027 C 
ATOM     12  C   UNL A   1      31.453  26.212  22.127  1.00  0.00     0.084 C 
ATOM     13  N   UNL A   1      31.528  27.717  22.175  1.00  0.00    -0.194 NA
ATOM     14  C   UNL A   1      33.703  26.795  22.652  1.00  0.00     0.034 C 
ATOM     15  C   UNL A   1      32.945  28.096  22.477  1.00  0.00     0.104 C 
BRANCH  13  16
ATOM     16  S   UNL A   1      30.395  28.741  22.912  1.00  0.00     0.243 S 
ATOM     17  O   UNL A   1      30.300  29.963  22.144  1.00  0.00    -0.207 OA
ATOM     18  O   UNL A   1      29.214  27.922  23.116  1.00  0.00    -0.207 OA
BRANCH  16  19
ATOM     19  C   UNL A   1      30.947  29.185  24.542  1.00  0.00     0.088 A 
ATOM     20  C   UNL A   1      30.882  30.546  24.882  1.00  0.00     0.061 A 
ATOM     21  C   UNL A   1      31.488  28.277  25.452  1.00  0.00     0.061 A 
ATOM     22  C   UNL A   1      31.371  30.980  26.108  1.00  0.00     0.127 A 
ATOM     23  C   UNL A   1      31.965  28.741  26.678  1.00  0.00     0.127 A 
ATOM     24  F   UNL A   1      31.331  32.283  26.411  1.00  0.00    -0.207 F 
ATOM     25  C   UNL A   1      31.917  30.086  27.016  1.00  0.00     0.078 A 
ATOM     26  F   UNL A   1      32.500  27.871  27.542  1.00  0.00    -0.207 F 
ENDBRANCH  16  19
ENDBRANCH  13  16
ENDBRANCH   8  10
ENDBRANCH   7   8
ENDBRANCH   6   7
ENDBRANCH   5   6
ENDBRANCH   4   5
ENDBRANCH   3   4
ENDBRANCH   2   3
ENDBRANCH   1   2
BRANCH   1  27
ATOM     27  C   UNL A   1      33.946  20.487  25.580  1.00  0.00     0.188 C 
BRANCH  27  28
ATOM     28  C   UNL A   1      35.297  20.235  24.870  1.00  0.00     0.188 C 
BRANCH  28  29
ATOM     29  O   UNL A   1      36.412  20.877  25.468  1.00  0.00    -0.376 OA
BRANCH  29  30
ATOM     30  C   UNL A   1      37.653  20.764  24.782  1.00  0.00     0.202 C 
BRANCH  30  31
ATOM     31  C   UNL A   1      38.560  19.618  25.248  1.00  0.00     0.261 C 
BRANCH  31  32
ATOM     32  O   UNL A   1      39.304  19.884  26.449  1.00  0.00    -0.460 OA
BRANCH  32  33
ATOM     33  C   UNL A   1      40.635  20.067  26.334  1.00  0.00     0.338 C 
ATOM     34  O   UNL A   1      41.455  19.308  25.846  1.00  0.00    -0.246 OA
BRANCH  33  35
ATOM     35  C   UNL A   1      40.935  21.444  26.760  1.00  0.00     0.060 A 
ATOM     36  C   UNL A   1      40.488  22.513  25.975  1.00  0.00     0.016 A 
ATOM     37  C   UNL A   1      41.688  21.669  27.914  1.00  0.00     0.016 A 
ATOM     38  C   UNL A   1      40.832  23.818  26.323  1.00  0.00     0.010 A 
ATOM     39  C   UNL A   1      42.047  22.975  28.251  1.00  0.00     0.010 A 
ATOM     40  C   UNL A   1      41.652  24.051  27.436  1.00  0.00    -0.014 A 
BRANCH  40  41
ATOM     41  C   UNL A   1      42.263  25.386  27.634  1.00  0.00     0.031 A 
ATOM     42  C   UNL A   1      41.455  26.443  28.334  1.00  0.00     0.074 A 
ATOM     43  C   UNL A   1      43.512  25.655  27.214  1.00  0.00     0.049 A 
ATOM     44  N   UNL A   1      41.757  27.690  28.591  1.00  0.00    -0.248 NA
ATOM     45  C   UNL A   1      40.122  26.036  28.810  1.00  0.00     0.031 C 
ATOM     46  C   UNL A   1      44.405  24.706  26.556  1.00  0.00     0.029 A 
ATOM     47  N   UNL A   1      44.237  26.819  27.277  1.00  0.00    -0.354 N 
ATOM     48  C   UNL A   1      40.655  28.214  29.255  1.00  0.00     0.074 A 
ATOM     49  C   UNL A   1      39.665  27.162  29.334  1.00  0.00     0.031 C 
ATOM     50  C   UNL A   1      45.559  25.331  26.260  1.00  0.00     0.029 A 
ATOM     51  C   UNL A   1      45.472  26.728  26.684  1.00  0.00     0.049 A 
ATOM     52  H   UNL A   1      43.904  27.640  27.704  1.00  0.00     0.167 HD
ATOM     53  C   UNL A   1      40.487  29.458  29.761  1.00  0.00     0.037 A 
ATOM     54  C   UNL A   1      46.412  27.674  26.491  1.00  0.00     0.037 A 
ATOM     55  C   UNL A   1      41.467  30.507  29.673  1.00  0.00     0.049 A 
ATOM     56  C   UNL A   1      46.170  29.075  26.996  1.00  0.00     0.074 A 
ATOM     57  C   UNL A   1      41.397  31.798  30.166  1.00  0.00     0.029 A 
ATOM     58  N   UNL A   1      42.695  30.386  29.039  1.00  0.00    -0.354 N 
ATOM     59  N   UNL A   1      45.141  29.554  27.652  1.00  0.00    -0.248 NA
ATOM     60  C   UNL A   1      47.223  30.066  26.733  1.00  0.00     0.031 C 
ATOM     61  C   UNL A   1      42.560  32.474  29.785  1.00  0.00     0.029 A 
ATOM     62  C   UNL A   1      43.380  31.589  29.106  1.00  0.00     0.049 A 
ATOM     63  H   UNL A   1      43.029  29.568  28.607  1.00  0.00     0.167 HD
ATOM     64  C   UNL A   1      45.436  30.887  27.908  1.00  0.00     0.074 A 
ATOM     65  C   UNL A   1      46.746  31.140  27.346  1.00  0.00     0.031 C 
ATOM     66  C   UNL A   1      44.689  31.820  28.551  1.00  0.00     0.037 A 
BRANCH  53  67
ATOM     67  C   UNL A   1      39.180  29.758  30.432  1.00  0.00     0.064 A 
ATOM     68  C   UNL A   1      38.997  29.561  31.810  1.00  0.00     0.173 A 
ATOM     69  C   UNL A   1      38.106  30.276  29.695  1.00  0.00     0.173 A 
ATOM     70  F   UNL A   1      39.990  29.052  32.556  1.00  0.00    -0.203 F 
ATOM     71  C   UNL A   1      37.778  29.847  32.418  1.00  0.00     0.198 A 
ATOM     72  C   UNL A   1      36.897  30.587  30.311  1.00  0.00     0.198 A 
ATOM     73  F   UNL A   1      38.228  30.484  28.375  1.00  0.00    -0.203 F 
ATOM     74  F   UNL A   1      37.611  29.606  33.726  1.00  0.00    -0.200 F 
ATOM     75  C   UNL A   1      36.732  30.367  31.671  1.00  0.00     0.200 A 
ATOM     76  F   UNL A   1      35.890  31.100  29.589  1.00  0.00    -0.200 F 
ATOM     77  F   UNL A   1      35.561  30.647  32.259  1.00  0.00    -0.200 F 
ENDBRANCH  53  67
BRANCH  54  78
ATOM     78  C   UNL A   1      47.672  27.338  25.777  1.00  0.00     0.064 A 
ATOM     79  C   UNL A   1      48.819  26.940  26.478  1.00  0.00     0.173 A 
ATOM     80  C   UNL A   1      47.765  27.439  24.380  1.00  0.00     0.173 A 
ATOM     81  F   UNL A   1      48.788  26.856  27.816  1.00  0.00    -0.203 F 
ATOM     82  C   UNL A   1      50.015  26.676  25.814  1.00  0.00     0.198 A 
ATOM     83  C   UNL A   1      48.953  27.147  23.714  1.00  0.00     0.198 A 
ATOM     84  F   UNL A   1      46.699  27.820  23.662  1.00  0.00    -0.203 F 
ATOM     85  F   UNL A   1      51.109  26.347  26.513  1.00  0.00    -0.200 F 
ATOM     86  C   UNL A   1      50.080  26.774  24.432  1.00  0.00     0.200 A 
ATOM     87  F   UNL A   1      49.009  27.233  22.379  1.00  0.00    -0.200 F 
ATOM     88  F   UNL A   1      51.230  26.520  23.794  1.00  0.00    -0.200 F 
ENDBRANCH  54  78
BRANCH  66  89
ATOM     89  C   UNL A   1      45.286  33.188  28.722  1.00  0.00     0.064 A 
ATOM     90  C   UNL A   1      45.122  34.193  27.758  1.00  0.00     0.173 A 
ATOM     91  C   UNL A   1      45.992  33.511  29.892  1.00  0.00     0.173 A 
ATOM     92  F   UNL A   1      44.467  33.930  26.616  1.00  0.00    -0.203 F 
ATOM     93  C   UNL A   1      45.662  35.461  27.946  1.00  0.00     0.198 A 
ATOM     94  C   UNL A   1      46.503  34.791  30.091  1.00  0.00     0.198 A 
ATOM     95  F   UNL A   1      46.171  32.590  30.851  1.00  0.00    -0.203 F 
ATOM     96  F   UNL A   1      45.531  36.392  26.990  1.00  0.00    -0.200 F 
ATOM     97  C   UNL A   1      46.346  35.762  29.115  1.00  0.00     0.200 A 
ATOM     98  F   UNL A   1      47.150  35.082  31.228  1.00  0.00    -0.200 F 
ATOM     99  F   UNL A   1      46.856  36.987  29.298  1.00  0.00    -0.200 F 
ENDBRANCH  66  89
ENDBRANCH  40  41
ENDBRANCH  33  35
ENDBRANCH  32  33
ENDBRANCH  31  32
ENDBRANCH  30  31
ENDBRANCH  29  30
ENDBRANCH  28  29
ENDBRANCH  27  28
ENDBRANCH   1  27
TORSDOF 22
ENDMDL
