MODEL 1
REMARK VINA RESULT:      -8.4      0.000      0.000
REMARK SMILES N#C/C(=C\c1ccc(Oc2ccccc2Cl)c([N+](=O)[O-])c1)C(=O)OCCOCCOCCOCCOC(=O)c1ccc(-c2c3nc(c(-c4c(F)c(F)c(F)c(F)c4F)c4ccc([nH]4)c(-c4c(F)c(F)c(F)c(F)c4F)c4nc(c(-c5c(F)c(F)c(F)c(F)c5F)c5ccc2[nH]5)C=C4)C=C3)cc1
REMARK SMILES IDX 29 1 28 2 27 3 26 4 25 5 24 6 22 7 23 8 3 9 4 10 2 11 1 12
REMARK SMILES IDX 5 13 6 14 21 15 7 16 17 17 8 18 18 19 19 20 20 21 9 22 10 23
REMARK SMILES IDX 11 24 15 25 12 26 14 27 16 28 13 29 30 30 31 31 32 32 33 33
REMARK SMILES IDX 34 34 35 35 36 36 37 37 38 38 39 39 40 40 101 41 41 42
REMARK SMILES IDX 100 43 42 44 43 45 44 46 94 47 45 48 99 49 93 50 95 51 46 52
REMARK SMILES IDX 98 53 92 54 91 55 47 57 79 58 59 59 78 60 60 61 63 62 77 63
REMARK SMILES IDX 96 64 61 65 62 66 76 68 97 69 64 70 48 71 49 72 57 73 50 74
REMARK SMILES IDX 51 75 55 76 58 77 52 78 53 79 56 80 54 81 80 82 81 83 89 84
REMARK SMILES IDX 82 85 83 86 87 87 90 88 84 89 85 90 88 91 86 92 65 93 66 94
REMARK SMILES IDX 74 95 67 96 68 97 72 98 75 99 69 100 70 101 73 102 71 103
REMARK H PARENT 95 56 63 67
REMARK Flexibility Score: inf
ROOT
ATOM      1  C   UNL A   1      35.177  20.339  25.268  1.00  0.00     0.188 C 
ENDROOT
BRANCH   1   2
ATOM      2  C   UNL A   1      36.339  19.457  24.764  1.00  0.00     0.188 C 
BRANCH   2   3
ATOM      3  O   UNL A   1      37.671  19.933  24.815  1.00  0.00    -0.376 OA
BRANCH   3   4
ATOM      4  C   UNL A   1      38.742  19.345  25.538  1.00  0.00     0.202 C 
BRANCH   4   5
ATOM      5  C   UNL A   1      40.050  20.021  25.989  1.00  0.00     0.261 C 
BRANCH   5   6
ATOM      6  O   UNL A   1      40.478  19.716  27.305  1.00  0.00    -0.459 OA
BRANCH   6   7
ATOM      7  C   UNL A   1      41.807  19.841  27.480  1.00  0.00     0.348 C 
ATOM      8  O   UNL A   1      42.582  18.950  27.793  1.00  0.00    -0.245 OA
BRANCH   7   9
ATOM      9  C   UNL A   1      42.249  21.196  27.093  1.00  0.00     0.138 C 
ATOM     10  C   UNL A   1      42.333  22.140  28.063  1.00  0.00     0.035 C 
BRANCH   9  11
ATOM     11  C   UNL A   1      43.181  21.251  25.894  1.00  0.00     0.107 C 
ATOM     12  N   UNL A   1      43.954  21.297  24.899  1.00  0.00    -0.192 NA
ENDBRANCH   9  11
BRANCH  10  13
ATOM     13  C   UNL A   1      43.306  23.257  28.030  1.00  0.00    -0.017 A 
ATOM     14  C   UNL A   1      44.566  23.081  28.612  1.00  0.00     0.012 A 
ATOM     15  C   UNL A   1      43.072  24.429  27.309  1.00  0.00     0.098 A 
ATOM     16  C   UNL A   1      45.575  24.042  28.443  1.00  0.00     0.055 A 
ATOM     17  C   UNL A   1      44.122  25.332  27.053  1.00  0.00     0.312 A 
ATOM     18  C   UNL A   1      45.378  25.186  27.651  1.00  0.00     0.204 A 
BRANCH  17  19
ATOM     19  N   UNL A   1      43.841  26.299  26.011  1.00  0.00     0.066 N 
ATOM     20  O   UNL A   1      44.004  27.495  26.286  1.00  0.00    -0.258 OA
ATOM     21  O   UNL A   1      43.540  25.849  24.895  1.00  0.00    -0.258 OA
ENDBRANCH  17  19
BRANCH  18  22
ATOM     22  O   UNL A   1      46.503  25.980  27.596  1.00  0.00    -0.449 OA
BRANCH  22  23
ATOM     23  C   UNL A   1      47.191  26.167  26.425  1.00  0.00     0.146 A 
ATOM     24  C   UNL A   1      47.218  25.070  25.558  1.00  0.00     0.049 A 
ATOM     25  C   UNL A   1      47.885  27.336  26.090  1.00  0.00     0.083 A 
ATOM     26  C   UNL A   1      47.839  25.175  24.314  1.00  0.00     0.004 A 
ATOM     27  C   UNL A   1      48.479  27.448  24.831  1.00  0.00     0.024 A 
ATOM     28  Cl  UNL A   1      48.023  28.666  27.182  1.00  0.00    -0.080 Cl
ATOM     29  C   UNL A   1      48.445  26.372  23.939  1.00  0.00     0.002 A 
ENDBRANCH  22  23
ENDBRANCH  18  22
ENDBRANCH  10  13
ENDBRANCH   7   9
ENDBRANCH   6   7
ENDBRANCH   5   6
ENDBRANCH   4   5
ENDBRANCH   3   4
ENDBRANCH   2   3
ENDBRANCH   1   2
BRANCH   1  30
ATOM     30  O   UNL A   1      34.119  20.488  24.350  1.00  0.00    -0.377 OA
BRANCH  30  31
ATOM     31  C   UNL A   1      33.389  21.707  24.407  1.00  0.00     0.188 C 
BRANCH  31  32
ATOM     32  C   UNL A   1      33.425  22.590  25.679  1.00  0.00     0.188 C 
BRANCH  32  33
ATOM     33  O   UNL A   1      34.053  23.856  25.542  1.00  0.00    -0.376 OA
BRANCH  33  34
ATOM     34  C   UNL A   1      35.246  23.988  24.785  1.00  0.00     0.202 C 
BRANCH  34  35
ATOM     35  C   UNL A   1      36.556  23.417  25.356  1.00  0.00     0.261 C 
BRANCH  35  36
ATOM     36  O   UNL A   1      37.445  24.364  25.961  1.00  0.00    -0.460 OA
BRANCH  36  37
ATOM     37  C   UNL A   1      38.636  23.900  26.391  1.00  0.00     0.338 C 
ATOM     38  O   UNL A   1      39.179  22.854  26.078  1.00  0.00    -0.246 OA
BRANCH  37  39
ATOM     39  C   UNL A   1      39.283  24.977  27.163  1.00  0.00     0.060 A 
ATOM     40  C   UNL A   1      39.133  24.994  28.557  1.00  0.00     0.016 A 
ATOM     41  C   UNL A   1      40.045  25.954  26.520  1.00  0.00     0.016 A 
ATOM     42  C   UNL A   1      39.709  26.015  29.309  1.00  0.00     0.010 A 
ATOM     43  C   UNL A   1      40.598  26.994  27.270  1.00  0.00     0.010 A 
ATOM     44  C   UNL A   1      40.398  27.048  28.661  1.00  0.00    -0.014 A 
BRANCH  44  45
ATOM     45  C   UNL A   1      40.709  28.289  29.405  1.00  0.00     0.031 A 
ATOM     46  C   UNL A   1      42.081  28.429  30.005  1.00  0.00     0.074 A 
ATOM     47  C   UNL A   1      39.811  29.281  29.524  1.00  0.00     0.049 A 
ATOM     48  N   UNL A   1      42.573  29.386  30.749  1.00  0.00    -0.248 NA
ATOM     49  C   UNL A   1      43.024  27.334  29.728  1.00  0.00     0.031 C 
ATOM     50  C   UNL A   1      38.470  29.280  28.948  1.00  0.00     0.029 A 
ATOM     51  N   UNL A   1      39.895  30.479  30.189  1.00  0.00    -0.354 N 
ATOM     52  C   UNL A   1      43.878  29.006  31.030  1.00  0.00     0.074 A 
ATOM     53  C   UNL A   1      44.090  27.714  30.413  1.00  0.00     0.031 C 
ATOM     54  C   UNL A   1      37.845  30.417  29.302  1.00  0.00     0.029 A 
ATOM     55  C   UNL A   1      38.731  31.204  30.160  1.00  0.00     0.049 A 
ATOM     56  H   UNL A   1      40.713  30.788  30.642  1.00  0.00     0.167 HD
ATOM     57  C   UNL A   1      44.821  29.679  31.730  1.00  0.00     0.037 A 
ATOM     58  C   UNL A   1      38.412  32.356  30.782  1.00  0.00     0.037 A 
ATOM     59  C   UNL A   1      44.600  30.957  32.354  1.00  0.00     0.049 A 
ATOM     60  C   UNL A   1      39.449  33.047  31.633  1.00  0.00     0.074 A 
ATOM     61  C   UNL A   1      45.487  31.724  33.087  1.00  0.00     0.029 A 
ATOM     62  N   UNL A   1      43.398  31.649  32.328  1.00  0.00    -0.354 N 
ATOM     63  N   UNL A   1      40.687  32.694  31.883  1.00  0.00    -0.248 NA
ATOM     64  C   UNL A   1      39.043  34.302  32.284  1.00  0.00     0.031 C 
ATOM     65  C   UNL A   1      44.803  32.850  33.557  1.00  0.00     0.029 A 
ATOM     66  C   UNL A   1      43.511  32.822  33.056  1.00  0.00     0.049 A 
ATOM     67  H   UNL A   1      42.584  31.350  31.861  1.00  0.00     0.167 HD
ATOM     68  C   UNL A   1      41.216  33.694  32.691  1.00  0.00     0.074 A 
ATOM     69  C   UNL A   1      40.167  34.675  32.878  1.00  0.00     0.031 C 
ATOM     70  C   UNL A   1      42.457  33.792  33.229  1.00  0.00     0.037 A 
BRANCH  57  71
ATOM     71  C   UNL A   1      46.164  29.024  31.884  1.00  0.00     0.064 A 
ATOM     72  C   UNL A   1      46.461  28.193  32.976  1.00  0.00     0.173 A 
ATOM     73  C   UNL A   1      47.167  29.222  30.922  1.00  0.00     0.173 A 
ATOM     74  F   UNL A   1      45.545  27.983  33.933  1.00  0.00    -0.203 F 
ATOM     75  C   UNL A   1      47.721  27.618  33.119  1.00  0.00     0.198 A 
ATOM     76  C   UNL A   1      48.414  28.615  31.049  1.00  0.00     0.198 A 
ATOM     77  F   UNL A   1      46.938  30.004  29.857  1.00  0.00    -0.203 F 
ATOM     78  F   UNL A   1      48.001  26.881  34.203  1.00  0.00    -0.200 F 
ATOM     79  C   UNL A   1      48.694  27.824  32.152  1.00  0.00     0.200 A 
ATOM     80  F   UNL A   1      49.347  28.805  30.106  1.00  0.00    -0.200 F 
ATOM     81  F   UNL A   1      49.904  27.267  32.288  1.00  0.00    -0.200 F 
ENDBRANCH  57  71
BRANCH  58  82
ATOM     82  C   UNL A   1      37.040  32.914  30.647  1.00  0.00     0.064 A 
ATOM     83  C   UNL A   1      36.669  33.670  29.526  1.00  0.00     0.173 A 
ATOM     84  C   UNL A   1      36.074  32.713  31.643  1.00  0.00     0.173 A 
ATOM     85  F   UNL A   1      37.564  33.912  28.556  1.00  0.00    -0.203 F 
ATOM     86  C   UNL A   1      35.392  34.217  29.416  1.00  0.00     0.198 A 
ATOM     87  C   UNL A   1      34.787  33.232  31.518  1.00  0.00     0.198 A 
ATOM     88  F   UNL A   1      36.376  31.997  32.738  1.00  0.00    -0.203 F 
ATOM     89  F   UNL A   1      35.079  34.976  28.357  1.00  0.00    -0.200 F 
ATOM     90  C   UNL A   1      34.450  33.991  30.408  1.00  0.00     0.200 A 
ATOM     91  F   UNL A   1      33.876  32.997  32.472  1.00  0.00    -0.200 F 
ATOM     92  F   UNL A   1      33.219  34.510  30.299  1.00  0.00    -0.200 F 
ENDBRANCH  58  82
BRANCH  70  93
ATOM     93  C   UNL A   1      42.770  35.022  34.036  1.00  0.00     0.064 A 
ATOM     94  C   UNL A   1      42.665  35.039  35.435  1.00  0.00     0.173 A 
ATOM     95  C   UNL A   1      43.227  36.188  33.400  1.00  0.00     0.173 A 
ATOM     96  F   UNL A   1      42.223  33.955  36.091  1.00  0.00    -0.203 F 
ATOM     97  C   UNL A   1      42.975  36.185  36.163  1.00  0.00     0.198 A 
ATOM     98  C   UNL A   1      43.571  37.319  34.135  1.00  0.00     0.198 A 
ATOM     99  F   UNL A   1      43.355  36.225  32.065  1.00  0.00    -0.203 F 
ATOM    100  F   UNL A   1      42.816  36.193  37.494  1.00  0.00    -0.200 F 
ATOM    101  C   UNL A   1      43.436  37.320  35.514  1.00  0.00     0.200 A 
ATOM    102  F   UNL A   1      44.033  38.409  33.506  1.00  0.00    -0.200 F 
ATOM    103  F   UNL A   1      43.744  38.418  36.218  1.00  0.00    -0.200 F 
ENDBRANCH  70  93
ENDBRANCH  44  45
ENDBRANCH  37  39
ENDBRANCH  36  37
ENDBRANCH  35  36
ENDBRANCH  34  35
ENDBRANCH  33  34
ENDBRANCH  32  33
ENDBRANCH  31  32
ENDBRANCH  30  31
ENDBRANCH   1  30
TORSDOF 25
ENDMDL
MODEL 2
REMARK VINA RESULT:      -8.4      1.069      2.166
REMARK SMILES N#C/C(=C\c1ccc(Oc2ccccc2Cl)c([N+](=O)[O-])c1)C(=O)OCCOCCOCCOCCOC(=O)c1ccc(-c2c3nc(c(-c4c(F)c(F)c(F)c(F)c4F)c4ccc([nH]4)c(-c4c(F)c(F)c(F)c(F)c4F)c4nc(c(-c5c(F)c(F)c(F)c(F)c5F)c5ccc2[nH]5)C=C4)C=C3)cc1
REMARK SMILES IDX 29 1 28 2 27 3 26 4 25 5 24 6 22 7 23 8 3 9 4 10 2 11 1 12
REMARK SMILES IDX 5 13 6 14 21 15 7 16 17 17 8 18 18 19 19 20 20 21 9 22 10 23
REMARK SMILES IDX 11 24 15 25 12 26 14 27 16 28 13 29 30 30 31 31 32 32 33 33
REMARK SMILES IDX 34 34 35 35 36 36 37 37 38 38 39 39 40 40 101 41 41 42
REMARK SMILES IDX 100 43 42 44 43 45 44 46 94 47 45 48 99 49 93 50 95 51 46 52
REMARK SMILES IDX 98 53 92 54 91 55 47 57 79 58 59 59 78 60 60 61 63 62 77 63
REMARK SMILES IDX 96 64 61 65 62 66 76 68 97 69 64 70 48 71 49 72 57 73 50 74
REMARK SMILES IDX 51 75 55 76 58 77 52 78 53 79 56 80 54 81 80 82 81 83 89 84
REMARK SMILES IDX 82 85 83 86 87 87 90 88 84 89 85 90 88 91 86 92 65 93 66 94
REMARK SMILES IDX 74 95 67 96 68 97 72 98 75 99 69 100 70 101 73 102 71 103
REMARK H PARENT 95 56 63 67
REMARK Flexibility Score: inf
ROOT
ATOM      1  C   UNL A   1      35.302  20.181  25.243  1.00  0.00     0.188 C 
ENDROOT
BRANCH   1   2
ATOM      2  C   UNL A   1      36.391  19.289  24.609  1.00  0.00     0.188 C 
BRANCH   2   3
ATOM      3  O   UNL A   1      37.755  19.657  24.692  1.00  0.00    -0.376 OA
BRANCH   3   4
ATOM      4  C   UNL A   1      38.626  19.398  25.783  1.00  0.00     0.202 C 
BRANCH   4   5
ATOM      5  C   UNL A   1      40.164  19.337  25.759  1.00  0.00     0.261 C 
BRANCH   5   6
ATOM      6  O   UNL A   1      40.811  19.651  26.980  1.00  0.00    -0.459 OA
BRANCH   6   7
ATOM      7  C   UNL A   1      42.152  19.550  26.919  1.00  0.00     0.348 C 
ATOM      8  O   UNL A   1      42.828  18.628  27.350  1.00  0.00    -0.245 OA
BRANCH   7   9
ATOM      9  C   UNL A   1      42.712  20.653  26.112  1.00  0.00     0.138 C 
ATOM     10  C   UNL A   1      42.574  21.918  26.579  1.00  0.00     0.035 C 
BRANCH   9  11
ATOM     11  C   UNL A   1      43.917  20.282  25.264  1.00  0.00     0.107 C 
ATOM     12  N   UNL A   1      44.917  19.974  24.560  1.00  0.00    -0.192 NA
ENDBRANCH   9  11
BRANCH  10  13
ATOM     13  C   UNL A   1      43.551  22.997  26.309  1.00  0.00    -0.017 A 
ATOM     14  C   UNL A   1      43.334  23.859  25.227  1.00  0.00     0.012 A 
ATOM     15  C   UNL A   1      44.605  23.286  27.178  1.00  0.00     0.098 A 
ATOM     16  C   UNL A   1      44.133  25.000  25.047  1.00  0.00     0.055 A 
ATOM     17  C   UNL A   1      45.326  24.489  27.052  1.00  0.00     0.312 A 
ATOM     18  C   UNL A   1      45.141  25.345  25.962  1.00  0.00     0.204 A 
BRANCH  17  19
ATOM     19  N   UNL A   1      46.130  24.831  28.209  1.00  0.00     0.066 N 
ATOM     20  O   UNL A   1      45.668  24.556  29.323  1.00  0.00    -0.258 OA
ATOM     21  O   UNL A   1      47.258  25.297  27.989  1.00  0.00    -0.258 OA
ENDBRANCH  17  19
BRANCH  18  22
ATOM     22  O   UNL A   1      45.783  26.514  25.611  1.00  0.00    -0.449 OA
BRANCH  22  23
ATOM     23  C   UNL A   1      45.379  27.727  26.105  1.00  0.00     0.146 A 
ATOM     24  C   UNL A   1      43.995  27.936  26.140  1.00  0.00     0.049 A 
ATOM     25  C   UNL A   1      46.246  28.748  26.509  1.00  0.00     0.083 A 
ATOM     26  C   UNL A   1      43.478  29.113  26.679  1.00  0.00     0.004 A 
ATOM     27  C   UNL A   1      45.724  29.913  27.078  1.00  0.00     0.024 A 
ATOM     28  Cl  UNL A   1      47.959  28.616  26.344  1.00  0.00    -0.080 Cl
ATOM     29  C   UNL A   1      44.341  30.088  27.174  1.00  0.00     0.002 A 
ENDBRANCH  22  23
ENDBRANCH  18  22
ENDBRANCH  10  13
ENDBRANCH   7   9
ENDBRANCH   6   7
ENDBRANCH   5   6
ENDBRANCH   4   5
ENDBRANCH   3   4
ENDBRANCH   2   3
ENDBRANCH   1   2
BRANCH   1  30
ATOM     30  O   UNL A   1      34.111  20.267  24.497  1.00  0.00    -0.377 OA
BRANCH  30  31
ATOM     31  C   UNL A   1      33.613  21.573  24.234  1.00  0.00     0.188 C 
BRANCH  31  32
ATOM     32  C   UNL A   1      33.576  22.643  25.354  1.00  0.00     0.188 C 
BRANCH  32  33
ATOM     33  O   UNL A   1      34.277  23.848  25.088  1.00  0.00    -0.376 OA
BRANCH  33  34
ATOM     34  C   UNL A   1      35.553  23.816  24.468  1.00  0.00     0.202 C 
BRANCH  34  35
ATOM     35  C   UNL A   1      36.750  23.260  25.258  1.00  0.00     0.261 C 
BRANCH  35  36
ATOM     36  O   UNL A   1      37.741  24.216  25.655  1.00  0.00    -0.460 OA
BRANCH  36  37
ATOM     37  C   UNL A   1      38.891  23.733  26.168  1.00  0.00     0.338 C 
ATOM     38  O   UNL A   1      39.439  22.679  25.889  1.00  0.00    -0.246 OA
BRANCH  37  39
ATOM     39  C   UNL A   1      39.498  24.796  26.989  1.00  0.00     0.060 A 
ATOM     40  C   UNL A   1      39.150  24.886  28.344  1.00  0.00     0.016 A 
ATOM     41  C   UNL A   1      40.414  25.690  26.430  1.00  0.00     0.016 A 
ATOM     42  C   UNL A   1      39.686  25.898  29.136  1.00  0.00     0.010 A 
ATOM     43  C   UNL A   1      40.928  26.722  27.218  1.00  0.00     0.010 A 
ATOM     44  C   UNL A   1      40.535  26.852  28.562  1.00  0.00    -0.014 A 
BRANCH  44  45
ATOM     45  C   UNL A   1      40.825  28.102  29.300  1.00  0.00     0.031 A 
ATOM     46  C   UNL A   1      42.178  28.246  29.940  1.00  0.00     0.074 A 
ATOM     47  C   UNL A   1      39.927  29.097  29.379  1.00  0.00     0.049 A 
ATOM     48  N   UNL A   1      42.650  29.210  30.687  1.00  0.00    -0.248 NA
ATOM     49  C   UNL A   1      43.127  27.145  29.705  1.00  0.00     0.031 C 
ATOM     50  C   UNL A   1      38.604  29.092  28.761  1.00  0.00     0.029 A 
ATOM     51  N   UNL A   1      39.994  30.302  30.032  1.00  0.00    -0.354 N 
ATOM     52  C   UNL A   1      43.945  28.831  31.013  1.00  0.00     0.074 A 
ATOM     53  C   UNL A   1      44.172  27.532  30.419  1.00  0.00     0.031 C 
ATOM     54  C   UNL A   1      37.972  30.234  29.083  1.00  0.00     0.029 A 
ATOM     55  C   UNL A   1      38.832  31.030  29.958  1.00  0.00     0.049 A 
ATOM     56  H   UNL A   1      40.797  30.615  30.506  1.00  0.00     0.167 HD
ATOM     57  C   UNL A   1      44.868  29.511  31.733  1.00  0.00     0.037 A 
ATOM     58  C   UNL A   1      38.497  32.189  30.557  1.00  0.00     0.037 A 
ATOM     59  C   UNL A   1      44.631  30.796  32.335  1.00  0.00     0.049 A 
ATOM     60  C   UNL A   1      39.509  32.889  31.430  1.00  0.00     0.074 A 
ATOM     61  C   UNL A   1      45.496  31.570  33.086  1.00  0.00     0.029 A 
ATOM     62  N   UNL A   1      43.431  31.490  32.264  1.00  0.00    -0.354 N 
ATOM     63  N   UNL A   1      40.738  32.536  31.722  1.00  0.00    -0.248 NA
ATOM     64  C   UNL A   1      39.087  34.152  32.053  1.00  0.00     0.031 C 
ATOM     65  C   UNL A   1      44.801  32.704  33.521  1.00  0.00     0.029 A 
ATOM     66  C   UNL A   1      43.524  32.672  32.981  1.00  0.00     0.049 A 
ATOM     67  H   UNL A   1      42.631  31.188  31.776  1.00  0.00     0.167 HD
ATOM     68  C   UNL A   1      41.245  33.544  32.535  1.00  0.00     0.074 A 
ATOM     69  C   UNL A   1      40.193  34.530  32.677  1.00  0.00     0.031 C 
ATOM     70  C   UNL A   1      42.469  33.646  33.109  1.00  0.00     0.037 A 
BRANCH  57  71
ATOM     71  C   UNL A   1      46.203  28.854  31.937  1.00  0.00     0.064 A 
ATOM     72  C   UNL A   1      47.234  28.966  30.989  1.00  0.00     0.173 A 
ATOM     73  C   UNL A   1      46.461  28.109  33.097  1.00  0.00     0.173 A 
ATOM     74  F   UNL A   1      47.037  29.652  29.854  1.00  0.00    -0.203 F 
ATOM     75  C   UNL A   1      48.456  28.325  31.181  1.00  0.00     0.198 A 
ATOM     76  C   UNL A   1      47.696  27.501  33.302  1.00  0.00     0.198 A 
ATOM     77  F   UNL A   1      45.513  27.972  34.037  1.00  0.00    -0.203 F 
ATOM     78  F   UNL A   1      49.402  28.393  30.233  1.00  0.00    -0.200 F 
ATOM     79  C   UNL A   1      48.688  27.600  32.339  1.00  0.00     0.200 A 
ATOM     80  F   UNL A   1      47.922  26.812  34.429  1.00  0.00    -0.200 F 
ATOM     81  F   UNL A   1      49.865  26.987  32.523  1.00  0.00    -0.200 F 
ENDBRANCH  57  71
BRANCH  58  82
ATOM     82  C   UNL A   1      37.132  32.749  30.372  1.00  0.00     0.064 A 
ATOM     83  C   UNL A   1      36.121  32.531  31.318  1.00  0.00     0.173 A 
ATOM     84  C   UNL A   1      36.806  33.504  29.236  1.00  0.00     0.173 A 
ATOM     85  F   UNL A   1      36.374  31.794  32.411  1.00  0.00    -0.203 F 
ATOM     86  C   UNL A   1      34.834  33.032  31.127  1.00  0.00     0.198 A 
ATOM     87  C   UNL A   1      35.529  34.033  29.061  1.00  0.00     0.198 A 
ATOM     88  F   UNL A   1      37.736  33.742  28.298  1.00  0.00    -0.203 F 
ATOM     89  F   UNL A   1      33.875  32.768  32.024  1.00  0.00    -0.200 F 
ATOM     90  C   UNL A   1      34.541  33.788  30.002  1.00  0.00     0.200 A 
ATOM     91  F   UNL A   1      35.256  34.777  27.980  1.00  0.00    -0.200 F 
ATOM     92  F   UNL A   1      33.306  34.277  29.822  1.00  0.00    -0.200 F 
ENDBRANCH  58  82
BRANCH  70  93
ATOM     93  C   UNL A   1      42.760  34.886  33.911  1.00  0.00     0.064 A 
ATOM     94  C   UNL A   1      42.586  34.927  35.302  1.00  0.00     0.173 A 
ATOM     95  C   UNL A   1      43.264  36.035  33.280  1.00  0.00     0.173 A 
ATOM     96  F   UNL A   1      42.098  33.861  35.954  1.00  0.00    -0.203 F 
ATOM     97  C   UNL A   1      42.878  36.081  36.026  1.00  0.00     0.198 A 
ATOM     98  C   UNL A   1      43.588  37.173  34.012  1.00  0.00     0.198 A 
ATOM     99  F   UNL A   1      43.457  36.047  31.952  1.00  0.00    -0.203 F 
ATOM    100  F   UNL A   1      42.654  36.114  37.347  1.00  0.00    -0.200 F 
ATOM    101  C   UNL A   1      43.386  37.198  35.383  1.00  0.00     0.200 A 
ATOM    102  F   UNL A   1      44.096  38.245  33.389  1.00  0.00    -0.200 F 
ATOM    103  F   UNL A   1      43.675  38.304  36.083  1.00  0.00    -0.200 F 
ENDBRANCH  70  93
ENDBRANCH  44  45
ENDBRANCH  37  39
ENDBRANCH  36  37
ENDBRANCH  35  36
ENDBRANCH  34  35
ENDBRANCH  33  34
ENDBRANCH  32  33
ENDBRANCH  31  32
ENDBRANCH  30  31
ENDBRANCH   1  30
TORSDOF 25
ENDMDL
MODEL 3
REMARK VINA RESULT:      -8.0      6.127     10.599
REMARK SMILES N#C/C(=C\c1ccc(Oc2ccccc2Cl)c([N+](=O)[O-])c1)C(=O)OCCOCCOCCOCCOC(=O)c1ccc(-c2c3nc(c(-c4c(F)c(F)c(F)c(F)c4F)c4ccc([nH]4)c(-c4c(F)c(F)c(F)c(F)c4F)c4nc(c(-c5c(F)c(F)c(F)c(F)c5F)c5ccc2[nH]5)C=C4)C=C3)cc1
REMARK SMILES IDX 29 1 28 2 27 3 26 4 25 5 24 6 22 7 23 8 3 9 4 10 2 11 1 12
REMARK SMILES IDX 5 13 6 14 21 15 7 16 17 17 8 18 18 19 19 20 20 21 9 22 10 23
REMARK SMILES IDX 11 24 15 25 12 26 14 27 16 28 13 29 30 30 31 31 32 32 33 33
REMARK SMILES IDX 34 34 35 35 36 36 37 37 38 38 39 39 40 40 101 41 41 42
REMARK SMILES IDX 100 43 42 44 43 45 44 46 94 47 45 48 99 49 93 50 95 51 46 52
REMARK SMILES IDX 98 53 92 54 91 55 47 57 79 58 59 59 78 60 60 61 63 62 77 63
REMARK SMILES IDX 96 64 61 65 62 66 76 68 97 69 64 70 48 71 49 72 57 73 50 74
REMARK SMILES IDX 51 75 55 76 58 77 52 78 53 79 56 80 54 81 80 82 81 83 89 84
REMARK SMILES IDX 82 85 83 86 87 87 90 88 84 89 85 90 88 91 86 92 65 93 66 94
REMARK SMILES IDX 74 95 67 96 68 97 72 98 75 99 69 100 70 101 73 102 71 103
REMARK H PARENT 95 56 63 67
REMARK Flexibility Score: inf
ROOT
ATOM      1  C   UNL A   1      38.282  21.744  25.260  1.00  0.00     0.188 C 
ENDROOT
BRANCH   1   2
ATOM      2  C   UNL A   1      36.738  21.753  25.246  1.00  0.00     0.188 C 
BRANCH   2   3
ATOM      3  O   UNL A   1      36.014  22.031  26.429  1.00  0.00    -0.376 OA
BRANCH   3   4
ATOM      4  C   UNL A   1      34.623  21.828  26.626  1.00  0.00     0.202 C 
BRANCH   4   5
ATOM      5  C   UNL A   1      33.753  20.693  26.057  1.00  0.00     0.261 C 
BRANCH   5   6
ATOM      6  O   UNL A   1      32.472  21.077  25.587  1.00  0.00    -0.459 OA
BRANCH   6   7
ATOM      7  C   UNL A   1      32.375  21.091  24.244  1.00  0.00     0.348 C 
ATOM      8  O   UNL A   1      32.471  20.126  23.502  1.00  0.00    -0.245 OA
BRANCH   7   9
ATOM      9  C   UNL A   1      31.977  22.433  23.774  1.00  0.00     0.138 C 
ATOM     10  C   UNL A   1      30.937  23.044  24.395  1.00  0.00     0.035 C 
BRANCH   9  11
ATOM     11  C   UNL A   1      33.098  23.264  23.173  1.00  0.00     0.107 C 
ATOM     12  N   UNL A   1      34.029  23.954  22.675  1.00  0.00    -0.192 NA
ENDBRANCH   9  11
BRANCH  10  13
ATOM     13  C   UNL A   1      30.819  24.514  24.532  1.00  0.00    -0.017 A 
ATOM     14  C   UNL A   1      31.136  25.112  25.757  1.00  0.00     0.012 A 
ATOM     15  C   UNL A   1      30.549  25.346  23.444  1.00  0.00     0.098 A 
ATOM     16  C   UNL A   1      31.214  26.509  25.874  1.00  0.00     0.055 A 
ATOM     17  C   UNL A   1      30.739  26.738  23.544  1.00  0.00     0.312 A 
ATOM     18  C   UNL A   1      31.026  27.353  24.766  1.00  0.00     0.204 A 
BRANCH  17  19
ATOM     19  N   UNL A   1      30.776  27.431  22.272  1.00  0.00     0.066 N 
ATOM     20  O   UNL A   1      31.420  26.905  21.356  1.00  0.00    -0.258 OA
ATOM     21  O   UNL A   1      30.087  28.458  22.174  1.00  0.00    -0.258 OA
ENDBRANCH  17  19
BRANCH  18  22
ATOM     22  O   UNL A   1      31.174  28.683  25.096  1.00  0.00    -0.449 OA
BRANCH  22  23
ATOM     23  C   UNL A   1      32.242  29.122  25.835  1.00  0.00     0.146 A 
ATOM     24  C   UNL A   1      33.247  28.175  26.068  1.00  0.00     0.049 A 
ATOM     25  C   UNL A   1      32.350  30.401  26.393  1.00  0.00     0.083 A 
ATOM     26  C   UNL A   1      34.403  28.536  26.758  1.00  0.00     0.004 A 
ATOM     27  C   UNL A   1      33.524  30.768  27.056  1.00  0.00     0.024 A 
ATOM     28  Cl  UNL A   1      31.078  31.562  26.277  1.00  0.00    -0.080 Cl
ATOM     29  C   UNL A   1      34.554  29.840  27.227  1.00  0.00     0.002 A 
ENDBRANCH  22  23
ENDBRANCH  18  22
ENDBRANCH  10  13
ENDBRANCH   7   9
ENDBRANCH   6   7
ENDBRANCH   5   6
ENDBRANCH   4   5
ENDBRANCH   3   4
ENDBRANCH   2   3
ENDBRANCH   1   2
BRANCH   1  30
ATOM     30  O   UNL A   1      38.851  21.265  26.456  1.00  0.00    -0.377 OA
BRANCH  30  31
ATOM     31  C   UNL A   1      40.082  20.562  26.343  1.00  0.00     0.188 C 
BRANCH  31  32
ATOM     32  C   UNL A   1      41.116  20.592  27.496  1.00  0.00     0.188 C 
BRANCH  32  33
ATOM     33  O   UNL A   1      41.791  21.825  27.696  1.00  0.00    -0.376 OA
BRANCH  33  34
ATOM     34  C   UNL A   1      41.911  22.759  26.635  1.00  0.00     0.202 C 
BRANCH  34  35
ATOM     35  C   UNL A   1      43.306  23.048  26.053  1.00  0.00     0.261 C 
BRANCH  35  36
ATOM     36  O   UNL A   1      44.417  22.522  26.791  1.00  0.00    -0.460 OA
BRANCH  36  37
ATOM     37  C   UNL A   1      45.640  22.656  26.238  1.00  0.00     0.338 C 
ATOM     38  O   UNL A   1      46.282  21.804  25.647  1.00  0.00    -0.246 OA
BRANCH  37  39
ATOM     39  C   UNL A   1      45.999  24.086  26.289  1.00  0.00     0.060 A 
ATOM     40  C   UNL A   1      45.955  24.836  25.106  1.00  0.00     0.016 A 
ATOM     41  C   UNL A   1      46.364  24.685  27.496  1.00  0.00     0.016 A 
ATOM     42  C   UNL A   1      46.317  26.181  25.118  1.00  0.00     0.010 A 
ATOM     43  C   UNL A   1      46.755  26.025  27.503  1.00  0.00     0.010 A 
ATOM     44  C   UNL A   1      46.770  26.765  26.307  1.00  0.00    -0.014 A 
BRANCH  44  45
ATOM     45  C   UNL A   1      47.469  28.069  26.253  1.00  0.00     0.031 A 
ATOM     46  C   UNL A   1      48.949  28.066  25.985  1.00  0.00     0.074 A 
ATOM     47  C   UNL A   1      46.809  29.228  26.408  1.00  0.00     0.049 A 
ATOM     48  N   UNL A   1      49.793  29.065  25.951  1.00  0.00    -0.248 NA
ATOM     49  C   UNL A   1      49.558  26.752  25.725  1.00  0.00     0.031 C 
ATOM     50  C   UNL A   1      45.371  29.359  26.624  1.00  0.00     0.029 A 
ATOM     51  N   UNL A   1      47.274  30.519  26.421  1.00  0.00    -0.354 N 
ATOM     52  C   UNL A   1      51.029  28.500  25.670  1.00  0.00     0.074 A 
ATOM     53  C   UNL A   1      50.835  27.069  25.583  1.00  0.00     0.031 C 
ATOM     54  C   UNL A   1      45.072  30.662  26.771  1.00  0.00     0.029 A 
ATOM     55  C   UNL A   1      46.302  31.448  26.695  1.00  0.00     0.049 A 
ATOM     56  H   UNL A   1      48.214  30.756  26.249  1.00  0.00     0.167 HD
ATOM     57  C   UNL A   1      52.218  29.120  25.486  1.00  0.00     0.037 A 
ATOM     58  C   UNL A   1      46.406  32.777  26.893  1.00  0.00     0.037 A 
ATOM     59  C   UNL A   1      52.408  30.543  25.589  1.00  0.00     0.049 A 
ATOM     60  C   UNL A   1      47.757  33.438  26.774  1.00  0.00     0.074 A 
ATOM     61  C   UNL A   1      53.571  31.272  25.424  1.00  0.00     0.029 A 
ATOM     62  N   UNL A   1      51.405  31.451  25.898  1.00  0.00    -0.354 N 
ATOM     63  N   UNL A   1      48.920  32.904  26.491  1.00  0.00    -0.248 NA
ATOM     64  C   UNL A   1      47.806  34.891  26.997  1.00  0.00     0.031 C 
ATOM     65  C   UNL A   1      53.285  32.615  25.693  1.00  0.00     0.029 A 
ATOM     66  C   UNL A   1      51.929  32.733  25.955  1.00  0.00     0.049 A 
ATOM     67  H   UNL A   1      50.461  31.219  26.053  1.00  0.00     0.167 HD
ATOM     68  C   UNL A   1      49.832  33.954  26.472  1.00  0.00     0.074 A 
ATOM     69  C   UNL A   1      49.081  35.159  26.758  1.00  0.00     0.031 C 
ATOM     70  C   UNL A   1      51.167  33.924  26.237  1.00  0.00     0.037 A 
BRANCH  57  71
ATOM     71  C   UNL A   1      53.409  28.252  25.193  1.00  0.00     0.064 A 
ATOM     72  C   UNL A   1      54.150  27.643  26.219  1.00  0.00     0.173 A 
ATOM     73  C   UNL A   1      53.812  28.020  23.870  1.00  0.00     0.173 A 
ATOM     74  F   UNL A   1      53.819  27.844  27.503  1.00  0.00    -0.203 F 
ATOM     75  C   UNL A   1      55.270  26.866  25.930  1.00  0.00     0.198 A 
ATOM     76  C   UNL A   1      54.910  27.214  23.583  1.00  0.00     0.198 A 
ATOM     77  F   UNL A   1      53.140  28.576  22.851  1.00  0.00    -0.203 F 
ATOM     78  F   UNL A   1      55.999  26.347  26.929  1.00  0.00    -0.200 F 
ATOM     79  C   UNL A   1      55.644  26.647  24.614  1.00  0.00     0.200 A 
ATOM     80  F   UNL A   1      55.262  26.992  22.309  1.00  0.00    -0.200 F 
ATOM     81  F   UNL A   1      56.719  25.897  24.337  1.00  0.00    -0.200 F 
ENDBRANCH  57  71
BRANCH  58  82
ATOM     82  C   UNL A   1      45.198  33.567  27.252  1.00  0.00     0.064 A 
ATOM     83  C   UNL A   1      44.765  33.673  28.581  1.00  0.00     0.173 A 
ATOM     84  C   UNL A   1      44.444  34.224  26.269  1.00  0.00     0.173 A 
ATOM     85  F   UNL A   1      45.437  33.044  29.557  1.00  0.00    -0.203 F 
ATOM     86  C   UNL A   1      43.615  34.390  28.910  1.00  0.00     0.198 A 
ATOM     87  C   UNL A   1      43.313  34.967  26.602  1.00  0.00     0.198 A 
ATOM     88  F   UNL A   1      44.813  34.155  24.981  1.00  0.00    -0.203 F 
ATOM     89  F   UNL A   1      43.197  34.435  30.182  1.00  0.00    -0.200 F 
ATOM     90  C   UNL A   1      42.895  35.042  27.921  1.00  0.00     0.200 A 
ATOM     91  F   UNL A   1      42.630  35.610  25.644  1.00  0.00    -0.200 F 
ATOM     92  F   UNL A   1      41.794  35.738  28.238  1.00  0.00    -0.200 F 
ENDBRANCH  58  82
BRANCH  70  93
ATOM     93  C   UNL A   1      51.902  35.237  26.235  1.00  0.00     0.064 A 
ATOM     94  C   UNL A   1      52.489  35.760  27.397  1.00  0.00     0.173 A 
ATOM     95  C   UNL A   1      52.059  35.958  25.041  1.00  0.00     0.173 A 
ATOM     96  F   UNL A   1      52.360  35.117  28.567  1.00  0.00    -0.203 F 
ATOM     97  C   UNL A   1      53.179  36.969  27.368  1.00  0.00     0.198 A 
ATOM     98  C   UNL A   1      52.781  37.148  25.009  1.00  0.00     0.198 A 
ATOM     99  F   UNL A   1      51.526  35.499  23.898  1.00  0.00    -0.203 F 
ATOM    100  F   UNL A   1      53.686  37.475  28.501  1.00  0.00    -0.200 F 
ATOM    101  C   UNL A   1      53.333  37.657  26.174  1.00  0.00     0.200 A 
ATOM    102  F   UNL A   1      52.943  37.800  23.850  1.00  0.00    -0.200 F 
ATOM    103  F   UNL A   1      54.005  38.815  26.147  1.00  0.00    -0.200 F 
ENDBRANCH  70  93
ENDBRANCH  44  45
ENDBRANCH  37  39
ENDBRANCH  36  37
ENDBRANCH  35  36
ENDBRANCH  34  35
ENDBRANCH  33  34
ENDBRANCH  32  33
ENDBRANCH  31  32
ENDBRANCH  30  31
ENDBRANCH   1  30
TORSDOF 25
ENDMDL
