MODEL 1
REMARK VINA RESULT:     -10.5      0.000      0.000
REMARK SMILES C[C@@H](C(=O)OCCOCCOCCOCCOC(=O)c1ccc(-c2c3nc(c(-c4c(F)c(F)c(F)c(F)c4F)c4ccc([nH]4)c(-c4c(F)c(F)c(F)c(F)c4F)c4nc(c(-c5c(F)c(F)c(F)c(F)c5F)c5ccc2[nH]5)C=C4)C=C3)cc1)c1ccn(C(F)F)c(=O)c1
REMARK SMILES IDX 11 1 10 2 9 3 8 4 7 5 6 6 5 7 3 8 4 9 2 10 1 11 83 12 84 13
REMARK SMILES IDX 92 14 85 15 90 16 86 17 91 18 87 19 88 20 89 21 12 22 13 23
REMARK SMILES IDX 14 24 15 25 16 26 17 27 18 28 19 29 20 30 21 31 82 32 22 33
REMARK SMILES IDX 81 34 23 35 24 36 25 37 75 38 26 39 80 40 74 41 76 42 27 43
REMARK SMILES IDX 79 44 73 45 72 46 28 48 60 49 40 50 59 51 41 52 44 53 58 54
REMARK SMILES IDX 77 55 42 56 43 57 57 59 78 60 45 61 29 62 30 63 38 64 31 65
REMARK SMILES IDX 32 66 36 67 39 68 33 69 34 70 37 71 35 72 61 73 62 74 70 75
REMARK SMILES IDX 63 76 64 77 68 78 71 79 65 80 66 81 69 82 67 83 46 84 47 85
REMARK SMILES IDX 55 86 48 87 49 88 53 89 56 90 50 91 51 92 54 93 52 94
REMARK H PARENT 76 47 44 58
REMARK Flexibility Score: inf
ROOT
ATOM      1  O   UNL A   1      33.928  32.817  27.910  1.00  0.00    -0.377 OA
ENDROOT
BRANCH   1   2
ATOM      2  C   UNL A   1      35.136  32.084  27.874  1.00  0.00     0.188 C 
BRANCH   2   3
ATOM      3  C   UNL A   1      34.961  30.565  27.703  1.00  0.00     0.188 C 
BRANCH   3   4
ATOM      4  O   UNL A   1      33.686  30.029  27.394  1.00  0.00    -0.376 OA
BRANCH   4   5
ATOM      5  C   UNL A   1      33.560  28.720  26.860  1.00  0.00     0.202 C 
BRANCH   5   6
ATOM      6  C   UNL A   1      32.220  27.958  26.775  1.00  0.00     0.261 C 
BRANCH   6   7
ATOM      7  O   UNL A   1      31.716  27.640  25.466  1.00  0.00    -0.463 OA
BRANCH   7   8
ATOM      8  C   UNL A   1      30.873  26.583  25.387  1.00  0.00     0.313 C 
ATOM      9  O   UNL A   1      30.435  25.994  26.370  1.00  0.00    -0.252 OA
BRANCH   8  10
ATOM     10  C   UNL A   1      30.477  26.189  23.944  1.00  0.00     0.126 C 
ATOM     11  C   UNL A   1      31.501  25.430  23.086  1.00  0.00     0.025 C 
BRANCH  10  12
ATOM     12  C   UNL A   1      29.805  27.403  23.296  1.00  0.00    -0.027 A 
ATOM     13  C   UNL A   1      30.543  28.416  22.556  1.00  0.00     0.023 A 
ATOM     14  C   UNL A   1      28.488  27.605  23.491  1.00  0.00     0.076 A 
ATOM     15  C   UNL A   1      29.951  29.560  22.182  1.00  0.00     0.095 A 
ATOM     16  C   UNL A   1      27.804  28.850  23.051  1.00  0.00     0.255 A 
ATOM     17  N   UNL A   1      28.614  29.790  22.437  1.00  0.00    -0.258 N 
ATOM     18  O   UNL A   1      26.605  28.968  23.270  1.00  0.00    -0.269 OA
BRANCH  17  19
ATOM     19  C   UNL A   1      27.991  31.033  22.064  1.00  0.00     0.451 C 
ATOM     20  F   UNL A   1      27.805  31.829  23.145  1.00  0.00    -0.185 F 
ATOM     21  F   UNL A   1      28.750  31.710  21.169  1.00  0.00    -0.185 F 
ENDBRANCH  17  19
ENDBRANCH  10  12
ENDBRANCH   8  10
ENDBRANCH   7   8
ENDBRANCH   6   7
ENDBRANCH   5   6
ENDBRANCH   4   5
ENDBRANCH   3   4
ENDBRANCH   2   3
ENDBRANCH   1   2
BRANCH   1  22
ATOM     22  C   UNL A   1      34.041  34.231  27.866  1.00  0.00     0.188 C 
BRANCH  22  23
ATOM     23  C   UNL A   1      33.266  35.064  28.908  1.00  0.00     0.188 C 
BRANCH  23  24
ATOM     24  O   UNL A   1      33.328  34.542  30.230  1.00  0.00    -0.376 OA
BRANCH  24  25
ATOM     25  C   UNL A   1      34.600  34.264  30.796  1.00  0.00     0.202 C 
BRANCH  25  26
ATOM     26  C   UNL A   1      34.627  33.740  32.242  1.00  0.00     0.261 C 
BRANCH  26  27
ATOM     27  O   UNL A   1      35.093  32.395  32.423  1.00  0.00    -0.460 OA
BRANCH  27  28
ATOM     28  C   UNL A   1      36.185  32.209  33.192  1.00  0.00     0.338 C 
ATOM     29  O   UNL A   1      36.300  32.451  34.382  1.00  0.00    -0.246 OA
BRANCH  28  30
ATOM     30  C   UNL A   1      37.180  31.462  32.394  1.00  0.00     0.060 A 
ATOM     31  C   UNL A   1      38.166  30.726  33.062  1.00  0.00     0.016 A 
ATOM     32  C   UNL A   1      37.133  31.477  30.997  1.00  0.00     0.016 A 
ATOM     33  C   UNL A   1      39.135  30.034  32.335  1.00  0.00     0.010 A 
ATOM     34  C   UNL A   1      38.119  30.805  30.271  1.00  0.00     0.010 A 
ATOM     35  C   UNL A   1      39.145  30.111  30.937  1.00  0.00    -0.014 A 
BRANCH  35  36
ATOM     36  C   UNL A   1      40.336  29.644  30.187  1.00  0.00     0.031 A 
ATOM     37  C   UNL A   1      41.478  30.604  29.995  1.00  0.00     0.074 A 
ATOM     38  C   UNL A   1      40.418  28.391  29.707  1.00  0.00     0.049 A 
ATOM     39  N   UNL A   1      42.592  30.451  29.327  1.00  0.00    -0.248 NA
ATOM     40  C   UNL A   1      41.342  31.918  30.646  1.00  0.00     0.031 C 
ATOM     41  C   UNL A   1      39.402  27.356  29.870  1.00  0.00     0.029 A 
ATOM     42  N   UNL A   1      41.407  27.783  28.974  1.00  0.00    -0.354 N 
ATOM     43  C   UNL A   1      43.280  31.648  29.467  1.00  0.00     0.074 A 
ATOM     44  C   UNL A   1      42.451  32.529  30.261  1.00  0.00     0.031 C 
ATOM     45  C   UNL A   1      39.812  26.241  29.238  1.00  0.00     0.029 A 
ATOM     46  C   UNL A   1      41.103  26.499  28.598  1.00  0.00     0.049 A 
ATOM     47  H   UNL A   1      42.255  28.226  28.740  1.00  0.00     0.167 HD
ATOM     48  C   UNL A   1      44.498  31.981  28.981  1.00  0.00     0.037 A 
ATOM     49  C   UNL A   1      41.774  25.641  27.804  1.00  0.00     0.037 A 
ATOM     50  C   UNL A   1      45.322  31.101  28.195  1.00  0.00     0.049 A 
ATOM     51  C   UNL A   1      43.101  26.058  27.220  1.00  0.00     0.074 A 
ATOM     52  C   UNL A   1      46.582  31.341  27.673  1.00  0.00     0.029 A 
ATOM     53  N   UNL A   1      44.966  29.818  27.811  1.00  0.00    -0.354 N 
ATOM     54  N   UNL A   1      43.752  27.187  27.363  1.00  0.00    -0.248 NA
ATOM     55  C   UNL A   1      43.789  25.077  26.367  1.00  0.00     0.031 C 
ATOM     56  C   UNL A   1      46.960  30.226  26.919  1.00  0.00     0.029 A 
ATOM     57  C   UNL A   1      45.970  29.263  27.033  1.00  0.00     0.049 A 
ATOM     58  H   UNL A   1      44.125  29.367  28.054  1.00  0.00     0.167 HD
ATOM     59  C   UNL A   1      44.933  27.044  26.646  1.00  0.00     0.074 A 
ATOM     60  C   UNL A   1      44.916  25.713  26.078  1.00  0.00     0.031 C 
ATOM     61  C   UNL A   1      45.942  27.934  26.476  1.00  0.00     0.037 A 
BRANCH  48  62
ATOM     62  C   UNL A   1      45.008  33.366  29.255  1.00  0.00     0.064 A 
ATOM     63  C   UNL A   1      45.696  33.683  30.435  1.00  0.00     0.173 A 
ATOM     64  C   UNL A   1      44.853  34.377  28.293  1.00  0.00     0.173 A 
ATOM     65  F   UNL A   1      45.854  32.759  31.394  1.00  0.00    -0.203 F 
ATOM     66  C   UNL A   1      46.202  34.964  30.646  1.00  0.00     0.198 A 
ATOM     67  C   UNL A   1      45.387  35.647  28.494  1.00  0.00     0.198 A 
ATOM     68  F   UNL A   1      44.201  34.126  27.148  1.00  0.00    -0.203 F 
ATOM     69  F   UNL A   1      46.823  35.255  31.797  1.00  0.00    -0.200 F 
ATOM     70  C   UNL A   1      46.057  35.940  29.671  1.00  0.00     0.200 A 
ATOM     71  F   UNL A   1      45.257  36.583  27.545  1.00  0.00    -0.200 F 
ATOM     72  F   UNL A   1      46.560  37.166  29.868  1.00  0.00    -0.200 F 
ENDBRANCH  48  62
BRANCH  49  73
ATOM     73  C   UNL A   1      41.193  24.307  27.501  1.00  0.00     0.064 A 
ATOM     74  C   UNL A   1      40.088  24.170  26.648  1.00  0.00     0.173 A 
ATOM     75  C   UNL A   1      41.730  23.138  28.062  1.00  0.00     0.173 A 
ATOM     76  F   UNL A   1      39.521  25.259  26.110  1.00  0.00    -0.203 F 
ATOM     77  C   UNL A   1      39.539  22.919  26.377  1.00  0.00     0.198 A 
ATOM     78  C   UNL A   1      41.200  21.885  27.765  1.00  0.00     0.198 A 
ATOM     79  F   UNL A   1      42.784  23.213  28.889  1.00  0.00    -0.203 F 
ATOM     80  F   UNL A   1      38.458  22.821  25.591  1.00  0.00    -0.200 F 
ATOM     81  C   UNL A   1      40.100  21.776  26.927  1.00  0.00     0.200 A 
ATOM     82  F   UNL A   1      41.755  20.784  28.289  1.00  0.00    -0.200 F 
ATOM     83  F   UNL A   1      39.579  20.572  26.656  1.00  0.00    -0.200 F 
ENDBRANCH  49  73
BRANCH  61  84
ATOM     84  C   UNL A   1      47.136  27.493  25.676  1.00  0.00     0.064 A 
ATOM     85  C   UNL A   1      47.218  27.695  24.291  1.00  0.00     0.173 A 
ATOM     86  C   UNL A   1      48.241  26.908  26.318  1.00  0.00     0.173 A 
ATOM     87  F   UNL A   1      46.188  28.240  23.627  1.00  0.00    -0.203 F 
ATOM     88  C   UNL A   1      48.346  27.304  23.575  1.00  0.00     0.198 A 
ATOM     89  C   UNL A   1      49.382  26.552  25.605  1.00  0.00     0.198 A 
ATOM     90  F   UNL A   1      48.222  26.703  27.643  1.00  0.00    -0.203 F 
ATOM     91  F   UNL A   1      48.381  27.462  22.244  1.00  0.00    -0.200 F 
ATOM     92  C   UNL A   1      49.430  26.741  24.233  1.00  0.00     0.200 A 
ATOM     93  F   UNL A   1      50.435  26.028  26.246  1.00  0.00    -0.200 F 
ATOM     94  F   UNL A   1      50.520  26.376  23.543  1.00  0.00    -0.200 F 
ENDBRANCH  61  84
ENDBRANCH  35  36
ENDBRANCH  28  30
ENDBRANCH  27  28
ENDBRANCH  26  27
ENDBRANCH  25  26
ENDBRANCH  24  25
ENDBRANCH  23  24
ENDBRANCH  22  23
ENDBRANCH   1  22
TORSDOF 22
ENDMDL
MODEL 2
REMARK VINA RESULT:     -10.0      5.302      8.399
REMARK SMILES C[C@@H](C(=O)OCCOCCOCCOCCOC(=O)c1ccc(-c2c3nc(c(-c4c(F)c(F)c(F)c(F)c4F)c4ccc([nH]4)c(-c4c(F)c(F)c(F)c(F)c4F)c4nc(c(-c5c(F)c(F)c(F)c(F)c5F)c5ccc2[nH]5)C=C4)C=C3)cc1)c1ccn(C(F)F)c(=O)c1
REMARK SMILES IDX 11 1 10 2 9 3 8 4 7 5 6 6 5 7 3 8 4 9 2 10 1 11 83 12 84 13
REMARK SMILES IDX 92 14 85 15 90 16 86 17 91 18 87 19 88 20 89 21 12 22 13 23
REMARK SMILES IDX 14 24 15 25 16 26 17 27 18 28 19 29 20 30 21 31 82 32 22 33
REMARK SMILES IDX 81 34 23 35 24 36 25 37 75 38 26 39 80 40 74 41 76 42 27 43
REMARK SMILES IDX 79 44 73 45 72 46 28 48 60 49 40 50 59 51 41 52 44 53 58 54
REMARK SMILES IDX 77 55 42 56 43 57 57 59 78 60 45 61 29 62 30 63 38 64 31 65
REMARK SMILES IDX 32 66 36 67 39 68 33 69 34 70 37 71 35 72 61 73 62 74 70 75
REMARK SMILES IDX 63 76 64 77 68 78 71 79 65 80 66 81 69 82 67 83 46 84 47 85
REMARK SMILES IDX 55 86 48 87 49 88 53 89 56 90 50 91 51 92 54 93 52 94
REMARK H PARENT 76 47 44 58
REMARK Flexibility Score: inf
ROOT
ATOM      1  O   UNL A   1      34.856  30.446  27.570  1.00  0.00    -0.377 OA
ENDROOT
BRANCH   1   2
ATOM      2  C   UNL A   1      33.549  30.408  27.034  1.00  0.00     0.188 C 
BRANCH   2   3
ATOM      3  C   UNL A   1      33.346  29.380  25.906  1.00  0.00     0.188 C 
BRANCH   3   4
ATOM      4  O   UNL A   1      32.629  28.183  26.160  1.00  0.00    -0.376 OA
BRANCH   4   5
ATOM      5  C   UNL A   1      31.584  27.769  25.294  1.00  0.00     0.202 C 
BRANCH   5   6
ATOM      6  C   UNL A   1      30.739  26.497  25.525  1.00  0.00     0.261 C 
BRANCH   6   7
ATOM      7  O   UNL A   1      31.020  25.713  26.698  1.00  0.00    -0.463 OA
BRANCH   7   8
ATOM      8  C   UNL A   1      31.270  24.398  26.496  1.00  0.00     0.313 C 
ATOM      9  O   UNL A   1      31.009  23.526  27.320  1.00  0.00    -0.252 OA
BRANCH   8  10
ATOM     10  C   UNL A   1      31.891  24.070  25.118  1.00  0.00     0.126 C 
ATOM     11  C   UNL A   1      31.021  23.349  24.077  1.00  0.00     0.025 C 
BRANCH  10  12
ATOM     12  C   UNL A   1      33.290  23.496  25.360  1.00  0.00    -0.027 A 
ATOM     13  C   UNL A   1      34.445  24.326  25.664  1.00  0.00     0.023 A 
ATOM     14  C   UNL A   1      33.494  22.175  25.193  1.00  0.00     0.076 A 
ATOM     15  C   UNL A   1      35.682  23.807  25.668  1.00  0.00     0.095 A 
ATOM     16  C   UNL A   1      34.853  21.574  25.231  1.00  0.00     0.255 A 
ATOM     17  N   UNL A   1      35.893  22.463  25.437  1.00  0.00    -0.258 N 
ATOM     18  O   UNL A   1      34.963  20.365  25.063  1.00  0.00    -0.269 OA
BRANCH  17  19
ATOM     19  C   UNL A   1      37.224  21.916  25.408  1.00  0.00     0.451 C 
ATOM     20  F   UNL A   1      37.564  21.523  24.156  1.00  0.00    -0.185 F 
ATOM     21  F   UNL A   1      38.137  22.828  25.823  1.00  0.00    -0.185 F 
ENDBRANCH  17  19
ENDBRANCH  10  12
ENDBRANCH   8  10
ENDBRANCH   7   8
ENDBRANCH   6   7
ENDBRANCH   5   6
ENDBRANCH   4   5
ENDBRANCH   3   4
ENDBRANCH   2   3
ENDBRANCH   1   2
BRANCH   1  22
ATOM     22  C   UNL A   1      35.249  31.654  28.203  1.00  0.00     0.188 C 
BRANCH  22  23
ATOM     23  C   UNL A   1      34.195  32.765  28.386  1.00  0.00     0.188 C 
BRANCH  23  24
ATOM     24  O   UNL A   1      34.719  33.982  28.905  1.00  0.00    -0.376 OA
BRANCH  24  25
ATOM     25  C   UNL A   1      34.180  35.211  28.441  1.00  0.00     0.202 C 
BRANCH  25  26
ATOM     26  C   UNL A   1      33.084  35.866  29.298  1.00  0.00     0.261 C 
BRANCH  26  27
ATOM     27  O   UNL A   1      32.579  35.085  30.391  1.00  0.00    -0.460 OA
BRANCH  27  28
ATOM     28  C   UNL A   1      32.724  35.582  31.636  1.00  0.00     0.338 C 
ATOM     29  O   UNL A   1      31.953  36.316  32.232  1.00  0.00    -0.246 OA
BRANCH  28  30
ATOM     30  C   UNL A   1      33.894  34.923  32.254  1.00  0.00     0.060 A 
ATOM     31  C   UNL A   1      35.149  35.534  32.142  1.00  0.00     0.016 A 
ATOM     32  C   UNL A   1      33.752  33.720  32.950  1.00  0.00     0.016 A 
ATOM     33  C   UNL A   1      36.276  34.922  32.692  1.00  0.00     0.010 A 
ATOM     34  C   UNL A   1      34.885  33.095  33.477  1.00  0.00     0.010 A 
ATOM     35  C   UNL A   1      36.157  33.675  33.318  1.00  0.00    -0.014 A 
BRANCH  35  36
ATOM     36  C   UNL A   1      37.376  32.888  33.621  1.00  0.00     0.031 A 
ATOM     37  C   UNL A   1      38.095  33.160  34.914  1.00  0.00     0.074 A 
ATOM     38  C   UNL A   1      37.825  31.936  32.786  1.00  0.00     0.049 A 
ATOM     39  N   UNL A   1      39.209  32.650  35.372  1.00  0.00    -0.248 NA
ATOM     40  C   UNL A   1      37.471  34.146  35.813  1.00  0.00     0.031 C 
ATOM     41  C   UNL A   1      37.190  31.547  31.530  1.00  0.00     0.029 A 
ATOM     42  N   UNL A   1      38.933  31.129  32.870  1.00  0.00    -0.354 N 
ATOM     43  C   UNL A   1      39.424  33.259  36.600  1.00  0.00     0.074 A 
ATOM     44  C   UNL A   1      38.341  34.195  36.809  1.00  0.00     0.031 C 
ATOM     45  C   UNL A   1      37.930  30.584  30.950  1.00  0.00     0.029 A 
ATOM     46  C   UNL A   1      39.106  30.317  31.777  1.00  0.00     0.049 A 
ATOM     47  H   UNL A   1      39.544  31.132  33.642  1.00  0.00     0.167 HD
ATOM     48  C   UNL A   1      40.432  33.052  37.478  1.00  0.00     0.037 A 
ATOM     49  C   UNL A   1      40.115  29.479  31.467  1.00  0.00     0.037 A 
ATOM     50  C   UNL A   1      41.505  32.116  37.270  1.00  0.00     0.049 A 
ATOM     51  C   UNL A   1      41.262  29.311  32.433  1.00  0.00     0.074 A 
ATOM     52  C   UNL A   1      42.563  31.819  38.111  1.00  0.00     0.029 A 
ATOM     53  N   UNL A   1      41.662  31.332  36.137  1.00  0.00    -0.354 N 
ATOM     54  N   UNL A   1      41.455  29.882  33.598  1.00  0.00    -0.248 NA
ATOM     55  C   UNL A   1      42.329  28.378  32.042  1.00  0.00     0.031 C 
ATOM     56  C   UNL A   1      43.395  30.904  37.459  1.00  0.00     0.029 A 
ATOM     57  C   UNL A   1      42.817  30.574  36.244  1.00  0.00     0.049 A 
ATOM     58  H   UNL A   1      41.045  31.318  35.369  1.00  0.00     0.167 HD
ATOM     59  C   UNL A   1      42.645  29.359  34.089  1.00  0.00     0.074 A 
ATOM     60  C   UNL A   1      43.124  28.414  33.102  1.00  0.00     0.031 C 
ATOM     61  C   UNL A   1      43.281  29.634  35.255  1.00  0.00     0.037 A 
BRANCH  48  62
ATOM     62  C   UNL A   1      40.446  33.870  38.736  1.00  0.00     0.064 A 
ATOM     63  C   UNL A   1      41.140  35.085  38.823  1.00  0.00     0.173 A 
ATOM     64  C   UNL A   1      39.703  33.457  39.854  1.00  0.00     0.173 A 
ATOM     65  F   UNL A   1      41.881  35.516  37.791  1.00  0.00    -0.203 F 
ATOM     66  C   UNL A   1      41.099  35.851  39.986  1.00  0.00     0.198 A 
ATOM     67  C   UNL A   1      39.638  34.240  41.002  1.00  0.00     0.198 A 
ATOM     68  F   UNL A   1      39.022  32.302  39.823  1.00  0.00    -0.203 F 
ATOM     69  F   UNL A   1      41.801  36.990  40.060  1.00  0.00    -0.200 F 
ATOM     70  C   UNL A   1      40.340  35.434  41.069  1.00  0.00     0.200 A 
ATOM     71  F   UNL A   1      38.894  33.841  42.042  1.00  0.00    -0.200 F 
ATOM     72  F   UNL A   1      40.287  36.181  42.181  1.00  0.00    -0.200 F 
ENDBRANCH  48  62
BRANCH  49  73
ATOM     73  C   UNL A   1      40.093  28.745  30.174  1.00  0.00     0.064 A 
ATOM     74  C   UNL A   1      39.472  27.494  30.057  1.00  0.00     0.173 A 
ATOM     75  C   UNL A   1      40.696  29.283  29.026  1.00  0.00     0.173 A 
ATOM     76  F   UNL A   1      38.907  26.925  31.131  1.00  0.00    -0.203 F 
ATOM     77  C   UNL A   1      39.465  26.805  28.845  1.00  0.00     0.198 A 
ATOM     78  C   UNL A   1      40.660  28.608  27.809  1.00  0.00     0.198 A 
ATOM     79  F   UNL A   1      41.308  30.475  29.085  1.00  0.00    -0.203 F 
ATOM     80  F   UNL A   1      38.900  25.592  28.771  1.00  0.00    -0.200 F 
ATOM     81  C   UNL A   1      40.050  27.366  27.720  1.00  0.00     0.200 A 
ATOM     82  F   UNL A   1      41.216  29.161  26.722  1.00  0.00    -0.200 F 
ATOM     83  F   UNL A   1      40.031  26.708  26.553  1.00  0.00    -0.200 F 
ENDBRANCH  49  73
BRANCH  61  84
ATOM     84  C   UNL A   1      44.546  28.880  35.556  1.00  0.00     0.064 A 
ATOM     85  C   UNL A   1      44.539  27.668  36.262  1.00  0.00     0.173 A 
ATOM     86  C   UNL A   1      45.781  29.350  35.079  1.00  0.00     0.173 A 
ATOM     87  F   UNL A   1      43.388  27.177  36.747  1.00  0.00    -0.203 F 
ATOM     88  C   UNL A   1      45.719  26.971  36.504  1.00  0.00     0.198 A 
ATOM     89  C   UNL A   1      46.955  28.634  35.292  1.00  0.00     0.198 A 
ATOM     90  F   UNL A   1      45.846  30.497  34.387  1.00  0.00    -0.203 F 
ATOM     91  F   UNL A   1      45.693  25.841  37.224  1.00  0.00    -0.200 F 
ATOM     92  C   UNL A   1      46.925  27.450  36.012  1.00  0.00     0.200 A 
ATOM     93  F   UNL A   1      48.115  29.087  34.796  1.00  0.00    -0.200 F 
ATOM     94  F   UNL A   1      48.059  26.772  36.236  1.00  0.00    -0.200 F 
ENDBRANCH  61  84
ENDBRANCH  35  36
ENDBRANCH  28  30
ENDBRANCH  27  28
ENDBRANCH  26  27
ENDBRANCH  25  26
ENDBRANCH  24  25
ENDBRANCH  23  24
ENDBRANCH  22  23
ENDBRANCH   1  22
TORSDOF 22
ENDMDL
MODEL 3
REMARK VINA RESULT:      -9.7      3.880      9.061
REMARK SMILES C[C@@H](C(=O)OCCOCCOCCOCCOC(=O)c1ccc(-c2c3nc(c(-c4c(F)c(F)c(F)c(F)c4F)c4ccc([nH]4)c(-c4c(F)c(F)c(F)c(F)c4F)c4nc(c(-c5c(F)c(F)c(F)c(F)c5F)c5ccc2[nH]5)C=C4)C=C3)cc1)c1ccn(C(F)F)c(=O)c1
REMARK SMILES IDX 11 1 10 2 9 3 8 4 7 5 6 6 5 7 3 8 4 9 2 10 1 11 83 12 84 13
REMARK SMILES IDX 92 14 85 15 90 16 86 17 91 18 87 19 88 20 89 21 12 22 13 23
REMARK SMILES IDX 14 24 15 25 16 26 17 27 18 28 19 29 20 30 21 31 82 32 22 33
REMARK SMILES IDX 81 34 23 35 24 36 25 37 75 38 26 39 80 40 74 41 76 42 27 43
REMARK SMILES IDX 79 44 73 45 72 46 28 48 60 49 40 50 59 51 41 52 44 53 58 54
REMARK SMILES IDX 77 55 42 56 43 57 57 59 78 60 45 61 29 62 30 63 38 64 31 65
REMARK SMILES IDX 32 66 36 67 39 68 33 69 34 70 37 71 35 72 61 73 62 74 70 75
REMARK SMILES IDX 63 76 64 77 68 78 71 79 65 80 66 81 69 82 67 83 46 84 47 85
REMARK SMILES IDX 55 86 48 87 49 88 53 89 56 90 50 91 51 92 54 93 52 94
REMARK H PARENT 76 47 44 58
REMARK Flexibility Score: inf
ROOT
ATOM      1  O   UNL A   1      32.712  22.881  25.107  1.00  0.00    -0.377 OA
ENDROOT
BRANCH   1   2
ATOM      2  C   UNL A   1      31.536  23.264  25.791  1.00  0.00     0.188 C 
BRANCH   2   3
ATOM      3  C   UNL A   1      31.724  24.412  26.799  1.00  0.00     0.188 C 
BRANCH   3   4
ATOM      4  O   UNL A   1      31.056  25.647  26.598  1.00  0.00    -0.376 OA
BRANCH   4   5
ATOM      5  C   UNL A   1      31.711  26.877  26.865  1.00  0.00     0.202 C 
BRANCH   5   6
ATOM      6  C   UNL A   1      33.158  27.186  26.421  1.00  0.00     0.261 C 
BRANCH   6   7
ATOM      7  O   UNL A   1      33.351  27.714  25.097  1.00  0.00    -0.463 OA
BRANCH   7   8
ATOM      8  C   UNL A   1      33.441  26.808  24.096  1.00  0.00     0.313 C 
ATOM      9  O   UNL A   1      33.886  25.674  24.249  1.00  0.00    -0.252 OA
BRANCH   8  10
ATOM     10  C   UNL A   1      32.908  27.307  22.733  1.00  0.00     0.126 C 
ATOM     11  C   UNL A   1      33.821  28.191  21.870  1.00  0.00     0.025 C 
BRANCH  10  12
ATOM     12  C   UNL A   1      31.474  27.803  22.945  1.00  0.00    -0.027 A 
ATOM     13  C   UNL A   1      30.410  26.953  23.458  1.00  0.00     0.023 A 
ATOM     14  C   UNL A   1      31.147  29.049  22.554  1.00  0.00     0.076 A 
ATOM     15  C   UNL A   1      29.133  27.364  23.437  1.00  0.00     0.095 A 
ATOM     16  C   UNL A   1      29.743  29.537  22.558  1.00  0.00     0.255 A 
ATOM     17  N   UNL A   1      28.794  28.622  22.979  1.00  0.00    -0.258 N 
ATOM     18  O   UNL A   1      29.519  30.681  22.181  1.00  0.00    -0.269 OA
BRANCH  17  19
ATOM     19  C   UNL A   1      27.420  29.045  22.926  1.00  0.00     0.451 C 
ATOM     20  F   UNL A   1      26.616  28.181  23.592  1.00  0.00    -0.185 F 
ATOM     21  F   UNL A   1      27.265  30.273  23.477  1.00  0.00    -0.185 F 
ENDBRANCH  17  19
ENDBRANCH  10  12
ENDBRANCH   8  10
ENDBRANCH   7   8
ENDBRANCH   6   7
ENDBRANCH   5   6
ENDBRANCH   4   5
ENDBRANCH   3   4
ENDBRANCH   2   3
ENDBRANCH   1   2
BRANCH   1  22
ATOM     22  C   UNL A   1      33.464  21.821  25.677  1.00  0.00     0.188 C 
BRANCH  22  23
ATOM     23  C   UNL A   1      34.981  22.016  25.871  1.00  0.00     0.188 C 
BRANCH  23  24
ATOM     24  O   UNL A   1      35.762  20.878  25.524  1.00  0.00    -0.376 OA
BRANCH  24  25
ATOM     25  C   UNL A   1      36.970  21.072  24.805  1.00  0.00     0.202 C 
BRANCH  25  26
ATOM     26  C   UNL A   1      37.771  22.349  25.109  1.00  0.00     0.261 C 
BRANCH  26  27
ATOM     27  O   UNL A   1      38.396  22.417  26.399  1.00  0.00    -0.460 OA
BRANCH  27  28
ATOM     28  C   UNL A   1      39.702  22.752  26.446  1.00  0.00     0.338 C 
ATOM     29  O   UNL A   1      40.640  22.130  25.976  1.00  0.00    -0.246 OA
BRANCH  28  30
ATOM     30  C   UNL A   1      39.800  24.121  26.994  1.00  0.00     0.060 A 
ATOM     31  C   UNL A   1      40.391  25.120  26.211  1.00  0.00     0.016 A 
ATOM     32  C   UNL A   1      39.301  24.420  28.264  1.00  0.00     0.016 A 
ATOM     33  C   UNL A   1      40.523  26.415  26.712  1.00  0.00     0.010 A 
ATOM     34  C   UNL A   1      39.457  25.711  28.776  1.00  0.00     0.010 A 
ATOM     35  C   UNL A   1      40.102  26.705  28.016  1.00  0.00    -0.014 A 
BRANCH  35  36
ATOM     36  C   UNL A   1      40.517  27.976  28.654  1.00  0.00     0.031 A 
ATOM     37  C   UNL A   1      41.958  28.132  29.056  1.00  0.00     0.074 A 
ATOM     38  C   UNL A   1      39.648  28.982  28.852  1.00  0.00     0.049 A 
ATOM     39  N   UNL A   1      42.547  29.119  29.683  1.00  0.00    -0.248 NA
ATOM     40  C   UNL A   1      42.858  27.021  28.705  1.00  0.00     0.031 C 
ATOM     41  C   UNL A   1      38.241  28.970  28.462  1.00  0.00     0.029 A 
ATOM     42  N   UNL A   1      39.826  30.209  29.441  1.00  0.00    -0.354 N 
ATOM     43  C   UNL A   1      43.876  28.742  29.810  1.00  0.00     0.074 A 
ATOM     44  C   UNL A   1      44.007  27.428  29.220  1.00  0.00     0.031 C 
ATOM     45  C   UNL A   1      37.676  30.132  28.840  1.00  0.00     0.029 A 
ATOM     46  C   UNL A   1      38.675  30.950  29.528  1.00  0.00     0.049 A 
ATOM     47  H   UNL A   1      40.698  30.527  29.771  1.00  0.00     0.167 HD
ATOM     48  C   UNL A   1      44.898  29.434  30.364  1.00  0.00     0.037 A 
ATOM     49  C   UNL A   1      38.447  32.139  30.122  1.00  0.00     0.037 A 
ATOM     50  C   UNL A   1      44.765  30.744  30.946  1.00  0.00     0.049 A 
ATOM     51  C   UNL A   1      39.589  32.863  30.790  1.00  0.00     0.074 A 
ATOM     52  C   UNL A   1      45.748  31.535  31.515  1.00  0.00     0.029 A 
ATOM     53  N   UNL A   1      43.576  31.450  31.040  1.00  0.00    -0.354 N 
ATOM     54  N   UNL A   1      40.846  32.507  30.900  1.00  0.00    -0.248 NA
ATOM     55  C   UNL A   1      39.279  34.158  31.415  1.00  0.00     0.031 C 
ATOM     56  C   UNL A   1      45.141  32.692  32.012  1.00  0.00     0.029 A 
ATOM     57  C   UNL A   1      43.795  32.656  31.686  1.00  0.00     0.049 A 
ATOM     58  H   UNL A   1      42.706  31.140  30.700  1.00  0.00     0.167 HD
ATOM     59  C   UNL A   1      41.481  33.541  31.576  1.00  0.00     0.074 A 
ATOM     60  C   UNL A   1      40.473  34.545  31.842  1.00  0.00     0.031 C 
ATOM     61  C   UNL A   1      42.782  33.650  31.941  1.00  0.00     0.037 A 
BRANCH  48  62
ATOM     62  C   UNL A   1      46.249  28.781  30.400  1.00  0.00     0.064 A 
ATOM     63  C   UNL A   1      46.651  27.965  31.467  1.00  0.00     0.173 A 
ATOM     64  C   UNL A   1      47.132  28.930  29.319  1.00  0.00     0.173 A 
ATOM     65  F   UNL A   1      45.852  27.805  32.533  1.00  0.00    -0.203 F 
ATOM     66  C   UNL A   1      47.891  27.330  31.456  1.00  0.00     0.198 A 
ATOM     67  C   UNL A   1      48.357  28.270  29.297  1.00  0.00     0.198 A 
ATOM     68  F   UNL A   1      46.797  29.701  28.274  1.00  0.00    -0.203 F 
ATOM     69  F   UNL A   1      48.270  26.586  32.504  1.00  0.00    -0.200 F 
ATOM     70  C   UNL A   1      48.737  27.475  30.367  1.00  0.00     0.200 A 
ATOM     71  F   UNL A   1      49.167  28.400  28.238  1.00  0.00    -0.200 F 
ATOM     72  F   UNL A   1      49.923  26.849  30.349  1.00  0.00    -0.200 F 
ENDBRANCH  48  62
BRANCH  49  73
ATOM     73  C   UNL A   1      37.074  32.711  30.124  1.00  0.00     0.064 A 
ATOM     74  C   UNL A   1      36.192  32.481  31.190  1.00  0.00     0.173 A 
ATOM     75  C   UNL A   1      36.616  33.499  29.058  1.00  0.00     0.173 A 
ATOM     76  F   UNL A   1      36.573  31.711  32.220  1.00  0.00    -0.203 F 
ATOM     77  C   UNL A   1      34.902  33.009  31.182  1.00  0.00     0.198 A 
ATOM     78  C   UNL A   1      35.337  34.052  29.066  1.00  0.00     0.198 A 
ATOM     79  F   UNL A   1      37.418  33.745  28.011  1.00  0.00    -0.203 F 
ATOM     80  F   UNL A   1      34.066  32.740  32.195  1.00  0.00    -0.200 F 
ATOM     81  C   UNL A   1      34.479  33.802  30.126  1.00  0.00     0.200 A 
ATOM     82  F   UNL A   1      34.939  34.827  28.049  1.00  0.00    -0.200 F 
ATOM     83  F   UNL A   1      33.243  34.319  30.126  1.00  0.00    -0.200 F 
ENDBRANCH  49  73
BRANCH  61  84
ATOM     84  C   UNL A   1      43.211  34.914  32.634  1.00  0.00     0.064 A 
ATOM     85  C   UNL A   1      43.133  35.061  34.026  1.00  0.00     0.173 A 
ATOM     86  C   UNL A   1      43.761  35.974  31.895  1.00  0.00     0.173 A 
ATOM     87  F   UNL A   1      42.607  34.082  34.780  1.00  0.00    -0.203 F 
ATOM     88  C   UNL A   1      43.562  36.229  34.650  1.00  0.00     0.198 A 
ATOM     89  C   UNL A   1      44.223  37.126  32.524  1.00  0.00     0.198 A 
ATOM     90  F   UNL A   1      43.872  35.883  30.561  1.00  0.00    -0.203 F 
ATOM     91  F   UNL A   1      43.432  36.365  35.977  1.00  0.00    -0.200 F 
ATOM     92  C   UNL A   1      44.115  37.257  33.900  1.00  0.00     0.200 A 
ATOM     93  F   UNL A   1      44.776  38.109  31.799  1.00  0.00    -0.200 F 
ATOM     94  F   UNL A   1      44.538  38.377  34.503  1.00  0.00    -0.200 F 
ENDBRANCH  61  84
ENDBRANCH  35  36
ENDBRANCH  28  30
ENDBRANCH  27  28
ENDBRANCH  26  27
ENDBRANCH  25  26
ENDBRANCH  24  25
ENDBRANCH  23  24
ENDBRANCH  22  23
ENDBRANCH   1  22
TORSDOF 22
ENDMDL
