MODEL 1
REMARK VINA RESULT:     -10.5      0.000      0.000
REMARK SMILES O=C(OCCOCCOCCOCCOC(=O)[C@@H]1CCCC[C@H]1C(=O)Nc1ccccc1C(=O)N1CCOCC1)c1ccc(-c2c3nc(c(-c4c(F)c(F)c(F)c(F)c4F)c4ccc([nH]4)c(-c4c(F)c(F)c(F)c(F)c4F)c4nc(c(-c5c(F)c(F)c(F)c(F)c5F)c5ccc2[nH]5)C=C4)C=C3)cc1
REMARK SMILES IDX 10 1 9 2 8 3 7 4 6 5 5 6 4 7 3 8 2 9 1 10 41 11 42 12 103 13
REMARK SMILES IDX 43 14 102 15 44 16 45 17 46 18 96 19 47 20 101 21 95 22
REMARK SMILES IDX 97 23 48 24 100 25 94 26 93 27 49 29 81 30 61 31 80 32 62 33
REMARK SMILES IDX 65 34 79 35 98 36 63 37 64 38 78 40 99 41 66 42 50 43 51 44
REMARK SMILES IDX 59 45 52 46 53 47 57 48 60 49 54 50 55 51 58 52 56 53 82 54
REMARK SMILES IDX 83 55 91 56 84 57 85 58 89 59 92 60 86 61 87 62 90 63 88 64
REMARK SMILES IDX 67 65 68 66 76 67 69 68 70 69 74 70 77 71 71 72 72 73 75 74
REMARK SMILES IDX 73 75 11 76 12 77 13 78 14 79 15 80 16 81 17 82 18 83 19 84
REMARK SMILES IDX 23 85 20 86 22 87 21 88 24 89 25 90 26 91 27 93 28 94 32 95
REMARK SMILES IDX 29 96 31 97 30 98 33 99 34 100 35 101 36 102 40 103 37 104
REMARK SMILES IDX 39 105 38 106
REMARK H PARENT 97 28 65 39 26 92
REMARK Flexibility Score: inf
ROOT
ATOM      1  C   UNL A   1      35.180  31.912  29.565  1.00  0.00     0.188 C 
ENDROOT
BRANCH   1   2
ATOM      2  O   UNL A   1      34.056  32.673  29.924  1.00  0.00    -0.377 OA
BRANCH   2   3
ATOM      3  C   UNL A   1      34.209  34.067  29.692  1.00  0.00     0.188 C 
BRANCH   3   4
ATOM      4  C   UNL A   1      33.842  35.063  30.817  1.00  0.00     0.188 C 
BRANCH   4   5
ATOM      5  O   UNL A   1      34.131  34.652  32.158  1.00  0.00    -0.376 OA
BRANCH   5   6
ATOM      6  C   UNL A   1      35.348  35.080  32.796  1.00  0.00     0.202 C 
BRANCH   6   7
ATOM      7  C   UNL A   1      36.573  34.156  32.740  1.00  0.00     0.261 C 
BRANCH   7   8
ATOM      8  O   UNL A   1      36.789  33.201  33.813  1.00  0.00    -0.460 OA
BRANCH   8   9
ATOM      9  C   UNL A   1      37.537  32.075  33.955  1.00  0.00     0.338 C 
ATOM     10  O   UNL A   1      37.506  31.476  35.027  1.00  0.00    -0.246 OA
BRANCH   9  11
ATOM     11  C   UNL A   1      38.500  31.603  32.920  1.00  0.00     0.060 A 
ATOM     12  C   UNL A   1      39.757  31.161  33.265  1.00  0.00     0.016 A 
ATOM     13  C   UNL A   1      38.148  31.513  31.566  1.00  0.00     0.016 A 
ATOM     14  C   UNL A   1      40.619  30.534  32.411  1.00  0.00     0.010 A 
ATOM     15  C   UNL A   1      39.039  30.936  30.640  1.00  0.00     0.010 A 
ATOM     16  C   UNL A   1      40.274  30.442  31.082  1.00  0.00    -0.014 A 
BRANCH  16  17
ATOM     17  C   UNL A   1      41.427  30.111  30.247  1.00  0.00     0.031 A 
ATOM     18  C   UNL A   1      41.374  28.768  29.582  1.00  0.00     0.074 A 
ATOM     19  C   UNL A   1      42.228  31.100  29.810  1.00  0.00     0.049 A 
ATOM     20  N   UNL A   1      42.198  28.229  28.732  1.00  0.00    -0.248 NA
ATOM     21  C   UNL A   1      40.175  27.945  29.859  1.00  0.00     0.031 C 
ATOM     22  C   UNL A   1      42.096  32.521  30.158  1.00  0.00     0.029 A 
ATOM     23  N   UNL A   1      43.276  31.073  28.935  1.00  0.00    -0.354 N 
ATOM     24  C   UNL A   1      41.631  27.009  28.397  1.00  0.00     0.074 A 
ATOM     25  C   UNL A   1      40.376  26.890  29.091  1.00  0.00     0.031 C 
ATOM     26  C   UNL A   1      43.068  33.217  29.542  1.00  0.00     0.029 A 
ATOM     27  C   UNL A   1      43.910  32.284  28.802  1.00  0.00     0.049 A 
ATOM     28  H   UNL A   1      43.551  30.263  28.447  1.00  0.00     0.167 HD
ATOM     29  C   UNL A   1      42.154  26.053  27.602  1.00  0.00     0.037 A 
ATOM     30  C   UNL A   1      45.077  32.557  28.191  1.00  0.00     0.037 A 
ATOM     31  C   UNL A   1      43.443  26.197  26.997  1.00  0.00     0.049 A 
ATOM     32  C   UNL A   1      45.764  31.398  27.507  1.00  0.00     0.074 A 
ATOM     33  C   UNL A   1      44.204  25.261  26.333  1.00  0.00     0.029 A 
ATOM     34  N   UNL A   1      44.168  27.384  27.013  1.00  0.00    -0.354 N 
ATOM     35  N   UNL A   1      45.326  30.173  27.313  1.00  0.00    -0.248 NA
ATOM     36  C   UNL A   1      47.108  31.643  26.976  1.00  0.00     0.031 C 
ATOM     37  C   UNL A   1      45.419  25.869  25.996  1.00  0.00     0.029 A 
ATOM     38  C   UNL A   1      45.383  27.200  26.389  1.00  0.00     0.049 A 
ATOM     39  H   UNL A   1      43.859  28.229  27.412  1.00  0.00     0.167 HD
ATOM     40  C   UNL A   1      46.326  29.510  26.619  1.00  0.00     0.074 A 
ATOM     41  C   UNL A   1      47.383  30.480  26.403  1.00  0.00     0.031 C 
ATOM     42  C   UNL A   1      46.385  28.220  26.201  1.00  0.00     0.037 A 
BRANCH  29  43
ATOM     43  C   UNL A   1      41.396  24.768  27.512  1.00  0.00     0.064 A 
ATOM     44  C   UNL A   1      41.851  23.590  28.121  1.00  0.00     0.173 A 
ATOM     45  C   UNL A   1      40.248  24.695  26.709  1.00  0.00     0.173 A 
ATOM     46  F   UNL A   1      42.984  23.596  28.840  1.00  0.00    -0.203 F 
ATOM     47  C   UNL A   1      41.190  22.381  27.919  1.00  0.00     0.198 A 
ATOM     48  C   UNL A   1      39.577  23.490  26.529  1.00  0.00     0.198 A 
ATOM     49  F   UNL A   1      39.802  25.785  26.067  1.00  0.00    -0.203 F 
ATOM     50  F   UNL A   1      41.679  21.253  28.454  1.00  0.00    -0.200 F 
ATOM     51  C   UNL A   1      40.050  22.333  27.130  1.00  0.00     0.200 A 
ATOM     52  F   UNL A   1      38.486  23.444  25.751  1.00  0.00    -0.200 F 
ATOM     53  F   UNL A   1      39.422  21.167  26.927  1.00  0.00    -0.200 F 
ENDBRANCH  29  43
BRANCH  30  54
ATOM     54  C   UNL A   1      45.723  33.898  28.291  1.00  0.00     0.064 A 
ATOM     55  C   UNL A   1      46.651  34.196  29.299  1.00  0.00     0.173 A 
ATOM     56  C   UNL A   1      45.345  34.951  27.438  1.00  0.00     0.173 A 
ATOM     57  F   UNL A   1      47.030  33.241  30.161  1.00  0.00    -0.203 F 
ATOM     58  C   UNL A   1      47.138  35.492  29.480  1.00  0.00     0.198 A 
ATOM     59  C   UNL A   1      45.859  36.238  27.597  1.00  0.00     0.198 A 
ATOM     60  F   UNL A   1      44.451  34.741  26.461  1.00  0.00    -0.203 F 
ATOM     61  F   UNL A   1      47.958  35.761  30.505  1.00  0.00    -0.200 F 
ATOM     62  C   UNL A   1      46.742  36.512  28.628  1.00  0.00     0.200 A 
ATOM     63  F   UNL A   1      45.475  37.218  26.767  1.00  0.00    -0.200 F 
ATOM     64  F   UNL A   1      47.191  37.761  28.816  1.00  0.00    -0.200 F 
ENDBRANCH  30  54
BRANCH  42  65
ATOM     65  C   UNL A   1      47.608  27.816  25.439  1.00  0.00     0.064 A 
ATOM     66  C   UNL A   1      48.771  27.385  26.092  1.00  0.00     0.173 A 
ATOM     67  C   UNL A   1      47.586  27.801  24.037  1.00  0.00     0.173 A 
ATOM     68  F   UNL A   1      48.838  27.392  27.432  1.00  0.00    -0.203 F 
ATOM     69  C   UNL A   1      49.884  26.983  25.362  1.00  0.00     0.198 A 
ATOM     70  C   UNL A   1      48.686  27.359  23.313  1.00  0.00     0.198 A 
ATOM     71  F   UNL A   1      46.487  28.190  23.373  1.00  0.00    -0.203 F 
ATOM     72  F   UNL A   1      51.007  26.627  26.002  1.00  0.00    -0.200 F 
ATOM     73  C   UNL A   1      49.837  26.961  23.976  1.00  0.00     0.200 A 
ATOM     74  F   UNL A   1      48.630  27.315  21.975  1.00  0.00    -0.200 F 
ATOM     75  F   UNL A   1      50.906  26.559  23.276  1.00  0.00    -0.200 F 
ENDBRANCH  42  65
ENDBRANCH  16  17
ENDBRANCH   9  11
ENDBRANCH   8   9
ENDBRANCH   7   8
ENDBRANCH   6   7
ENDBRANCH   5   6
ENDBRANCH   4   5
ENDBRANCH   3   4
ENDBRANCH   2   3
ENDBRANCH   1   2
BRANCH   1  76
ATOM     76  C   UNL A   1      35.563  31.742  28.106  1.00  0.00     0.188 C 
BRANCH  76  77
ATOM     77  O   UNL A   1      34.591  31.163  27.274  1.00  0.00    -0.376 OA
BRANCH  77  78
ATOM     78  C   UNL A   1      34.720  29.803  26.887  1.00  0.00     0.202 C 
BRANCH  78  79
ATOM     79  C   UNL A   1      33.921  28.577  27.449  1.00  0.00     0.261 C 
BRANCH  79  80
ATOM     80  O   UNL A   1      33.225  27.711  26.512  1.00  0.00    -0.463 OA
BRANCH  80  81
ATOM     81  C   UNL A   1      33.670  27.539  25.215  1.00  0.00     0.309 C 
ATOM     82  O   UNL A   1      34.088  28.481  24.548  1.00  0.00    -0.252 OA
BRANCH  81  83
ATOM     83  C   UNL A   1      33.717  26.003  24.705  1.00  0.00     0.111 C 
ATOM     84  C   UNL A   1      34.930  25.433  25.486  1.00  0.00     0.016 C 
ATOM     85  C   UNL A   1      33.838  25.637  23.114  1.00  0.00     0.093 C 
ATOM     86  C   UNL A   1      35.160  23.956  25.208  1.00  0.00     0.001 C 
ATOM     87  C   UNL A   1      34.246  24.157  22.926  1.00  0.00     0.014 C 
ATOM     88  C   UNL A   1      35.453  23.755  23.737  1.00  0.00     0.001 C 
BRANCH  85  89
ATOM     89  C   UNL A   1      32.938  25.822  21.777  1.00  0.00     0.228 C 
ATOM     90  O   UNL A   1      33.336  25.253  20.745  1.00  0.00    -0.274 OA
ATOM     91  N   UNL A   1      31.619  26.271  21.701  1.00  0.00    -0.325 N 
ATOM     92  H   UNL A   1      31.066  25.812  21.028  1.00  0.00     0.169 HD
BRANCH  91  93
ATOM     93  C   UNL A   1      30.952  27.272  22.427  1.00  0.00     0.054 A 
ATOM     94  C   UNL A   1      31.289  28.625  22.303  1.00  0.00     0.027 A 
ATOM     95  C   UNL A   1      29.887  26.940  23.221  1.00  0.00     0.063 A 
ATOM     96  C   UNL A   1      30.343  29.610  22.631  1.00  0.00     0.002 A 
ATOM     97  C   UNL A   1      28.852  27.888  23.344  1.00  0.00     0.016 A 
ATOM     98  C   UNL A   1      29.073  29.227  23.041  1.00  0.00     0.001 A 
BRANCH  95  99
ATOM     99  C   UNL A   1      29.783  25.536  23.622  1.00  0.00     0.256 C 
ATOM    100  O   UNL A   1      29.233  24.844  22.779  1.00  0.00    -0.269 OA
ATOM    101  N   UNL A   1      30.445  24.916  24.661  1.00  0.00    -0.334 N 
ATOM    102  C   UNL A   1      30.205  25.269  26.043  1.00  0.00     0.148 C 
ATOM    103  C   UNL A   1      30.791  23.495  24.498  1.00  0.00     0.148 C 
ATOM    104  C   UNL A   1      31.369  24.791  26.916  1.00  0.00     0.181 C 
ATOM    105  C   UNL A   1      31.938  23.072  25.403  1.00  0.00     0.181 C 
ATOM    106  O   UNL A   1      31.614  23.379  26.766  1.00  0.00    -0.378 OA
ENDBRANCH  95  99
ENDBRANCH  91  93
ENDBRANCH  85  89
ENDBRANCH  81  83
ENDBRANCH  80  81
ENDBRANCH  79  80
ENDBRANCH  78  79
ENDBRANCH  77  78
ENDBRANCH  76  77
ENDBRANCH   1  76
TORSDOF 23
ENDMDL
MODEL 2
REMARK VINA RESULT:     -10.2      3.689      5.754
REMARK SMILES O=C(OCCOCCOCCOCCOC(=O)[C@@H]1CCCC[C@H]1C(=O)Nc1ccccc1C(=O)N1CCOCC1)c1ccc(-c2c3nc(c(-c4c(F)c(F)c(F)c(F)c4F)c4ccc([nH]4)c(-c4c(F)c(F)c(F)c(F)c4F)c4nc(c(-c5c(F)c(F)c(F)c(F)c5F)c5ccc2[nH]5)C=C4)C=C3)cc1
REMARK SMILES IDX 10 1 9 2 8 3 7 4 6 5 5 6 4 7 3 8 2 9 1 10 41 11 42 12 103 13
REMARK SMILES IDX 43 14 102 15 44 16 45 17 46 18 96 19 47 20 101 21 95 22
REMARK SMILES IDX 97 23 48 24 100 25 94 26 93 27 49 29 81 30 61 31 80 32 62 33
REMARK SMILES IDX 65 34 79 35 98 36 63 37 64 38 78 40 99 41 66 42 50 43 51 44
REMARK SMILES IDX 59 45 52 46 53 47 57 48 60 49 54 50 55 51 58 52 56 53 82 54
REMARK SMILES IDX 83 55 91 56 84 57 85 58 89 59 92 60 86 61 87 62 90 63 88 64
REMARK SMILES IDX 67 65 68 66 76 67 69 68 70 69 74 70 77 71 71 72 72 73 75 74
REMARK SMILES IDX 73 75 11 76 12 77 13 78 14 79 15 80 16 81 17 82 18 83 19 84
REMARK SMILES IDX 23 85 20 86 22 87 21 88 24 89 25 90 26 91 27 93 28 94 32 95
REMARK SMILES IDX 29 96 31 97 30 98 33 99 34 100 35 101 36 102 40 103 37 104
REMARK SMILES IDX 39 105 38 106
REMARK H PARENT 97 28 65 39 26 92
REMARK Flexibility Score: inf
ROOT
ATOM      1  C   UNL A   1      35.501  32.843  29.343  1.00  0.00     0.188 C 
ENDROOT
BRANCH   1   2
ATOM      2  O   UNL A   1      34.939  33.715  30.289  1.00  0.00    -0.377 OA
BRANCH   2   3
ATOM      3  C   UNL A   1      35.736  33.891  31.453  1.00  0.00     0.188 C 
BRANCH   3   4
ATOM      4  C   UNL A   1      37.239  33.531  31.399  1.00  0.00     0.188 C 
BRANCH   4   5
ATOM      5  O   UNL A   1      38.141  34.589  31.056  1.00  0.00    -0.376 OA
BRANCH   5   6
ATOM      6  C   UNL A   1      38.683  34.671  29.725  1.00  0.00     0.202 C 
BRANCH   6   7
ATOM      7  C   UNL A   1      40.200  34.840  29.556  1.00  0.00     0.261 C 
BRANCH   7   8
ATOM      8  O   UNL A   1      40.703  35.711  28.509  1.00  0.00    -0.460 OA
BRANCH   8   9
ATOM      9  C   UNL A   1      41.941  36.081  28.085  1.00  0.00     0.338 C 
ATOM     10  O   UNL A   1      42.151  37.266  27.838  1.00  0.00    -0.246 OA
BRANCH   9  11
ATOM     11  C   UNL A   1      43.021  35.102  27.776  1.00  0.00     0.060 A 
ATOM     12  C   UNL A   1      43.716  34.467  28.781  1.00  0.00     0.016 A 
ATOM     13  C   UNL A   1      43.326  34.725  26.461  1.00  0.00     0.016 A 
ATOM     14  C   UNL A   1      44.575  33.423  28.589  1.00  0.00     0.010 A 
ATOM     15  C   UNL A   1      44.261  33.699  26.218  1.00  0.00     0.010 A 
ATOM     16  C   UNL A   1      44.874  33.050  27.298  1.00  0.00    -0.014 A 
BRANCH  16  17
ATOM     17  C   UNL A   1      46.068  32.209  27.243  1.00  0.00     0.031 A 
ATOM     18  C   UNL A   1      45.812  30.732  27.193  1.00  0.00     0.074 A 
ATOM     19  C   UNL A   1      47.236  32.751  26.853  1.00  0.00     0.049 A 
ATOM     20  N   UNL A   1      46.652  29.747  27.062  1.00  0.00    -0.248 NA
ATOM     21  C   UNL A   1      44.393  30.311  27.215  1.00  0.00     0.031 C 
ATOM     22  C   UNL A   1      47.454  34.168  26.534  1.00  0.00     0.029 A 
ATOM     23  N   UNL A   1      48.446  32.169  26.603  1.00  0.00    -0.354 N 
ATOM     24  C   UNL A   1      45.870  28.604  27.012  1.00  0.00     0.074 A 
ATOM     25  C   UNL A   1      44.488  29.001  27.081  1.00  0.00     0.031 C 
ATOM     26  C   UNL A   1      48.741  34.348  26.186  1.00  0.00     0.029 A 
ATOM     27  C   UNL A   1      49.437  33.072  26.304  1.00  0.00     0.049 A 
ATOM     28  H   UNL A   1      48.593  31.196  26.635  1.00  0.00     0.167 HD
ATOM     29  C   UNL A   1      46.292  27.325  26.957  1.00  0.00     0.037 A 
ATOM     30  C   UNL A   1      50.762  32.861  26.206  1.00  0.00     0.037 A 
ATOM     31  C   UNL A   1      47.683  26.988  26.966  1.00  0.00     0.049 A 
ATOM     32  C   UNL A   1      51.230  31.436  26.390  1.00  0.00     0.074 A 
ATOM     33  C   UNL A   1      48.281  25.756  27.113  1.00  0.00     0.029 A 
ATOM     34  N   UNL A   1      48.699  27.929  26.837  1.00  0.00    -0.354 N 
ATOM     35  N   UNL A   1      50.516  30.338  26.512  1.00  0.00    -0.248 NA
ATOM     36  C   UNL A   1      52.678  31.214  26.444  1.00  0.00     0.031 C 
ATOM     37  C   UNL A   1      49.665  25.960  27.130  1.00  0.00     0.029 A 
ATOM     38  C   UNL A   1      49.927  27.308  26.924  1.00  0.00     0.049 A 
ATOM     39  H   UNL A   1      48.561  28.894  26.705  1.00  0.00     0.167 HD
ATOM     40  C   UNL A   1      51.423  29.297  26.633  1.00  0.00     0.074 A 
ATOM     41  C   UNL A   1      52.741  29.895  26.541  1.00  0.00     0.031 C 
ATOM     42  C   UNL A   1      51.204  27.970  26.812  1.00  0.00     0.037 A 
BRANCH  29  43
ATOM     43  C   UNL A   1      45.239  26.268  27.049  1.00  0.00     0.064 A 
ATOM     44  C   UNL A   1      44.764  25.794  28.280  1.00  0.00     0.173 A 
ATOM     45  C   UNL A   1      44.779  25.644  25.879  1.00  0.00     0.173 A 
ATOM     46  F   UNL A   1      45.230  26.311  29.428  1.00  0.00    -0.203 F 
ATOM     47  C   UNL A   1      43.874  24.724  28.338  1.00  0.00     0.198 A 
ATOM     48  C   UNL A   1      43.871  24.591  25.940  1.00  0.00     0.198 A 
ATOM     49  F   UNL A   1      45.240  26.030  24.681  1.00  0.00    -0.203 F 
ATOM     50  F   UNL A   1      43.484  24.241  29.526  1.00  0.00    -0.200 F 
ATOM     51  C   UNL A   1      43.423  24.129  27.168  1.00  0.00     0.200 A 
ATOM     52  F   UNL A   1      43.451  24.007  24.810  1.00  0.00    -0.200 F 
ATOM     53  F   UNL A   1      42.575  23.093  27.225  1.00  0.00    -0.200 F 
ENDBRANCH  29  43
BRANCH  30  54
ATOM     54  C   UNL A   1      51.729  33.986  26.051  1.00  0.00     0.064 A 
ATOM     55  C   UNL A   1      52.148  34.752  27.148  1.00  0.00     0.173 A 
ATOM     56  C   UNL A   1      52.176  34.389  24.781  1.00  0.00     0.173 A 
ATOM     57  F   UNL A   1      51.733  34.434  28.384  1.00  0.00    -0.203 F 
ATOM     58  C   UNL A   1      52.933  35.894  26.980  1.00  0.00     0.198 A 
ATOM     59  C   UNL A   1      52.990  35.510  24.617  1.00  0.00     0.198 A 
ATOM     60  F   UNL A   1      51.802  33.711  23.686  1.00  0.00    -0.203 F 
ATOM     61  F   UNL A   1      53.247  36.652  28.040  1.00  0.00    -0.200 F 
ATOM     62  C   UNL A   1      53.354  36.272  25.714  1.00  0.00     0.200 A 
ATOM     63  F   UNL A   1      53.397  35.867  23.390  1.00  0.00    -0.200 F 
ATOM     64  F   UNL A   1      54.087  37.382  25.550  1.00  0.00    -0.200 F 
ENDBRANCH  30  54
BRANCH  42  65
ATOM     65  C   UNL A   1      52.413  27.091  26.875  1.00  0.00     0.064 A 
ATOM     66  C   UNL A   1      52.981  26.539  25.718  1.00  0.00     0.173 A 
ATOM     67  C   UNL A   1      53.044  26.857  28.105  1.00  0.00     0.173 A 
ATOM     68  F   UNL A   1      52.404  26.731  24.523  1.00  0.00    -0.203 F 
ATOM     69  C   UNL A   1      54.124  25.752  25.798  1.00  0.00     0.198 A 
ATOM     70  C   UNL A   1      54.210  26.104  28.174  1.00  0.00     0.198 A 
ATOM     71  F   UNL A   1      52.544  27.380  29.234  1.00  0.00    -0.203 F 
ATOM     72  F   UNL A   1      54.622  25.187  24.690  1.00  0.00    -0.200 F 
ATOM     73  C   UNL A   1      54.743  25.545  27.022  1.00  0.00     0.200 A 
ATOM     74  F   UNL A   1      54.820  25.926  29.354  1.00  0.00    -0.200 F 
ATOM     75  F   UNL A   1      55.853  24.798  27.094  1.00  0.00    -0.200 F 
ENDBRANCH  42  65
ENDBRANCH  16  17
ENDBRANCH   9  11
ENDBRANCH   8   9
ENDBRANCH   7   8
ENDBRANCH   6   7
ENDBRANCH   5   6
ENDBRANCH   4   5
ENDBRANCH   3   4
ENDBRANCH   2   3
ENDBRANCH   1   2
BRANCH   1  76
ATOM     76  C   UNL A   1      34.877  32.690  27.968  1.00  0.00     0.188 C 
BRANCH  76  77
ATOM     77  O   UNL A   1      33.662  31.989  27.913  1.00  0.00    -0.376 OA
BRANCH  77  78
ATOM     78  C   UNL A   1      33.584  30.779  27.173  1.00  0.00     0.202 C 
BRANCH  78  79
ATOM     79  C   UNL A   1      34.158  29.379  27.580  1.00  0.00     0.261 C 
BRANCH  79  80
ATOM     80  O   UNL A   1      33.710  28.204  26.851  1.00  0.00    -0.463 OA
BRANCH  80  81
ATOM     81  C   UNL A   1      32.422  27.719  26.979  1.00  0.00     0.309 C 
ATOM     82  O   UNL A   1      31.726  27.989  27.953  1.00  0.00    -0.252 OA
BRANCH  81  83
ATOM     83  C   UNL A   1      31.871  26.892  25.700  1.00  0.00     0.111 C 
ATOM     84  C   UNL A   1      31.026  27.958  24.956  1.00  0.00     0.016 C 
ATOM     85  C   UNL A   1      31.015  25.509  25.884  1.00  0.00     0.093 C 
ATOM     86  C   UNL A   1      30.425  27.428  23.664  1.00  0.00     0.001 C 
ATOM     87  C   UNL A   1      30.294  25.136  24.567  1.00  0.00     0.014 C 
ATOM     88  C   UNL A   1      29.498  26.272  23.971  1.00  0.00     0.001 C 
BRANCH  85  89
ATOM     89  C   UNL A   1      31.273  24.015  26.462  1.00  0.00     0.228 C 
ATOM     90  O   UNL A   1      30.446  23.575  27.280  1.00  0.00    -0.274 OA
ATOM     91  N   UNL A   1      32.118  23.039  25.933  1.00  0.00    -0.325 N 
ATOM     92  H   UNL A   1      31.768  22.120  25.985  1.00  0.00     0.169 HD
BRANCH  91  93
ATOM     93  C   UNL A   1      33.387  23.153  25.340  1.00  0.00     0.054 A 
ATOM     94  C   UNL A   1      34.223  24.248  25.589  1.00  0.00     0.027 A 
ATOM     95  C   UNL A   1      33.867  22.136  24.560  1.00  0.00     0.063 A 
ATOM     96  C   UNL A   1      35.609  24.121  25.402  1.00  0.00     0.002 A 
ATOM     97  C   UNL A   1      35.257  21.910  24.577  1.00  0.00     0.016 A 
ATOM     98  C   UNL A   1      36.135  22.899  25.006  1.00  0.00     0.001 A 
BRANCH  95  99
ATOM     99  C   UNL A   1      32.876  21.202  24.022  1.00  0.00     0.256 C 
ATOM    100  O   UNL A   1      32.091  21.736  23.256  1.00  0.00    -0.269 OA
ATOM    101  N   UNL A   1      32.915  19.824  24.079  1.00  0.00    -0.334 N 
ATOM    102  C   UNL A   1      32.830  19.105  25.331  1.00  0.00     0.148 C 
ATOM    103  C   UNL A   1      32.313  19.078  22.963  1.00  0.00     0.148 C 
ATOM    104  C   UNL A   1      33.361  17.680  25.155  1.00  0.00     0.181 C 
ATOM    105  C   UNL A   1      32.863  17.664  22.848  1.00  0.00     0.181 C 
ATOM    106  O   UNL A   1      32.684  16.977  24.095  1.00  0.00    -0.378 OA
ENDBRANCH  95  99
ENDBRANCH  91  93
ENDBRANCH  85  89
ENDBRANCH  81  83
ENDBRANCH  80  81
ENDBRANCH  79  80
ENDBRANCH  78  79
ENDBRANCH  77  78
ENDBRANCH  76  77
ENDBRANCH   1  76
TORSDOF 23
ENDMDL
MODEL 3
REMARK VINA RESULT:     -10.1      4.956      9.553
REMARK SMILES O=C(OCCOCCOCCOCCOC(=O)[C@@H]1CCCC[C@H]1C(=O)Nc1ccccc1C(=O)N1CCOCC1)c1ccc(-c2c3nc(c(-c4c(F)c(F)c(F)c(F)c4F)c4ccc([nH]4)c(-c4c(F)c(F)c(F)c(F)c4F)c4nc(c(-c5c(F)c(F)c(F)c(F)c5F)c5ccc2[nH]5)C=C4)C=C3)cc1
REMARK SMILES IDX 10 1 9 2 8 3 7 4 6 5 5 6 4 7 3 8 2 9 1 10 41 11 42 12 103 13
REMARK SMILES IDX 43 14 102 15 44 16 45 17 46 18 96 19 47 20 101 21 95 22
REMARK SMILES IDX 97 23 48 24 100 25 94 26 93 27 49 29 81 30 61 31 80 32 62 33
REMARK SMILES IDX 65 34 79 35 98 36 63 37 64 38 78 40 99 41 66 42 50 43 51 44
REMARK SMILES IDX 59 45 52 46 53 47 57 48 60 49 54 50 55 51 58 52 56 53 82 54
REMARK SMILES IDX 83 55 91 56 84 57 85 58 89 59 92 60 86 61 87 62 90 63 88 64
REMARK SMILES IDX 67 65 68 66 76 67 69 68 70 69 74 70 77 71 71 72 72 73 75 74
REMARK SMILES IDX 73 75 11 76 12 77 13 78 14 79 15 80 16 81 17 82 18 83 19 84
REMARK SMILES IDX 23 85 20 86 22 87 21 88 24 89 25 90 26 91 27 93 28 94 32 95
REMARK SMILES IDX 29 96 31 97 30 98 33 99 34 100 35 101 36 102 40 103 37 104
REMARK SMILES IDX 39 105 38 106
REMARK H PARENT 97 28 65 39 26 92
REMARK Flexibility Score: inf
ROOT
ATOM      1  C   UNL A   1      42.022  20.747  26.661  1.00  0.00     0.188 C 
ENDROOT
BRANCH   1   2
ATOM      2  O   UNL A   1      42.394  22.064  26.976  1.00  0.00    -0.377 OA
BRANCH   2   3
ATOM      3  C   UNL A   1      42.574  22.898  25.838  1.00  0.00     0.188 C 
BRANCH   3   4
ATOM      4  C   UNL A   1      43.865  22.760  24.999  1.00  0.00     0.188 C 
BRANCH   4   5
ATOM      5  O   UNL A   1      45.099  23.041  25.668  1.00  0.00    -0.376 OA
BRANCH   5   6
ATOM      6  C   UNL A   1      45.471  24.403  25.952  1.00  0.00     0.202 C 
BRANCH   6   7
ATOM      7  C   UNL A   1      46.542  25.072  25.078  1.00  0.00     0.261 C 
BRANCH   7   8
ATOM      8  O   UNL A   1      46.221  26.308  24.387  1.00  0.00    -0.460 OA
BRANCH   8   9
ATOM      9  C   UNL A   1      46.411  27.628  24.650  1.00  0.00     0.338 C 
ATOM     10  O   UNL A   1      47.026  28.311  23.835  1.00  0.00    -0.246 OA
BRANCH   9  11
ATOM     11  C   UNL A   1      46.028  28.263  25.943  1.00  0.00     0.060 A 
ATOM     12  C   UNL A   1      44.710  28.350  26.332  1.00  0.00     0.016 A 
ATOM     13  C   UNL A   1      46.988  28.728  26.854  1.00  0.00     0.016 A 
ATOM     14  C   UNL A   1      44.292  28.733  27.574  1.00  0.00     0.010 A 
ATOM     15  C   UNL A   1      46.590  29.199  28.121  1.00  0.00     0.010 A 
ATOM     16  C   UNL A   1      45.233  29.187  28.470  1.00  0.00    -0.014 A 
BRANCH  16  17
ATOM     17  C   UNL A   1      44.615  29.911  29.580  1.00  0.00     0.031 A 
ATOM     18  C   UNL A   1      44.484  29.136  30.857  1.00  0.00     0.074 A 
ATOM     19  C   UNL A   1      44.571  31.255  29.546  1.00  0.00     0.049 A 
ATOM     20  N   UNL A   1      44.054  29.522  32.023  1.00  0.00    -0.248 NA
ATOM     21  C   UNL A   1      44.982  27.742  30.834  1.00  0.00     0.031 C 
ATOM     22  C   UNL A   1      45.034  32.095  28.433  1.00  0.00     0.029 A 
ATOM     23  N   UNL A   1      44.169  32.155  30.490  1.00  0.00    -0.354 N 
ATOM     24  C   UNL A   1      44.209  28.422  32.852  1.00  0.00     0.074 A 
ATOM     25  C   UNL A   1      44.808  27.362  32.086  1.00  0.00     0.031 C 
ATOM     26  C   UNL A   1      44.833  33.388  28.745  1.00  0.00     0.029 A 
ATOM     27  C   UNL A   1      44.189  33.456  30.051  1.00  0.00     0.049 A 
ATOM     28  H   UNL A   1      43.891  31.896  31.399  1.00  0.00     0.167 HD
ATOM     29  C   UNL A   1      43.833  28.310  34.142  1.00  0.00     0.037 A 
ATOM     30  C   UNL A   1      43.675  34.549  30.643  1.00  0.00     0.037 A 
ATOM     31  C   UNL A   1      43.172  29.377  34.831  1.00  0.00     0.049 A 
ATOM     32  C   UNL A   1      43.039  34.342  31.999  1.00  0.00     0.074 A 
ATOM     33  C   UNL A   1      42.552  29.368  36.061  1.00  0.00     0.029 A 
ATOM     34  N   UNL A   1      43.038  30.659  34.308  1.00  0.00    -0.354 N 
ATOM     35  N   UNL A   1      43.022  33.262  32.749  1.00  0.00    -0.248 NA
ATOM     36  C   UNL A   1      42.337  35.487  32.585  1.00  0.00     0.031 C 
ATOM     37  C   UNL A   1      41.991  30.635  36.257  1.00  0.00     0.029 A 
ATOM     38  C   UNL A   1      42.322  31.449  35.182  1.00  0.00     0.049 A 
ATOM     39  H   UNL A   1      43.399  30.956  33.443  1.00  0.00     0.167 HD
ATOM     40  C   UNL A   1      42.331  33.603  33.901  1.00  0.00     0.074 A 
ATOM     41  C   UNL A   1      41.970  35.000  33.761  1.00  0.00     0.031 C 
ATOM     42  C   UNL A   1      42.009  32.842  34.979  1.00  0.00     0.037 A 
BRANCH  29  43
ATOM     43  C   UNL A   1      43.993  26.964  34.772  1.00  0.00     0.064 A 
ATOM     44  C   UNL A   1      42.933  26.050  34.857  1.00  0.00     0.173 A 
ATOM     45  C   UNL A   1      45.204  26.630  35.397  1.00  0.00     0.173 A 
ATOM     46  F   UNL A   1      41.734  26.356  34.336  1.00  0.00    -0.203 F 
ATOM     47  C   UNL A   1      43.076  24.854  35.556  1.00  0.00     0.198 A 
ATOM     48  C   UNL A   1      45.351  25.424  36.074  1.00  0.00     0.198 A 
ATOM     49  F   UNL A   1      46.231  27.492  35.384  1.00  0.00    -0.203 F 
ATOM     50  F   UNL A   1      42.031  24.024  35.684  1.00  0.00    -0.200 F 
ATOM     51  C   UNL A   1      44.286  24.539  36.158  1.00  0.00     0.200 A 
ATOM     52  F   UNL A   1      46.515  25.130  36.669  1.00  0.00    -0.200 F 
ATOM     53  F   UNL A   1      44.419  23.393  36.840  1.00  0.00    -0.200 F 
ENDBRANCH  29  43
BRANCH  30  54
ATOM     54  C   UNL A   1      43.620  35.868  29.949  1.00  0.00     0.064 A 
ATOM     55  C   UNL A   1      44.482  36.919  30.295  1.00  0.00     0.173 A 
ATOM     56  C   UNL A   1      42.627  36.144  28.992  1.00  0.00     0.173 A 
ATOM     57  F   UNL A   1      45.433  36.727  31.221  1.00  0.00    -0.203 F 
ATOM     58  C   UNL A   1      44.328  38.195  29.750  1.00  0.00     0.198 A 
ATOM     59  C   UNL A   1      42.496  37.410  28.422  1.00  0.00     0.198 A 
ATOM     60  F   UNL A   1      41.759  35.189  28.626  1.00  0.00    -0.203 F 
ATOM     61  F   UNL A   1      45.115  39.198  30.163  1.00  0.00    -0.200 F 
ATOM     62  C   UNL A   1      43.335  38.440  28.813  1.00  0.00     0.200 A 
ATOM     63  F   UNL A   1      41.536  37.637  27.513  1.00  0.00    -0.200 F 
ATOM     64  F   UNL A   1      43.172  39.670  28.308  1.00  0.00    -0.200 F 
ENDBRANCH  30  54
BRANCH  42  65
ATOM     65  C   UNL A   1      41.273  33.525  36.088  1.00  0.00     0.064 A 
ATOM     66  C   UNL A   1      39.873  33.530  36.147  1.00  0.00     0.173 A 
ATOM     67  C   UNL A   1      41.986  34.124  37.136  1.00  0.00     0.173 A 
ATOM     68  F   UNL A   1      39.152  32.977  35.159  1.00  0.00    -0.203 F 
ATOM     69  C   UNL A   1      39.211  34.143  37.204  1.00  0.00     0.198 A 
ATOM     70  C   UNL A   1      41.321  34.698  38.212  1.00  0.00     0.198 A 
ATOM     71  F   UNL A   1      43.328  34.126  37.128  1.00  0.00    -0.203 F 
ATOM     72  F   UNL A   1      37.872  34.188  37.216  1.00  0.00    -0.200 F 
ATOM     73  C   UNL A   1      39.935  34.717  38.239  1.00  0.00     0.200 A 
ATOM     74  F   UNL A   1      42.022  35.230  39.223  1.00  0.00    -0.200 F 
ATOM     75  F   UNL A   1      39.294  35.294  39.265  1.00  0.00    -0.200 F 
ENDBRANCH  42  65
ENDBRANCH  16  17
ENDBRANCH   9  11
ENDBRANCH   8   9
ENDBRANCH   7   8
ENDBRANCH   6   7
ENDBRANCH   5   6
ENDBRANCH   4   5
ENDBRANCH   3   4
ENDBRANCH   2   3
ENDBRANCH   1   2
BRANCH   1  76
ATOM     76  C   UNL A   1      40.599  20.427  26.239  1.00  0.00     0.188 C 
BRANCH  76  77
ATOM     77  O   UNL A   1      39.596  21.259  26.759  1.00  0.00    -0.376 OA
BRANCH  77  78
ATOM     78  C   UNL A   1      38.770  22.000  25.873  1.00  0.00     0.202 C 
BRANCH  78  79
ATOM     79  C   UNL A   1      37.433  21.528  25.203  1.00  0.00     0.261 C 
BRANCH  79  80
ATOM     80  O   UNL A   1      36.683  22.478  24.400  1.00  0.00    -0.463 OA
BRANCH  80  81
ATOM     81  C   UNL A   1      35.821  23.393  24.975  1.00  0.00     0.309 C 
ATOM     82  O   UNL A   1      36.233  24.312  25.677  1.00  0.00    -0.252 OA
BRANCH  81  83
ATOM     83  C   UNL A   1      34.268  23.234  24.546  1.00  0.00     0.111 C 
ATOM     84  C   UNL A   1      34.092  21.693  24.509  1.00  0.00     0.016 C 
ATOM     85  C   UNL A   1      33.690  23.909  23.172  1.00  0.00     0.093 C 
ATOM     86  C   UNL A   1      32.670  21.276  24.167  1.00  0.00     0.001 C 
ATOM     87  C   UNL A   1      32.316  23.301  22.803  1.00  0.00     0.014 C 
ATOM     88  C   UNL A   1      32.306  21.792  22.792  1.00  0.00     0.001 C 
BRANCH  85  89
ATOM     89  C   UNL A   1      33.472  25.403  22.578  1.00  0.00     0.228 C 
ATOM     90  O   UNL A   1      33.742  25.579  21.377  1.00  0.00    -0.274 OA
ATOM     91  N   UNL A   1      32.729  26.438  23.147  1.00  0.00    -0.325 N 
ATOM     92  H   UNL A   1      32.227  26.987  22.502  1.00  0.00     0.169 HD
BRANCH  91  93
ATOM     93  C   UNL A   1      32.582  26.826  24.490  1.00  0.00     0.054 A 
ATOM     94  C   UNL A   1      33.617  26.674  25.421  1.00  0.00     0.027 A 
ATOM     95  C   UNL A   1      31.431  27.446  24.897  1.00  0.00     0.063 A 
ATOM     96  C   UNL A   1      33.638  27.477  26.573  1.00  0.00     0.002 A 
ATOM     97  C   UNL A   1      31.541  28.409  25.918  1.00  0.00     0.016 A 
ATOM     98  C   UNL A   1      32.650  28.435  26.756  1.00  0.00     0.001 A 
BRANCH  95  99
ATOM     99  C   UNL A   1      30.256  27.268  24.040  1.00  0.00     0.256 C 
ATOM    100  O   UNL A   1      29.741  26.169  24.168  1.00  0.00    -0.269 OA
ATOM    101  N   UNL A   1      29.566  28.251  23.361  1.00  0.00    -0.334 N 
ATOM    102  C   UNL A   1      30.168  29.005  22.284  1.00  0.00     0.148 C 
ATOM    103  C   UNL A   1      28.119  28.062  23.173  1.00  0.00     0.148 C 
ATOM    104  C   UNL A   1      29.380  30.297  22.044  1.00  0.00     0.181 C 
ATOM    105  C   UNL A   1      27.392  29.374  22.920  1.00  0.00     0.181 C 
ATOM    106  O   UNL A   1      27.984  30.042  21.797  1.00  0.00    -0.378 OA
ENDBRANCH  95  99
ENDBRANCH  91  93
ENDBRANCH  85  89
ENDBRANCH  81  83
ENDBRANCH  80  81
ENDBRANCH  79  80
ENDBRANCH  78  79
ENDBRANCH  77  78
ENDBRANCH  76  77
ENDBRANCH   1  76
TORSDOF 23
ENDMDL
