MODEL 1
REMARK VINA RESULT:     -11.1      0.000      0.000
REMARK SMILES Cc1n[nH]c(C(=O)N2CCC(CCC(=O)OCCOCCOCCOCCOC(=O)c3ccc(-c4c5nc(c(-c6c(F)c(F)c(F)c(F)c6F)c6ccc([nH]6)c(-c6c(F)c(F)c(F)c(F)c6F)c6nc(c(-c7c(F)c(F)c(F)c(F)c7F)c7ccc4[nH]7)C=C6)C=C5)cc3)CC2)n1
REMARK SMILES IDX 21 1 20 2 19 3 18 4 17 5 16 6 14 7 15 8 13 9 12 10 11 11
REMARK SMILES IDX 6 12 7 13 8 14 9 15 95 16 10 17 94 18 5 19 1 20 2 21 3 22
REMARK SMILES IDX 96 23 4 24 22 26 23 27 24 28 25 29 26 30 27 31 28 32 29 33
REMARK SMILES IDX 30 34 31 35 32 36 93 37 33 38 92 39 34 40 35 41 36 42 86 43
REMARK SMILES IDX 37 44 91 45 85 46 87 47 38 48 90 49 84 50 83 51 39 53 71 54
REMARK SMILES IDX 51 55 70 56 52 57 55 58 69 59 88 60 53 61 54 62 68 64 89 65
REMARK SMILES IDX 56 66 40 67 41 68 49 69 42 70 43 71 47 72 50 73 44 74 45 75
REMARK SMILES IDX 48 76 46 77 72 78 73 79 81 80 74 81 75 82 79 83 82 84 76 85
REMARK SMILES IDX 77 86 80 87 78 88 57 89 58 90 66 91 59 92 60 93 64 94 67 95
REMARK SMILES IDX 61 96 62 97 65 98 63 99
REMARK H PARENT 4 25 87 52 55 63
REMARK Flexibility Score: inf
ROOT
ATOM      1  C   UNL A   1      35.722  21.362  25.647  1.00  0.00     0.188 C 
ENDROOT
BRANCH   1   2
ATOM      2  C   UNL A   1      35.156  22.598  24.917  1.00  0.00     0.188 C 
BRANCH   2   3
ATOM      3  O   UNL A   1      33.753  22.731  24.717  1.00  0.00    -0.376 OA
BRANCH   3   4
ATOM      4  C   UNL A   1      32.875  22.613  25.828  1.00  0.00     0.202 C 
BRANCH   4   5
ATOM      5  C   UNL A   1      31.634  23.514  25.887  1.00  0.00     0.261 C 
BRANCH   5   6
ATOM      6  O   UNL A   1      31.636  24.477  26.961  1.00  0.00    -0.463 OA
BRANCH   6   7
ATOM      7  C   UNL A   1      31.706  25.778  26.599  1.00  0.00     0.305 C 
ATOM      8  O   UNL A   1      30.742  26.538  26.570  1.00  0.00    -0.252 OA
BRANCH   7   9
ATOM      9  C   UNL A   1      33.099  26.282  26.260  1.00  0.00     0.123 C 
BRANCH   9  10
ATOM     10  C   UNL A   1      33.733  26.175  24.867  1.00  0.00     0.015 C 
BRANCH  10  11
ATOM     11  C   UNL A   1      33.040  26.896  23.701  1.00  0.00    -0.007 C 
ATOM     12  C   UNL A   1      29.435  28.365  22.943  1.00  0.00     0.291 C 
ATOM     13  O   UNL A   1      28.855  27.462  23.544  1.00  0.00    -0.265 OA
ATOM     14  N   UNL A   1      30.748  28.186  22.490  1.00  0.00    -0.336 N 
ATOM     15  C   UNL A   1      31.137  26.848  22.067  1.00  0.00     0.120 C 
ATOM     16  C   UNL A   1      31.834  29.026  22.988  1.00  0.00     0.120 C 
ATOM     17  C   UNL A   1      31.840  26.094  23.185  1.00  0.00     0.025 C 
ATOM     18  C   UNL A   1      32.592  28.317  24.119  1.00  0.00     0.025 C 
BRANCH  12  19
ATOM     19  C   UNL A   1      28.794  29.595  22.527  1.00  0.00     0.214 A 
ATOM     20  C   UNL A   1      27.929  32.114  20.205  1.00  0.00     0.092 C 
ATOM     21  C   UNL A   1      28.160  31.265  21.390  1.00  0.00     0.148 A 
ATOM     22  N   UNL A   1      28.039  31.707  22.649  1.00  0.00    -0.159 NA
ATOM     23  N   UNL A   1      28.583  29.967  21.278  1.00  0.00    -0.207 NA
ATOM     24  N   UNL A   1      28.466  30.639  23.343  1.00  0.00    -0.255 N 
ATOM     25  H   UNL A   1      28.536  30.613  24.324  1.00  0.00     0.192 HD
ENDBRANCH  12  19
ENDBRANCH  10  11
ENDBRANCH   9  10
ENDBRANCH   7   9
ENDBRANCH   6   7
ENDBRANCH   5   6
ENDBRANCH   4   5
ENDBRANCH   3   4
ENDBRANCH   2   3
ENDBRANCH   1   2
BRANCH   1  26
ATOM     26  O   UNL A   1      37.051  21.003  25.313  1.00  0.00    -0.377 OA
BRANCH  26  27
ATOM     27  C   UNL A   1      38.063  21.884  25.783  1.00  0.00     0.188 C 
BRANCH  27  28
ATOM     28  C   UNL A   1      39.509  21.351  25.860  1.00  0.00     0.188 C 
BRANCH  28  29
ATOM     29  O   UNL A   1      40.081  21.380  27.169  1.00  0.00    -0.376 OA
BRANCH  29  30
ATOM     30  C   UNL A   1      41.394  20.858  27.329  1.00  0.00     0.202 C 
BRANCH  30  31
ATOM     31  C   UNL A   1      42.387  21.399  26.300  1.00  0.00     0.261 C 
BRANCH  31  32
ATOM     32  O   UNL A   1      42.990  22.641  26.658  1.00  0.00    -0.460 OA
BRANCH  32  33
ATOM     33  C   UNL A   1      42.741  23.673  25.827  1.00  0.00     0.338 C 
ATOM     34  O   UNL A   1      43.271  23.901  24.755  1.00  0.00    -0.246 OA
BRANCH  33  35
ATOM     35  C   UNL A   1      41.775  24.583  26.455  1.00  0.00     0.060 A 
ATOM     36  C   UNL A   1      41.321  25.630  25.650  1.00  0.00     0.016 A 
ATOM     37  C   UNL A   1      41.572  24.568  27.843  1.00  0.00     0.016 A 
ATOM     38  C   UNL A   1      40.917  26.788  26.268  1.00  0.00     0.010 A 
ATOM     39  C   UNL A   1      41.166  25.731  28.462  1.00  0.00     0.010 A 
ATOM     40  C   UNL A   1      40.962  26.854  27.665  1.00  0.00    -0.014 A 
BRANCH  40  41
ATOM     41  C   UNL A   1      40.960  28.182  28.237  1.00  0.00     0.031 A 
ATOM     42  C   UNL A   1      42.122  29.029  27.932  1.00  0.00     0.074 A 
ATOM     43  C   UNL A   1      39.953  28.606  29.022  1.00  0.00     0.049 A 
ATOM     44  N   UNL A   1      43.008  29.480  28.757  1.00  0.00    -0.248 NA
ATOM     45  C   UNL A   1      42.358  29.365  26.525  1.00  0.00     0.031 C 
ATOM     46  C   UNL A   1      38.625  28.012  29.199  1.00  0.00     0.029 A 
ATOM     47  N   UNL A   1      39.896  29.740  29.770  1.00  0.00    -0.354 N 
ATOM     48  C   UNL A   1      43.845  30.283  27.998  1.00  0.00     0.074 A 
ATOM     49  C   UNL A   1      43.466  30.100  26.618  1.00  0.00     0.031 C 
ATOM     50  C   UNL A   1      37.830  28.902  29.833  1.00  0.00     0.029 A 
ATOM     51  C   UNL A   1      38.625  30.062  30.207  1.00  0.00     0.049 A 
ATOM     52  H   UNL A   1      40.689  30.285  29.980  1.00  0.00     0.167 HD
ATOM     53  C   UNL A   1      44.679  31.192  28.565  1.00  0.00     0.037 A 
ATOM     54  C   UNL A   1      38.248  31.240  30.755  1.00  0.00     0.037 A 
ATOM     55  C   UNL A   1      44.898  30.955  29.963  1.00  0.00     0.049 A 
ATOM     56  C   UNL A   1      39.465  31.924  31.259  1.00  0.00     0.074 A 
ATOM     57  C   UNL A   1      45.437  29.914  30.694  1.00  0.00     0.029 A 
ATOM     58  N   UNL A   1      44.251  31.751  30.875  1.00  0.00    -0.354 N 
ATOM     59  N   UNL A   1      40.149  31.546  32.304  1.00  0.00    -0.248 NA
ATOM     60  C   UNL A   1      40.159  32.838  30.363  1.00  0.00     0.031 C 
ATOM     61  C   UNL A   1      44.708  29.894  31.919  1.00  0.00     0.029 A 
ATOM     62  C   UNL A   1      43.771  30.924  31.859  1.00  0.00     0.049 A 
ATOM     63  H   UNL A   1      44.151  32.730  30.831  1.00  0.00     0.167 HD
ATOM     64  C   UNL A   1      41.468  31.837  31.989  1.00  0.00     0.074 A 
ATOM     65  C   UNL A   1      41.399  32.733  30.843  1.00  0.00     0.031 C 
ATOM     66  C   UNL A   1      42.495  31.105  32.510  1.00  0.00     0.037 A 
BRANCH  53  67
ATOM     67  C   UNL A   1      45.072  32.465  27.884  1.00  0.00     0.064 A 
ATOM     68  C   UNL A   1      46.393  32.658  27.452  1.00  0.00     0.173 A 
ATOM     69  C   UNL A   1      44.237  33.603  27.870  1.00  0.00     0.173 A 
ATOM     70  F   UNL A   1      47.274  31.648  27.482  1.00  0.00    -0.203 F 
ATOM     71  C   UNL A   1      46.851  33.915  27.047  1.00  0.00     0.198 A 
ATOM     72  C   UNL A   1      44.680  34.840  27.414  1.00  0.00     0.198 A 
ATOM     73  F   UNL A   1      43.002  33.570  28.391  1.00  0.00    -0.203 F 
ATOM     74  F   UNL A   1      48.143  34.081  26.732  1.00  0.00    -0.200 F 
ATOM     75  C   UNL A   1      45.993  35.001  27.023  1.00  0.00     0.200 A 
ATOM     76  F   UNL A   1      43.842  35.887  27.422  1.00  0.00    -0.200 F 
ATOM     77  F   UNL A   1      46.442  36.213  26.670  1.00  0.00    -0.200 F 
ENDBRANCH  53  67
BRANCH  54  78
ATOM     78  C   UNL A   1      36.941  31.919  30.624  1.00  0.00     0.064 A 
ATOM     79  C   UNL A   1      36.041  31.968  31.699  1.00  0.00     0.173 A 
ATOM     80  C   UNL A   1      36.649  32.750  29.523  1.00  0.00     0.173 A 
ATOM     81  F   UNL A   1      36.272  31.248  32.806  1.00  0.00    -0.203 F 
ATOM     82  C   UNL A   1      34.923  32.809  31.679  1.00  0.00     0.198 A 
ATOM     83  C   UNL A   1      35.526  33.574  29.496  1.00  0.00     0.198 A 
ATOM     84  F   UNL A   1      37.497  32.848  28.488  1.00  0.00    -0.203 F 
ATOM     85  F   UNL A   1      34.119  32.875  32.748  1.00  0.00    -0.200 F 
ATOM     86  C   UNL A   1      34.669  33.614  30.580  1.00  0.00     0.200 A 
ATOM     87  F   UNL A   1      35.313  34.372  28.440  1.00  0.00    -0.200 F 
ATOM     88  F   UNL A   1      33.627  34.455  30.580  1.00  0.00    -0.200 F 
ENDBRANCH  54  78
BRANCH  66  89
ATOM     89  C   UNL A   1      42.186  30.202  33.668  1.00  0.00     0.064 A 
ATOM     90  C   UNL A   1      41.719  28.885  33.519  1.00  0.00     0.173 A 
ATOM     91  C   UNL A   1      42.496  30.638  34.963  1.00  0.00     0.173 A 
ATOM     92  F   UNL A   1      41.507  28.363  32.303  1.00  0.00    -0.203 F 
ATOM     93  C   UNL A   1      41.515  28.065  34.627  1.00  0.00     0.198 A 
ATOM     94  C   UNL A   1      42.326  29.803  36.065  1.00  0.00     0.198 A 
ATOM     95  F   UNL A   1      43.007  31.865  35.157  1.00  0.00    -0.203 F 
ATOM     96  F   UNL A   1      41.051  26.817  34.463  1.00  0.00    -0.200 F 
ATOM     97  C   UNL A   1      41.824  28.523  35.898  1.00  0.00     0.200 A 
ATOM     98  F   UNL A   1      42.674  30.231  37.286  1.00  0.00    -0.200 F 
ATOM     99  F   UNL A   1      41.663  27.720  36.960  1.00  0.00    -0.200 F 
ENDBRANCH  66  89
ENDBRANCH  40  41
ENDBRANCH  33  35
ENDBRANCH  32  33
ENDBRANCH  31  32
ENDBRANCH  30  31
ENDBRANCH  29  30
ENDBRANCH  28  29
ENDBRANCH  27  28
ENDBRANCH  26  27
ENDBRANCH   1  26
TORSDOF 23
ENDMDL
MODEL 2
REMARK VINA RESULT:     -10.3      4.780      9.928
REMARK SMILES Cc1n[nH]c(C(=O)N2CCC(CCC(=O)OCCOCCOCCOCCOC(=O)c3ccc(-c4c5nc(c(-c6c(F)c(F)c(F)c(F)c6F)c6ccc([nH]6)c(-c6c(F)c(F)c(F)c(F)c6F)c6nc(c(-c7c(F)c(F)c(F)c(F)c7F)c7ccc4[nH]7)C=C6)C=C5)cc3)CC2)n1
REMARK SMILES IDX 21 1 20 2 19 3 18 4 17 5 16 6 14 7 15 8 13 9 12 10 11 11
REMARK SMILES IDX 6 12 7 13 8 14 9 15 95 16 10 17 94 18 5 19 1 20 2 21 3 22
REMARK SMILES IDX 96 23 4 24 22 26 23 27 24 28 25 29 26 30 27 31 28 32 29 33
REMARK SMILES IDX 30 34 31 35 32 36 93 37 33 38 92 39 34 40 35 41 36 42 86 43
REMARK SMILES IDX 37 44 91 45 85 46 87 47 38 48 90 49 84 50 83 51 39 53 71 54
REMARK SMILES IDX 51 55 70 56 52 57 55 58 69 59 88 60 53 61 54 62 68 64 89 65
REMARK SMILES IDX 56 66 40 67 41 68 49 69 42 70 43 71 47 72 50 73 44 74 45 75
REMARK SMILES IDX 48 76 46 77 72 78 73 79 81 80 74 81 75 82 79 83 82 84 76 85
REMARK SMILES IDX 77 86 80 87 78 88 57 89 58 90 66 91 59 92 60 93 64 94 67 95
REMARK SMILES IDX 61 96 62 97 65 98 63 99
REMARK H PARENT 4 25 87 52 55 63
REMARK Flexibility Score: inf
ROOT
ATOM      1  C   UNL A   1      34.061  31.334  27.662  1.00  0.00     0.188 C 
ENDROOT
BRANCH   1   2
ATOM      2  C   UNL A   1      34.526  29.984  27.079  1.00  0.00     0.188 C 
BRANCH   2   3
ATOM      3  O   UNL A   1      33.756  29.337  26.071  1.00  0.00    -0.376 OA
BRANCH   3   4
ATOM      4  C   UNL A   1      32.524  29.912  25.657  1.00  0.00     0.202 C 
BRANCH   4   5
ATOM      5  C   UNL A   1      31.366  28.980  25.275  1.00  0.00     0.261 C 
BRANCH   5   6
ATOM      6  O   UNL A   1      30.720  29.299  24.026  1.00  0.00    -0.463 OA
BRANCH   6   7
ATOM      7  C   UNL A   1      30.815  28.371  23.047  1.00  0.00     0.305 C 
ATOM      8  O   UNL A   1      30.211  28.430  21.979  1.00  0.00    -0.252 OA
BRANCH   7   9
ATOM      9  C   UNL A   1      31.776  27.228  23.329  1.00  0.00     0.123 C 
BRANCH   9  10
ATOM     10  C   UNL A   1      32.862  26.761  22.350  1.00  0.00     0.015 C 
BRANCH  10  11
ATOM     11  C   UNL A   1      33.670  25.506  22.714  1.00  0.00    -0.007 C 
ATOM     12  C   UNL A   1      33.302  22.457  25.222  1.00  0.00     0.291 C 
ATOM     13  O   UNL A   1      32.796  23.144  26.108  1.00  0.00    -0.265 OA
ATOM     14  N   UNL A   1      34.055  23.054  24.204  1.00  0.00    -0.336 N 
ATOM     15  C   UNL A   1      34.827  24.240  24.545  1.00  0.00     0.120 C 
ATOM     16  C   UNL A   1      33.637  22.959  22.808  1.00  0.00     0.120 C 
ATOM     17  C   UNL A   1      34.073  25.514  24.193  1.00  0.00     0.025 C 
ATOM     18  C   UNL A   1      32.873  24.222  22.385  1.00  0.00     0.025 C 
BRANCH  12  19
ATOM     19  C   UNL A   1      33.299  21.008  25.228  1.00  0.00     0.214 A 
ATOM     20  C   UNL A   1      34.407  17.812  24.208  1.00  0.00     0.092 C 
ATOM     21  C   UNL A   1      33.711  18.980  24.782  1.00  0.00     0.148 A 
ATOM     22  N   UNL A   1      32.484  18.918  25.318  1.00  0.00    -0.159 NA
ATOM     23  N   UNL A   1      34.255  20.236  24.745  1.00  0.00    -0.207 NA
ATOM     24  N   UNL A   1      32.243  20.214  25.570  1.00  0.00    -0.255 N 
ATOM     25  H   UNL A   1      31.402  20.553  25.954  1.00  0.00     0.192 HD
ENDBRANCH  12  19
ENDBRANCH  10  11
ENDBRANCH   9  10
ENDBRANCH   7   9
ENDBRANCH   6   7
ENDBRANCH   5   6
ENDBRANCH   4   5
ENDBRANCH   3   4
ENDBRANCH   2   3
ENDBRANCH   1   2
BRANCH   1  26
ATOM     26  O   UNL A   1      35.090  32.205  28.097  1.00  0.00    -0.377 OA
BRANCH  26  27
ATOM     27  C   UNL A   1      35.292  32.266  29.503  1.00  0.00     0.188 C 
BRANCH  27  28
ATOM     28  C   UNL A   1      35.957  31.057  30.193  1.00  0.00     0.188 C 
BRANCH  28  29
ATOM     29  O   UNL A   1      36.071  31.173  31.612  1.00  0.00    -0.376 OA
BRANCH  29  30
ATOM     30  C   UNL A   1      36.136  32.480  32.167  1.00  0.00     0.202 C 
BRANCH  30  31
ATOM     31  C   UNL A   1      37.555  32.900  32.554  1.00  0.00     0.261 C 
BRANCH  31  32
ATOM     32  O   UNL A   1      38.585  32.099  31.980  1.00  0.00    -0.460 OA
BRANCH  32  33
ATOM     33  C   UNL A   1      39.463  32.752  31.192  1.00  0.00     0.338 C 
ATOM     34  O   UNL A   1      39.656  33.953  31.139  1.00  0.00    -0.246 OA
BRANCH  33  35
ATOM     35  C   UNL A   1      40.119  31.793  30.294  1.00  0.00     0.060 A 
ATOM     36  C   UNL A   1      39.345  30.694  29.916  1.00  0.00     0.016 A 
ATOM     37  C   UNL A   1      41.507  31.830  30.093  1.00  0.00     0.016 A 
ATOM     38  C   UNL A   1      39.994  29.527  29.597  1.00  0.00     0.010 A 
ATOM     39  C   UNL A   1      42.158  30.658  29.773  1.00  0.00     0.010 A 
ATOM     40  C   UNL A   1      41.392  29.502  29.649  1.00  0.00    -0.014 A 
BRANCH  40  41
ATOM     41  C   UNL A   1      42.000  28.194  29.744  1.00  0.00     0.031 A 
ATOM     42  C   UNL A   1      42.605  27.843  31.037  1.00  0.00     0.074 A 
ATOM     43  C   UNL A   1      42.024  27.354  28.693  1.00  0.00     0.049 A 
ATOM     44  N   UNL A   1      43.852  27.624  31.291  1.00  0.00    -0.248 NA
ATOM     45  C   UNL A   1      41.717  27.790  32.201  1.00  0.00     0.031 C 
ATOM     46  C   UNL A   1      41.249  27.427  27.451  1.00  0.00     0.029 A 
ATOM     47  N   UNL A   1      42.707  26.184  28.572  1.00  0.00    -0.354 N 
ATOM     48  C   UNL A   1      43.899  27.261  32.628  1.00  0.00     0.074 A 
ATOM     49  C   UNL A   1      42.578  27.475  33.168  1.00  0.00     0.031 C 
ATOM     50  C   UNL A   1      41.350  26.246  26.804  1.00  0.00     0.029 A 
ATOM     51  C   UNL A   1      42.284  25.392  27.521  1.00  0.00     0.049 A 
ATOM     52  H   UNL A   1      43.436  25.924  29.180  1.00  0.00     0.167 HD
ATOM     53  C   UNL A   1      44.975  26.630  33.166  1.00  0.00     0.037 A 
ATOM     54  C   UNL A   1      42.619  24.097  27.318  1.00  0.00     0.037 A 
ATOM     55  C   UNL A   1      46.155  26.750  32.357  1.00  0.00     0.049 A 
ATOM     56  C   UNL A   1      43.858  23.815  28.084  1.00  0.00     0.074 A 
ATOM     57  C   UNL A   1      46.921  27.810  31.916  1.00  0.00     0.029 A 
ATOM     58  N   UNL A   1      46.549  25.671  31.606  1.00  0.00    -0.354 N 
ATOM     59  N   UNL A   1      45.041  24.271  27.775  1.00  0.00    -0.248 NA
ATOM     60  C   UNL A   1      43.724  23.317  29.446  1.00  0.00     0.031 C 
ATOM     61  C   UNL A   1      47.399  27.424  30.631  1.00  0.00     0.029 A 
ATOM     62  C   UNL A   1      46.897  26.151  30.368  1.00  0.00     0.049 A 
ATOM     63  H   UNL A   1      46.578  24.732  31.900  1.00  0.00     0.167 HD
ATOM     64  C   UNL A   1      45.666  24.493  28.993  1.00  0.00     0.074 A 
ATOM     65  C   UNL A   1      44.859  23.780  29.974  1.00  0.00     0.031 C 
ATOM     66  C   UNL A   1      46.618  25.462  29.131  1.00  0.00     0.037 A 
BRANCH  53  67
ATOM     67  C   UNL A   1      44.862  25.667  34.305  1.00  0.00     0.064 A 
ATOM     68  C   UNL A   1      45.486  25.945  35.531  1.00  0.00     0.173 A 
ATOM     69  C   UNL A   1      44.364  24.356  34.139  1.00  0.00     0.173 A 
ATOM     70  F   UNL A   1      46.037  27.145  35.758  1.00  0.00    -0.203 F 
ATOM     71  C   UNL A   1      45.615  24.967  36.521  1.00  0.00     0.198 A 
ATOM     72  C   UNL A   1      44.444  23.402  35.148  1.00  0.00     0.198 A 
ATOM     73  F   UNL A   1      43.877  23.937  32.963  1.00  0.00    -0.203 F 
ATOM     74  F   UNL A   1      46.299  25.241  37.640  1.00  0.00    -0.200 F 
ATOM     75  C   UNL A   1      45.089  23.701  36.331  1.00  0.00     0.200 A 
ATOM     76  F   UNL A   1      43.952  22.173  34.935  1.00  0.00    -0.200 F 
ATOM     77  F   UNL A   1      45.245  22.753  37.264  1.00  0.00    -0.200 F 
ENDBRANCH  53  67
BRANCH  54  78
ATOM     78  C   UNL A   1      41.784  23.032  26.721  1.00  0.00     0.064 A 
ATOM     79  C   UNL A   1      42.363  21.861  26.211  1.00  0.00     0.173 A 
ATOM     80  C   UNL A   1      40.382  23.029  26.863  1.00  0.00     0.173 A 
ATOM     81  F   UNL A   1      43.695  21.762  26.092  1.00  0.00    -0.203 F 
ATOM     82  C   UNL A   1      41.585  20.747  25.876  1.00  0.00     0.198 A 
ATOM     83  C   UNL A   1      39.606  21.926  26.513  1.00  0.00     0.198 A 
ATOM     84  F   UNL A   1      39.742  24.062  27.431  1.00  0.00    -0.203 F 
ATOM     85  F   UNL A   1      42.178  19.625  25.448  1.00  0.00    -0.200 F 
ATOM     86  C   UNL A   1      40.209  20.779  26.031  1.00  0.00     0.200 A 
ATOM     87  F   UNL A   1      38.280  21.960  26.702  1.00  0.00    -0.200 F 
ATOM     88  F   UNL A   1      39.469  19.697  25.757  1.00  0.00    -0.200 F 
ENDBRANCH  54  78
BRANCH  66  89
ATOM     89  C   UNL A   1      47.196  26.050  27.877  1.00  0.00     0.064 A 
ATOM     90  C   UNL A   1      46.631  27.146  27.205  1.00  0.00     0.173 A 
ATOM     91  C   UNL A   1      48.430  25.571  27.417  1.00  0.00     0.173 A 
ATOM     92  F   UNL A   1      45.510  27.727  27.654  1.00  0.00    -0.203 F 
ATOM     93  C   UNL A   1      47.248  27.698  26.084  1.00  0.00     0.198 A 
ATOM     94  C   UNL A   1      49.062  26.148  26.318  1.00  0.00     0.198 A 
ATOM     95  F   UNL A   1      49.046  24.567  28.061  1.00  0.00    -0.203 F 
ATOM     96  F   UNL A   1      46.682  28.733  25.446  1.00  0.00    -0.200 F 
ATOM     97  C   UNL A   1      48.466  27.202  25.645  1.00  0.00     0.200 A 
ATOM     98  F   UNL A   1      50.263  25.700  25.929  1.00  0.00    -0.200 F 
ATOM     99  F   UNL A   1      49.078  27.758  24.589  1.00  0.00    -0.200 F 
ENDBRANCH  66  89
ENDBRANCH  40  41
ENDBRANCH  33  35
ENDBRANCH  32  33
ENDBRANCH  31  32
ENDBRANCH  30  31
ENDBRANCH  29  30
ENDBRANCH  28  29
ENDBRANCH  27  28
ENDBRANCH  26  27
ENDBRANCH   1  26
TORSDOF 23
ENDMDL
MODEL 3
REMARK VINA RESULT:     -10.3      1.794      2.559
REMARK SMILES Cc1n[nH]c(C(=O)N2CCC(CCC(=O)OCCOCCOCCOCCOC(=O)c3ccc(-c4c5nc(c(-c6c(F)c(F)c(F)c(F)c6F)c6ccc([nH]6)c(-c6c(F)c(F)c(F)c(F)c6F)c6nc(c(-c7c(F)c(F)c(F)c(F)c7F)c7ccc4[nH]7)C=C6)C=C5)cc3)CC2)n1
REMARK SMILES IDX 21 1 20 2 19 3 18 4 17 5 16 6 14 7 15 8 13 9 12 10 11 11
REMARK SMILES IDX 6 12 7 13 8 14 9 15 95 16 10 17 94 18 5 19 1 20 2 21 3 22
REMARK SMILES IDX 96 23 4 24 22 26 23 27 24 28 25 29 26 30 27 31 28 32 29 33
REMARK SMILES IDX 30 34 31 35 32 36 93 37 33 38 92 39 34 40 35 41 36 42 86 43
REMARK SMILES IDX 37 44 91 45 85 46 87 47 38 48 90 49 84 50 83 51 39 53 71 54
REMARK SMILES IDX 51 55 70 56 52 57 55 58 69 59 88 60 53 61 54 62 68 64 89 65
REMARK SMILES IDX 56 66 40 67 41 68 49 69 42 70 43 71 47 72 50 73 44 74 45 75
REMARK SMILES IDX 48 76 46 77 72 78 73 79 81 80 74 81 75 82 79 83 82 84 76 85
REMARK SMILES IDX 77 86 80 87 78 88 57 89 58 90 66 91 59 92 60 93 64 94 67 95
REMARK SMILES IDX 61 96 62 97 65 98 63 99
REMARK H PARENT 4 25 87 52 55 63
REMARK Flexibility Score: inf
ROOT
ATOM      1  C   UNL A   1      35.904  22.447  25.776  1.00  0.00     0.188 C 
ENDROOT
BRANCH   1   2
ATOM      2  C   UNL A   1      35.058  22.184  27.039  1.00  0.00     0.188 C 
BRANCH   2   3
ATOM      3  O   UNL A   1      33.797  21.530  26.932  1.00  0.00    -0.376 OA
BRANCH   3   4
ATOM      4  C   UNL A   1      32.613  22.309  26.833  1.00  0.00     0.202 C 
BRANCH   4   5
ATOM      5  C   UNL A   1      31.663  22.061  25.654  1.00  0.00     0.261 C 
BRANCH   5   6
ATOM      6  O   UNL A   1      31.837  20.791  24.993  1.00  0.00    -0.463 OA
BRANCH   6   7
ATOM      7  C   UNL A   1      32.363  20.830  23.748  1.00  0.00     0.305 C 
ATOM      8  O   UNL A   1      32.180  19.966  22.894  1.00  0.00    -0.252 OA
BRANCH   7   9
ATOM      9  C   UNL A   1      33.190  22.065  23.432  1.00  0.00     0.123 C 
BRANCH   9  10
ATOM     10  C   UNL A   1      32.988  22.935  22.184  1.00  0.00     0.015 C 
BRANCH  10  11
ATOM     11  C   UNL A   1      32.704  24.431  22.386  1.00  0.00    -0.007 C 
ATOM     12  C   UNL A   1      32.115  26.875  25.452  1.00  0.00     0.291 C 
ATOM     13  O   UNL A   1      31.495  26.035  26.104  1.00  0.00    -0.265 OA
ATOM     14  N   UNL A   1      32.240  26.744  24.064  1.00  0.00    -0.336 N 
ATOM     15  C   UNL A   1      31.132  26.136  23.343  1.00  0.00     0.120 C 
ATOM     16  C   UNL A   1      33.552  26.592  23.441  1.00  0.00     0.120 C 
ATOM     17  C   UNL A   1      31.370  24.652  23.107  1.00  0.00     0.025 C 
ATOM     18  C   UNL A   1      33.852  25.111  23.168  1.00  0.00     0.025 C 
BRANCH  12  19
ATOM     19  C   UNL A   1      32.624  28.111  26.011  1.00  0.00     0.214 A 
ATOM     20  C   UNL A   1      35.050  30.136  27.591  1.00  0.00     0.092 C 
ATOM     21  C   UNL A   1      33.844  29.545  26.979  1.00  0.00     0.148 A 
ATOM     22  N   UNL A   1      32.619  30.070  27.108  1.00  0.00    -0.159 NA
ATOM     23  N   UNL A   1      33.891  28.367  26.282  1.00  0.00    -0.207 NA
ATOM     24  N   UNL A   1      31.868  29.133  26.507  1.00  0.00    -0.255 N 
ATOM     25  H   UNL A   1      30.887  29.178  26.433  1.00  0.00     0.192 HD
ENDBRANCH  12  19
ENDBRANCH  10  11
ENDBRANCH   9  10
ENDBRANCH   7   9
ENDBRANCH   6   7
ENDBRANCH   5   6
ENDBRANCH   4   5
ENDBRANCH   3   4
ENDBRANCH   2   3
ENDBRANCH   1   2
BRANCH   1  26
ATOM     26  O   UNL A   1      37.229  21.947  25.806  1.00  0.00    -0.377 OA
BRANCH  26  27
ATOM     27  C   UNL A   1      37.596  21.110  24.717  1.00  0.00     0.188 C 
BRANCH  27  28
ATOM     28  C   UNL A   1      37.966  19.644  25.023  1.00  0.00     0.188 C 
BRANCH  28  29
ATOM     29  O   UNL A   1      39.273  19.465  25.573  1.00  0.00    -0.376 OA
BRANCH  29  30
ATOM     30  C   UNL A   1      40.070  20.625  25.778  1.00  0.00     0.202 C 
BRANCH  30  31
ATOM     31  C   UNL A   1      40.753  20.652  27.146  1.00  0.00     0.261 C 
BRANCH  31  32
ATOM     32  O   UNL A   1      40.824  21.945  27.744  1.00  0.00    -0.460 OA
BRANCH  32  33
ATOM     33  C   UNL A   1      41.576  22.852  27.088  1.00  0.00     0.338 C 
ATOM     34  O   UNL A   1      42.710  22.707  26.670  1.00  0.00    -0.246 OA
BRANCH  33  35
ATOM     35  C   UNL A   1      40.854  24.129  27.025  1.00  0.00     0.060 A 
ATOM     36  C   UNL A   1      41.447  25.120  26.241  1.00  0.00     0.016 A 
ATOM     37  C   UNL A   1      39.821  24.415  27.931  1.00  0.00     0.016 A 
ATOM     38  C   UNL A   1      41.202  26.432  26.566  1.00  0.00     0.010 A 
ATOM     39  C   UNL A   1      39.576  25.732  28.256  1.00  0.00     0.010 A 
ATOM     40  C   UNL A   1      40.360  26.708  27.648  1.00  0.00    -0.014 A 
BRANCH  40  41
ATOM     41  C   UNL A   1      40.477  28.031  28.220  1.00  0.00     0.031 A 
ATOM     42  C   UNL A   1      41.665  28.809  27.838  1.00  0.00     0.074 A 
ATOM     43  C   UNL A   1      39.553  28.511  29.073  1.00  0.00     0.049 A 
ATOM     44  N   UNL A   1      42.630  29.201  28.600  1.00  0.00    -0.248 NA
ATOM     45  C   UNL A   1      41.824  29.136  26.418  1.00  0.00     0.031 C 
ATOM     46  C   UNL A   1      38.207  27.997  29.340  1.00  0.00     0.029 A 
ATOM     47  N   UNL A   1      39.616  29.643  29.824  1.00  0.00    -0.354 N 
ATOM     48  C   UNL A   1      43.461  29.956  27.787  1.00  0.00     0.074 A 
ATOM     49  C   UNL A   1      42.978  29.803  26.436  1.00  0.00     0.031 C 
ATOM     50  C   UNL A   1      37.513  28.930  30.027  1.00  0.00     0.029 A 
ATOM     51  C   UNL A   1      38.399  30.038  30.347  1.00  0.00     0.049 A 
ATOM     52  H   UNL A   1      40.453  30.138  29.980  1.00  0.00     0.167 HD
ATOM     53  C   UNL A   1      44.385  30.811  28.296  1.00  0.00     0.037 A 
ATOM     54  C   UNL A   1      38.132  31.234  30.920  1.00  0.00     0.037 A 
ATOM     55  C   UNL A   1      44.684  30.554  29.676  1.00  0.00     0.049 A 
ATOM     56  C   UNL A   1      39.420  31.842  31.341  1.00  0.00     0.074 A 
ATOM     57  C   UNL A   1      45.207  29.479  30.368  1.00  0.00     0.029 A 
ATOM     58  N   UNL A   1      44.149  31.383  30.630  1.00  0.00    -0.354 N 
ATOM     59  N   UNL A   1      40.149  31.417  32.336  1.00  0.00    -0.248 NA
ATOM     60  C   UNL A   1      40.105  32.717  30.400  1.00  0.00     0.031 C 
ATOM     61  C   UNL A   1      44.563  29.496  31.640  1.00  0.00     0.029 A 
ATOM     62  C   UNL A   1      43.689  30.582  31.645  1.00  0.00     0.049 A 
ATOM     63  H   UNL A   1      44.106  32.366  30.595  1.00  0.00     0.167 HD
ATOM     64  C   UNL A   1      41.459  31.631  31.932  1.00  0.00     0.074 A 
ATOM     65  C   UNL A   1      41.367  32.535  30.794  1.00  0.00     0.031 C 
ATOM     66  C   UNL A   1      42.473  30.835  32.382  1.00  0.00     0.037 A 
BRANCH  53  67
ATOM     67  C   UNL A   1      44.807  32.061  27.591  1.00  0.00     0.064 A 
ATOM     68  C   UNL A   1      46.067  32.137  26.978  1.00  0.00     0.173 A 
ATOM     69  C   UNL A   1      44.099  33.276  27.720  1.00  0.00     0.173 A 
ATOM     70  F   UNL A   1      46.834  31.045  26.861  1.00  0.00    -0.203 F 
ATOM     71  C   UNL A   1      46.590  33.355  26.537  1.00  0.00     0.198 A 
ATOM     72  C   UNL A   1      44.599  34.478  27.229  1.00  0.00     0.198 A 
ATOM     73  F   UNL A   1      42.953  33.348  28.412  1.00  0.00    -0.203 F 
ATOM     74  F   UNL A   1      47.834  33.404  26.042  1.00  0.00    -0.200 F 
ATOM     75  C   UNL A   1      45.853  34.521  26.657  1.00  0.00     0.200 A 
ATOM     76  F   UNL A   1      43.882  35.601  27.378  1.00  0.00    -0.200 F 
ATOM     77  F   UNL A   1      46.369  35.694  26.267  1.00  0.00    -0.200 F 
ENDBRANCH  53  67
BRANCH  54  78
ATOM     78  C   UNL A   1      36.863  31.992  30.880  1.00  0.00     0.064 A 
ATOM     79  C   UNL A   1      36.037  32.080  32.010  1.00  0.00     0.173 A 
ATOM     80  C   UNL A   1      36.553  32.852  29.807  1.00  0.00     0.173 A 
ATOM     81  F   UNL A   1      36.294  31.333  33.094  1.00  0.00    -0.203 F 
ATOM     82  C   UNL A   1      34.973  32.986  32.069  1.00  0.00     0.198 A 
ATOM     83  C   UNL A   1      35.482  33.742  29.860  1.00  0.00     0.198 A 
ATOM     84  F   UNL A   1      37.337  32.914  28.721  1.00  0.00    -0.203 F 
ATOM     85  F   UNL A   1      34.243  33.085  33.188  1.00  0.00    -0.200 F 
ATOM     86  C   UNL A   1      34.699  33.818  30.996  1.00  0.00     0.200 A 
ATOM     87  F   UNL A   1      35.250  34.564  28.827  1.00  0.00    -0.200 F 
ATOM     88  F   UNL A   1      33.711  34.720  31.071  1.00  0.00    -0.200 F 
ENDBRANCH  54  78
BRANCH  66  89
ATOM     89  C   UNL A   1      42.190  29.947  33.557  1.00  0.00     0.064 A 
ATOM     90  C   UNL A   1      41.716  28.629  33.435  1.00  0.00     0.173 A 
ATOM     91  C   UNL A   1      42.532  30.397  34.839  1.00  0.00     0.173 A 
ATOM     92  F   UNL A   1      41.474  28.094  32.231  1.00  0.00    -0.203 F 
ATOM     93  C   UNL A   1      41.537  27.823  34.557  1.00  0.00     0.198 A 
ATOM     94  C   UNL A   1      42.386  29.576  35.954  1.00  0.00     0.198 A 
ATOM     95  F   UNL A   1      43.050  31.625  35.006  1.00  0.00    -0.203 F 
ATOM     96  F   UNL A   1      41.066  26.574  34.419  1.00  0.00    -0.200 F 
ATOM     97  C   UNL A   1      41.877  28.295  35.814  1.00  0.00     0.200 A 
ATOM     98  F   UNL A   1      42.764  30.018  37.162  1.00  0.00    -0.200 F 
ATOM     99  F   UNL A   1      41.740  27.505  36.889  1.00  0.00    -0.200 F 
ENDBRANCH  66  89
ENDBRANCH  40  41
ENDBRANCH  33  35
ENDBRANCH  32  33
ENDBRANCH  31  32
ENDBRANCH  30  31
ENDBRANCH  29  30
ENDBRANCH  28  29
ENDBRANCH  27  28
ENDBRANCH  26  27
ENDBRANCH   1  26
TORSDOF 23
ENDMDL
