MODEL 1
REMARK VINA RESULT:     -11.1      0.000      0.000
REMARK SMILES O=C(OCCOCCOCCOCCOC(=O)[C@H]1CC[C@H]2CCCC[C@@H]2[N@H+]1[C@@H]1C[N@H+]2CC[C@@H]1CC2)c1ccc(-c2c3nc(c(-c4c(F)c(F)c(F)c(F)c4F)c4ccc([nH]4)c(-c4c(F)c(F)c(F)c(F)c4F)c4nc(c(-c5c(F)c(F)c(F)c(F)c5F)c5ccc2[nH]5)C=C4)C=C3)cc1
REMARK SMILES IDX 8 1 7 2 6 3 5 4 4 5 3 6 2 7 1 8 36 9 37 10 98 11 38 12 97 13
REMARK SMILES IDX 39 14 40 15 41 16 91 17 42 18 96 19 90 20 92 21 43 22 95 23
REMARK SMILES IDX 89 24 88 25 44 27 76 28 56 29 75 30 57 31 60 32 74 33 93 34
REMARK SMILES IDX 58 35 59 36 73 38 94 39 61 40 45 41 46 42 54 43 47 44 48 45
REMARK SMILES IDX 52 46 55 47 49 48 50 49 53 50 51 51 77 52 78 53 86 54 79 55
REMARK SMILES IDX 80 56 84 57 87 58 81 59 82 60 85 61 83 62 62 63 63 64 71 65
REMARK SMILES IDX 64 66 65 67 69 68 72 69 66 70 67 71 70 72 68 73 9 74 10 75
REMARK SMILES IDX 11 76 12 77 13 78 14 79 15 80 16 81 17 82 18 83 19 84 27 85
REMARK SMILES IDX 20 86 26 87 21 89 25 90 22 91 24 92 23 93 28 94 29 95 33 96
REMARK SMILES IDX 30 97 34 98 32 99 35 100 31 101
REMARK H PARENT 92 26 60 37 27 88 30 102
REMARK Flexibility Score: inf
ROOT
ATOM      1  C   UNL A   1      32.061  28.792  22.496  1.00  0.00     0.188 C 
ENDROOT
BRANCH   1   2
ATOM      2  C   UNL A   1      33.351  28.376  23.175  1.00  0.00     0.188 C 
BRANCH   2   3
ATOM      3  O   UNL A   1      33.612  29.323  24.197  1.00  0.00    -0.376 OA
BRANCH   3   4
ATOM      4  C   UNL A   1      32.883  29.182  25.405  1.00  0.00     0.202 C 
BRANCH   4   5
ATOM      5  C   UNL A   1      32.184  30.453  25.859  1.00  0.00     0.261 C 
BRANCH   5   6
ATOM      6  O   UNL A   1      32.556  30.939  27.164  1.00  0.00    -0.460 OA
BRANCH   6   7
ATOM      7  C   UNL A   1      33.559  31.716  27.609  1.00  0.00     0.338 C 
ATOM      8  O   UNL A   1      33.408  32.948  27.512  1.00  0.00    -0.246 OA
BRANCH   7   9
ATOM      9  C   UNL A   1      34.848  31.261  28.202  1.00  0.00     0.060 A 
ATOM     10  C   UNL A   1      35.161  29.957  28.585  1.00  0.00     0.016 A 
ATOM     11  C   UNL A   1      35.876  32.218  28.273  1.00  0.00     0.016 A 
ATOM     12  C   UNL A   1      36.430  29.587  28.991  1.00  0.00     0.010 A 
ATOM     13  C   UNL A   1      37.149  31.877  28.731  1.00  0.00     0.010 A 
ATOM     14  C   UNL A   1      37.411  30.556  29.106  1.00  0.00    -0.014 A 
BRANCH  14  15
ATOM     15  C   UNL A   1      38.583  30.208  29.908  1.00  0.00     0.031 A 
ATOM     16  C   UNL A   1      39.595  29.329  29.252  1.00  0.00     0.074 A 
ATOM     17  C   UNL A   1      38.790  30.791  31.097  1.00  0.00     0.049 A 
ATOM     18  N   UNL A   1      40.609  28.698  29.765  1.00  0.00    -0.248 NA
ATOM     19  C   UNL A   1      39.433  29.139  27.797  1.00  0.00     0.031 C 
ATOM     20  C   UNL A   1      37.947  31.834  31.684  1.00  0.00     0.029 A 
ATOM     21  N   UNL A   1      39.778  30.592  32.018  1.00  0.00    -0.354 N 
ATOM     22  C   UNL A   1      41.159  27.978  28.715  1.00  0.00     0.074 A 
ATOM     23  C   UNL A   1      40.395  28.268  27.529  1.00  0.00     0.031 C 
ATOM     24  C   UNL A   1      38.441  32.163  32.888  1.00  0.00     0.029 A 
ATOM     25  C   UNL A   1      39.568  31.285  33.183  1.00  0.00     0.049 A 
ATOM     26  H   UNL A   1      40.559  30.013  31.862  1.00  0.00     0.167 HD
ATOM     27  C   UNL A   1      42.201  27.117  28.775  1.00  0.00     0.037 A 
ATOM     28  C   UNL A   1      40.177  31.140  34.372  1.00  0.00     0.037 A 
ATOM     29  C   UNL A   1      42.913  26.880  30.000  1.00  0.00     0.049 A 
ATOM     30  C   UNL A   1      41.264  30.101  34.460  1.00  0.00     0.074 A 
ATOM     31  C   UNL A   1      43.934  25.990  30.259  1.00  0.00     0.029 A 
ATOM     32  N   UNL A   1      42.651  27.559  31.187  1.00  0.00    -0.354 N 
ATOM     33  N   UNL A   1      41.725  29.312  33.515  1.00  0.00    -0.248 NA
ATOM     34  C   UNL A   1      41.898  29.911  35.766  1.00  0.00     0.031 C 
ATOM     35  C   UNL A   1      44.250  26.093  31.619  1.00  0.00     0.029 A 
ATOM     36  C   UNL A   1      43.475  27.097  32.192  1.00  0.00     0.049 A 
ATOM     37  H   UNL A   1      41.975  28.268  31.295  1.00  0.00     0.167 HD
ATOM     38  C   UNL A   1      42.718  28.546  34.101  1.00  0.00     0.074 A 
ATOM     39  C   UNL A   1      42.792  28.969  35.489  1.00  0.00     0.031 C 
ATOM     40  C   UNL A   1      43.504  27.583  33.552  1.00  0.00     0.037 A 
BRANCH  27  41
ATOM     41  C   UNL A   1      42.489  26.318  27.539  1.00  0.00     0.064 A 
ATOM     42  C   UNL A   1      41.860  25.092  27.266  1.00  0.00     0.173 A 
ATOM     43  C   UNL A   1      43.510  26.733  26.668  1.00  0.00     0.173 A 
ATOM     44  F   UNL A   1      40.907  24.626  28.086  1.00  0.00    -0.203 F 
ATOM     45  C   UNL A   1      42.279  24.291  26.205  1.00  0.00     0.198 A 
ATOM     46  C   UNL A   1      43.902  25.946  25.589  1.00  0.00     0.198 A 
ATOM     47  F   UNL A   1      44.157  27.887  26.886  1.00  0.00    -0.203 F 
ATOM     48  F   UNL A   1      41.731  23.081  26.024  1.00  0.00    -0.200 F 
ATOM     49  C   UNL A   1      43.299  24.718  25.368  1.00  0.00     0.200 A 
ATOM     50  F   UNL A   1      44.888  26.362  24.782  1.00  0.00    -0.200 F 
ATOM     51  F   UNL A   1      43.718  23.934  24.365  1.00  0.00    -0.200 F 
ENDBRANCH  27  41
BRANCH  28  52
ATOM     52  C   UNL A   1      39.703  31.923  35.542  1.00  0.00     0.064 A 
ATOM     53  C   UNL A   1      40.223  33.189  35.834  1.00  0.00     0.173 A 
ATOM     54  C   UNL A   1      38.668  31.442  36.363  1.00  0.00     0.173 A 
ATOM     55  F   UNL A   1      41.221  33.690  35.094  1.00  0.00    -0.203 F 
ATOM     56  C   UNL A   1      39.727  33.944  36.898  1.00  0.00     0.198 A 
ATOM     57  C   UNL A   1      38.153  32.209  37.407  1.00  0.00     0.198 A 
ATOM     58  F   UNL A   1      38.129  30.235  36.129  1.00  0.00    -0.203 F 
ATOM     59  F   UNL A   1      40.257  35.145  37.170  1.00  0.00    -0.200 F 
ATOM     60  C   UNL A   1      38.686  33.458  37.676  1.00  0.00     0.200 A 
ATOM     61  F   UNL A   1      37.134  31.741  38.141  1.00  0.00    -0.200 F 
ATOM     62  F   UNL A   1      38.197  34.194  38.684  1.00  0.00    -0.200 F 
ENDBRANCH  28  52
BRANCH  40  63
ATOM     63  C   UNL A   1      44.544  26.973  34.438  1.00  0.00     0.064 A 
ATOM     64  C   UNL A   1      44.304  25.789  35.145  1.00  0.00     0.173 A 
ATOM     65  C   UNL A   1      45.833  27.526  34.475  1.00  0.00     0.173 A 
ATOM     66  F   UNL A   1      43.081  25.236  35.144  1.00  0.00    -0.203 F 
ATOM     67  C   UNL A   1      45.326  25.175  35.861  1.00  0.00     0.198 A 
ATOM     68  C   UNL A   1      46.857  26.894  35.166  1.00  0.00     0.198 A 
ATOM     69  F   UNL A   1      46.104  28.656  33.803  1.00  0.00    -0.203 F 
ATOM     70  F   UNL A   1      45.076  24.052  36.549  1.00  0.00    -0.200 F 
ATOM     71  C   UNL A   1      46.603  25.719  35.860  1.00  0.00     0.200 A 
ATOM     72  F   UNL A   1      48.094  27.409  35.146  1.00  0.00    -0.200 F 
ATOM     73  F   UNL A   1      47.592  25.107  36.524  1.00  0.00    -0.200 F 
ENDBRANCH  40  63
ENDBRANCH  14  15
ENDBRANCH   7   9
ENDBRANCH   6   7
ENDBRANCH   5   6
ENDBRANCH   4   5
ENDBRANCH   3   4
ENDBRANCH   2   3
ENDBRANCH   1   2
BRANCH   1  74
ATOM     74  O   UNL A   1      31.185  27.716  22.188  1.00  0.00    -0.377 OA
BRANCH  74  75
ATOM     75  C   UNL A   1      29.910  27.668  22.807  1.00  0.00     0.188 C 
BRANCH  75  76
ATOM     76  C   UNL A   1      29.557  26.652  23.883  1.00  0.00     0.188 C 
BRANCH  76  77
ATOM     77  O   UNL A   1      30.152  26.734  25.155  1.00  0.00    -0.376 OA
BRANCH  77  78
ATOM     78  C   UNL A   1      31.444  26.178  25.377  1.00  0.00     0.202 C 
BRANCH  78  79
ATOM     79  C   UNL A   1      31.778  25.386  26.657  1.00  0.00     0.261 C 
BRANCH  79  80
ATOM     80  O   UNL A   1      31.155  24.078  26.745  1.00  0.00    -0.459 OA
BRANCH  80  81
ATOM     81  C   UNL A   1      31.958  22.989  26.827  1.00  0.00     0.365 C 
ATOM     82  O   UNL A   1      32.388  22.565  27.908  1.00  0.00    -0.245 OA
BRANCH  81  83
ATOM     83  C   UNL A   1      32.223  22.197  25.509  1.00  0.00     0.295 C 
ATOM     84  C   UNL A   1      31.712  22.816  24.183  1.00  0.00     0.078 C 
ATOM     85  N   UNL A   1      33.558  21.567  25.331  1.00  0.00    -0.313 N 
ATOM     86  C   UNL A   1      31.774  21.870  22.980  1.00  0.00     0.016 C 
ATOM     87  C   UNL A   1      33.442  20.482  24.327  1.00  0.00     0.188 C 
ATOM     88  H   UNL A   1      33.832  21.157  26.225  1.00  0.00     0.349 HD
ATOM     89  C   UNL A   1      32.157  20.479  23.444  1.00  0.00     0.048 C 
ATOM     90  C   UNL A   1      33.458  19.121  25.042  1.00  0.00     0.065 C 
ATOM     91  C   UNL A   1      32.348  19.481  22.305  1.00  0.00     0.010 C 
ATOM     92  C   UNL A   1      33.538  17.986  24.015  1.00  0.00     0.006 C 
ATOM     93  C   UNL A   1      32.492  18.076  22.895  1.00  0.00     0.001 C 
BRANCH  85  94
ATOM     94  C   UNL A   1      34.693  22.513  25.108  1.00  0.00     0.244 C 
ATOM     95  C   UNL A   1      35.362  22.650  23.696  1.00  0.00     0.328 C 
ATOM     96  C   UNL A   1      35.851  22.310  26.136  1.00  0.00     0.064 C 
ATOM     97  N   UNL A   1      36.849  22.630  23.746  1.00  0.00    -0.330 N 
ATOM     98  C   UNL A   1      36.740  23.574  26.058  1.00  0.00     0.071 C 
ATOM     99  C   UNL A   1      36.767  21.138  25.746  1.00  0.00     0.071 C 
ATOM    100  C   UNL A   1      37.327  23.703  24.643  1.00  0.00     0.262 C 
ATOM    101  C   UNL A   1      37.267  21.326  24.304  1.00  0.00     0.262 C 
ATOM    102  H   UNL A   1      37.234  22.771  22.813  1.00  0.00     0.348 HD
ENDBRANCH  85  94
ENDBRANCH  81  83
ENDBRANCH  80  81
ENDBRANCH  79  80
ENDBRANCH  78  79
ENDBRANCH  77  78
ENDBRANCH  76  77
ENDBRANCH  75  76
ENDBRANCH  74  75
ENDBRANCH   1  74
TORSDOF 21
ENDMDL
MODEL 2
REMARK VINA RESULT:     -11.0      2.570      8.128
REMARK SMILES O=C(OCCOCCOCCOCCOC(=O)[C@H]1CC[C@H]2CCCC[C@@H]2[N@H+]1[C@@H]1C[N@H+]2CC[C@@H]1CC2)c1ccc(-c2c3nc(c(-c4c(F)c(F)c(F)c(F)c4F)c4ccc([nH]4)c(-c4c(F)c(F)c(F)c(F)c4F)c4nc(c(-c5c(F)c(F)c(F)c(F)c5F)c5ccc2[nH]5)C=C4)C=C3)cc1
REMARK SMILES IDX 8 1 7 2 6 3 5 4 4 5 3 6 2 7 1 8 36 9 37 10 98 11 38 12 97 13
REMARK SMILES IDX 39 14 40 15 41 16 91 17 42 18 96 19 90 20 92 21 43 22 95 23
REMARK SMILES IDX 89 24 88 25 44 27 76 28 56 29 75 30 57 31 60 32 74 33 93 34
REMARK SMILES IDX 58 35 59 36 73 38 94 39 61 40 45 41 46 42 54 43 47 44 48 45
REMARK SMILES IDX 52 46 55 47 49 48 50 49 53 50 51 51 77 52 78 53 86 54 79 55
REMARK SMILES IDX 80 56 84 57 87 58 81 59 82 60 85 61 83 62 62 63 63 64 71 65
REMARK SMILES IDX 64 66 65 67 69 68 72 69 66 70 67 71 70 72 68 73 9 74 10 75
REMARK SMILES IDX 11 76 12 77 13 78 14 79 15 80 16 81 17 82 18 83 19 84 27 85
REMARK SMILES IDX 20 86 26 87 21 89 25 90 22 91 24 92 23 93 28 94 29 95 33 96
REMARK SMILES IDX 30 97 34 98 32 99 35 100 31 101
REMARK H PARENT 92 26 60 37 27 88 30 102
REMARK Flexibility Score: inf
ROOT
ATOM      1  C   UNL A   1      35.107  32.074  27.996  1.00  0.00     0.188 C 
ENDROOT
BRANCH   1   2
ATOM      2  C   UNL A   1      34.995  33.183  29.024  1.00  0.00     0.188 C 
BRANCH   2   3
ATOM      3  O   UNL A   1      33.618  33.493  29.157  1.00  0.00    -0.376 OA
BRANCH   3   4
ATOM      4  C   UNL A   1      33.136  34.603  28.418  1.00  0.00     0.202 C 
BRANCH   4   5
ATOM      5  C   UNL A   1      33.147  35.913  29.188  1.00  0.00     0.261 C 
BRANCH   5   6
ATOM      6  O   UNL A   1      32.359  35.937  30.394  1.00  0.00    -0.460 OA
BRANCH   6   7
ATOM      7  C   UNL A   1      32.659  35.795  31.697  1.00  0.00     0.338 C 
ATOM      8  O   UNL A   1      31.888  36.325  32.517  1.00  0.00    -0.246 OA
BRANCH   7   9
ATOM      9  C   UNL A   1      33.830  35.076  32.273  1.00  0.00     0.060 A 
ATOM     10  C   UNL A   1      35.130  35.570  32.374  1.00  0.00     0.016 A 
ATOM     11  C   UNL A   1      33.566  33.829  32.871  1.00  0.00     0.016 A 
ATOM     12  C   UNL A   1      36.128  34.898  33.054  1.00  0.00     0.010 A 
ATOM     13  C   UNL A   1      34.572  33.111  33.515  1.00  0.00     0.010 A 
ATOM     14  C   UNL A   1      35.861  33.649  33.586  1.00  0.00    -0.014 A 
BRANCH  14  15
ATOM     15  C   UNL A   1      37.018  32.821  33.924  1.00  0.00     0.031 A 
ATOM     16  C   UNL A   1      37.600  33.022  35.283  1.00  0.00     0.074 A 
ATOM     17  C   UNL A   1      37.408  31.833  33.106  1.00  0.00     0.049 A 
ATOM     18  N   UNL A   1      38.722  32.596  35.781  1.00  0.00    -0.248 NA
ATOM     19  C   UNL A   1      36.786  33.825  36.217  1.00  0.00     0.031 C 
ATOM     20  C   UNL A   1      36.728  31.443  31.870  1.00  0.00     0.029 A 
ATOM     21  N   UNL A   1      38.465  30.975  33.200  1.00  0.00    -0.354 N 
ATOM     22  C   UNL A   1      38.786  33.139  37.055  1.00  0.00     0.074 A 
ATOM     23  C   UNL A   1      37.582  33.899  37.274  1.00  0.00     0.031 C 
ATOM     24  C   UNL A   1      37.410  30.436  31.301  1.00  0.00     0.029 A 
ATOM     25  C   UNL A   1      38.613  30.188  32.086  1.00  0.00     0.049 A 
ATOM     26  H   UNL A   1      39.059  30.926  33.984  1.00  0.00     0.167 HD
ATOM     27  C   UNL A   1      39.804  33.027  37.939  1.00  0.00     0.037 A 
ATOM     28  C   UNL A   1      39.661  29.429  31.723  1.00  0.00     0.037 A 
ATOM     29  C   UNL A   1      40.975  32.250  37.645  1.00  0.00     0.049 A 
ATOM     30  C   UNL A   1      40.838  29.396  32.662  1.00  0.00     0.074 A 
ATOM     31  C   UNL A   1      42.128  32.091  38.385  1.00  0.00     0.029 A 
ATOM     32  N   UNL A   1      41.128  31.496  36.484  1.00  0.00    -0.354 N 
ATOM     33  N   UNL A   1      40.983  30.001  33.821  1.00  0.00    -0.248 NA
ATOM     34  C   UNL A   1      41.998  28.605  32.247  1.00  0.00     0.031 C 
ATOM     35  C   UNL A   1      43.000  31.287  37.643  1.00  0.00     0.029 A 
ATOM     36  C   UNL A   1      42.364  30.885  36.473  1.00  0.00     0.049 A 
ATOM     37  H   UNL A   1      40.452  31.412  35.773  1.00  0.00     0.167 HD
ATOM     38  C   UNL A   1      42.238  29.649  34.288  1.00  0.00     0.074 A 
ATOM     39  C   UNL A   1      42.814  28.773  33.282  1.00  0.00     0.031 C 
ATOM     40  C   UNL A   1      42.863  30.006  35.439  1.00  0.00     0.037 A 
BRANCH  27  41
ATOM     41  C   UNL A   1      39.715  33.863  39.181  1.00  0.00     0.064 A 
ATOM     42  C   UNL A   1      40.328  35.122  39.292  1.00  0.00     0.173 A 
ATOM     43  C   UNL A   1      39.102  33.336  40.330  1.00  0.00     0.173 A 
ATOM     44  F   UNL A   1      40.965  35.658  38.240  1.00  0.00    -0.203 F 
ATOM     45  C   UNL A   1      40.379  35.790  40.515  1.00  0.00     0.198 A 
ATOM     46  C   UNL A   1      39.125  34.023  41.540  1.00  0.00     0.198 A 
ATOM     47  F   UNL A   1      38.513  32.131  40.289  1.00  0.00    -0.203 F 
ATOM     48  F   UNL A   1      41.056  36.944  40.618  1.00  0.00    -0.200 F 
ATOM     49  C   UNL A   1      39.778  35.241  41.637  1.00  0.00     0.200 A 
ATOM     50  F   UNL A   1      38.543  33.488  42.622  1.00  0.00    -0.200 F 
ATOM     51  F   UNL A   1      39.851  35.873  42.816  1.00  0.00    -0.200 F 
ENDBRANCH  27  41
BRANCH  28  52
ATOM     52  C   UNL A   1      39.654  28.748  30.403  1.00  0.00     0.064 A 
ATOM     53  C   UNL A   1      40.176  29.364  29.260  1.00  0.00     0.173 A 
ATOM     54  C   UNL A   1      39.178  27.432  30.271  1.00  0.00     0.173 A 
ATOM     55  F   UNL A   1      40.631  30.623  29.326  1.00  0.00    -0.203 F 
ATOM     56  C   UNL A   1      40.224  28.692  28.037  1.00  0.00     0.198 A 
ATOM     57  C   UNL A   1      39.253  26.752  29.056  1.00  0.00     0.198 A 
ATOM     58  F   UNL A   1      38.668  26.791  31.333  1.00  0.00    -0.203 F 
ATOM     59  F   UNL A   1      40.709  29.312  26.952  1.00  0.00    -0.200 F 
ATOM     60  C   UNL A   1      39.773  27.384  27.939  1.00  0.00     0.200 A 
ATOM     61  F   UNL A   1      38.833  25.482  28.974  1.00  0.00    -0.200 F 
ATOM     62  F   UNL A   1      39.838  26.734  26.770  1.00  0.00    -0.200 F 
ENDBRANCH  28  52
BRANCH  40  63
ATOM     63  C   UNL A   1      44.208  29.403  35.694  1.00  0.00     0.064 A 
ATOM     64  C   UNL A   1      45.389  30.053  35.315  1.00  0.00     0.173 A 
ATOM     65  C   UNL A   1      44.305  28.216  36.434  1.00  0.00     0.173 A 
ATOM     66  F   UNL A   1      45.338  31.184  34.595  1.00  0.00    -0.203 F 
ATOM     67  C   UNL A   1      46.627  29.533  35.674  1.00  0.00     0.198 A 
ATOM     68  C   UNL A   1      45.543  27.716  36.816  1.00  0.00     0.198 A 
ATOM     69  F   UNL A   1      43.196  27.568  36.823  1.00  0.00    -0.203 F 
ATOM     70  F   UNL A   1      47.749  30.156  35.288  1.00  0.00    -0.200 F 
ATOM     71  C   UNL A   1      46.703  28.374  36.435  1.00  0.00     0.200 A 
ATOM     72  F   UNL A   1      45.613  26.610  37.569  1.00  0.00    -0.200 F 
ATOM     73  F   UNL A   1      47.897  27.894  36.806  1.00  0.00    -0.200 F 
ENDBRANCH  40  63
ENDBRANCH  14  15
ENDBRANCH   7   9
ENDBRANCH   6   7
ENDBRANCH   5   6
ENDBRANCH   4   5
ENDBRANCH   3   4
ENDBRANCH   2   3
ENDBRANCH   1   2
BRANCH   1  74
ATOM     74  O   UNL A   1      34.018  31.161  27.995  1.00  0.00    -0.377 OA
BRANCH  74  75
ATOM     75  C   UNL A   1      34.116  29.975  27.223  1.00  0.00     0.188 C 
BRANCH  75  76
ATOM     76  C   UNL A   1      33.195  29.682  26.047  1.00  0.00     0.188 C 
BRANCH  76  77
ATOM     77  O   UNL A   1      32.964  28.354  25.645  1.00  0.00    -0.376 OA
BRANCH  77  78
ATOM     78  C   UNL A   1      31.651  27.807  25.704  1.00  0.00     0.202 C 
BRANCH  78  79
ATOM     79  C   UNL A   1      31.368  26.445  26.371  1.00  0.00     0.261 C 
BRANCH  79  80
ATOM     80  O   UNL A   1      31.426  25.304  25.476  1.00  0.00    -0.459 OA
BRANCH  80  81
ATOM     81  C   UNL A   1      31.612  24.074  26.016  1.00  0.00     0.365 C 
ATOM     82  O   UNL A   1      31.375  23.832  27.207  1.00  0.00    -0.245 OA
BRANCH  81  83
ATOM     83  C   UNL A   1      32.020  22.924  25.043  1.00  0.00     0.295 C 
ATOM     84  C   UNL A   1      31.834  23.165  23.524  1.00  0.00     0.078 C 
ATOM     85  N   UNL A   1      33.285  22.192  25.323  1.00  0.00    -0.313 N 
ATOM     86  C   UNL A   1      32.005  21.912  22.660  1.00  0.00     0.016 C 
ATOM     87  C   UNL A   1      33.229  20.873  24.646  1.00  0.00     0.188 C 
ATOM     88  H   UNL A   1      33.342  22.039  26.330  1.00  0.00     0.349 HD
ATOM     89  C   UNL A   1      32.135  20.693  23.550  1.00  0.00     0.048 C 
ATOM     90  C   UNL A   1      32.958  19.776  25.688  1.00  0.00     0.065 C 
ATOM     91  C   UNL A   1      32.414  19.400  22.787  1.00  0.00     0.010 C 
ATOM     92  C   UNL A   1      33.093  18.391  25.044  1.00  0.00     0.006 C 
ATOM     93  C   UNL A   1      32.286  18.218  23.751  1.00  0.00     0.001 C 
BRANCH  85  94
ATOM     94  C   UNL A   1      34.542  22.965  25.093  1.00  0.00     0.244 C 
ATOM     95  C   UNL A   1      35.262  22.938  23.700  1.00  0.00     0.328 C 
ATOM     96  C   UNL A   1      35.633  22.664  26.168  1.00  0.00     0.064 C 
ATOM     97  N   UNL A   1      36.730  22.723  23.801  1.00  0.00    -0.330 N 
ATOM     98  C   UNL A   1      36.687  23.793  26.060  1.00  0.00     0.071 C 
ATOM     99  C   UNL A   1      36.393  21.361  25.867  1.00  0.00     0.071 C 
ATOM    100  C   UNL A   1      37.324  23.768  24.661  1.00  0.00     0.262 C 
ATOM    101  C   UNL A   1      36.953  21.406  24.435  1.00  0.00     0.262 C 
ATOM    102  H   UNL A   1      37.156  22.762  22.876  1.00  0.00     0.348 HD
ENDBRANCH  85  94
ENDBRANCH  81  83
ENDBRANCH  80  81
ENDBRANCH  79  80
ENDBRANCH  78  79
ENDBRANCH  77  78
ENDBRANCH  76  77
ENDBRANCH  75  76
ENDBRANCH  74  75
ENDBRANCH   1  74
TORSDOF 21
ENDMDL
MODEL 3
REMARK VINA RESULT:     -10.7      5.198      9.480
REMARK SMILES O=C(OCCOCCOCCOCCOC(=O)[C@H]1CC[C@H]2CCCC[C@@H]2[N@H+]1[C@@H]1C[N@H+]2CC[C@@H]1CC2)c1ccc(-c2c3nc(c(-c4c(F)c(F)c(F)c(F)c4F)c4ccc([nH]4)c(-c4c(F)c(F)c(F)c(F)c4F)c4nc(c(-c5c(F)c(F)c(F)c(F)c5F)c5ccc2[nH]5)C=C4)C=C3)cc1
REMARK SMILES IDX 8 1 7 2 6 3 5 4 4 5 3 6 2 7 1 8 36 9 37 10 98 11 38 12 97 13
REMARK SMILES IDX 39 14 40 15 41 16 91 17 42 18 96 19 90 20 92 21 43 22 95 23
REMARK SMILES IDX 89 24 88 25 44 27 76 28 56 29 75 30 57 31 60 32 74 33 93 34
REMARK SMILES IDX 58 35 59 36 73 38 94 39 61 40 45 41 46 42 54 43 47 44 48 45
REMARK SMILES IDX 52 46 55 47 49 48 50 49 53 50 51 51 77 52 78 53 86 54 79 55
REMARK SMILES IDX 80 56 84 57 87 58 81 59 82 60 85 61 83 62 62 63 63 64 71 65
REMARK SMILES IDX 64 66 65 67 69 68 72 69 66 70 67 71 70 72 68 73 9 74 10 75
REMARK SMILES IDX 11 76 12 77 13 78 14 79 15 80 16 81 17 82 18 83 19 84 27 85
REMARK SMILES IDX 20 86 26 87 21 89 25 90 22 91 24 92 23 93 28 94 29 95 33 96
REMARK SMILES IDX 30 97 34 98 32 99 35 100 31 101
REMARK H PARENT 92 26 60 37 27 88 30 102
REMARK Flexibility Score: inf
ROOT
ATOM      1  C   UNL A   1      39.652  21.545  26.145  1.00  0.00     0.188 C 
ENDROOT
BRANCH   1   2
ATOM      2  C   UNL A   1      41.108  21.258  26.453  1.00  0.00     0.188 C 
BRANCH   2   3
ATOM      3  O   UNL A   1      41.394  19.961  25.959  1.00  0.00    -0.376 OA
BRANCH   3   4
ATOM      4  C   UNL A   1      42.255  19.151  26.742  1.00  0.00     0.202 C 
BRANCH   4   5
ATOM      5  C   UNL A   1      43.009  18.098  25.947  1.00  0.00     0.261 C 
BRANCH   5   6
ATOM      6  O   UNL A   1      43.653  18.562  24.745  1.00  0.00    -0.460 OA
BRANCH   6   7
ATOM      7  C   UNL A   1      44.599  19.487  24.502  1.00  0.00     0.338 C 
ATOM      8  O   UNL A   1      45.630  19.103  23.921  1.00  0.00    -0.246 OA
BRANCH   7   9
ATOM      9  C   UNL A   1      44.552  20.932  24.864  1.00  0.00     0.060 A 
ATOM     10  C   UNL A   1      44.095  21.968  24.051  1.00  0.00     0.016 A 
ATOM     11  C   UNL A   1      44.896  21.256  26.190  1.00  0.00     0.016 A 
ATOM     12  C   UNL A   1      43.946  23.263  24.512  1.00  0.00     0.010 A 
ATOM     13  C   UNL A   1      44.804  22.566  26.658  1.00  0.00     0.010 A 
ATOM     14  C   UNL A   1      44.342  23.570  25.802  1.00  0.00    -0.014 A 
BRANCH  14  15
ATOM     15  C   UNL A   1      44.549  24.986  26.103  1.00  0.00     0.031 A 
ATOM     16  C   UNL A   1      45.905  25.533  25.803  1.00  0.00     0.074 A 
ATOM     17  C   UNL A   1      43.519  25.761  26.468  1.00  0.00     0.049 A 
ATOM     18  N   UNL A   1      46.441  26.668  26.144  1.00  0.00    -0.248 NA
ATOM     19  C   UNL A   1      46.784  24.664  24.996  1.00  0.00     0.031 C 
ATOM     20  C   UNL A   1      42.124  25.325  26.551  1.00  0.00     0.029 A 
ATOM     21  N   UNL A   1      43.488  27.077  26.827  1.00  0.00    -0.354 N 
ATOM     22  C   UNL A   1      47.739  26.618  25.661  1.00  0.00     0.074 A 
ATOM     23  C   UNL A   1      47.910  25.363  24.976  1.00  0.00     0.031 C 
ATOM     24  C   UNL A   1      41.373  26.356  26.972  1.00  0.00     0.029 A 
ATOM     25  C   UNL A   1      42.253  27.479  27.273  1.00  0.00     0.049 A 
ATOM     26  H   UNL A   1      44.268  27.675  26.774  1.00  0.00     0.167 HD
ATOM     27  C   UNL A   1      48.706  27.550  25.825  1.00  0.00     0.037 A 
ATOM     28  C   UNL A   1      41.918  28.601  27.931  1.00  0.00     0.037 A 
ATOM     29  C   UNL A   1      48.457  28.779  26.524  1.00  0.00     0.049 A 
ATOM     30  C   UNL A   1      43.024  29.586  28.207  1.00  0.00     0.074 A 
ATOM     31  C   UNL A   1      49.333  29.793  26.850  1.00  0.00     0.029 A 
ATOM     32  N   UNL A   1      47.205  29.147  27.013  1.00  0.00    -0.354 N 
ATOM     33  N   UNL A   1      44.294  29.512  27.873  1.00  0.00    -0.248 NA
ATOM     34  C   UNL A   1      42.670  30.789  28.964  1.00  0.00     0.031 C 
ATOM     35  C   UNL A   1      48.621  30.747  27.586  1.00  0.00     0.029 A 
ATOM     36  C   UNL A   1      47.286  30.364  27.658  1.00  0.00     0.049 A 
ATOM     37  H   UNL A   1      46.382  28.616  26.913  1.00  0.00     0.167 HD
ATOM     38  C   UNL A   1      44.890  30.665  28.355  1.00  0.00     0.074 A 
ATOM     39  C   UNL A   1      43.836  31.424  29.007  1.00  0.00     0.031 C 
ATOM     40  C   UNL A   1      46.183  31.070  28.269  1.00  0.00     0.037 A 
BRANCH  27  41
ATOM     41  C   UNL A   1      50.086  27.180  25.368  1.00  0.00     0.064 A 
ATOM     42  C   UNL A   1      50.512  27.342  24.039  1.00  0.00     0.173 A 
ATOM     43  C   UNL A   1      50.961  26.536  26.257  1.00  0.00     0.173 A 
ATOM     44  F   UNL A   1      49.702  27.913  23.136  1.00  0.00    -0.203 F 
ATOM     45  C   UNL A   1      51.733  26.824  23.609  1.00  0.00     0.198 A 
ATOM     46  C   UNL A   1      52.195  26.051  25.832  1.00  0.00     0.198 A 
ATOM     47  F   UNL A   1      50.603  26.339  27.535  1.00  0.00    -0.203 F 
ATOM     48  F   UNL A   1      52.074  26.903  22.314  1.00  0.00    -0.200 F 
ATOM     49  C   UNL A   1      52.573  26.180  24.504  1.00  0.00     0.200 A 
ATOM     50  F   UNL A   1      53.003  25.428  26.700  1.00  0.00    -0.200 F 
ATOM     51  F   UNL A   1      53.734  25.659  24.083  1.00  0.00    -0.200 F 
ENDBRANCH  27  41
BRANCH  28  52
ATOM     52  C   UNL A   1      40.530  28.777  28.427  1.00  0.00     0.064 A 
ATOM     53  C   UNL A   1      39.501  29.209  27.583  1.00  0.00     0.173 A 
ATOM     54  C   UNL A   1      40.189  28.455  29.753  1.00  0.00     0.173 A 
ATOM     55  F   UNL A   1      39.772  29.543  26.313  1.00  0.00    -0.203 F 
ATOM     56  C   UNL A   1      38.186  29.310  28.042  1.00  0.00     0.198 A 
ATOM     57  C   UNL A   1      38.871  28.529  30.202  1.00  0.00     0.198 A 
ATOM     58  F   UNL A   1      41.134  28.034  30.607  1.00  0.00    -0.203 F 
ATOM     59  F   UNL A   1      37.223  29.746  27.218  1.00  0.00    -0.200 F 
ATOM     60  C   UNL A   1      37.871  28.960  29.347  1.00  0.00     0.200 A 
ATOM     61  F   UNL A   1      38.573  28.170  31.458  1.00  0.00    -0.200 F 
ATOM     62  F   UNL A   1      36.606  29.039  29.779  1.00  0.00    -0.200 F 
ENDBRANCH  28  52
BRANCH  40  63
ATOM     63  C   UNL A   1      46.510  32.414  28.841  1.00  0.00     0.064 A 
ATOM     64  C   UNL A   1      46.380  33.585  28.086  1.00  0.00     0.173 A 
ATOM     65  C   UNL A   1      46.841  32.526  30.200  1.00  0.00     0.173 A 
ATOM     66  F   UNL A   1      46.077  33.519  26.780  1.00  0.00    -0.203 F 
ATOM     67  C   UNL A   1      46.569  34.830  28.676  1.00  0.00     0.198 A 
ATOM     68  C   UNL A   1      46.999  33.771  30.791  1.00  0.00     0.198 A 
ATOM     69  F   UNL A   1      46.966  31.426  30.959  1.00  0.00    -0.203 F 
ATOM     70  F   UNL A   1      46.460  35.942  27.935  1.00  0.00    -0.200 F 
ATOM     71  C   UNL A   1      46.864  34.923  30.029  1.00  0.00     0.200 A 
ATOM     72  F   UNL A   1      47.262  33.860  32.102  1.00  0.00    -0.200 F 
ATOM     73  F   UNL A   1      47.013  36.125  30.601  1.00  0.00    -0.200 F 
ENDBRANCH  40  63
ENDBRANCH  14  15
ENDBRANCH   7   9
ENDBRANCH   6   7
ENDBRANCH   5   6
ENDBRANCH   4   5
ENDBRANCH   3   4
ENDBRANCH   2   3
ENDBRANCH   1   2
BRANCH   1  74
ATOM     74  O   UNL A   1      38.942  20.449  25.585  1.00  0.00    -0.377 OA
BRANCH  74  75
ATOM     75  C   UNL A   1      37.727  20.695  24.897  1.00  0.00     0.188 C 
BRANCH  75  76
ATOM     76  C   UNL A   1      37.134  22.089  24.751  1.00  0.00     0.188 C 
BRANCH  76  77
ATOM     77  O   UNL A   1      36.187  22.351  23.743  1.00  0.00    -0.376 OA
BRANCH  77  78
ATOM     78  C   UNL A   1      35.058  23.173  24.020  1.00  0.00     0.202 C 
BRANCH  78  79
ATOM     79  C   UNL A   1      34.130  23.682  22.900  1.00  0.00     0.261 C 
BRANCH  79  80
ATOM     80  O   UNL A   1      34.109  25.123  22.732  1.00  0.00    -0.459 OA
BRANCH  80  81
ATOM     81  C   UNL A   1      33.187  25.659  21.895  1.00  0.00     0.365 C 
ATOM     82  O   UNL A   1      33.236  25.501  20.668  1.00  0.00    -0.245 OA
BRANCH  81  83
ATOM     83  C   UNL A   1      31.970  26.387  22.548  1.00  0.00     0.295 C 
ATOM     84  C   UNL A   1      31.097  25.580  23.541  1.00  0.00     0.078 C 
ATOM     85  N   UNL A   1      32.164  27.786  23.013  1.00  0.00    -0.313 N 
ATOM     86  C   UNL A   1      29.786  26.268  23.933  1.00  0.00     0.016 C 
ATOM     87  C   UNL A   1      30.838  28.443  23.107  1.00  0.00     0.188 C 
ATOM     88  H   UNL A   1      32.722  28.275  22.313  1.00  0.00     0.349 HD
ATOM     89  C   UNL A   1      29.590  27.510  23.087  1.00  0.00     0.048 C 
ATOM     90  C   UNL A   1      30.658  29.401  21.917  1.00  0.00     0.065 C 
ATOM     91  C   UNL A   1      28.359  28.328  23.472  1.00  0.00     0.010 C 
ATOM     92  C   UNL A   1      29.385  30.235  22.098  1.00  0.00     0.006 C 
ATOM     93  C   UNL A   1      28.131  29.408  22.411  1.00  0.00     0.001 C 
BRANCH  85  94
ATOM     94  C   UNL A   1      33.034  27.951  24.216  1.00  0.00     0.244 C 
ATOM     95  C   UNL A   1      33.112  26.834  25.315  1.00  0.00     0.328 C 
ATOM     96  C   UNL A   1      32.773  29.297  24.963  1.00  0.00     0.064 C 
ATOM     97  N   UNL A   1      33.000  27.364  26.700  1.00  0.00    -0.330 N 
ATOM     98  C   UNL A   1      33.978  29.523  25.907  1.00  0.00     0.071 C 
ATOM     99  C   UNL A   1      31.541  29.216  25.880  1.00  0.00     0.071 C 
ATOM    100  C   UNL A   1      34.052  28.376  26.928  1.00  0.00     0.262 C 
ATOM    101  C   UNL A   1      31.680  28.016  26.831  1.00  0.00     0.262 C 
ATOM    102  H   UNL A   1      33.104  26.607  27.376  1.00  0.00     0.348 HD
ENDBRANCH  85  94
ENDBRANCH  81  83
ENDBRANCH  80  81
ENDBRANCH  79  80
ENDBRANCH  78  79
ENDBRANCH  77  78
ENDBRANCH  76  77
ENDBRANCH  75  76
ENDBRANCH  74  75
ENDBRANCH   1  74
TORSDOF 21
ENDMDL
