MODEL 1
REMARK VINA RESULT:     -11.1      0.000      0.000
REMARK SMILES Cc1ccc(C[C@@H](Cc2cc(F)cc(Br)c2)C(=O)OCCOCCOCCOCCOC(=O)c2ccc(-c3c4nc(c(-c5c(F)c(F)c(F)c(F)c5F)c5ccc([nH]5)c(-c5c(F)c(F)c(F)c(F)c5F)c5nc(c(-c6c(F)c(F)c(F)c(F)c6F)c6ccc3[nH]6)C=C5)C=C4)cc2)cc1
REMARK SMILES IDX 25 1 24 2 23 3 22 4 21 5 20 6 19 7 17 8 18 9 7 10 6 11 5 12
REMARK SMILES IDX 1 13 2 14 3 15 98 16 4 17 97 18 8 19 9 20 10 21 16 22 11 23
REMARK SMILES IDX 14 24 12 25 13 26 15 27 26 28 27 29 28 30 29 31 30 32 31 33
REMARK SMILES IDX 32 34 33 35 34 36 35 37 96 38 36 39 95 40 37 41 38 42 39 43
REMARK SMILES IDX 89 44 40 45 94 46 88 47 90 48 41 49 93 50 87 51 86 52 42 54
REMARK SMILES IDX 74 55 54 56 73 57 55 58 58 59 72 60 91 61 56 62 57 63 71 65
REMARK SMILES IDX 92 66 59 67 43 68 44 69 52 70 45 71 46 72 50 73 53 74 47 75
REMARK SMILES IDX 48 76 51 77 49 78 75 79 76 80 84 81 77 82 78 83 82 84 85 85
REMARK SMILES IDX 79 86 80 87 83 88 81 89 60 90 61 91 69 92 62 93 63 94 67 95
REMARK SMILES IDX 70 96 64 97 65 98 68 99 66 100
REMARK H PARENT 90 53 58 64
REMARK Flexibility Score: inf
ROOT
ATOM      1  O   UNL A   1      30.416  29.732  24.166  1.00  0.00    -0.377 OA
ENDROOT
BRANCH   1   2
ATOM      2  C   UNL A   1      29.925  29.189  22.955  1.00  0.00     0.188 C 
BRANCH   2   3
ATOM      3  C   UNL A   1      29.848  27.665  22.770  1.00  0.00     0.188 C 
BRANCH   3   4
ATOM      4  O   UNL A   1      29.090  26.870  23.659  1.00  0.00    -0.376 OA
BRANCH   4   5
ATOM      5  C   UNL A   1      29.800  25.844  24.340  1.00  0.00     0.202 C 
BRANCH   5   6
ATOM      6  C   UNL A   1      29.907  25.905  25.882  1.00  0.00     0.261 C 
BRANCH   6   7
ATOM      7  O   UNL A   1      31.275  25.728  26.357  1.00  0.00    -0.463 OA
BRANCH   7   8
ATOM      8  C   UNL A   1      31.672  24.457  26.635  1.00  0.00     0.309 C 
ATOM      9  O   UNL A   1      30.986  23.665  27.277  1.00  0.00    -0.252 OA
BRANCH   8  10
ATOM     10  C   UNL A   1      33.070  24.078  26.110  1.00  0.00     0.108 C 
BRANCH  10  11
ATOM     11  C   UNL A   1      34.027  25.266  25.823  1.00  0.00     0.051 C 
BRANCH  11  12
ATOM     12  C   UNL A   1      34.098  25.437  24.318  1.00  0.00    -0.047 A 
ATOM     13  C   UNL A   1      32.254  25.697  20.491  1.00  0.00     0.044 C 
ATOM     14  C   UNL A   1      33.093  25.640  21.730  1.00  0.00    -0.051 A 
ATOM     15  C   UNL A   1      33.514  24.402  22.229  1.00  0.00     0.004 A 
ATOM     16  C   UNL A   1      33.339  26.799  22.470  1.00  0.00     0.004 A 
ATOM     17  C   UNL A   1      34.052  24.303  23.507  1.00  0.00     0.004 A 
ATOM     18  C   UNL A   1      33.853  26.699  23.758  1.00  0.00     0.004 A 
ENDBRANCH  11  12
ENDBRANCH  10  11
BRANCH  10  19
ATOM     19  C   UNL A   1      33.767  22.855  26.845  1.00  0.00     0.051 C 
BRANCH  19  20
ATOM     20  C   UNL A   1      34.429  21.808  25.990  1.00  0.00    -0.043 A 
ATOM     21  C   UNL A   1      35.802  21.604  25.778  1.00  0.00     0.043 A 
ATOM     22  C   UNL A   1      33.581  20.951  25.361  1.00  0.00     0.019 A 
ATOM     23  C   UNL A   1      36.261  20.456  25.098  1.00  0.00     0.124 A 
ATOM     24  C   UNL A   1      34.064  19.737  24.965  1.00  0.00     0.021 A 
ATOM     25  F   UNL A   1      37.567  20.279  24.870  1.00  0.00    -0.207 F 
ATOM     26  C   UNL A   1      35.387  19.452  24.755  1.00  0.00     0.055 A 
ATOM     27  Br  UNL A   1      32.776  18.499  25.273  1.00  0.00    -0.051 Br
ENDBRANCH  19  20
ENDBRANCH  10  19
ENDBRANCH   8  10
ENDBRANCH   7   8
ENDBRANCH   6   7
ENDBRANCH   5   6
ENDBRANCH   4   5
ENDBRANCH   3   4
ENDBRANCH   2   3
ENDBRANCH   1   2
BRANCH   1  28
ATOM     28  C   UNL A   1      31.647  29.246  24.694  1.00  0.00     0.188 C 
BRANCH  28  29
ATOM     29  C   UNL A   1      31.812  29.174  26.200  1.00  0.00     0.188 C 
BRANCH  29  30
ATOM     30  O   UNL A   1      32.800  30.150  26.529  1.00  0.00    -0.376 OA
BRANCH  30  31
ATOM     31  C   UNL A   1      32.304  31.430  26.889  1.00  0.00     0.202 C 
BRANCH  31  32
ATOM     32  C   UNL A   1      33.331  32.278  27.644  1.00  0.00     0.261 C 
BRANCH  32  33
ATOM     33  O   UNL A   1      34.241  31.396  28.333  1.00  0.00    -0.460 OA
BRANCH  33  34
ATOM     34  C   UNL A   1      35.559  31.742  28.254  1.00  0.00     0.338 C 
ATOM     35  O   UNL A   1      35.977  32.823  27.920  1.00  0.00    -0.246 OA
BRANCH  34  36
ATOM     36  C   UNL A   1      36.412  30.522  28.417  1.00  0.00     0.060 A 
ATOM     37  C   UNL A   1      36.362  29.790  29.613  1.00  0.00     0.016 A 
ATOM     38  C   UNL A   1      37.445  30.291  27.516  1.00  0.00     0.016 A 
ATOM     39  C   UNL A   1      37.422  28.939  29.965  1.00  0.00     0.010 A 
ATOM     40  C   UNL A   1      38.544  29.564  27.927  1.00  0.00     0.010 A 
ATOM     41  C   UNL A   1      38.570  28.899  29.164  1.00  0.00    -0.014 A 
BRANCH  41  42
ATOM     42  C   UNL A   1      39.923  28.491  29.631  1.00  0.00     0.031 A 
ATOM     43  C   UNL A   1      40.670  27.361  28.996  1.00  0.00     0.074 A 
ATOM     44  C   UNL A   1      40.575  29.476  30.275  1.00  0.00     0.049 A 
ATOM     45  N   UNL A   1      41.896  26.994  29.199  1.00  0.00    -0.248 NA
ATOM     46  C   UNL A   1      39.982  26.489  28.050  1.00  0.00     0.031 C 
ATOM     47  C   UNL A   1      41.905  29.999  30.073  1.00  0.00     0.029 A 
ATOM     48  N   UNL A   1      40.083  30.306  31.256  1.00  0.00    -0.354 N 
ATOM     49  C   UNL A   1      42.196  25.957  28.317  1.00  0.00     0.074 A 
ATOM     50  C   UNL A   1      40.981  25.750  27.572  1.00  0.00     0.031 C 
ATOM     51  C   UNL A   1      42.254  30.829  31.059  1.00  0.00     0.029 A 
ATOM     52  C   UNL A   1      41.164  30.833  31.954  1.00  0.00     0.049 A 
ATOM     53  H   UNL A   1      39.132  30.493  31.432  1.00  0.00     0.167 HD
ATOM     54  C   UNL A   1      43.426  25.354  28.297  1.00  0.00     0.037 A 
ATOM     55  C   UNL A   1      41.285  30.670  33.279  1.00  0.00     0.037 A 
ATOM     56  C   UNL A   1      44.153  25.541  29.574  1.00  0.00     0.049 A 
ATOM     57  C   UNL A   1      42.050  29.366  33.705  1.00  0.00     0.074 A 
ATOM     58  C   UNL A   1      45.449  25.874  29.920  1.00  0.00     0.029 A 
ATOM     59  N   UNL A   1      43.444  25.497  30.814  1.00  0.00    -0.354 N 
ATOM     60  N   UNL A   1      42.285  28.262  32.985  1.00  0.00    -0.248 NA
ATOM     61  C   UNL A   1      42.763  29.309  34.983  1.00  0.00     0.031 C 
ATOM     62  C   UNL A   1      45.514  26.053  31.321  1.00  0.00     0.029 A 
ATOM     63  C   UNL A   1      44.222  25.967  31.862  1.00  0.00     0.049 A 
ATOM     64  H   UNL A   1      42.519  25.174  30.912  1.00  0.00     0.167 HD
ATOM     65  C   UNL A   1      43.164  27.382  33.674  1.00  0.00     0.074 A 
ATOM     66  C   UNL A   1      43.414  28.132  34.911  1.00  0.00     0.031 C 
ATOM     67  C   UNL A   1      43.810  26.194  33.269  1.00  0.00     0.037 A 
BRANCH  54  68
ATOM     68  C   UNL A   1      44.032  24.650  27.042  1.00  0.00     0.064 A 
ATOM     69  C   UNL A   1      45.079  25.235  26.277  1.00  0.00     0.173 A 
ATOM     70  C   UNL A   1      43.604  23.422  26.491  1.00  0.00     0.173 A 
ATOM     71  F   UNL A   1      45.592  26.428  26.568  1.00  0.00    -0.203 F 
ATOM     72  C   UNL A   1      45.639  24.659  25.123  1.00  0.00     0.198 A 
ATOM     73  C   UNL A   1      44.119  22.872  25.298  1.00  0.00     0.198 A 
ATOM     74  F   UNL A   1      42.704  22.651  27.101  1.00  0.00    -0.203 F 
ATOM     75  F   UNL A   1      46.648  25.280  24.493  1.00  0.00    -0.200 F 
ATOM     76  C   UNL A   1      45.148  23.481  24.623  1.00  0.00     0.200 A 
ATOM     77  F   UNL A   1      43.605  21.728  24.821  1.00  0.00    -0.200 F 
ATOM     78  F   UNL A   1      45.665  22.938  23.511  1.00  0.00    -0.200 F 
ENDBRANCH  54  68
BRANCH  55  79
ATOM     79  C   UNL A   1      40.275  31.717  33.778  1.00  0.00     0.064 A 
ATOM     80  C   UNL A   1      39.136  31.112  34.423  1.00  0.00     0.173 A 
ATOM     81  C   UNL A   1      40.793  32.844  34.462  1.00  0.00     0.173 A 
ATOM     82  F   UNL A   1      38.570  30.025  33.869  1.00  0.00    -0.203 F 
ATOM     83  C   UNL A   1      38.802  31.380  35.767  1.00  0.00     0.198 A 
ATOM     84  C   UNL A   1      40.431  33.123  35.802  1.00  0.00     0.198 A 
ATOM     85  F   UNL A   1      41.858  33.486  33.962  1.00  0.00    -0.203 F 
ATOM     86  F   UNL A   1      37.945  30.580  36.424  1.00  0.00    -0.200 F 
ATOM     87  C   UNL A   1      39.491  32.349  36.470  1.00  0.00     0.200 A 
ATOM     88  F   UNL A   1      41.137  34.023  36.506  1.00  0.00    -0.200 F 
ATOM     89  F   UNL A   1      39.331  32.465  37.799  1.00  0.00    -0.200 F 
ENDBRANCH  55  79
BRANCH  67  90
ATOM     90  C   UNL A   1      44.528  25.183  34.218  1.00  0.00     0.064 A 
ATOM     91  C   UNL A   1      44.202  23.827  34.326  1.00  0.00     0.173 A 
ATOM     92  C   UNL A   1      45.682  25.552  34.990  1.00  0.00     0.173 A 
ATOM     93  F   UNL A   1      43.292  23.266  33.521  1.00  0.00    -0.203 F 
ATOM     94  C   UNL A   1      44.858  22.967  35.222  1.00  0.00     0.198 A 
ATOM     95  C   UNL A   1      46.318  24.707  35.892  1.00  0.00     0.198 A 
ATOM     96  F   UNL A   1      46.311  26.728  34.852  1.00  0.00    -0.203 F 
ATOM     97  F   UNL A   1      44.486  21.682  35.289  1.00  0.00    -0.200 F 
ATOM     98  C   UNL A   1      45.899  23.410  36.018  1.00  0.00     0.200 A 
ATOM     99  F   UNL A   1      47.366  25.157  36.599  1.00  0.00    -0.200 F 
ATOM    100  F   UNL A   1      46.531  22.578  36.855  1.00  0.00    -0.200 F 
ENDBRANCH  67  90
ENDBRANCH  41  42
ENDBRANCH  34  36
ENDBRANCH  33  34
ENDBRANCH  32  33
ENDBRANCH  31  32
ENDBRANCH  30  31
ENDBRANCH  29  30
ENDBRANCH  28  29
ENDBRANCH   1  28
TORSDOF 24
ENDMDL
MODEL 2
REMARK VINA RESULT:     -11.0      1.484      2.410
REMARK SMILES Cc1ccc(C[C@@H](Cc2cc(F)cc(Br)c2)C(=O)OCCOCCOCCOCCOC(=O)c2ccc(-c3c4nc(c(-c5c(F)c(F)c(F)c(F)c5F)c5ccc([nH]5)c(-c5c(F)c(F)c(F)c(F)c5F)c5nc(c(-c6c(F)c(F)c(F)c(F)c6F)c6ccc3[nH]6)C=C5)C=C4)cc2)cc1
REMARK SMILES IDX 25 1 24 2 23 3 22 4 21 5 20 6 19 7 17 8 18 9 7 10 6 11 5 12
REMARK SMILES IDX 1 13 2 14 3 15 98 16 4 17 97 18 8 19 9 20 10 21 16 22 11 23
REMARK SMILES IDX 14 24 12 25 13 26 15 27 26 28 27 29 28 30 29 31 30 32 31 33
REMARK SMILES IDX 32 34 33 35 34 36 35 37 96 38 36 39 95 40 37 41 38 42 39 43
REMARK SMILES IDX 89 44 40 45 94 46 88 47 90 48 41 49 93 50 87 51 86 52 42 54
REMARK SMILES IDX 74 55 54 56 73 57 55 58 58 59 72 60 91 61 56 62 57 63 71 65
REMARK SMILES IDX 92 66 59 67 43 68 44 69 52 70 45 71 46 72 50 73 53 74 47 75
REMARK SMILES IDX 48 76 51 77 49 78 75 79 76 80 84 81 77 82 78 83 82 84 85 85
REMARK SMILES IDX 79 86 80 87 83 88 81 89 60 90 61 91 69 92 62 93 63 94 67 95
REMARK SMILES IDX 70 96 64 97 65 98 68 99 66 100
REMARK H PARENT 90 53 58 64
REMARK Flexibility Score: inf
ROOT
ATOM      1  O   UNL A   1      30.413  29.455  24.044  1.00  0.00    -0.377 OA
ENDROOT
BRANCH   1   2
ATOM      2  C   UNL A   1      30.620  28.123  23.614  1.00  0.00     0.188 C 
BRANCH   2   3
ATOM      3  C   UNL A   1      29.592  27.034  23.959  1.00  0.00     0.188 C 
BRANCH   3   4
ATOM      4  O   UNL A   1      29.934  25.972  24.827  1.00  0.00    -0.376 OA
BRANCH   4   5
ATOM      5  C   UNL A   1      31.058  25.191  24.445  1.00  0.00     0.202 C 
BRANCH   5   6
ATOM      6  C   UNL A   1      30.848  23.996  23.485  1.00  0.00     0.261 C 
BRANCH   6   7
ATOM      7  O   UNL A   1      31.508  22.781  23.948  1.00  0.00    -0.463 OA
BRANCH   7   8
ATOM      8  C   UNL A   1      32.796  22.591  23.553  1.00  0.00     0.309 C 
ATOM      9  O   UNL A   1      33.200  22.865  22.426  1.00  0.00    -0.252 OA
BRANCH   8  10
ATOM     10  C   UNL A   1      33.722  21.973  24.618  1.00  0.00     0.108 C 
BRANCH  10  11
ATOM     11  C   UNL A   1      34.412  22.980  25.578  1.00  0.00     0.051 C 
BRANCH  11  12
ATOM     12  C   UNL A   1      35.904  22.905  25.315  1.00  0.00    -0.047 A 
ATOM     13  C   UNL A   1      39.855  21.810  26.457  1.00  0.00     0.044 C 
ATOM     14  C   UNL A   1      38.556  22.267  25.867  1.00  0.00    -0.051 A 
ATOM     15  C   UNL A   1      38.052  23.531  26.191  1.00  0.00     0.004 A 
ATOM     16  C   UNL A   1      37.776  21.388  25.111  1.00  0.00     0.004 A 
ATOM     17  C   UNL A   1      36.739  23.867  25.881  1.00  0.00     0.004 A 
ATOM     18  C   UNL A   1      36.455  21.712  24.824  1.00  0.00     0.004 A 
ENDBRANCH  11  12
ENDBRANCH  10  11
BRANCH  10  19
ATOM     19  C   UNL A   1      33.159  20.678  25.344  1.00  0.00     0.051 C 
BRANCH  19  20
ATOM     20  C   UNL A   1      32.916  19.453  24.505  1.00  0.00    -0.043 A 
ATOM     21  C   UNL A   1      32.501  19.389  23.165  1.00  0.00     0.043 A 
ATOM     22  C   UNL A   1      33.145  18.267  25.129  1.00  0.00     0.019 A 
ATOM     23  C   UNL A   1      32.506  18.163  22.469  1.00  0.00     0.124 A 
ATOM     24  C   UNL A   1      33.401  17.169  24.359  1.00  0.00     0.021 A 
ATOM     25  F   UNL A   1      32.081  18.099  21.202  1.00  0.00    -0.207 F 
ATOM     26  C   UNL A   1      33.046  17.036  23.042  1.00  0.00     0.055 A 
ATOM     27  Br  UNL A   1      34.692  16.199  25.184  1.00  0.00    -0.051 Br
ENDBRANCH  19  20
ENDBRANCH  10  19
ENDBRANCH   8  10
ENDBRANCH   7   8
ENDBRANCH   6   7
ENDBRANCH   5   6
ENDBRANCH   4   5
ENDBRANCH   3   4
ENDBRANCH   2   3
ENDBRANCH   1   2
BRANCH   1  28
ATOM     28  C   UNL A   1      31.272  30.002  25.041  1.00  0.00     0.188 C 
BRANCH  28  29
ATOM     29  C   UNL A   1      31.839  29.075  26.099  1.00  0.00     0.188 C 
BRANCH  29  30
ATOM     30  O   UNL A   1      32.795  29.848  26.822  1.00  0.00    -0.376 OA
BRANCH  30  31
ATOM     31  C   UNL A   1      32.515  31.237  26.920  1.00  0.00     0.202 C 
BRANCH  31  32
ATOM     32  C   UNL A   1      33.581  32.007  27.703  1.00  0.00     0.261 C 
BRANCH  32  33
ATOM     33  O   UNL A   1      34.508  31.061  28.274  1.00  0.00    -0.460 OA
BRANCH  33  34
ATOM     34  C   UNL A   1      35.817  31.448  28.262  1.00  0.00     0.338 C 
ATOM     35  O   UNL A   1      36.213  32.558  28.004  1.00  0.00    -0.246 OA
BRANCH  34  36
ATOM     36  C   UNL A   1      36.699  30.244  28.383  1.00  0.00     0.060 A 
ATOM     37  C   UNL A   1      36.627  29.439  29.530  1.00  0.00     0.016 A 
ATOM     38  C   UNL A   1      37.773  30.099  27.512  1.00  0.00     0.016 A 
ATOM     39  C   UNL A   1      37.697  28.597  29.871  1.00  0.00     0.010 A 
ATOM     40  C   UNL A   1      38.877  29.379  27.922  1.00  0.00     0.010 A 
ATOM     41  C   UNL A   1      38.876  28.639  29.116  1.00  0.00    -0.014 A 
BRANCH  41  42
ATOM     42  C   UNL A   1      40.222  28.241  29.611  1.00  0.00     0.031 A 
ATOM     43  C   UNL A   1      40.983  27.107  29.002  1.00  0.00     0.074 A 
ATOM     44  C   UNL A   1      40.860  29.236  30.254  1.00  0.00     0.049 A 
ATOM     45  N   UNL A   1      42.207  26.746  29.230  1.00  0.00    -0.248 NA
ATOM     46  C   UNL A   1      40.315  26.221  28.055  1.00  0.00     0.031 C 
ATOM     47  C   UNL A   1      42.192  29.761  30.069  1.00  0.00     0.029 A 
ATOM     48  N   UNL A   1      40.348  30.075  31.217  1.00  0.00    -0.354 N 
ATOM     49  C   UNL A   1      42.525  25.700  28.365  1.00  0.00     0.074 A 
ATOM     50  C   UNL A   1      41.324  25.480  27.602  1.00  0.00     0.031 C 
ATOM     51  C   UNL A   1      42.520  30.604  31.052  1.00  0.00     0.029 A 
ATOM     52  C   UNL A   1      41.415  30.615  31.927  1.00  0.00     0.049 A 
ATOM     53  H   UNL A   1      39.394  30.261  31.375  1.00  0.00     0.167 HD
ATOM     54  C   UNL A   1      43.757  25.101  28.374  1.00  0.00     0.037 A 
ATOM     55  C   UNL A   1      41.514  30.467  33.256  1.00  0.00     0.037 A 
ATOM     56  C   UNL A   1      44.462  25.305  29.661  1.00  0.00     0.049 A 
ATOM     57  C   UNL A   1      42.275  29.170  33.710  1.00  0.00     0.074 A 
ATOM     58  C   UNL A   1      45.750  25.647  30.026  1.00  0.00     0.029 A 
ATOM     59  N   UNL A   1      43.731  25.273  30.889  1.00  0.00    -0.354 N 
ATOM     60  N   UNL A   1      42.526  28.060  33.008  1.00  0.00    -0.248 NA
ATOM     61  C   UNL A   1      42.967  29.130  35.001  1.00  0.00     0.031 C 
ATOM     62  C   UNL A   1      45.790  25.842  31.426  1.00  0.00     0.029 A 
ATOM     63  C   UNL A   1      44.490  25.758  31.945  1.00  0.00     0.049 A 
ATOM     64  H   UNL A   1      42.806  24.949  30.975  1.00  0.00     0.167 HD
ATOM     65  C   UNL A   1      43.396  27.191  33.722  1.00  0.00     0.074 A 
ATOM     66  C   UNL A   1      43.622  27.955  34.954  1.00  0.00     0.031 C 
ATOM     67  C   UNL A   1      44.053  25.999  33.342  1.00  0.00     0.037 A 
BRANCH  54  68
ATOM     68  C   UNL A   1      44.388  24.385  27.138  1.00  0.00     0.064 A 
ATOM     69  C   UNL A   1      45.401  24.992  26.347  1.00  0.00     0.173 A 
ATOM     70  C   UNL A   1      44.013  23.121  26.631  1.00  0.00     0.173 A 
ATOM     71  F   UNL A   1      45.861  26.216  26.594  1.00  0.00    -0.203 F 
ATOM     72  C   UNL A   1      45.980  24.404  25.208  1.00  0.00     0.198 A 
ATOM     73  C   UNL A   1      44.545  22.556  25.453  1.00  0.00     0.198 A 
ATOM     74  F   UNL A   1      43.154  22.330  27.272  1.00  0.00    -0.203 F 
ATOM     75  F   UNL A   1      46.956  25.049  24.550  1.00  0.00    -0.200 F 
ATOM     76  C   UNL A   1      45.541  23.189  24.749  1.00  0.00     0.200 A 
ATOM     77  F   UNL A   1      44.082  21.375  25.017  1.00  0.00    -0.200 F 
ATOM     78  F   UNL A   1      46.075  22.634  23.652  1.00  0.00    -0.200 F 
ENDBRANCH  54  68
BRANCH  55  79
ATOM     79  C   UNL A   1      40.492  31.517  33.726  1.00  0.00     0.064 A 
ATOM     80  C   UNL A   1      39.384  30.921  34.432  1.00  0.00     0.173 A 
ATOM     81  C   UNL A   1      41.000  32.690  34.334  1.00  0.00     0.173 A 
ATOM     82  F   UNL A   1      38.831  29.794  33.952  1.00  0.00    -0.203 F 
ATOM     83  C   UNL A   1      39.079  31.254  35.768  1.00  0.00     0.198 A 
ATOM     84  C   UNL A   1      40.666  33.033  35.667  1.00  0.00     0.198 A 
ATOM     85  F   UNL A   1      42.036  33.328  33.772  1.00  0.00    -0.203 F 
ATOM     86  F   UNL A   1      38.258  30.472  36.490  1.00  0.00    -0.200 F 
ATOM     87  C   UNL A   1      39.762  32.275  36.400  1.00  0.00     0.200 A 
ATOM     88  F   UNL A   1      41.368  33.985  36.303  1.00  0.00    -0.200 F 
ATOM     89  F   UNL A   1      39.633  32.458  37.724  1.00  0.00    -0.200 F 
ENDBRANCH  55  79
BRANCH  67  90
ATOM     90  C   UNL A   1      44.757  25.002  34.315  1.00  0.00     0.064 A 
ATOM     91  C   UNL A   1      44.415  23.653  34.453  1.00  0.00     0.173 A 
ATOM     92  C   UNL A   1      45.915  25.375  35.080  1.00  0.00     0.173 A 
ATOM     93  F   UNL A   1      43.498  23.085  33.661  1.00  0.00    -0.203 F 
ATOM     94  C   UNL A   1      45.059  22.806  35.370  1.00  0.00     0.198 A 
ATOM     95  C   UNL A   1      46.540  24.543  36.002  1.00  0.00     0.198 A 
ATOM     96  F   UNL A   1      46.559  26.539  34.915  1.00  0.00    -0.203 F 
ATOM     97  F   UNL A   1      44.671  21.528  35.466  1.00  0.00    -0.200 F 
ATOM     98  C   UNL A   1      46.104  23.255  36.157  1.00  0.00     0.200 A 
ATOM     99  F   UNL A   1      47.593  24.997  36.699  1.00  0.00    -0.200 F 
ATOM    100  F   UNL A   1      46.725  22.434  37.013  1.00  0.00    -0.200 F 
ENDBRANCH  67  90
ENDBRANCH  41  42
ENDBRANCH  34  36
ENDBRANCH  33  34
ENDBRANCH  32  33
ENDBRANCH  31  32
ENDBRANCH  30  31
ENDBRANCH  29  30
ENDBRANCH  28  29
ENDBRANCH   1  28
TORSDOF 24
ENDMDL
MODEL 3
REMARK VINA RESULT:     -10.7      1.821      3.208
REMARK SMILES Cc1ccc(C[C@@H](Cc2cc(F)cc(Br)c2)C(=O)OCCOCCOCCOCCOC(=O)c2ccc(-c3c4nc(c(-c5c(F)c(F)c(F)c(F)c5F)c5ccc([nH]5)c(-c5c(F)c(F)c(F)c(F)c5F)c5nc(c(-c6c(F)c(F)c(F)c(F)c6F)c6ccc3[nH]6)C=C5)C=C4)cc2)cc1
REMARK SMILES IDX 25 1 24 2 23 3 22 4 21 5 20 6 19 7 17 8 18 9 7 10 6 11 5 12
REMARK SMILES IDX 1 13 2 14 3 15 98 16 4 17 97 18 8 19 9 20 10 21 16 22 11 23
REMARK SMILES IDX 14 24 12 25 13 26 15 27 26 28 27 29 28 30 29 31 30 32 31 33
REMARK SMILES IDX 32 34 33 35 34 36 35 37 96 38 36 39 95 40 37 41 38 42 39 43
REMARK SMILES IDX 89 44 40 45 94 46 88 47 90 48 41 49 93 50 87 51 86 52 42 54
REMARK SMILES IDX 74 55 54 56 73 57 55 58 58 59 72 60 91 61 56 62 57 63 71 65
REMARK SMILES IDX 92 66 59 67 43 68 44 69 52 70 45 71 46 72 50 73 53 74 47 75
REMARK SMILES IDX 48 76 51 77 49 78 75 79 76 80 84 81 77 82 78 83 82 84 85 85
REMARK SMILES IDX 79 86 80 87 83 88 81 89 60 90 61 91 69 92 62 93 63 94 67 95
REMARK SMILES IDX 70 96 64 97 65 98 68 99 66 100
REMARK H PARENT 90 53 58 64
REMARK Flexibility Score: inf
ROOT
ATOM      1  O   UNL A   1      30.724  29.899  24.504  1.00  0.00    -0.377 OA
ENDROOT
BRANCH   1   2
ATOM      2  C   UNL A   1      31.297  28.674  24.089  1.00  0.00     0.188 C 
BRANCH   2   3
ATOM      3  C   UNL A   1      30.528  27.750  23.131  1.00  0.00     0.188 C 
BRANCH   3   4
ATOM      4  O   UNL A   1      29.594  26.814  23.631  1.00  0.00    -0.376 OA
BRANCH   4   5
ATOM      5  C   UNL A   1      30.135  25.721  24.361  1.00  0.00     0.202 C 
BRANCH   5   6
ATOM      6  C   UNL A   1      30.703  24.511  23.584  1.00  0.00     0.261 C 
BRANCH   6   7
ATOM      7  O   UNL A   1      31.305  23.512  24.461  1.00  0.00    -0.463 OA
BRANCH   7   8
ATOM      8  C   UNL A   1      32.663  23.446  24.479  1.00  0.00     0.309 C 
ATOM      9  O   UNL A   1      33.385  24.359  24.087  1.00  0.00    -0.252 OA
BRANCH   8  10
ATOM     10  C   UNL A   1      33.247  22.120  25.003  1.00  0.00     0.108 C 
BRANCH  10  11
ATOM     11  C   UNL A   1      34.231  22.241  26.197  1.00  0.00     0.051 C 
BRANCH  11  12
ATOM     12  C   UNL A   1      35.637  22.230  25.627  1.00  0.00    -0.047 A 
ATOM     13  C   UNL A   1      39.817  21.522  25.992  1.00  0.00     0.044 C 
ATOM     14  C   UNL A   1      38.390  21.827  25.654  1.00  0.00    -0.051 A 
ATOM     15  C   UNL A   1      37.858  23.086  25.954  1.00  0.00     0.004 A 
ATOM     16  C   UNL A   1      37.548  20.821  25.173  1.00  0.00     0.004 A 
ATOM     17  C   UNL A   1      36.486  23.301  25.904  1.00  0.00     0.004 A 
ATOM     18  C   UNL A   1      36.173  21.027  25.148  1.00  0.00     0.004 A 
ENDBRANCH  11  12
ENDBRANCH  10  11
BRANCH  10  19
ATOM     19  C   UNL A   1      32.208  20.926  25.146  1.00  0.00     0.051 C 
BRANCH  19  20
ATOM     20  C   UNL A   1      32.377  19.738  24.239  1.00  0.00    -0.043 A 
ATOM     21  C   UNL A   1      32.113  19.654  22.863  1.00  0.00     0.043 A 
ATOM     22  C   UNL A   1      32.860  18.616  24.837  1.00  0.00     0.019 A 
ATOM     23  C   UNL A   1      32.507  18.519  22.124  1.00  0.00     0.124 A 
ATOM     24  C   UNL A   1      33.467  17.676  24.054  1.00  0.00     0.021 A 
ATOM     25  F   UNL A   1      32.227  18.427  20.818  1.00  0.00    -0.207 F 
ATOM     26  C   UNL A   1      33.278  17.540  22.705  1.00  0.00     0.055 A 
ATOM     27  Br  UNL A   1      34.894  17.030  24.969  1.00  0.00    -0.051 Br
ENDBRANCH  19  20
ENDBRANCH  10  19
ENDBRANCH   8  10
ENDBRANCH   7   8
ENDBRANCH   6   7
ENDBRANCH   5   6
ENDBRANCH   4   5
ENDBRANCH   3   4
ENDBRANCH   2   3
ENDBRANCH   1   2
BRANCH   1  28
ATOM     28  C   UNL A   1      31.236  30.544  25.667  1.00  0.00     0.188 C 
BRANCH  28  29
ATOM     29  C   UNL A   1      31.870  29.693  26.750  1.00  0.00     0.188 C 
BRANCH  29  30
ATOM     30  O   UNL A   1      33.109  30.324  27.065  1.00  0.00    -0.376 OA
BRANCH  30  31
ATOM     31  C   UNL A   1      33.055  31.730  27.250  1.00  0.00     0.202 C 
BRANCH  31  32
ATOM     32  C   UNL A   1      34.057  32.235  28.292  1.00  0.00     0.261 C 
BRANCH  32  33
ATOM     33  O   UNL A   1      34.924  31.145  28.664  1.00  0.00    -0.460 OA
BRANCH  33  34
ATOM     34  C   UNL A   1      36.260  31.425  28.629  1.00  0.00     0.338 C 
ATOM     35  O   UNL A   1      36.739  32.512  28.417  1.00  0.00    -0.246 OA
BRANCH  34  36
ATOM     36  C   UNL A   1      37.043  30.149  28.658  1.00  0.00     0.060 A 
ATOM     37  C   UNL A   1      37.043  29.356  29.815  1.00  0.00     0.016 A 
ATOM     38  C   UNL A   1      37.985  29.908  27.663  1.00  0.00     0.016 A 
ATOM     39  C   UNL A   1      38.070  28.425  30.034  1.00  0.00     0.010 A 
ATOM     40  C   UNL A   1      39.064  29.095  27.945  1.00  0.00     0.010 A 
ATOM     41  C   UNL A   1      39.147  28.362  29.140  1.00  0.00    -0.014 A 
BRANCH  41  42
ATOM     42  C   UNL A   1      40.503  27.849  29.471  1.00  0.00     0.031 A 
ATOM     43  C   UNL A   1      41.042  26.591  28.866  1.00  0.00     0.074 A 
ATOM     44  C   UNL A   1      41.331  28.808  29.924  1.00  0.00     0.049 A 
ATOM     45  N   UNL A   1      42.243  26.110  28.949  1.00  0.00    -0.248 NA
ATOM     46  C   UNL A   1      40.149  25.721  28.109  1.00  0.00     0.031 C 
ATOM     47  C   UNL A   1      42.666  29.161  29.503  1.00  0.00     0.029 A 
ATOM     48  N   UNL A   1      41.061  29.771  30.869  1.00  0.00    -0.354 N 
ATOM     49  C   UNL A   1      42.315  24.972  28.147  1.00  0.00     0.074 A 
ATOM     50  C   UNL A   1      40.996  24.836  27.587  1.00  0.00     0.031 C 
ATOM     51  C   UNL A   1      43.226  30.031  30.348  1.00  0.00     0.029 A 
ATOM     52  C   UNL A   1      42.274  30.235  31.367  1.00  0.00     0.049 A 
ATOM     53  H   UNL A   1      40.167  30.077  31.144  1.00  0.00     0.167 HD
ATOM     54  C   UNL A   1      43.466  24.237  28.034  1.00  0.00     0.037 A 
ATOM     55  C   UNL A   1      42.558  30.177  32.676  1.00  0.00     0.037 A 
ATOM     56  C   UNL A   1      44.375  24.454  29.183  1.00  0.00     0.049 A 
ATOM     57  C   UNL A   1      43.241  28.839  33.133  1.00  0.00     0.074 A 
ATOM     58  C   UNL A   1      45.733  24.671  29.327  1.00  0.00     0.029 A 
ATOM     59  N   UNL A   1      43.841  24.599  30.501  1.00  0.00    -0.354 N 
ATOM     60  N   UNL A   1      43.266  27.657  32.507  1.00  0.00    -0.248 NA
ATOM     61  C   UNL A   1      44.113  28.816  34.310  1.00  0.00     0.031 C 
ATOM     62  C   UNL A   1      46.005  24.965  30.684  1.00  0.00     0.029 A 
ATOM     63  C   UNL A   1      44.797  25.070  31.388  1.00  0.00     0.049 A 
ATOM     64  H   UNL A   1      42.910  24.391  30.747  1.00  0.00     0.167 HD
ATOM     65  C   UNL A   1      44.140  26.749  33.165  1.00  0.00     0.074 A 
ATOM     66  C   UNL A   1      44.629  27.573  34.278  1.00  0.00     0.031 C 
ATOM     67  C   UNL A   1      44.605  25.465  32.805  1.00  0.00     0.037 A 
BRANCH  54  68
ATOM     68  C   UNL A   1      43.824  23.362  26.791  1.00  0.00     0.064 A 
ATOM     69  C   UNL A   1      43.395  22.011  26.667  1.00  0.00     0.173 A 
ATOM     70  C   UNL A   1      44.631  23.758  25.702  1.00  0.00     0.173 A 
ATOM     71  F   UNL A   1      42.683  21.401  27.610  1.00  0.00    -0.203 F 
ATOM     72  C   UNL A   1      43.714  21.172  25.585  1.00  0.00     0.198 A 
ATOM     73  C   UNL A   1      45.007  22.899  24.648  1.00  0.00     0.198 A 
ATOM     74  F   UNL A   1      45.058  25.012  25.560  1.00  0.00    -0.203 F 
ATOM     75  F   UNL A   1      43.230  19.921  25.549  1.00  0.00    -0.200 F 
ATOM     76  C   UNL A   1      44.535  21.611  24.579  1.00  0.00     0.200 A 
ATOM     77  F   UNL A   1      45.827  23.351  23.687  1.00  0.00    -0.200 F 
ATOM     78  F   UNL A   1      44.859  20.808  23.556  1.00  0.00    -0.200 F 
ENDBRANCH  54  68
BRANCH  55  79
ATOM     79  C   UNL A   1      41.733  31.370  33.189  1.00  0.00     0.064 A 
ATOM     80  C   UNL A   1      42.072  32.599  32.514  1.00  0.00     0.173 A 
ATOM     81  C   UNL A   1      40.341  31.171  33.359  1.00  0.00     0.173 A 
ATOM     82  F   UNL A   1      43.366  32.885  32.285  1.00  0.00    -0.203 F 
ATOM     83  C   UNL A   1      41.123  33.338  31.778  1.00  0.00     0.198 A 
ATOM     84  C   UNL A   1      39.394  31.937  32.639  1.00  0.00     0.198 A 
ATOM     85  F   UNL A   1      39.905  30.060  33.967  1.00  0.00    -0.203 F 
ATOM     86  F   UNL A   1      41.525  34.287  30.915  1.00  0.00    -0.200 F 
ATOM     87  C   UNL A   1      39.792  32.970  31.800  1.00  0.00     0.200 A 
ATOM     88  F   UNL A   1      38.109  31.548  32.610  1.00  0.00    -0.200 F 
ATOM     89  F   UNL A   1      38.921  33.529  30.943  1.00  0.00    -0.200 F 
ENDBRANCH  55  79
BRANCH  67  90
ATOM     90  C   UNL A   1      45.342  24.469  33.755  1.00  0.00     0.064 A 
ATOM     91  C   UNL A   1      44.850  23.212  34.125  1.00  0.00     0.173 A 
ATOM     92  C   UNL A   1      46.669  24.724  34.244  1.00  0.00     0.173 A 
ATOM     93  F   UNL A   1      43.725  22.724  33.590  1.00  0.00    -0.203 F 
ATOM     94  C   UNL A   1      45.539  22.368  35.010  1.00  0.00     0.198 A 
ATOM     95  C   UNL A   1      47.342  23.898  35.137  1.00  0.00     0.198 A 
ATOM     96  F   UNL A   1      47.423  25.747  33.818  1.00  0.00    -0.203 F 
ATOM     97  F   UNL A   1      45.004  21.184  35.338  1.00  0.00    -0.200 F 
ATOM     98  C   UNL A   1      46.771  22.718  35.532  1.00  0.00     0.200 A 
ATOM     99  F   UNL A   1      48.565  24.243  35.569  1.00  0.00    -0.200 F 
ATOM    100  F   UNL A   1      47.429  21.897  36.360  1.00  0.00    -0.200 F 
ENDBRANCH  67  90
ENDBRANCH  41  42
ENDBRANCH  34  36
ENDBRANCH  33  34
ENDBRANCH  32  33
ENDBRANCH  31  32
ENDBRANCH  30  31
ENDBRANCH  29  30
ENDBRANCH  28  29
ENDBRANCH   1  28
TORSDOF 24
ENDMDL
