MODEL 1
REMARK VINA RESULT:     -10.8      0.000      0.000
REMARK SMILES Cc1cc(Br)cc2c1O[C@H](C(F)(F)F)C(C(=O)OCCOCCOCCOCCOC(=O)c1ccc(-c3c4nc(c(-c5c(F)c(F)c(F)c(F)c5F)c5ccc([nH]5)c(-c5c(F)c(F)c(F)c(F)c5F)c5nc(c(-c6c(F)c(F)c(F)c(F)c6F)c6ccc3[nH]6)C=C5)C=C4)cc1)=C2
REMARK SMILES IDX 25 1 24 2 23 3 22 4 21 5 20 6 19 7 18 8 16 9 17 10 15 11
REMARK SMILES IDX 1 12 2 13 3 14 8 15 4 16 7 17 9 18 5 19 6 20 96 21 10 22
REMARK SMILES IDX 11 23 12 24 13 25 14 26 26 27 27 28 28 29 29 30 30 31 31 32
REMARK SMILES IDX 32 33 33 34 34 35 95 36 35 37 94 38 36 39 37 40 38 41 88 42
REMARK SMILES IDX 39 43 93 44 87 45 89 46 40 47 92 48 86 49 85 50 41 52 73 53
REMARK SMILES IDX 53 54 72 55 54 56 57 57 71 58 90 59 55 60 56 61 70 63 91 64
REMARK SMILES IDX 58 65 42 66 43 67 51 68 44 69 45 70 49 71 52 72 46 73 47 74
REMARK SMILES IDX 50 75 48 76 74 77 75 78 83 79 76 80 77 81 81 82 84 83 78 84
REMARK SMILES IDX 79 85 82 86 80 87 59 88 60 89 68 90 61 91 62 92 66 93 69 94
REMARK SMILES IDX 63 95 64 96 67 97 65 98
REMARK H PARENT 89 51 57 62
REMARK Flexibility Score: inf
ROOT
ATOM      1  C   UNL A   1      33.024  35.777  29.646  1.00  0.00     0.188 C 
ENDROOT
BRANCH   1   2
ATOM      2  O   UNL A   1      32.657  34.487  29.152  1.00  0.00    -0.377 OA
BRANCH   2   3
ATOM      3  C   UNL A   1      33.491  33.884  28.176  1.00  0.00     0.188 C 
BRANCH   3   4
ATOM      4  C   UNL A   1      34.238  32.639  28.691  1.00  0.00     0.188 C 
BRANCH   4   5
ATOM      5  O   UNL A   1      34.351  31.614  27.707  1.00  0.00    -0.376 OA
BRANCH   5   6
ATOM      6  C   UNL A   1      35.051  30.432  28.071  1.00  0.00     0.202 C 
BRANCH   6   7
ATOM      7  C   UNL A   1      35.140  29.315  27.020  1.00  0.00     0.261 C 
BRANCH   7   8
ATOM      8  O   UNL A   1      33.889  28.706  26.665  1.00  0.00    -0.460 OA
BRANCH   8   9
ATOM      9  C   UNL A   1      33.779  28.178  25.431  1.00  0.00     0.338 C 
ATOM     10  O   UNL A   1      34.069  28.718  24.379  1.00  0.00    -0.246 OA
BRANCH   9  11
ATOM     11  C   UNL A   1      33.392  26.757  25.578  1.00  0.00     0.087 C 
ATOM     12  C   UNL A   1      30.848  22.339  26.010  1.00  0.00     0.048 C 
ATOM     13  C   UNL A   1      32.289  22.730  25.832  1.00  0.00    -0.007 A 
ATOM     14  C   UNL A   1      33.261  21.742  25.623  1.00  0.00     0.023 A 
ATOM     15  C   UNL A   1      32.671  24.083  25.814  1.00  0.00     0.130 A 
ATOM     16  C   UNL A   1      34.591  22.104  25.414  1.00  0.00     0.019 A 
ATOM     17  C   UNL A   1      33.998  24.441  25.552  1.00  0.00     0.019 A 
ATOM     18  O   UNL A   1      31.681  24.999  26.040  1.00  0.00    -0.475 OA
ATOM     19  Br  UNL A   1      35.893  20.761  25.134  1.00  0.00    -0.051 Br
ATOM     20  C   UNL A   1      34.965  23.446  25.378  1.00  0.00     0.027 A 
ATOM     21  C   UNL A   1      34.352  25.842  25.395  1.00  0.00     0.027 C 
ATOM     22  C   UNL A   1      31.985  26.418  25.999  1.00  0.00     0.316 C 
BRANCH  22  23
ATOM     23  C   UNL A   1      30.926  27.087  25.111  1.00  0.00     0.430 C 
ATOM     24  F   UNL A   1      31.225  26.939  23.797  1.00  0.00    -0.167 F 
ATOM     25  F   UNL A   1      29.695  26.553  25.287  1.00  0.00    -0.167 F 
ATOM     26  F   UNL A   1      30.829  28.413  25.357  1.00  0.00    -0.167 F 
ENDBRANCH  22  23
ENDBRANCH   9  11
ENDBRANCH   8   9
ENDBRANCH   7   8
ENDBRANCH   6   7
ENDBRANCH   5   6
ENDBRANCH   4   5
ENDBRANCH   3   4
ENDBRANCH   2   3
ENDBRANCH   1   2
BRANCH   1  27
ATOM     27  C   UNL A   1      33.430  36.019  31.121  1.00  0.00     0.188 C 
BRANCH  27  28
ATOM     28  O   UNL A   1      32.775  35.169  32.055  1.00  0.00    -0.376 OA
BRANCH  28  29
ATOM     29  C   UNL A   1      33.601  34.344  32.863  1.00  0.00     0.202 C 
BRANCH  29  30
ATOM     30  C   UNL A   1      35.085  34.385  32.480  1.00  0.00     0.261 C 
BRANCH  30  31
ATOM     31  O   UNL A   1      35.645  33.126  32.078  1.00  0.00    -0.460 OA
BRANCH  31  32
ATOM     32  C   UNL A   1      36.474  32.505  32.947  1.00  0.00     0.338 C 
ATOM     33  O   UNL A   1      36.341  32.399  34.154  1.00  0.00    -0.246 OA
BRANCH  32  34
ATOM     34  C   UNL A   1      37.491  31.798  32.148  1.00  0.00     0.060 A 
ATOM     35  C   UNL A   1      38.527  31.122  32.804  1.00  0.00     0.016 A 
ATOM     36  C   UNL A   1      37.396  31.772  30.754  1.00  0.00     0.016 A 
ATOM     37  C   UNL A   1      39.484  30.431  32.061  1.00  0.00     0.010 A 
ATOM     38  C   UNL A   1      38.364  31.097  30.011  1.00  0.00     0.010 A 
ATOM     39  C   UNL A   1      39.425  30.443  30.660  1.00  0.00    -0.014 A 
BRANCH  39  40
ATOM     40  C   UNL A   1      40.568  29.927  29.872  1.00  0.00     0.031 A 
ATOM     41  C   UNL A   1      41.738  30.839  29.636  1.00  0.00     0.074 A 
ATOM     42  C   UNL A   1      40.580  28.671  29.396  1.00  0.00     0.049 A 
ATOM     43  N   UNL A   1      42.855  30.609  28.995  1.00  0.00    -0.248 NA
ATOM     44  C   UNL A   1      41.638  32.195  30.205  1.00  0.00     0.031 C 
ATOM     45  C   UNL A   1      39.518  27.685  29.585  1.00  0.00     0.029 A 
ATOM     46  N   UNL A   1      41.528  28.007  28.655  1.00  0.00    -0.354 N 
ATOM     47  C   UNL A   1      43.593  31.780  29.099  1.00  0.00     0.074 A 
ATOM     48  C   UNL A   1      42.784  32.736  29.822  1.00  0.00     0.031 C 
ATOM     49  C   UNL A   1      39.875  26.540  28.980  1.00  0.00     0.029 A 
ATOM     50  C   UNL A   1      41.180  26.717  28.341  1.00  0.00     0.049 A 
ATOM     51  H   UNL A   1      42.377  28.419  28.374  1.00  0.00     0.167 HD
ATOM     52  C   UNL A   1      44.846  32.028  28.652  1.00  0.00     0.037 A 
ATOM     53  C   UNL A   1      41.841  25.790  27.619  1.00  0.00     0.037 A 
ATOM     54  C   UNL A   1      45.644  31.083  27.921  1.00  0.00     0.049 A 
ATOM     55  C   UNL A   1      43.194  26.126  27.042  1.00  0.00     0.074 A 
ATOM     56  C   UNL A   1      46.925  31.242  27.425  1.00  0.00     0.029 A 
ATOM     57  N   UNL A   1      45.233  29.804  27.576  1.00  0.00    -0.354 N 
ATOM     58  N   UNL A   1      43.902  27.221  27.177  1.00  0.00    -0.248 NA
ATOM     59  C   UNL A   1      43.842  25.097  26.214  1.00  0.00     0.031 C 
ATOM     60  C   UNL A   1      47.272  30.078  26.735  1.00  0.00     0.029 A 
ATOM     61  C   UNL A   1      46.229  29.173  26.849  1.00  0.00     0.049 A 
ATOM     62  H   UNL A   1      44.365  29.405  27.812  1.00  0.00     0.167 HD
ATOM     63  C   UNL A   1      45.085  27.002  26.483  1.00  0.00     0.074 A 
ATOM     64  C   UNL A   1      45.005  25.668  25.928  1.00  0.00     0.031 C 
ATOM     65  C   UNL A   1      46.143  27.835  26.322  1.00  0.00     0.037 A 
BRANCH  52  66
ATOM     66  C   UNL A   1      45.433  33.376  28.939  1.00  0.00     0.064 A 
ATOM     67  C   UNL A   1      45.341  34.423  28.009  1.00  0.00     0.173 A 
ATOM     68  C   UNL A   1      46.035  33.645  30.176  1.00  0.00     0.173 A 
ATOM     69  F   UNL A   1      44.787  34.211  26.806  1.00  0.00    -0.203 F 
ATOM     70  C   UNL A   1      45.843  35.687  28.305  1.00  0.00     0.198 A 
ATOM     71  C   UNL A   1      46.512  34.917  30.479  1.00  0.00     0.198 A 
ATOM     72  F   UNL A   1      46.145  32.678  31.099  1.00  0.00    -0.203 F 
ATOM     73  F   UNL A   1      45.774  36.663  27.389  1.00  0.00    -0.200 F 
ATOM     74  C   UNL A   1      46.418  35.936  29.542  1.00  0.00     0.200 A 
ATOM     75  F   UNL A   1      47.056  35.159  31.679  1.00  0.00    -0.200 F 
ATOM     76  F   UNL A   1      46.886  37.158  29.831  1.00  0.00    -0.200 F 
ENDBRANCH  52  66
BRANCH  53  77
ATOM     77  C   UNL A   1      41.244  24.443  27.415  1.00  0.00     0.064 A 
ATOM     78  C   UNL A   1      40.135  24.267  26.576  1.00  0.00     0.173 A 
ATOM     79  C   UNL A   1      41.765  23.308  28.054  1.00  0.00     0.173 A 
ATOM     80  F   UNL A   1      39.584  25.327  25.965  1.00  0.00    -0.203 F 
ATOM     81  C   UNL A   1      39.565  23.010  26.389  1.00  0.00     0.198 A 
ATOM     82  C   UNL A   1      41.209  22.046  27.846  1.00  0.00     0.198 A 
ATOM     83  F   UNL A   1      42.820  23.423  28.872  1.00  0.00    -0.203 F 
ATOM     84  F   UNL A   1      38.482  22.876  25.611  1.00  0.00    -0.200 F 
ATOM     85  C   UNL A   1      40.106  21.898  27.019  1.00  0.00     0.200 A 
ATOM     86  F   UNL A   1      41.740  20.975  28.451  1.00  0.00    -0.200 F 
ATOM     87  F   UNL A   1      39.561  20.689  26.833  1.00  0.00    -0.200 F 
ENDBRANCH  53  77
BRANCH  65  88
ATOM     88  C   UNL A   1      47.327  27.337  25.545  1.00  0.00     0.064 A 
ATOM     89  C   UNL A   1      47.459  27.589  24.173  1.00  0.00     0.173 A 
ATOM     90  C   UNL A   1      48.399  26.719  26.209  1.00  0.00     0.173 A 
ATOM     91  F   UNL A   1      46.459  28.169  23.493  1.00  0.00    -0.203 F 
ATOM     92  C   UNL A   1      48.624  27.243  23.493  1.00  0.00     0.198 A 
ATOM     93  C   UNL A   1      49.572  26.399  25.531  1.00  0.00     0.198 A 
ATOM     94  F   UNL A   1      48.324  26.467  27.525  1.00  0.00    -0.203 F 
ATOM     95  F   UNL A   1      48.727  27.481  22.178  1.00  0.00    -0.200 F 
ATOM     96  C   UNL A   1      49.684  26.662  24.176  1.00  0.00     0.200 A 
ATOM     97  F   UNL A   1      50.601  25.857  26.197  1.00  0.00    -0.200 F 
ATOM     98  F   UNL A   1      50.816  26.360  23.525  1.00  0.00    -0.200 F 
ENDBRANCH  65  88
ENDBRANCH  39  40
ENDBRANCH  32  34
ENDBRANCH  31  32
ENDBRANCH  30  31
ENDBRANCH  29  30
ENDBRANCH  28  29
ENDBRANCH  27  28
ENDBRANCH   1  27
TORSDOF 21
ENDMDL
MODEL 2
REMARK VINA RESULT:     -10.4      5.224      8.049
REMARK SMILES Cc1cc(Br)cc2c1O[C@H](C(F)(F)F)C(C(=O)OCCOCCOCCOCCOC(=O)c1ccc(-c3c4nc(c(-c5c(F)c(F)c(F)c(F)c5F)c5ccc([nH]5)c(-c5c(F)c(F)c(F)c(F)c5F)c5nc(c(-c6c(F)c(F)c(F)c(F)c6F)c6ccc3[nH]6)C=C5)C=C4)cc1)=C2
REMARK SMILES IDX 25 1 24 2 23 3 22 4 21 5 20 6 19 7 18 8 16 9 17 10 15 11
REMARK SMILES IDX 1 12 2 13 3 14 8 15 4 16 7 17 9 18 5 19 6 20 96 21 10 22
REMARK SMILES IDX 11 23 12 24 13 25 14 26 26 27 27 28 28 29 29 30 30 31 31 32
REMARK SMILES IDX 32 33 33 34 34 35 95 36 35 37 94 38 36 39 37 40 38 41 88 42
REMARK SMILES IDX 39 43 93 44 87 45 89 46 40 47 92 48 86 49 85 50 41 52 73 53
REMARK SMILES IDX 53 54 72 55 54 56 57 57 71 58 90 59 55 60 56 61 70 63 91 64
REMARK SMILES IDX 58 65 42 66 43 67 51 68 44 69 45 70 49 71 52 72 46 73 47 74
REMARK SMILES IDX 50 75 48 76 74 77 75 78 83 79 76 80 77 81 81 82 84 83 78 84
REMARK SMILES IDX 79 85 82 86 80 87 59 88 60 89 68 90 61 91 62 92 66 93 69 94
REMARK SMILES IDX 63 95 64 96 67 97 65 98
REMARK H PARENT 89 51 57 62
REMARK Flexibility Score: inf
ROOT
ATOM      1  C   UNL A   1      34.880  33.251  27.687  1.00  0.00     0.188 C 
ENDROOT
BRANCH   1   2
ATOM      2  O   UNL A   1      35.596  32.042  27.949  1.00  0.00    -0.377 OA
BRANCH   2   3
ATOM      3  C   UNL A   1      34.863  30.829  27.993  1.00  0.00     0.188 C 
BRANCH   3   4
ATOM      4  C   UNL A   1      33.520  30.894  27.240  1.00  0.00     0.188 C 
BRANCH   4   5
ATOM      5  O   UNL A   1      33.001  29.605  26.918  1.00  0.00    -0.376 OA
BRANCH   5   6
ATOM      6  C   UNL A   1      33.831  28.482  27.179  1.00  0.00     0.202 C 
BRANCH   6   7
ATOM      7  C   UNL A   1      33.955  27.426  26.071  1.00  0.00     0.261 C 
BRANCH   7   8
ATOM      8  O   UNL A   1      33.536  27.854  24.766  1.00  0.00    -0.460 OA
BRANCH   8   9
ATOM      9  C   UNL A   1      32.977  26.936  23.956  1.00  0.00     0.338 C 
ATOM     10  O   UNL A   1      33.470  25.879  23.602  1.00  0.00    -0.246 OA
BRANCH   9  11
ATOM     11  C   UNL A   1      31.582  27.353  23.689  1.00  0.00     0.087 C 
ATOM     12  C   UNL A   1      26.499  27.929  23.709  1.00  0.00     0.048 C 
ATOM     13  C   UNL A   1      27.652  28.637  23.055  1.00  0.00    -0.007 A 
ATOM     14  C   UNL A   1      27.429  29.814  22.327  1.00  0.00     0.023 A 
ATOM     15  C   UNL A   1      28.968  28.167  23.212  1.00  0.00     0.130 A 
ATOM     16  C   UNL A   1      28.502  30.497  21.756  1.00  0.00     0.019 A 
ATOM     17  C   UNL A   1      30.045  28.886  22.680  1.00  0.00     0.019 A 
ATOM     18  O   UNL A   1      29.121  27.007  23.918  1.00  0.00    -0.475 OA
ATOM     19  Br  UNL A   1      28.186  32.083  20.775  1.00  0.00    -0.051 Br
ATOM     20  C   UNL A   1      29.807  30.040  21.927  1.00  0.00     0.027 A 
ATOM     21  C   UNL A   1      31.407  28.468  22.969  1.00  0.00     0.027 C 
ATOM     22  C   UNL A   1      30.451  26.475  24.159  1.00  0.00     0.316 C 
BRANCH  22  23
ATOM     23  C   UNL A   1      30.545  26.140  25.654  1.00  0.00     0.430 C 
ATOM     24  F   UNL A   1      30.848  27.241  26.384  1.00  0.00    -0.167 F 
ATOM     25  F   UNL A   1      29.381  25.660  26.149  1.00  0.00    -0.167 F 
ATOM     26  F   UNL A   1      31.500  25.215  25.902  1.00  0.00    -0.167 F 
ENDBRANCH  22  23
ENDBRANCH   9  11
ENDBRANCH   8   9
ENDBRANCH   7   8
ENDBRANCH   6   7
ENDBRANCH   5   6
ENDBRANCH   4   5
ENDBRANCH   3   4
ENDBRANCH   2   3
ENDBRANCH   1   2
BRANCH   1  27
ATOM     27  C   UNL A   1      35.033  34.517  28.565  1.00  0.00     0.188 C 
BRANCH  27  28
ATOM     28  O   UNL A   1      34.387  35.673  28.043  1.00  0.00    -0.376 OA
BRANCH  28  29
ATOM     29  C   UNL A   1      33.901  36.617  28.985  1.00  0.00     0.202 C 
BRANCH  29  30
ATOM     30  C   UNL A   1      32.540  36.250  29.587  1.00  0.00     0.261 C 
BRANCH  30  31
ATOM     31  O   UNL A   1      32.570  35.194  30.560  1.00  0.00    -0.460 OA
BRANCH  31  32
ATOM     32  C   UNL A   1      32.731  35.541  31.856  1.00  0.00     0.338 C 
ATOM     33  O   UNL A   1      31.949  36.152  32.564  1.00  0.00    -0.246 OA
BRANCH  32  34
ATOM     34  C   UNL A   1      33.957  34.877  32.335  1.00  0.00     0.060 A 
ATOM     35  C   UNL A   1      35.192  35.513  32.156  1.00  0.00     0.016 A 
ATOM     36  C   UNL A   1      33.879  33.648  32.994  1.00  0.00     0.016 A 
ATOM     37  C   UNL A   1      36.358  34.906  32.623  1.00  0.00     0.010 A 
ATOM     38  C   UNL A   1      35.047  33.033  33.445  1.00  0.00     0.010 A 
ATOM     39  C   UNL A   1      36.294  33.648  33.240  1.00  0.00    -0.014 A 
BRANCH  39  40
ATOM     40  C   UNL A   1      37.542  32.897  33.508  1.00  0.00     0.031 A 
ATOM     41  C   UNL A   1      38.282  33.181  34.784  1.00  0.00     0.074 A 
ATOM     42  C   UNL A   1      37.996  31.966  32.652  1.00  0.00     0.049 A 
ATOM     43  N   UNL A   1      39.381  32.641  35.245  1.00  0.00    -0.248 NA
ATOM     44  C   UNL A   1      37.702  34.211  35.663  1.00  0.00     0.031 C 
ATOM     45  C   UNL A   1      37.349  31.583  31.399  1.00  0.00     0.029 A 
ATOM     46  N   UNL A   1      39.113  31.168  32.713  1.00  0.00    -0.354 N 
ATOM     47  C   UNL A   1      39.611  33.251  36.470  1.00  0.00     0.074 A 
ATOM     48  C   UNL A   1      38.569  34.234  36.663  1.00  0.00     0.031 C 
ATOM     49  C   UNL A   1      38.079  30.619  30.811  1.00  0.00     0.029 A 
ATOM     50  C   UNL A   1      39.255  30.333  31.633  1.00  0.00     0.049 A 
ATOM     51  H   UNL A   1      39.753  31.194  33.462  1.00  0.00     0.167 HD
ATOM     52  C   UNL A   1      40.593  32.996  37.365  1.00  0.00     0.037 A 
ATOM     53  C   UNL A   1      40.226  29.443  31.345  1.00  0.00     0.037 A 
ATOM     54  C   UNL A   1      41.637  32.029  37.167  1.00  0.00     0.049 A 
ATOM     55  C   UNL A   1      41.367  29.250  32.314  1.00  0.00     0.074 A 
ATOM     56  C   UNL A   1      42.677  31.700  38.017  1.00  0.00     0.029 A 
ATOM     57  N   UNL A   1      41.776  31.241  36.034  1.00  0.00    -0.354 N 
ATOM     58  N   UNL A   1      41.558  29.803  33.487  1.00  0.00    -0.248 NA
ATOM     59  C   UNL A   1      42.427  28.310  31.919  1.00  0.00     0.031 C 
ATOM     60  C   UNL A   1      43.476  30.749  37.378  1.00  0.00     0.029 A 
ATOM     61  C   UNL A   1      42.903  30.445  36.153  1.00  0.00     0.049 A 
ATOM     62  H   UNL A   1      41.166  31.247  35.261  1.00  0.00     0.167 HD
ATOM     63  C   UNL A   1      42.735  29.256  33.983  1.00  0.00     0.074 A 
ATOM     64  C   UNL A   1      43.216  28.324  32.986  1.00  0.00     0.031 C 
ATOM     65  C   UNL A   1      43.358  29.506  35.160  1.00  0.00     0.037 A 
BRANCH  52  66
ATOM     66  C   UNL A   1      40.586  33.776  38.645  1.00  0.00     0.064 A 
ATOM     67  C   UNL A   1      39.780  33.393  39.727  1.00  0.00     0.173 A 
ATOM     68  C   UNL A   1      41.438  34.877  38.815  1.00  0.00     0.173 A 
ATOM     69  F   UNL A   1      38.938  32.355  39.607  1.00  0.00    -0.203 F 
ATOM     70  C   UNL A   1      39.818  34.092  40.929  1.00  0.00     0.198 A 
ATOM     71  C   UNL A   1      41.494  35.557  40.028  1.00  0.00     0.198 A 
ATOM     72  F   UNL A   1      42.230  35.282  37.811  1.00  0.00    -0.203 F 
ATOM     73  F   UNL A   1      39.016  33.728  41.939  1.00  0.00    -0.200 F 
ATOM     74  C   UNL A   1      40.682  35.166  41.083  1.00  0.00     0.200 A 
ATOM     75  F   UNL A   1      42.337  36.587  40.179  1.00  0.00    -0.200 F 
ATOM     76  F   UNL A   1      40.729  35.828  42.247  1.00  0.00    -0.200 F 
ENDBRANCH  52  66
BRANCH  53  77
ATOM     77  C   UNL A   1      40.154  28.647  30.091  1.00  0.00     0.064 A 
ATOM     78  C   UNL A   1      40.716  29.127  28.901  1.00  0.00     0.173 A 
ATOM     79  C   UNL A   1      39.523  27.394  30.056  1.00  0.00     0.173 A 
ATOM     80  F   UNL A   1      41.306  30.331  28.878  1.00  0.00    -0.203 F 
ATOM     81  C   UNL A   1      40.643  28.390  27.720  1.00  0.00     0.198 A 
ATOM     82  C   UNL A   1      39.473  26.646  28.880  1.00  0.00     0.198 A 
ATOM     83  F   UNL A   1      38.964  26.892  31.166  1.00  0.00    -0.203 F 
ATOM     84  F   UNL A   1      41.156  28.889  26.588  1.00  0.00    -0.200 F 
ATOM     85  C   UNL A   1      40.028  27.146  27.712  1.00  0.00     0.200 A 
ATOM     86  F   UNL A   1      38.884  25.442  28.879  1.00  0.00    -0.200 F 
ATOM     87  F   UNL A   1      39.964  26.436  26.579  1.00  0.00    -0.200 F 
ENDBRANCH  53  77
BRANCH  65  88
ATOM     88  C   UNL A   1      44.614  28.747  35.474  1.00  0.00     0.064 A 
ATOM     89  C   UNL A   1      45.879  29.281  35.196  1.00  0.00     0.173 A 
ATOM     90  C   UNL A   1      44.551  27.533  36.179  1.00  0.00     0.173 A 
ATOM     91  F   UNL A   1      45.992  30.432  34.518  1.00  0.00    -0.203 F 
ATOM     92  C   UNL A   1      47.037  28.631  35.616  1.00  0.00     0.198 A 
ATOM     93  C   UNL A   1      45.709  26.900  36.619  1.00  0.00     0.198 A 
ATOM     94  F   UNL A   1      43.362  26.987  36.478  1.00  0.00    -0.203 F 
ATOM     95  F   UNL A   1      48.238  29.151  35.330  1.00  0.00    -0.200 F 
ATOM     96  C   UNL A   1      46.950  27.449  36.339  1.00  0.00     0.200 A 
ATOM     97  F   UNL A   1      45.621  25.770  37.335  1.00  0.00    -0.200 F 
ATOM     98  F   UNL A   1      48.064  26.842  36.769  1.00  0.00    -0.200 F 
ENDBRANCH  65  88
ENDBRANCH  39  40
ENDBRANCH  32  34
ENDBRANCH  31  32
ENDBRANCH  30  31
ENDBRANCH  29  30
ENDBRANCH  28  29
ENDBRANCH  27  28
ENDBRANCH   1  27
TORSDOF 21
ENDMDL
MODEL 3
REMARK VINA RESULT:     -10.2      4.884      7.531
REMARK SMILES Cc1cc(Br)cc2c1O[C@H](C(F)(F)F)C(C(=O)OCCOCCOCCOCCOC(=O)c1ccc(-c3c4nc(c(-c5c(F)c(F)c(F)c(F)c5F)c5ccc([nH]5)c(-c5c(F)c(F)c(F)c(F)c5F)c5nc(c(-c6c(F)c(F)c(F)c(F)c6F)c6ccc3[nH]6)C=C5)C=C4)cc1)=C2
REMARK SMILES IDX 25 1 24 2 23 3 22 4 21 5 20 6 19 7 18 8 16 9 17 10 15 11
REMARK SMILES IDX 1 12 2 13 3 14 8 15 4 16 7 17 9 18 5 19 6 20 96 21 10 22
REMARK SMILES IDX 11 23 12 24 13 25 14 26 26 27 27 28 28 29 29 30 30 31 31 32
REMARK SMILES IDX 32 33 33 34 34 35 95 36 35 37 94 38 36 39 37 40 38 41 88 42
REMARK SMILES IDX 39 43 93 44 87 45 89 46 40 47 92 48 86 49 85 50 41 52 73 53
REMARK SMILES IDX 53 54 72 55 54 56 57 57 71 58 90 59 55 60 56 61 70 63 91 64
REMARK SMILES IDX 58 65 42 66 43 67 51 68 44 69 45 70 49 71 52 72 46 73 47 74
REMARK SMILES IDX 50 75 48 76 74 77 75 78 83 79 76 80 77 81 81 82 84 83 78 84
REMARK SMILES IDX 79 85 82 86 80 87 59 88 60 89 68 90 61 91 62 92 66 93 69 94
REMARK SMILES IDX 63 95 64 96 67 97 65 98
REMARK H PARENT 89 51 57 62
REMARK Flexibility Score: inf
ROOT
ATOM      1  C   UNL A   1      33.859  32.135  27.837  1.00  0.00     0.188 C 
ENDROOT
BRANCH   1   2
ATOM      2  O   UNL A   1      32.476  32.228  27.488  1.00  0.00    -0.377 OA
BRANCH   2   3
ATOM      3  C   UNL A   1      31.974  31.333  26.508  1.00  0.00     0.188 C 
BRANCH   3   4
ATOM      4  C   UNL A   1      32.316  29.858  26.790  1.00  0.00     0.188 C 
BRANCH   4   5
ATOM      5  O   UNL A   1      31.617  28.953  25.938  1.00  0.00    -0.376 OA
BRANCH   5   6
ATOM      6  C   UNL A   1      31.144  29.456  24.696  1.00  0.00     0.202 C 
BRANCH   6   7
ATOM      7  C   UNL A   1      31.870  28.991  23.425  1.00  0.00     0.261 C 
BRANCH   7   8
ATOM      8  O   UNL A   1      32.770  27.887  23.602  1.00  0.00    -0.460 OA
BRANCH   8   9
ATOM      9  C   UNL A   1      32.382  26.683  23.139  1.00  0.00     0.338 C 
ATOM     10  O   UNL A   1      31.864  26.449  22.061  1.00  0.00    -0.246 OA
BRANCH   9  11
ATOM     11  C   UNL A   1      32.839  25.656  24.102  1.00  0.00     0.087 C 
ATOM     12  C   UNL A   1      33.228  22.284  27.928  1.00  0.00     0.048 C 
ATOM     13  C   UNL A   1      34.063  22.643  26.732  1.00  0.00    -0.007 A 
ATOM     14  C   UNL A   1      35.198  21.883  26.417  1.00  0.00     0.023 A 
ATOM     15  C   UNL A   1      33.689  23.700  25.883  1.00  0.00     0.130 A 
ATOM     16  C   UNL A   1      35.950  22.186  25.282  1.00  0.00     0.019 A 
ATOM     17  C   UNL A   1      34.418  23.966  24.719  1.00  0.00     0.019 A 
ATOM     18  O   UNL A   1      32.583  24.414  26.252  1.00  0.00    -0.475 OA
ATOM     19  Br  UNL A   1      37.480  21.154  24.870  1.00  0.00    -0.051 Br
ATOM     20  C   UNL A   1      35.568  23.223  24.434  1.00  0.00     0.027 A 
ATOM     21  C   UNL A   1      33.941  24.967  23.779  1.00  0.00     0.027 C 
ATOM     22  C   UNL A   1      32.107  25.498  25.409  1.00  0.00     0.316 C 
BRANCH  22  23
ATOM     23  C   UNL A   1      30.597  25.300  25.219  1.00  0.00     0.430 C 
ATOM     24  F   UNL A   1      30.340  24.424  24.217  1.00  0.00    -0.167 F 
ATOM     25  F   UNL A   1      30.000  24.801  26.327  1.00  0.00    -0.167 F 
ATOM     26  F   UNL A   1      29.973  26.460  24.914  1.00  0.00    -0.167 F 
ENDBRANCH  22  23
ENDBRANCH   9  11
ENDBRANCH   8   9
ENDBRANCH   7   8
ENDBRANCH   6   7
ENDBRANCH   5   6
ENDBRANCH   4   5
ENDBRANCH   3   4
ENDBRANCH   2   3
ENDBRANCH   1   2
BRANCH   1  27
ATOM     27  C   UNL A   1      34.429  32.732  29.147  1.00  0.00     0.188 C 
BRANCH  27  28
ATOM     28  O   UNL A   1      35.034  34.010  28.993  1.00  0.00    -0.376 OA
BRANCH  28  29
ATOM     29  C   UNL A   1      34.177  35.092  28.662  1.00  0.00     0.202 C 
BRANCH  29  30
ATOM     30  C   UNL A   1      32.936  35.198  29.557  1.00  0.00     0.261 C 
BRANCH  30  31
ATOM     31  O   UNL A   1      33.089  36.035  30.713  1.00  0.00    -0.460 OA
BRANCH  31  32
ATOM     32  C   UNL A   1      32.815  35.491  31.920  1.00  0.00     0.338 C 
ATOM     33  O   UNL A   1      31.730  35.412  32.470  1.00  0.00    -0.246 OA
BRANCH  32  34
ATOM     34  C   UNL A   1      34.045  34.826  32.387  1.00  0.00     0.060 A 
ATOM     35  C   UNL A   1      35.272  35.487  32.251  1.00  0.00     0.016 A 
ATOM     36  C   UNL A   1      33.978  33.569  32.992  1.00  0.00     0.016 A 
ATOM     37  C   UNL A   1      36.442  34.878  32.707  1.00  0.00     0.010 A 
ATOM     38  C   UNL A   1      35.150  32.953  33.431  1.00  0.00     0.010 A 
ATOM     39  C   UNL A   1      36.389  33.595  33.269  1.00  0.00    -0.014 A 
BRANCH  39  40
ATOM     40  C   UNL A   1      37.645  32.851  33.522  1.00  0.00     0.031 A 
ATOM     41  C   UNL A   1      38.387  33.124  34.799  1.00  0.00     0.074 A 
ATOM     42  C   UNL A   1      38.105  31.938  32.651  1.00  0.00     0.049 A 
ATOM     43  N   UNL A   1      39.493  32.588  35.248  1.00  0.00    -0.248 NA
ATOM     44  C   UNL A   1      37.800  34.135  35.695  1.00  0.00     0.031 C 
ATOM     45  C   UNL A   1      37.458  31.567  31.394  1.00  0.00     0.029 A 
ATOM     46  N   UNL A   1      39.230  31.150  32.696  1.00  0.00    -0.354 N 
ATOM     47  C   UNL A   1      39.722  33.181  36.481  1.00  0.00     0.074 A 
ATOM     48  C   UNL A   1      38.671  34.152  36.693  1.00  0.00     0.031 C 
ATOM     49  C   UNL A   1      38.194  30.619  30.789  1.00  0.00     0.029 A 
ATOM     50  C   UNL A   1      39.376  30.332  31.602  1.00  0.00     0.049 A 
ATOM     51  H   UNL A   1      39.872  31.171  33.442  1.00  0.00     0.167 HD
ATOM     52  C   UNL A   1      40.709  32.923  37.370  1.00  0.00     0.037 A 
ATOM     53  C   UNL A   1      40.354  29.456  31.298  1.00  0.00     0.037 A 
ATOM     54  C   UNL A   1      41.761  31.969  37.153  1.00  0.00     0.049 A 
ATOM     55  C   UNL A   1      41.500  29.260  32.260  1.00  0.00     0.074 A 
ATOM     56  C   UNL A   1      42.808  31.637  37.994  1.00  0.00     0.029 A 
ATOM     57  N   UNL A   1      41.904  31.199  36.008  1.00  0.00    -0.354 N 
ATOM     58  N   UNL A   1      41.690  29.797  33.441  1.00  0.00    -0.248 NA
ATOM     59  C   UNL A   1      42.568  28.336  31.847  1.00  0.00     0.031 C 
ATOM     60  C   UNL A   1      43.613  30.703  37.339  1.00  0.00     0.029 A 
ATOM     61  C   UNL A   1      43.039  30.412  36.111  1.00  0.00     0.049 A 
ATOM     62  H   UNL A   1      41.291  31.211  35.237  1.00  0.00     0.167 HD
ATOM     63  C   UNL A   1      42.874  29.254  33.924  1.00  0.00     0.074 A 
ATOM     64  C   UNL A   1      43.361  28.342  32.912  1.00  0.00     0.031 C 
ATOM     65  C   UNL A   1      43.499  29.492  35.103  1.00  0.00     0.037 A 
BRANCH  52  66
ATOM     66  C   UNL A   1      40.700  33.683  38.661  1.00  0.00     0.064 A 
ATOM     67  C   UNL A   1      39.889  33.285  39.734  1.00  0.00     0.173 A 
ATOM     68  C   UNL A   1      41.553  34.781  38.850  1.00  0.00     0.173 A 
ATOM     69  F   UNL A   1      39.046  32.250  39.596  1.00  0.00    -0.203 F 
ATOM     70  C   UNL A   1      39.925  33.966  40.947  1.00  0.00     0.198 A 
ATOM     71  C   UNL A   1      41.605  35.442  40.073  1.00  0.00     0.198 A 
ATOM     72  F   UNL A   1      42.348  35.198  37.855  1.00  0.00    -0.203 F 
ATOM     73  F   UNL A   1      39.119  33.588  41.949  1.00  0.00    -0.200 F 
ATOM     74  C   UNL A   1      40.790  35.036  41.120  1.00  0.00     0.200 A 
ATOM     75  F   UNL A   1      42.450  36.468  40.242  1.00  0.00    -0.200 F 
ATOM     76  F   UNL A   1      40.834  35.681  42.294  1.00  0.00    -0.200 F 
ENDBRANCH  52  66
BRANCH  53  77
ATOM     77  C   UNL A   1      40.285  28.678  30.033  1.00  0.00     0.064 A 
ATOM     78  C   UNL A   1      40.870  29.165  28.856  1.00  0.00     0.173 A 
ATOM     79  C   UNL A   1      39.634  27.436  29.973  1.00  0.00     0.173 A 
ATOM     80  F   UNL A   1      41.479  30.359  28.857  1.00  0.00    -0.203 F 
ATOM     81  C   UNL A   1      40.800  28.445  27.665  1.00  0.00     0.198 A 
ATOM     82  C   UNL A   1      39.588  26.705  28.786  1.00  0.00     0.198 A 
ATOM     83  F   UNL A   1      39.053  26.929  31.068  1.00  0.00    -0.203 F 
ATOM     84  F   UNL A   1      41.335  28.951  26.546  1.00  0.00    -0.200 F 
ATOM     85  C   UNL A   1      40.165  27.212  27.632  1.00  0.00     0.200 A 
ATOM     86  F   UNL A   1      38.979  25.511  28.762  1.00  0.00    -0.200 F 
ATOM     87  F   UNL A   1      40.104  26.518  26.489  1.00  0.00    -0.200 F 
ENDBRANCH  53  77
BRANCH  65  88
ATOM     88  C   UNL A   1      44.764  28.740  35.401  1.00  0.00     0.064 A 
ATOM     89  C   UNL A   1      44.738  27.479  36.012  1.00  0.00     0.173 A 
ATOM     90  C   UNL A   1      46.000  29.229  34.948  1.00  0.00     0.173 A 
ATOM     91  F   UNL A   1      43.583  26.974  36.468  1.00  0.00    -0.203 F 
ATOM     92  C   UNL A   1      45.904  26.733  36.157  1.00  0.00     0.198 A 
ATOM     93  C   UNL A   1      47.159  28.468  35.072  1.00  0.00     0.198 A 
ATOM     94  F   UNL A   1      46.074  30.426  34.346  1.00  0.00    -0.203 F 
ATOM     95  F   UNL A   1      45.861  25.535  36.756  1.00  0.00    -0.200 F 
ATOM     96  C   UNL A   1      47.110  27.222  35.674  1.00  0.00     0.200 A 
ATOM     97  F   UNL A   1      48.318  28.934  34.586  1.00  0.00    -0.200 F 
ATOM     98  F   UNL A   1      48.225  26.487  35.787  1.00  0.00    -0.200 F 
ENDBRANCH  65  88
ENDBRANCH  39  40
ENDBRANCH  32  34
ENDBRANCH  31  32
ENDBRANCH  30  31
ENDBRANCH  29  30
ENDBRANCH  28  29
ENDBRANCH  27  28
ENDBRANCH   1  27
TORSDOF 21
ENDMDL
