MODEL 1
REMARK VINA RESULT:     -10.5      0.000      0.000
REMARK SMILES Nc1nc2ccccc2nc1N1CCC(C(=O)OCCOCCOCCOCCOC(=O)c2ccc(-c3c4nc(c(-c5c(F)c(F)c(F)c(F)c5F)c5ccc([nH]5)c(-c5c(F)c(F)c(F)c(F)c5F)c5nc(c(-c6c(F)c(F)c(F)c(F)c6F)c6ccc3[nH]6)C=C5)C=C4)cc2)CC1
REMARK SMILES IDX 24 1 23 2 22 3 21 4 20 5 19 6 18 7 16 8 17 9 15 10 12 11
REMARK SMILES IDX 13 12 97 13 14 14 96 15 11 16 2 17 3 18 4 19 10 20 5 21 9 22
REMARK SMILES IDX 6 23 8 24 7 25 1 26 25 29 26 30 27 31 28 32 29 33 30 34
REMARK SMILES IDX 31 35 32 36 33 37 34 38 95 39 35 40 94 41 36 42 37 43 38 44
REMARK SMILES IDX 88 45 39 46 93 47 87 48 89 49 40 50 92 51 86 52 85 53 41 55
REMARK SMILES IDX 73 56 53 57 72 58 54 59 57 60 71 61 90 62 55 63 56 64 70 66
REMARK SMILES IDX 91 67 58 68 42 69 43 70 51 71 44 72 45 73 49 74 52 75 46 76
REMARK SMILES IDX 47 77 50 78 48 79 74 80 75 81 83 82 76 83 77 84 81 85 84 86
REMARK SMILES IDX 78 87 79 88 82 89 80 90 59 91 60 92 68 93 61 94 62 95 66 96
REMARK SMILES IDX 69 97 63 98 64 99 67 100 65 101
REMARK H PARENT 1 27 1 28 89 54 57 65
REMARK Flexibility Score: inf
ROOT
ATOM      1  O   UNL A   1      34.701  30.027  27.224  1.00  0.00    -0.377 OA
ENDROOT
BRANCH   1   2
ATOM      2  C   UNL A   1      33.919  28.973  26.698  1.00  0.00     0.188 C 
BRANCH   2   3
ATOM      3  C   UNL A   1      33.397  29.200  25.274  1.00  0.00     0.188 C 
BRANCH   3   4
ATOM      4  O   UNL A   1      34.011  28.552  24.169  1.00  0.00    -0.376 OA
BRANCH   4   5
ATOM      5  C   UNL A   1      33.344  28.472  22.916  1.00  0.00     0.202 C 
BRANCH   5   6
ATOM      6  C   UNL A   1      31.978  29.144  22.701  1.00  0.00     0.261 C 
BRANCH   6   7
ATOM      7  O   UNL A   1      30.918  28.290  22.226  1.00  0.00    -0.463 OA
BRANCH   7   8
ATOM      8  C   UNL A   1      29.973  27.969  23.137  1.00  0.00     0.309 C 
ATOM      9  O   UNL A   1      29.125  28.751  23.561  1.00  0.00    -0.252 OA
BRANCH   8  10
ATOM     10  C   UNL A   1      30.044  26.548  23.657  1.00  0.00     0.103 C 
ATOM     11  N   UNL A   1      31.015  24.107  24.775  1.00  0.00    -0.353 N 
ATOM     12  C   UNL A   1      30.410  24.088  23.454  1.00  0.00     0.119 C 
ATOM     13  C   UNL A   1      30.715  25.217  25.675  1.00  0.00     0.119 C 
ATOM     14  C   UNL A   1      30.580  25.434  22.752  1.00  0.00     0.037 C 
ATOM     15  C   UNL A   1      30.864  26.552  24.950  1.00  0.00     0.037 C 
BRANCH  11  16
ATOM     16  C   UNL A   1      32.232  23.452  24.938  1.00  0.00     0.172 A 
ATOM     17  C   UNL A   1      32.407  22.502  25.980  1.00  0.00     0.167 A 
ATOM     18  N   UNL A   1      33.561  21.835  26.163  1.00  0.00    -0.226 NA
ATOM     19  C   UNL A   1      34.544  22.090  25.284  1.00  0.00     0.091 A 
ATOM     20  N   UNL A   1      33.221  23.683  24.045  1.00  0.00    -0.225 NA
ATOM     21  C   UNL A   1      35.754  21.424  25.416  1.00  0.00     0.031 A 
ATOM     22  C   UNL A   1      34.376  23.014  24.224  1.00  0.00     0.091 A 
ATOM     23  C   UNL A   1      36.810  21.653  24.533  1.00  0.00     0.002 A 
ATOM     24  C   UNL A   1      35.436  23.235  23.351  1.00  0.00     0.031 A 
ATOM     25  C   UNL A   1      36.652  22.565  23.498  1.00  0.00     0.002 A 
BRANCH  17  26
ATOM     26  N   UNL A   1      31.383  22.204  26.874  1.00  0.00    -0.381 N 
ATOM     27  H   UNL A   1      30.447  22.198  26.565  1.00  0.00     0.158 HD
ATOM     28  H   UNL A   1      31.592  21.999  27.812  1.00  0.00     0.158 HD
ENDBRANCH  17  26
ENDBRANCH  11  16
ENDBRANCH   8  10
ENDBRANCH   7   8
ENDBRANCH   6   7
ENDBRANCH   5   6
ENDBRANCH   4   5
ENDBRANCH   3   4
ENDBRANCH   2   3
ENDBRANCH   1   2
BRANCH   1  29
ATOM     29  C   UNL A   1      34.006  31.189  27.666  1.00  0.00     0.188 C 
BRANCH  29  30
ATOM     30  C   UNL A   1      34.808  32.266  28.417  1.00  0.00     0.188 C 
BRANCH  30  31
ATOM     31  O   UNL A   1      34.025  33.000  29.354  1.00  0.00    -0.376 OA
BRANCH  31  32
ATOM     32  C   UNL A   1      34.691  33.542  30.491  1.00  0.00     0.202 C 
BRANCH  32  33
ATOM     33  C   UNL A   1      34.556  32.750  31.802  1.00  0.00     0.261 C 
BRANCH  33  34
ATOM     34  O   UNL A   1      35.529  31.713  32.027  1.00  0.00    -0.460 OA
BRANCH  34  35
ATOM     35  C   UNL A   1      36.558  31.948  32.867  1.00  0.00     0.338 C 
ATOM     36  O   UNL A   1      36.502  32.188  34.059  1.00  0.00    -0.246 OA
BRANCH  35  37
ATOM     37  C   UNL A   1      37.807  31.650  32.131  1.00  0.00     0.060 A 
ATOM     38  C   UNL A   1      38.938  31.176  32.800  1.00  0.00     0.016 A 
ATOM     39  C   UNL A   1      37.844  31.872  30.749  1.00  0.00     0.016 A 
ATOM     40  C   UNL A   1      40.095  30.881  32.075  1.00  0.00     0.010 A 
ATOM     41  C   UNL A   1      39.005  31.587  30.027  1.00  0.00     0.010 A 
ATOM     42  C   UNL A   1      40.128  31.059  30.681  1.00  0.00    -0.014 A 
BRANCH  42  43
ATOM     43  C   UNL A   1      41.253  30.498  29.893  1.00  0.00     0.031 A 
ATOM     44  C   UNL A   1      41.258  29.087  29.393  1.00  0.00     0.074 A 
ATOM     45  C   UNL A   1      42.301  31.306  29.649  1.00  0.00     0.049 A 
ATOM     46  N   UNL A   1      42.141  28.495  28.627  1.00  0.00    -0.248 NA
ATOM     47  C   UNL A   1      40.142  28.226  29.805  1.00  0.00     0.031 C 
ATOM     48  C   UNL A   1      42.419  32.686  30.123  1.00  0.00     0.029 A 
ATOM     49  N   UNL A   1      43.458  31.094  28.944  1.00  0.00    -0.354 N 
ATOM     50  C   UNL A   1      41.679  27.200  28.443  1.00  0.00     0.074 A 
ATOM     51  C   UNL A   1      40.459  27.079  29.217  1.00  0.00     0.031 C 
ATOM     52  C   UNL A   1      43.571  33.205  29.678  1.00  0.00     0.029 A 
ATOM     53  C   UNL A   1      44.281  32.192  28.904  1.00  0.00     0.049 A 
ATOM     54  H   UNL A   1      43.677  30.239  28.508  1.00  0.00     0.167 HD
ATOM     55  C   UNL A   1      42.217  26.217  27.681  1.00  0.00     0.037 A 
ATOM     56  C   UNL A   1      45.474  32.368  28.304  1.00  0.00     0.037 A 
ATOM     57  C   UNL A   1      43.443  26.344  26.929  1.00  0.00     0.049 A 
ATOM     58  C   UNL A   1      46.065  31.248  27.498  1.00  0.00     0.074 A 
ATOM     59  C   UNL A   1      44.038  25.416  26.089  1.00  0.00     0.029 A 
ATOM     60  N   UNL A   1      44.269  27.458  26.936  1.00  0.00    -0.354 N 
ATOM     61  N   UNL A   1      45.572  30.058  27.255  1.00  0.00    -0.248 NA
ATOM     62  C   UNL A   1      47.372  31.496  26.877  1.00  0.00     0.031 C 
ATOM     63  C   UNL A   1      45.248  25.946  25.634  1.00  0.00     0.029 A 
ATOM     64  C   UNL A   1      45.384  27.227  26.144  1.00  0.00     0.049 A 
ATOM     65  H   UNL A   1      44.092  28.289  27.432  1.00  0.00     0.167 HD
ATOM     66  C   UNL A   1      46.497  29.423  26.439  1.00  0.00     0.074 A 
ATOM     67  C   UNL A   1      47.571  30.366  26.211  1.00  0.00     0.031 C 
ATOM     68  C   UNL A   1      46.455  28.168  25.927  1.00  0.00     0.037 A 
BRANCH  55  69
ATOM     69  C   UNL A   1      41.485  24.908  27.597  1.00  0.00     0.064 A 
ATOM     70  C   UNL A   1      40.297  24.787  26.860  1.00  0.00     0.173 A 
ATOM     71  C   UNL A   1      42.028  23.743  28.160  1.00  0.00     0.173 A 
ATOM     72  F   UNL A   1      39.737  25.870  26.299  1.00  0.00    -0.203 F 
ATOM     73  C   UNL A   1      39.674  23.552  26.701  1.00  0.00     0.198 A 
ATOM     74  C   UNL A   1      41.416  22.506  27.979  1.00  0.00     0.198 A 
ATOM     75  F   UNL A   1      43.171  23.801  28.862  1.00  0.00    -0.203 F 
ATOM     76  F   UNL A   1      38.529  23.465  26.010  1.00  0.00    -0.200 F 
ATOM     77  C   UNL A   1      40.239  22.412  27.251  1.00  0.00     0.200 A 
ATOM     78  F   UNL A   1      41.974  21.401  28.494  1.00  0.00    -0.200 F 
ATOM     79  F   UNL A   1      39.651  21.220  27.077  1.00  0.00    -0.200 F 
ENDBRANCH  55  69
BRANCH  56  80
ATOM     80  C   UNL A   1      46.154  33.682  28.412  1.00  0.00     0.064 A 
ATOM     81  C   UNL A   1      47.013  33.959  29.484  1.00  0.00     0.173 A 
ATOM     82  C   UNL A   1      45.993  34.671  27.429  1.00  0.00     0.173 A 
ATOM     83  F   UNL A   1      47.185  33.049  30.454  1.00  0.00    -0.203 F 
ATOM     84  C   UNL A   1      47.680  35.178  29.575  1.00  0.00     0.198 A 
ATOM     85  C   UNL A   1      46.681  35.879  27.507  1.00  0.00     0.198 A 
ATOM     86  F   UNL A   1      45.189  34.450  26.380  1.00  0.00    -0.203 F 
ATOM     87  F   UNL A   1      48.472  35.429  30.625  1.00  0.00    -0.200 F 
ATOM     88  C   UNL A   1      47.521  36.134  28.581  1.00  0.00     0.200 A 
ATOM     89  F   UNL A   1      46.539  36.792  26.537  1.00  0.00    -0.200 F 
ATOM     90  F   UNL A   1      48.173  37.301  28.662  1.00  0.00    -0.200 F 
ENDBRANCH  56  80
BRANCH  68  91
ATOM     91  C   UNL A   1      47.604  27.735  25.063  1.00  0.00     0.064 A 
ATOM     92  C   UNL A   1      47.543  27.823  23.665  1.00  0.00     0.173 A 
ATOM     93  C   UNL A   1      48.801  27.284  25.641  1.00  0.00     0.173 A 
ATOM     94  F   UNL A   1      46.415  28.232  23.064  1.00  0.00    -0.203 F 
ATOM     95  C   UNL A   1      48.631  27.461  22.876  1.00  0.00     0.198 A 
ATOM     96  C   UNL A   1      49.897  26.951  24.850  1.00  0.00     0.198 A 
ATOM     97  F   UNL A   1      48.914  27.185  26.974  1.00  0.00    -0.203 F 
ATOM     98  F   UNL A   1      48.537  27.518  21.540  1.00  0.00    -0.200 F 
ATOM     99  C   UNL A   1      49.811  27.036  23.469  1.00  0.00     0.200 A 
ATOM    100  F   UNL A   1      51.041  26.553  25.426  1.00  0.00    -0.200 F 
ATOM    101  F   UNL A   1      50.863  26.703  22.709  1.00  0.00    -0.200 F 
ENDBRANCH  68  91
ENDBRANCH  42  43
ENDBRANCH  35  37
ENDBRANCH  34  35
ENDBRANCH  33  34
ENDBRANCH  32  33
ENDBRANCH  31  32
ENDBRANCH  30  31
ENDBRANCH  29  30
ENDBRANCH   1  29
TORSDOF 22
ENDMDL
MODEL 2
REMARK VINA RESULT:     -10.5      4.782      9.287
REMARK SMILES Nc1nc2ccccc2nc1N1CCC(C(=O)OCCOCCOCCOCCOC(=O)c2ccc(-c3c4nc(c(-c5c(F)c(F)c(F)c(F)c5F)c5ccc([nH]5)c(-c5c(F)c(F)c(F)c(F)c5F)c5nc(c(-c6c(F)c(F)c(F)c(F)c6F)c6ccc3[nH]6)C=C5)C=C4)cc2)CC1
REMARK SMILES IDX 24 1 23 2 22 3 21 4 20 5 19 6 18 7 16 8 17 9 15 10 12 11
REMARK SMILES IDX 13 12 97 13 14 14 96 15 11 16 2 17 3 18 4 19 10 20 5 21 9 22
REMARK SMILES IDX 6 23 8 24 7 25 1 26 25 29 26 30 27 31 28 32 29 33 30 34
REMARK SMILES IDX 31 35 32 36 33 37 34 38 95 39 35 40 94 41 36 42 37 43 38 44
REMARK SMILES IDX 88 45 39 46 93 47 87 48 89 49 40 50 92 51 86 52 85 53 41 55
REMARK SMILES IDX 73 56 53 57 72 58 54 59 57 60 71 61 90 62 55 63 56 64 70 66
REMARK SMILES IDX 91 67 58 68 42 69 43 70 51 71 44 72 45 73 49 74 52 75 46 76
REMARK SMILES IDX 47 77 50 78 48 79 74 80 75 81 83 82 76 83 77 84 81 85 84 86
REMARK SMILES IDX 78 87 79 88 82 89 80 90 59 91 60 92 68 93 61 94 62 95 66 96
REMARK SMILES IDX 69 97 63 98 64 99 67 100 65 101
REMARK H PARENT 1 27 1 28 89 54 57 65
REMARK Flexibility Score: inf
ROOT
ATOM      1  O   UNL A   1      31.002  29.302  24.892  1.00  0.00    -0.377 OA
ENDROOT
BRANCH   1   2
ATOM      2  C   UNL A   1      30.258  29.481  23.703  1.00  0.00     0.188 C 
BRANCH   2   3
ATOM      3  C   UNL A   1      30.952  28.997  22.424  1.00  0.00     0.188 C 
BRANCH   3   4
ATOM      4  O   UNL A   1      30.794  27.656  21.981  1.00  0.00    -0.376 OA
BRANCH   4   5
ATOM      5  C   UNL A   1      30.502  26.618  22.907  1.00  0.00     0.202 C 
BRANCH   5   6
ATOM      6  C   UNL A   1      31.462  25.432  23.096  1.00  0.00     0.261 C 
BRANCH   6   7
ATOM      7  O   UNL A   1      32.179  25.390  24.346  1.00  0.00    -0.463 OA
BRANCH   7   8
ATOM      8  C   UNL A   1      33.474  25.775  24.290  1.00  0.00     0.309 C 
ATOM      9  O   UNL A   1      33.852  26.885  23.923  1.00  0.00    -0.252 OA
BRANCH   8  10
ATOM     10  C   UNL A   1      34.474  24.706  24.682  1.00  0.00     0.103 C 
ATOM     11  N   UNL A   1      35.818  22.200  24.932  1.00  0.00    -0.353 N 
ATOM     12  C   UNL A   1      35.384  22.892  26.134  1.00  0.00     0.119 C 
ATOM     13  C   UNL A   1      35.984  22.961  23.697  1.00  0.00     0.119 C 
ATOM     14  C   UNL A   1      34.165  23.769  25.853  1.00  0.00     0.037 C 
ATOM     15  C   UNL A   1      34.769  23.851  23.447  1.00  0.00     0.037 C 
BRANCH  11  16
ATOM     16  C   UNL A   1      35.517  20.846  24.822  1.00  0.00     0.172 A 
ATOM     17  C   UNL A   1      36.550  19.871  24.851  1.00  0.00     0.167 A 
ATOM     18  N   UNL A   1      36.302  18.552  24.765  1.00  0.00    -0.226 NA
ATOM     19  C   UNL A   1      35.010  18.192  24.678  1.00  0.00     0.091 A 
ATOM     20  N   UNL A   1      34.219  20.470  24.758  1.00  0.00    -0.225 NA
ATOM     21  C   UNL A   1      34.692  16.844  24.596  1.00  0.00     0.031 A 
ATOM     22  C   UNL A   1      33.967  19.150  24.673  1.00  0.00     0.091 A 
ATOM     23  C   UNL A   1      33.369  16.414  24.501  1.00  0.00     0.002 A 
ATOM     24  C   UNL A   1      32.652  18.710  24.577  1.00  0.00     0.031 A 
ATOM     25  C   UNL A   1      32.344  17.351  24.487  1.00  0.00     0.002 A 
BRANCH  17  26
ATOM     26  N   UNL A   1      37.889  20.232  24.979  1.00  0.00    -0.381 N 
ATOM     27  H   UNL A   1      38.218  21.059  24.556  1.00  0.00     0.158 HD
ATOM     28  H   UNL A   1      38.505  19.662  25.491  1.00  0.00     0.158 HD
ENDBRANCH  17  26
ENDBRANCH  11  16
ENDBRANCH   8  10
ENDBRANCH   7   8
ENDBRANCH   6   7
ENDBRANCH   5   6
ENDBRANCH   4   5
ENDBRANCH   3   4
ENDBRANCH   2   3
ENDBRANCH   1   2
BRANCH   1  29
ATOM     29  C   UNL A   1      32.401  29.561  24.824  1.00  0.00     0.188 C 
BRANCH  29  30
ATOM     30  C   UNL A   1      33.108  30.039  26.104  1.00  0.00     0.188 C 
BRANCH  30  31
ATOM     31  O   UNL A   1      32.210  30.532  27.093  1.00  0.00    -0.376 OA
BRANCH  31  32
ATOM     32  C   UNL A   1      31.999  31.940  27.153  1.00  0.00     0.202 C 
BRANCH  32  33
ATOM     33  C   UNL A   1      33.065  32.757  27.903  1.00  0.00     0.261 C 
BRANCH  33  34
ATOM     34  O   UNL A   1      33.048  34.181  27.688  1.00  0.00    -0.460 OA
BRANCH  34  35
ATOM     35  C   UNL A   1      33.207  35.007  28.743  1.00  0.00     0.338 C 
ATOM     36  O   UNL A   1      32.445  35.877  29.124  1.00  0.00    -0.246 OA
BRANCH  35  37
ATOM     37  C   UNL A   1      34.384  34.532  29.504  1.00  0.00     0.060 A 
ATOM     38  C   UNL A   1      34.246  34.039  30.804  1.00  0.00     0.016 A 
ATOM     39  C   UNL A   1      35.648  34.606  28.906  1.00  0.00     0.016 A 
ATOM     40  C   UNL A   1      35.372  33.576  31.489  1.00  0.00     0.010 A 
ATOM     41  C   UNL A   1      36.774  34.153  29.596  1.00  0.00     0.010 A 
ATOM     42  C   UNL A   1      36.639  33.605  30.880  1.00  0.00    -0.014 A 
BRANCH  42  43
ATOM     43  C   UNL A   1      37.771  32.874  31.501  1.00  0.00     0.031 A 
ATOM     44  C   UNL A   1      38.316  33.232  32.848  1.00  0.00     0.074 A 
ATOM     45  C   UNL A   1      38.318  31.866  30.797  1.00  0.00     0.049 A 
ATOM     46  N   UNL A   1      39.249  32.626  33.540  1.00  0.00    -0.248 NA
ATOM     47  C   UNL A   1      37.756  34.422  33.502  1.00  0.00     0.031 C 
ATOM     48  C   UNL A   1      37.892  31.457  29.457  1.00  0.00     0.029 A 
ATOM     49  N   UNL A   1      39.338  31.002  31.102  1.00  0.00    -0.354 N 
ATOM     50  C   UNL A   1      39.373  33.342  34.722  1.00  0.00     0.074 A 
ATOM     51  C   UNL A   1      38.451  34.457  34.633  1.00  0.00     0.031 C 
ATOM     52  C   UNL A   1      38.628  30.408  29.065  1.00  0.00     0.029 A 
ATOM     53  C   UNL A   1      39.588  30.082  30.114  1.00  0.00     0.049 A 
ATOM     54  H   UNL A   1      39.841  31.037  31.948  1.00  0.00     0.167 HD
ATOM     55  C   UNL A   1      40.170  33.074  35.786  1.00  0.00     0.037 A 
ATOM     56  C   UNL A   1      40.487  29.080  30.060  1.00  0.00     0.037 A 
ATOM     57  C   UNL A   1      41.097  31.970  35.856  1.00  0.00     0.049 A 
ATOM     58  C   UNL A   1      41.383  28.832  31.239  1.00  0.00     0.074 A 
ATOM     59  C   UNL A   1      41.909  31.593  36.914  1.00  0.00     0.029 A 
ATOM     60  N   UNL A   1      41.350  31.077  34.824  1.00  0.00    -0.354 N 
ATOM     61  N   UNL A   1      41.426  29.459  32.388  1.00  0.00    -0.248 NA
ATOM     62  C   UNL A   1      42.349  27.733  31.116  1.00  0.00     0.031 C 
ATOM     63  C   UNL A   1      42.691  30.509  36.504  1.00  0.00     0.029 A 
ATOM     64  C   UNL A   1      42.328  30.172  35.210  1.00  0.00     0.049 A 
ATOM     65  H   UNL A   1      40.902  31.085  33.948  1.00  0.00     0.167 HD
ATOM     66  C   UNL A   1      42.408  28.821  33.133  1.00  0.00     0.074 A 
ATOM     67  C   UNL A   1      42.922  27.744  32.312  1.00  0.00     0.031 C 
ATOM     68  C   UNL A   1      42.842  29.106  34.385  1.00  0.00     0.037 A 
BRANCH  55  69
ATOM     69  C   UNL A   1      40.074  33.975  36.983  1.00  0.00     0.064 A 
ATOM     70  C   UNL A   1      40.821  35.160  37.062  1.00  0.00     0.173 A 
ATOM     71  C   UNL A   1      39.151  33.714  38.007  1.00  0.00     0.173 A 
ATOM     72  F   UNL A   1      41.716  35.459  36.108  1.00  0.00    -0.203 F 
ATOM     73  C   UNL A   1      40.656  36.043  38.127  1.00  0.00     0.198 A 
ATOM     74  C   UNL A   1      38.970  34.610  39.057  1.00  0.00     0.198 A 
ATOM     75  F   UNL A   1      38.401  32.601  37.973  1.00  0.00    -0.203 F 
ATOM     76  F   UNL A   1      41.395  37.159  38.189  1.00  0.00    -0.200 F 
ATOM     77  C   UNL A   1      39.724  35.773  39.117  1.00  0.00     0.200 A 
ATOM     78  F   UNL A   1      38.055  34.358  40.004  1.00  0.00    -0.200 F 
ATOM     79  F   UNL A   1      39.549  36.635  40.128  1.00  0.00    -0.200 F 
ENDBRANCH  55  69
BRANCH  56  80
ATOM     80  C   UNL A   1      40.537  28.214  28.857  1.00  0.00     0.064 A 
ATOM     81  C   UNL A   1      39.797  27.026  28.797  1.00  0.00     0.173 A 
ATOM     82  C   UNL A   1      41.291  28.574  27.730  1.00  0.00     0.173 A 
ATOM     83  F   UNL A   1      39.074  26.635  29.856  1.00  0.00    -0.203 F 
ATOM     84  C   UNL A   1      39.815  26.225  27.657  1.00  0.00     0.198 A 
ATOM     85  C   UNL A   1      41.287  27.787  26.581  1.00  0.00     0.198 A 
ATOM     86  F   UNL A   1      42.009  29.707  27.736  1.00  0.00    -0.203 F 
ATOM     87  F   UNL A   1      39.122  25.079  27.637  1.00  0.00    -0.200 F 
ATOM     88  C   UNL A   1      40.552  26.610  26.548  1.00  0.00     0.200 A 
ATOM     89  F   UNL A   1      41.986  28.171  25.505  1.00  0.00    -0.200 F 
ATOM     90  F   UNL A   1      40.558  25.847  25.447  1.00  0.00    -0.200 F 
ENDBRANCH  56  80
BRANCH  68  91
ATOM     91  C   UNL A   1      43.928  28.241  34.955  1.00  0.00     0.064 A 
ATOM     92  C   UNL A   1      43.636  27.043  35.622  1.00  0.00     0.173 A 
ATOM     93  C   UNL A   1      45.279  28.582  34.780  1.00  0.00     0.173 A 
ATOM     94  F   UNL A   1      42.361  26.680  35.829  1.00  0.00    -0.203 F 
ATOM     95  C   UNL A   1      44.654  26.226  36.106  1.00  0.00     0.198 A 
ATOM     96  C   UNL A   1      46.293  27.748  35.239  1.00  0.00     0.198 A 
ATOM     97  F   UNL A   1      45.613  29.716  34.145  1.00  0.00    -0.203 F 
ATOM     98  F   UNL A   1      44.350  25.103  36.773  1.00  0.00    -0.200 F 
ATOM     99  C   UNL A   1      45.981  26.573  35.905  1.00  0.00     0.200 A 
ATOM    100  F   UNL A   1      47.576  28.080  35.032  1.00  0.00    -0.200 F 
ATOM    101  F   UNL A   1      46.960  25.778  36.358  1.00  0.00    -0.200 F 
ENDBRANCH  68  91
ENDBRANCH  42  43
ENDBRANCH  35  37
ENDBRANCH  34  35
ENDBRANCH  33  34
ENDBRANCH  32  33
ENDBRANCH  31  32
ENDBRANCH  30  31
ENDBRANCH  29  30
ENDBRANCH   1  29
TORSDOF 22
ENDMDL
MODEL 3
REMARK VINA RESULT:     -10.5      3.690      9.570
REMARK SMILES Nc1nc2ccccc2nc1N1CCC(C(=O)OCCOCCOCCOCCOC(=O)c2ccc(-c3c4nc(c(-c5c(F)c(F)c(F)c(F)c5F)c5ccc([nH]5)c(-c5c(F)c(F)c(F)c(F)c5F)c5nc(c(-c6c(F)c(F)c(F)c(F)c6F)c6ccc3[nH]6)C=C5)C=C4)cc2)CC1
REMARK SMILES IDX 24 1 23 2 22 3 21 4 20 5 19 6 18 7 16 8 17 9 15 10 12 11
REMARK SMILES IDX 13 12 97 13 14 14 96 15 11 16 2 17 3 18 4 19 10 20 5 21 9 22
REMARK SMILES IDX 6 23 8 24 7 25 1 26 25 29 26 30 27 31 28 32 29 33 30 34
REMARK SMILES IDX 31 35 32 36 33 37 34 38 95 39 35 40 94 41 36 42 37 43 38 44
REMARK SMILES IDX 88 45 39 46 93 47 87 48 89 49 40 50 92 51 86 52 85 53 41 55
REMARK SMILES IDX 73 56 53 57 72 58 54 59 57 60 71 61 90 62 55 63 56 64 70 66
REMARK SMILES IDX 91 67 58 68 42 69 43 70 51 71 44 72 45 73 49 74 52 75 46 76
REMARK SMILES IDX 47 77 50 78 48 79 74 80 75 81 83 82 76 83 77 84 81 85 84 86
REMARK SMILES IDX 78 87 79 88 82 89 80 90 59 91 60 92 68 93 61 94 62 95 66 96
REMARK SMILES IDX 69 97 63 98 64 99 67 100 65 101
REMARK H PARENT 1 27 1 28 89 54 57 65
REMARK Flexibility Score: inf
ROOT
ATOM      1  O   UNL A   1      33.442  25.756  23.081  1.00  0.00    -0.377 OA
ENDROOT
BRANCH   1   2
ATOM      2  C   UNL A   1      32.422  26.599  23.579  1.00  0.00     0.188 C 
BRANCH   2   3
ATOM      3  C   UNL A   1      32.501  28.058  23.116  1.00  0.00     0.188 C 
BRANCH   3   4
ATOM      4  O   UNL A   1      33.263  29.008  23.848  1.00  0.00    -0.376 OA
BRANCH   4   5
ATOM      5  C   UNL A   1      32.915  29.337  25.187  1.00  0.00     0.202 C 
BRANCH   5   6
ATOM      6  C   UNL A   1      33.773  28.857  26.368  1.00  0.00     0.261 C 
BRANCH   6   7
ATOM      7  O   UNL A   1      35.077  29.460  26.492  1.00  0.00    -0.463 OA
BRANCH   7   8
ATOM      8  C   UNL A   1      35.284  30.181  27.616  1.00  0.00     0.309 C 
ATOM      9  O   UNL A   1      35.839  29.748  28.624  1.00  0.00    -0.252 OA
BRANCH   8  10
ATOM     10  C   UNL A   1      34.738  31.593  27.579  1.00  0.00     0.103 C 
ATOM     11  N   UNL A   1      34.070  34.270  28.310  1.00  0.00    -0.353 N 
ATOM     12  C   UNL A   1      33.006  33.352  27.943  1.00  0.00     0.119 C 
ATOM     13  C   UNL A   1      35.434  33.986  27.873  1.00  0.00     0.119 C 
ATOM     14  C   UNL A   1      33.397  31.908  28.248  1.00  0.00     0.037 C 
ATOM     15  C   UNL A   1      35.798  32.532  28.162  1.00  0.00     0.037 C 
BRANCH  11  16
ATOM     16  C   UNL A   1      33.906  35.019  29.472  1.00  0.00     0.172 A 
ATOM     17  C   UNL A   1      33.207  36.255  29.443  1.00  0.00     0.167 A 
ATOM     18  N   UNL A   1      33.012  37.001  30.545  1.00  0.00    -0.226 NA
ATOM     19  C   UNL A   1      33.490  36.501  31.697  1.00  0.00     0.091 A 
ATOM     20  N   UNL A   1      34.362  34.515  30.641  1.00  0.00    -0.225 NA
ATOM     21  C   UNL A   1      33.310  37.222  32.869  1.00  0.00     0.031 A 
ATOM     22  C   UNL A   1      34.166  35.258  31.747  1.00  0.00     0.091 A 
ATOM     23  C   UNL A   1      33.788  36.751  34.092  1.00  0.00     0.002 A 
ATOM     24  C   UNL A   1      34.640  34.800  32.971  1.00  0.00     0.031 A 
ATOM     25  C   UNL A   1      34.460  35.537  34.143  1.00  0.00     0.002 A 
BRANCH  17  26
ATOM     26  N   UNL A   1      32.675  36.764  28.261  1.00  0.00    -0.381 N 
ATOM     27  H   UNL A   1      32.227  37.641  28.261  1.00  0.00     0.158 HD
ATOM     28  H   UNL A   1      32.747  36.248  27.427  1.00  0.00     0.158 HD
ENDBRANCH  17  26
ENDBRANCH  11  16
ENDBRANCH   8  10
ENDBRANCH   7   8
ENDBRANCH   6   7
ENDBRANCH   5   6
ENDBRANCH   4   5
ENDBRANCH   3   4
ENDBRANCH   2   3
ENDBRANCH   1   2
BRANCH   1  29
ATOM     29  C   UNL A   1      33.037  24.667  22.258  1.00  0.00     0.188 C 
BRANCH  29  30
ATOM     30  C   UNL A   1      33.698  23.298  22.499  1.00  0.00     0.188 C 
BRANCH  30  31
ATOM     31  O   UNL A   1      35.092  23.387  22.778  1.00  0.00    -0.376 OA
BRANCH  31  32
ATOM     32  C   UNL A   1      35.514  23.164  24.120  1.00  0.00     0.202 C 
BRANCH  32  33
ATOM     33  C   UNL A   1      36.654  22.152  24.317  1.00  0.00     0.261 C 
BRANCH  33  34
ATOM     34  O   UNL A   1      37.157  22.006  25.658  1.00  0.00    -0.460 OA
BRANCH  34  35
ATOM     35  C   UNL A   1      38.439  21.629  25.844  1.00  0.00     0.338 C 
ATOM     36  O   UNL A   1      38.989  20.635  25.407  1.00  0.00    -0.246 OA
BRANCH  35  37
ATOM     37  C   UNL A   1      39.141  22.754  26.501  1.00  0.00     0.060 A 
ATOM     38  C   UNL A   1      40.274  22.531  27.286  1.00  0.00     0.016 A 
ATOM     39  C   UNL A   1      38.635  24.050  26.340  1.00  0.00     0.016 A 
ATOM     40  C   UNL A   1      40.930  23.615  27.874  1.00  0.00     0.010 A 
ATOM     41  C   UNL A   1      39.285  25.132  26.938  1.00  0.00     0.010 A 
ATOM     42  C   UNL A   1      40.455  24.925  27.683  1.00  0.00    -0.014 A 
BRANCH  42  43
ATOM     43  C   UNL A   1      41.298  26.079  28.082  1.00  0.00     0.031 A 
ATOM     44  C   UNL A   1      42.706  26.249  27.605  1.00  0.00     0.074 A 
ATOM     45  C   UNL A   1      40.754  26.982  28.919  1.00  0.00     0.049 A 
ATOM     46  N   UNL A   1      43.525  27.250  27.814  1.00  0.00    -0.248 NA
ATOM     47  C   UNL A   1      43.275  25.161  26.800  1.00  0.00     0.031 C 
ATOM     48  C   UNL A   1      39.404  26.895  29.478  1.00  0.00     0.029 A 
ATOM     49  N   UNL A   1      41.257  28.146  29.440  1.00  0.00    -0.354 N 
ATOM     50  C   UNL A   1      44.699  26.928  27.147  1.00  0.00     0.074 A 
ATOM     51  C   UNL A   1      44.501  25.615  26.565  1.00  0.00     0.031 C 
ATOM     52  C   UNL A   1      39.177  27.970  30.245  1.00  0.00     0.029 A 
ATOM     53  C   UNL A   1      40.369  28.812  30.248  1.00  0.00     0.049 A 
ATOM     54  H   UNL A   1      42.167  28.474  29.252  1.00  0.00     0.167 HD
ATOM     55  C   UNL A   1      45.823  27.674  27.021  1.00  0.00     0.037 A 
ATOM     56  C   UNL A   1      40.496  29.976  30.913  1.00  0.00     0.037 A 
ATOM     57  C   UNL A   1      46.015  28.973  27.620  1.00  0.00     0.049 A 
ATOM     58  C   UNL A   1      41.769  30.762  30.785  1.00  0.00     0.074 A 
ATOM     59  C   UNL A   1      47.103  29.823  27.504  1.00  0.00     0.029 A 
ATOM     60  N   UNL A   1      45.108  29.603  28.460  1.00  0.00    -0.354 N 
ATOM     61  N   UNL A   1      42.836  30.490  30.076  1.00  0.00    -0.248 NA
ATOM     62  C   UNL A   1      41.851  32.017  31.542  1.00  0.00     0.031 C 
ATOM     63  C   UNL A   1      46.879  30.939  28.316  1.00  0.00     0.029 A 
ATOM     64  C   UNL A   1      45.627  30.814  28.895  1.00  0.00     0.049 A 
ATOM     65  H   UNL A   1      44.227  29.244  28.711  1.00  0.00     0.167 HD
ATOM     66  C   UNL A   1      43.710  31.549  30.285  1.00  0.00     0.074 A 
ATOM     67  C   UNL A   1      43.039  32.476  31.171  1.00  0.00     0.031 C 
ATOM     68  C   UNL A   1      44.957  31.730  29.785  1.00  0.00     0.037 A 
BRANCH  55  69
ATOM     69  C   UNL A   1      46.945  27.123  26.187  1.00  0.00     0.064 A 
ATOM     70  C   UNL A   1      47.063  27.443  24.826  1.00  0.00     0.173 A 
ATOM     71  C   UNL A   1      47.969  26.363  26.773  1.00  0.00     0.173 A 
ATOM     72  F   UNL A   1      46.112  28.170  24.218  1.00  0.00    -0.203 F 
ATOM     73  C   UNL A   1      48.157  27.013  24.080  1.00  0.00     0.198 A 
ATOM     74  C   UNL A   1      49.074  25.955  26.030  1.00  0.00     0.198 A 
ATOM     75  F   UNL A   1      47.912  26.042  28.075  1.00  0.00    -0.203 F 
ATOM     76  F   UNL A   1      48.238  27.315  22.777  1.00  0.00    -0.200 F 
ATOM     77  C   UNL A   1      49.166  26.279  24.685  1.00  0.00     0.200 A 
ATOM     78  F   UNL A   1      50.058  25.263  26.621  1.00  0.00    -0.200 F 
ATOM     79  F   UNL A   1      50.231  25.886  23.972  1.00  0.00    -0.200 F 
ENDBRANCH  55  69
BRANCH  56  80
ATOM     80  C   UNL A   1      39.356  30.480  31.718  1.00  0.00     0.064 A 
ATOM     81  C   UNL A   1      39.284  30.229  33.094  1.00  0.00     0.173 A 
ATOM     82  C   UNL A   1      38.340  31.255  31.139  1.00  0.00     0.173 A 
ATOM     83  F   UNL A   1      40.226  29.480  33.687  1.00  0.00    -0.203 F 
ATOM     84  C   UNL A   1      38.233  30.726  33.862  1.00  0.00     0.198 A 
ATOM     85  C   UNL A   1      37.304  31.775  31.912  1.00  0.00     0.198 A 
ATOM     86  F   UNL A   1      38.369  31.530  29.827  1.00  0.00    -0.203 F 
ATOM     87  F   UNL A   1      38.172  30.447  35.171  1.00  0.00    -0.200 F 
ATOM     88  C   UNL A   1      37.250  31.506  33.272  1.00  0.00     0.200 A 
ATOM     89  F   UNL A   1      36.366  32.542  31.342  1.00  0.00    -0.200 F 
ATOM     90  F   UNL A   1      36.247  31.996  34.013  1.00  0.00    -0.200 F 
ENDBRANCH  56  80
BRANCH  68  91
ATOM     91  C   UNL A   1      45.685  32.982  30.179  1.00  0.00     0.064 A 
ATOM     92  C   UNL A   1      45.513  34.183  29.475  1.00  0.00     0.173 A 
ATOM     93  C   UNL A   1      46.517  32.998  31.310  1.00  0.00     0.173 A 
ATOM     94  F   UNL A   1      44.741  34.215  28.377  1.00  0.00    -0.203 F 
ATOM     95  C   UNL A   1      46.158  35.348  29.877  1.00  0.00     0.198 A 
ATOM     96  C   UNL A   1      47.137  34.173  31.726  1.00  0.00     0.198 A 
ATOM     97  F   UNL A   1      46.712  31.878  32.022  1.00  0.00    -0.203 F 
ATOM     98  F   UNL A   1      46.008  36.475  29.167  1.00  0.00    -0.200 F 
ATOM     99  C   UNL A   1      46.961  35.345  31.008  1.00  0.00     0.200 A 
ATOM    100  F   UNL A   1      47.902  34.171  32.828  1.00  0.00    -0.200 F 
ATOM    101  F   UNL A   1      47.569  36.473  31.404  1.00  0.00    -0.200 F 
ENDBRANCH  68  91
ENDBRANCH  42  43
ENDBRANCH  35  37
ENDBRANCH  34  35
ENDBRANCH  33  34
ENDBRANCH  32  33
ENDBRANCH  31  32
ENDBRANCH  30  31
ENDBRANCH  29  30
ENDBRANCH   1  29
TORSDOF 22
ENDMDL
