MODEL 1
REMARK VINA RESULT:      -9.3      0.000      0.000
REMARK SMILES C/C=C/C[C@@H](C(=O)OCCOCCOCCOCCOC(=O)c1ccc(-c2c3nc(c(-c4c(F)c(F)c(F)c(F)c4F)c4ccc([nH]4)c(-c4c(F)c(F)c(F)c(F)c4F)c4nc(c(-c5c(F)c(F)c(F)c(F)c5F)c5ccc2[nH]5)C=C4)C=C3)cc1)c1cccc(Cl)c1
REMARK SMILES IDX 14 1 13 2 12 3 11 4 10 5 9 6 8 7 6 8 7 9 5 10 4 11 3 12 1 13
REMARK SMILES IDX 2 14 86 15 87 16 92 17 88 18 90 19 89 20 91 21 15 22 16 23
REMARK SMILES IDX 17 24 18 25 19 26 20 27 21 28 22 29 23 30 24 31 85 32 25 33
REMARK SMILES IDX 84 34 26 35 27 36 28 37 78 38 29 39 83 40 77 41 79 42 30 43
REMARK SMILES IDX 82 44 76 45 75 46 31 48 63 49 43 50 62 51 44 52 47 53 61 54
REMARK SMILES IDX 80 55 45 56 46 57 60 59 81 60 48 61 32 62 33 63 41 64 34 65
REMARK SMILES IDX 35 66 39 67 42 68 36 69 37 70 40 71 38 72 64 73 65 74 73 75
REMARK SMILES IDX 66 76 67 77 71 78 74 79 68 80 69 81 72 82 70 83 49 84 50 85
REMARK SMILES IDX 58 86 51 87 52 88 56 89 59 90 53 91 54 92 57 93 55 94
REMARK H PARENT 79 47 47 58
REMARK Flexibility Score: inf
ROOT
ATOM      1  O   UNL A   1      36.027  23.402  23.576  1.00  0.00    -0.377 OA
ENDROOT
BRANCH   1   2
ATOM      2  C   UNL A   1      34.778  24.016  23.824  1.00  0.00     0.188 C 
BRANCH   2   3
ATOM      3  C   UNL A   1      33.521  23.374  23.218  1.00  0.00     0.188 C 
BRANCH   3   4
ATOM      4  O   UNL A   1      32.328  23.781  23.850  1.00  0.00    -0.376 OA
BRANCH   4   5
ATOM      5  C   UNL A   1      31.218  24.177  23.064  1.00  0.00     0.202 C 
BRANCH   5   6
ATOM      6  C   UNL A   1      31.084  25.544  22.359  1.00  0.00     0.261 C 
BRANCH   6   7
ATOM      7  O   UNL A   1      32.223  26.048  21.647  1.00  0.00    -0.463 OA
BRANCH   7   8
ATOM      8  C   UNL A   1      32.839  27.152  22.123  1.00  0.00     0.313 C 
ATOM      9  O   UNL A   1      33.959  27.501  21.757  1.00  0.00    -0.252 OA
BRANCH   8  10
ATOM     10  C   UNL A   1      31.991  27.992  23.108  1.00  0.00     0.133 C 
BRANCH  10  11
ATOM     11  C   UNL A   1      31.286  29.306  22.659  1.00  0.00     0.047 C 
BRANCH  11  12
ATOM     12  C   UNL A   1      29.817  29.300  22.328  1.00  0.00    -0.030 C 
ATOM     13  C   UNL A   1      27.395  29.004  22.884  1.00  0.00     0.035 C 
ATOM     14  C   UNL A   1      28.859  28.869  23.164  1.00  0.00    -0.035 C 
ENDBRANCH  11  12
ENDBRANCH  10  11
BRANCH  10  15
ATOM     15  C   UNL A   1      32.755  28.132  24.443  1.00  0.00    -0.032 A 
ATOM     16  C   UNL A   1      33.341  27.057  25.138  1.00  0.00     0.005 A 
ATOM     17  C   UNL A   1      32.799  29.399  25.055  1.00  0.00     0.025 A 
ATOM     18  C   UNL A   1      33.915  27.232  26.402  1.00  0.00     0.002 A 
ATOM     19  C   UNL A   1      33.387  29.572  26.311  1.00  0.00     0.041 A 
ATOM     20  C   UNL A   1      33.938  28.492  26.991  1.00  0.00     0.020 A 
ATOM     21  Cl  UNL A   1      33.417  31.135  27.028  1.00  0.00    -0.084 Cl
ENDBRANCH  10  15
ENDBRANCH   8  10
ENDBRANCH   7   8
ENDBRANCH   6   7
ENDBRANCH   5   6
ENDBRANCH   4   5
ENDBRANCH   3   4
ENDBRANCH   2   3
ENDBRANCH   1   2
BRANCH   1  22
ATOM     22  C   UNL A   1      36.368  22.205  24.258  1.00  0.00     0.188 C 
BRANCH  22  23
ATOM     23  C   UNL A   1      37.664  22.078  25.087  1.00  0.00     0.188 C 
BRANCH  23  24
ATOM     24  O   UNL A   1      38.142  20.756  25.272  1.00  0.00    -0.376 OA
BRANCH  24  25
ATOM     25  C   UNL A   1      39.325  20.569  26.032  1.00  0.00     0.202 C 
BRANCH  25  26
ATOM     26  C   UNL A   1      40.105  19.267  25.799  1.00  0.00     0.261 C 
BRANCH  26  27
ATOM     27  O   UNL A   1      41.457  19.417  25.344  1.00  0.00    -0.460 OA
BRANCH  27  28
ATOM     28  C   UNL A   1      42.397  19.662  26.278  1.00  0.00     0.338 C 
ATOM     29  O   UNL A   1      43.271  18.903  26.668  1.00  0.00    -0.246 OA
BRANCH  28  30
ATOM     30  C   UNL A   1      42.313  21.087  26.645  1.00  0.00     0.060 A 
ATOM     31  C   UNL A   1      42.206  22.043  25.626  1.00  0.00     0.016 A 
ATOM     32  C   UNL A   1      42.345  21.476  27.985  1.00  0.00     0.016 A 
ATOM     33  C   UNL A   1      42.183  23.399  25.944  1.00  0.00     0.010 A 
ATOM     34  C   UNL A   1      42.347  22.836  28.303  1.00  0.00     0.010 A 
ATOM     35  C   UNL A   1      42.314  23.802  27.280  1.00  0.00    -0.014 A 
BRANCH  35  36
ATOM     36  C   UNL A   1      42.673  25.209  27.578  1.00  0.00     0.031 A 
ATOM     37  C   UNL A   1      44.067  25.662  27.240  1.00  0.00     0.074 A 
ATOM     38  C   UNL A   1      41.783  26.074  28.091  1.00  0.00     0.049 A 
ATOM     39  N   UNL A   1      44.640  26.822  27.436  1.00  0.00    -0.248 NA
ATOM     40  C   UNL A   1      44.938  24.665  26.594  1.00  0.00     0.031 C 
ATOM     41  C   UNL A   1      40.391  25.767  28.408  1.00  0.00     0.029 A 
ATOM     42  N   UNL A   1      41.928  27.394  28.441  1.00  0.00    -0.354 N 
ATOM     43  C   UNL A   1      45.933  26.690  26.945  1.00  0.00     0.074 A 
ATOM     44  C   UNL A   1      46.075  25.329  26.478  1.00  0.00     0.031 C 
ATOM     45  C   UNL A   1      39.810  26.868  28.919  1.00  0.00     0.029 A 
ATOM     46  C   UNL A   1      40.799  27.943  28.994  1.00  0.00     0.049 A 
ATOM     47  H   UNL A   1      42.764  27.897  28.307  1.00  0.00     0.167 HD
ATOM     48  C   UNL A   1      46.912  27.623  26.880  1.00  0.00     0.037 A 
ATOM     49  C   UNL A   1      40.601  29.169  29.519  1.00  0.00     0.037 A 
ATOM     50  C   UNL A   1      46.766  28.976  27.350  1.00  0.00     0.049 A 
ATOM     51  C   UNL A   1      41.734  30.166  29.512  1.00  0.00     0.074 A 
ATOM     52  C   UNL A   1      47.694  30.000  27.329  1.00  0.00     0.029 A 
ATOM     53  N   UNL A   1      45.617  29.486  27.937  1.00  0.00    -0.354 N 
ATOM     54  N   UNL A   1      42.950  30.042  29.033  1.00  0.00    -0.248 NA
ATOM     55  C   UNL A   1      41.462  31.480  30.112  1.00  0.00     0.031 C 
ATOM     56  C   UNL A   1      47.128  31.113  27.959  1.00  0.00     0.029 A 
ATOM     57  C   UNL A   1      45.822  30.806  28.305  1.00  0.00     0.049 A 
ATOM     58  H   UNL A   1      44.781  28.985  28.072  1.00  0.00     0.167 HD
ATOM     59  C   UNL A   1      43.571  31.269  29.236  1.00  0.00     0.074 A 
ATOM     60  C   UNL A   1      42.594  32.127  29.872  1.00  0.00     0.031 C 
ATOM     61  C   UNL A   1      44.833  31.653  28.924  1.00  0.00     0.037 A 
BRANCH  48  62
ATOM     62  C   UNL A   1      48.235  27.199  26.312  1.00  0.00     0.064 A 
ATOM     63  C   UNL A   1      48.509  27.268  24.937  1.00  0.00     0.173 A 
ATOM     64  C   UNL A   1      49.253  26.736  27.159  1.00  0.00     0.173 A 
ATOM     65  F   UNL A   1      47.565  27.686  24.080  1.00  0.00    -0.203 F 
ATOM     66  C   UNL A   1      49.741  26.859  24.430  1.00  0.00     0.198 A 
ATOM     67  C   UNL A   1      50.496  26.363  26.653  1.00  0.00     0.198 A 
ATOM     68  F   UNL A   1      49.047  26.651  28.482  1.00  0.00    -0.203 F 
ATOM     69  F   UNL A   1      49.958  26.880  23.107  1.00  0.00    -0.200 F 
ATOM     70  C   UNL A   1      50.735  26.416  25.288  1.00  0.00     0.200 A 
ATOM     71  F   UNL A   1      51.459  25.948  27.486  1.00  0.00    -0.200 F 
ATOM     72  F   UNL A   1      51.921  26.031  24.800  1.00  0.00    -0.200 F 
ENDBRANCH  48  62
BRANCH  49  73
ATOM     73  C   UNL A   1      39.283  29.526  30.111  1.00  0.00     0.064 A 
ATOM     74  C   UNL A   1      38.288  30.147  29.343  1.00  0.00     0.173 A 
ATOM     75  C   UNL A   1      39.006  29.288  31.465  1.00  0.00     0.173 A 
ATOM     76  F   UNL A   1      38.513  30.421  28.049  1.00  0.00    -0.203 F 
ATOM     77  C   UNL A   1      37.078  30.540  29.913  1.00  0.00     0.198 A 
ATOM     78  C   UNL A   1      37.782  29.651  32.026  1.00  0.00     0.198 A 
ATOM     79  F   UNL A   1      39.923  28.701  32.247  1.00  0.00    -0.203 F 
ATOM     80  F   UNL A   1      36.168  31.186  29.170  1.00  0.00    -0.200 F 
ATOM     81  C   UNL A   1      36.824  30.287  31.252  1.00  0.00     0.200 A 
ATOM     82  F   UNL A   1      37.538  29.393  33.318  1.00  0.00    -0.200 F 
ATOM     83  F   UNL A   1      35.662  30.666  31.800  1.00  0.00    -0.200 F 
ENDBRANCH  49  73
BRANCH  61  84
ATOM     84  C   UNL A   1      45.215  33.081  29.203  1.00  0.00     0.064 A 
ATOM     85  C   UNL A   1      44.992  34.107  28.274  1.00  0.00     0.173 A 
ATOM     86  C   UNL A   1      45.784  33.430  30.438  1.00  0.00     0.173 A 
ATOM     87  F   UNL A   1      44.460  33.829  27.074  1.00  0.00    -0.203 F 
ATOM     88  C   UNL A   1      45.358  35.422  28.555  1.00  0.00     0.198 A 
ATOM     89  C   UNL A   1      46.113  34.750  30.732  1.00  0.00     0.198 A 
ATOM     90  F   UNL A   1      46.008  32.490  31.370  1.00  0.00    -0.203 F 
ATOM     91  F   UNL A   1      45.192  36.374  27.628  1.00  0.00    -0.200 F 
ATOM     92  C   UNL A   1      45.912  35.743  29.786  1.00  0.00     0.200 A 
ATOM     93  F   UNL A   1      46.628  35.060  31.930  1.00  0.00    -0.200 F 
ATOM     94  F   UNL A   1      46.258  37.008  30.058  1.00  0.00    -0.200 F 
ENDBRANCH  61  84
ENDBRANCH  35  36
ENDBRANCH  28  30
ENDBRANCH  27  28
ENDBRANCH  26  27
ENDBRANCH  25  26
ENDBRANCH  24  25
ENDBRANCH  23  24
ENDBRANCH  22  23
ENDBRANCH   1  22
TORSDOF 23
ENDMDL
MODEL 2
REMARK VINA RESULT:      -8.9      3.805      9.482
REMARK SMILES C/C=C/C[C@@H](C(=O)OCCOCCOCCOCCOC(=O)c1ccc(-c2c3nc(c(-c4c(F)c(F)c(F)c(F)c4F)c4ccc([nH]4)c(-c4c(F)c(F)c(F)c(F)c4F)c4nc(c(-c5c(F)c(F)c(F)c(F)c5F)c5ccc2[nH]5)C=C4)C=C3)cc1)c1cccc(Cl)c1
REMARK SMILES IDX 14 1 13 2 12 3 11 4 10 5 9 6 8 7 6 8 7 9 5 10 4 11 3 12 1 13
REMARK SMILES IDX 2 14 86 15 87 16 92 17 88 18 90 19 89 20 91 21 15 22 16 23
REMARK SMILES IDX 17 24 18 25 19 26 20 27 21 28 22 29 23 30 24 31 85 32 25 33
REMARK SMILES IDX 84 34 26 35 27 36 28 37 78 38 29 39 83 40 77 41 79 42 30 43
REMARK SMILES IDX 82 44 76 45 75 46 31 48 63 49 43 50 62 51 44 52 47 53 61 54
REMARK SMILES IDX 80 55 45 56 46 57 60 59 81 60 48 61 32 62 33 63 41 64 34 65
REMARK SMILES IDX 35 66 39 67 42 68 36 69 37 70 40 71 38 72 64 73 65 74 73 75
REMARK SMILES IDX 66 76 67 77 71 78 74 79 68 80 69 81 72 82 70 83 49 84 50 85
REMARK SMILES IDX 58 86 51 87 52 88 56 89 59 90 53 91 54 92 57 93 55 94
REMARK H PARENT 79 47 47 58
REMARK Flexibility Score: inf
ROOT
ATOM      1  O   UNL A   1      34.147  34.806  29.015  1.00  0.00    -0.377 OA
ENDROOT
BRANCH   1   2
ATOM      2  C   UNL A   1      34.923  34.188  28.007  1.00  0.00     0.188 C 
BRANCH   2   3
ATOM      3  C   UNL A   1      35.075  32.660  28.043  1.00  0.00     0.188 C 
BRANCH   3   4
ATOM      4  O   UNL A   1      33.840  31.978  28.057  1.00  0.00    -0.376 OA
BRANCH   4   5
ATOM      5  C   UNL A   1      33.666  30.830  27.247  1.00  0.00     0.202 C 
BRANCH   5   6
ATOM      6  C   UNL A   1      34.357  29.469  27.488  1.00  0.00     0.261 C 
BRANCH   6   7
ATOM      7  O   UNL A   1      33.620  28.278  27.179  1.00  0.00    -0.463 OA
BRANCH   7   8
ATOM      8  C   UNL A   1      33.796  27.711  25.966  1.00  0.00     0.313 C 
ATOM      9  O   UNL A   1      34.709  28.028  25.208  1.00  0.00    -0.252 OA
BRANCH   8  10
ATOM     10  C   UNL A   1      32.806  26.569  25.636  1.00  0.00     0.133 C 
BRANCH  10  11
ATOM     11  C   UNL A   1      33.283  25.094  25.492  1.00  0.00     0.047 C 
BRANCH  11  12
ATOM     12  C   UNL A   1      34.428  24.755  24.574  1.00  0.00    -0.030 C 
ATOM     13  C   UNL A   1      36.089  23.193  23.544  1.00  0.00     0.035 C 
ATOM     14  C   UNL A   1      35.054  23.568  24.557  1.00  0.00    -0.035 C 
ENDBRANCH  11  12
ENDBRANCH  10  11
BRANCH  10  15
ATOM     15  C   UNL A   1      31.870  27.023  24.494  1.00  0.00    -0.032 A 
ATOM     16  C   UNL A   1      31.713  26.335  23.276  1.00  0.00     0.005 A 
ATOM     17  C   UNL A   1      31.191  28.248  24.637  1.00  0.00     0.025 A 
ATOM     18  C   UNL A   1      30.941  26.863  22.235  1.00  0.00     0.002 A 
ATOM     19  C   UNL A   1      30.408  28.764  23.601  1.00  0.00     0.041 A 
ATOM     20  C   UNL A   1      30.287  28.080  22.396  1.00  0.00     0.020 A 
ATOM     21  Cl  UNL A   1      29.599  30.266  23.812  1.00  0.00    -0.084 Cl
ENDBRANCH  10  15
ENDBRANCH   8  10
ENDBRANCH   7   8
ENDBRANCH   6   7
ENDBRANCH   5   6
ENDBRANCH   4   5
ENDBRANCH   3   4
ENDBRANCH   2   3
ENDBRANCH   1   2
BRANCH   1  22
ATOM     22  C   UNL A   1      34.027  34.187  30.286  1.00  0.00     0.188 C 
BRANCH  22  23
ATOM     23  C   UNL A   1      34.854  34.652  31.503  1.00  0.00     0.188 C 
BRANCH  23  24
ATOM     24  O   UNL A   1      34.183  34.603  32.751  1.00  0.00    -0.376 OA
BRANCH  24  25
ATOM     25  C   UNL A   1      34.408  33.482  33.591  1.00  0.00     0.202 C 
BRANCH  25  26
ATOM     26  C   UNL A   1      35.404  32.425  33.090  1.00  0.00     0.261 C 
BRANCH  26  27
ATOM     27  O   UNL A   1      36.672  32.388  33.762  1.00  0.00    -0.460 OA
BRANCH  27  28
ATOM     28  C   UNL A   1      37.631  33.222  33.311  1.00  0.00     0.338 C 
ATOM     29  O   UNL A   1      37.844  34.370  33.669  1.00  0.00    -0.246 OA
BRANCH  28  30
ATOM     30  C   UNL A   1      38.516  32.455  32.417  1.00  0.00     0.060 A 
ATOM     31  C   UNL A   1      39.483  31.613  32.980  1.00  0.00     0.016 A 
ATOM     32  C   UNL A   1      38.395  32.572  31.031  1.00  0.00     0.016 A 
ATOM     33  C   UNL A   1      40.370  30.923  32.158  1.00  0.00     0.010 A 
ATOM     34  C   UNL A   1      39.299  31.899  30.206  1.00  0.00     0.010 A 
ATOM     35  C   UNL A   1      40.319  31.110  30.769  1.00  0.00    -0.014 A 
BRANCH  35  36
ATOM     36  C   UNL A   1      41.476  30.693  29.942  1.00  0.00     0.031 A 
ATOM     37  C   UNL A   1      41.446  29.316  29.338  1.00  0.00     0.074 A 
ATOM     38  C   UNL A   1      42.505  31.521  29.696  1.00  0.00     0.049 A 
ATOM     39  N   UNL A   1      42.344  28.701  28.613  1.00  0.00    -0.248 NA
ATOM     40  C   UNL A   1      40.232  28.521  29.590  1.00  0.00     0.031 C 
ATOM     41  C   UNL A   1      42.622  32.894  30.180  1.00  0.00     0.029 A 
ATOM     42  N   UNL A   1      43.655  31.316  28.974  1.00  0.00    -0.354 N 
ATOM     43  C   UNL A   1      41.807  27.451  28.330  1.00  0.00     0.074 A 
ATOM     44  C   UNL A   1      40.524  27.378  28.992  1.00  0.00     0.031 C 
ATOM     45  C   UNL A   1      43.789  33.407  29.750  1.00  0.00     0.029 A 
ATOM     46  C   UNL A   1      44.513  32.387  28.991  1.00  0.00     0.049 A 
ATOM     47  H   UNL A   1      43.846  30.480  28.490  1.00  0.00     0.167 HD
ATOM     48  C   UNL A   1      42.333  26.456  27.578  1.00  0.00     0.037 A 
ATOM     49  C   UNL A   1      45.749  32.515  28.469  1.00  0.00     0.037 A 
ATOM     50  C   UNL A   1      43.613  26.531  26.925  1.00  0.00     0.049 A 
ATOM     51  C   UNL A   1      46.349  31.360  27.705  1.00  0.00     0.074 A 
ATOM     52  C   UNL A   1      44.237  25.580  26.137  1.00  0.00     0.029 A 
ATOM     53  N   UNL A   1      44.470  27.620  26.994  1.00  0.00    -0.354 N 
ATOM     54  N   UNL A   1      45.832  30.186  27.428  1.00  0.00    -0.248 NA
ATOM     55  C   UNL A   1      47.706  31.553  27.173  1.00  0.00     0.031 C 
ATOM     56  C   UNL A   1      45.498  26.070  25.782  1.00  0.00     0.029 A 
ATOM     57  C   UNL A   1      45.628  27.355  26.283  1.00  0.00     0.049 A 
ATOM     58  H   UNL A   1      44.281  28.457  27.477  1.00  0.00     0.167 HD
ATOM     59  C   UNL A   1      46.779  29.520  26.658  1.00  0.00     0.074 A 
ATOM     60  C   UNL A   1      47.898  30.425  26.503  1.00  0.00     0.031 C 
ATOM     61  C   UNL A   1      46.728  28.274  26.125  1.00  0.00     0.037 A 
BRANCH  48  62
ATOM     62  C   UNL A   1      41.538  25.188  27.454  1.00  0.00     0.064 A 
ATOM     63  C   UNL A   1      41.881  24.025  28.161  1.00  0.00     0.173 A 
ATOM     64  C   UNL A   1      40.403  25.142  26.629  1.00  0.00     0.173 A 
ATOM     65  F   UNL A   1      42.966  24.008  28.949  1.00  0.00    -0.203 F 
ATOM     66  C   UNL A   1      41.135  22.856  28.023  1.00  0.00     0.198 A 
ATOM     67  C   UNL A   1      39.640  23.983  26.522  1.00  0.00     0.198 A 
ATOM     68  F   UNL A   1      40.029  26.225  25.931  1.00  0.00    -0.203 F 
ATOM     69  F   UNL A   1      41.515  21.742  28.664  1.00  0.00    -0.200 F 
ATOM     70  C   UNL A   1      40.011  22.838  27.211  1.00  0.00     0.200 A 
ATOM     71  F   UNL A   1      38.546  23.972  25.747  1.00  0.00    -0.200 F 
ATOM     72  F   UNL A   1      39.291  21.716  27.085  1.00  0.00    -0.200 F 
ENDBRANCH  48  62
BRANCH  49  73
ATOM     73  C   UNL A   1      46.516  33.776  28.658  1.00  0.00     0.064 A 
ATOM     74  C   UNL A   1      46.445  34.815  27.719  1.00  0.00     0.173 A 
ATOM     75  C   UNL A   1      47.363  33.953  29.762  1.00  0.00     0.173 A 
ATOM     76  F   UNL A   1      45.670  34.684  26.632  1.00  0.00    -0.203 F 
ATOM     77  C   UNL A   1      47.213  35.970  27.863  1.00  0.00     0.198 A 
ATOM     78  C   UNL A   1      48.104  35.123  29.922  1.00  0.00     0.198 A 
ATOM     79  F   UNL A   1      47.472  32.991  30.688  1.00  0.00    -0.203 F 
ATOM     80  F   UNL A   1      47.171  36.921  26.919  1.00  0.00    -0.200 F 
ATOM     81  C   UNL A   1      48.037  36.126  28.966  1.00  0.00     0.200 A 
ATOM     82  F   UNL A   1      48.891  35.273  30.997  1.00  0.00    -0.200 F 
ATOM     83  F   UNL A   1      48.776  37.235  29.104  1.00  0.00    -0.200 F 
ENDBRANCH  49  73
BRANCH  61  84
ATOM     84  C   UNL A   1      47.885  27.836  25.269  1.00  0.00     0.064 A 
ATOM     85  C   UNL A   1      49.077  27.344  25.821  1.00  0.00     0.173 A 
ATOM     86  C   UNL A   1      47.781  27.878  23.869  1.00  0.00     0.173 A 
ATOM     87  F   UNL A   1      49.233  27.292  27.153  1.00  0.00    -0.203 F 
ATOM     88  C   UNL A   1      50.135  26.949  25.006  1.00  0.00     0.198 A 
ATOM     89  C   UNL A   1      48.826  27.445  23.057  1.00  0.00     0.198 A 
ATOM     90  F   UNL A   1      46.660  28.327  23.286  1.00  0.00    -0.203 F 
ATOM     91  F   UNL A   1      51.286  26.542  25.558  1.00  0.00    -0.200 F 
ATOM     92  C   UNL A   1      50.006  26.993  23.626  1.00  0.00     0.200 A 
ATOM     93  F   UNL A   1      48.691  27.470  21.724  1.00  0.00    -0.200 F 
ATOM     94  F   UNL A   1      51.023  26.607  22.843  1.00  0.00    -0.200 F 
ENDBRANCH  61  84
ENDBRANCH  35  36
ENDBRANCH  28  30
ENDBRANCH  27  28
ENDBRANCH  26  27
ENDBRANCH  25  26
ENDBRANCH  24  25
ENDBRANCH  23  24
ENDBRANCH  22  23
ENDBRANCH   1  22
TORSDOF 23
ENDMDL
MODEL 3
REMARK VINA RESULT:      -8.9      3.332      5.290
REMARK SMILES C/C=C/C[C@@H](C(=O)OCCOCCOCCOCCOC(=O)c1ccc(-c2c3nc(c(-c4c(F)c(F)c(F)c(F)c4F)c4ccc([nH]4)c(-c4c(F)c(F)c(F)c(F)c4F)c4nc(c(-c5c(F)c(F)c(F)c(F)c5F)c5ccc2[nH]5)C=C4)C=C3)cc1)c1cccc(Cl)c1
REMARK SMILES IDX 14 1 13 2 12 3 11 4 10 5 9 6 8 7 6 8 7 9 5 10 4 11 3 12 1 13
REMARK SMILES IDX 2 14 86 15 87 16 92 17 88 18 90 19 89 20 91 21 15 22 16 23
REMARK SMILES IDX 17 24 18 25 19 26 20 27 21 28 22 29 23 30 24 31 85 32 25 33
REMARK SMILES IDX 84 34 26 35 27 36 28 37 78 38 29 39 83 40 77 41 79 42 30 43
REMARK SMILES IDX 82 44 76 45 75 46 31 48 63 49 43 50 62 51 44 52 47 53 61 54
REMARK SMILES IDX 80 55 45 56 46 57 60 59 81 60 48 61 32 62 33 63 41 64 34 65
REMARK SMILES IDX 35 66 39 67 42 68 36 69 37 70 40 71 38 72 64 73 65 74 73 75
REMARK SMILES IDX 66 76 67 77 71 78 74 79 68 80 69 81 72 82 70 83 49 84 50 85
REMARK SMILES IDX 58 86 51 87 52 88 56 89 59 90 53 91 54 92 57 93 55 94
REMARK H PARENT 79 47 47 58
REMARK Flexibility Score: inf
ROOT
ATOM      1  O   UNL A   1      36.648  23.558  24.275  1.00  0.00    -0.377 OA
ENDROOT
BRANCH   1   2
ATOM      2  C   UNL A   1      35.251  23.769  24.351  1.00  0.00     0.188 C 
BRANCH   2   3
ATOM      3  C   UNL A   1      34.341  22.926  23.446  1.00  0.00     0.188 C 
BRANCH   3   4
ATOM      4  O   UNL A   1      33.430  22.124  24.163  1.00  0.00    -0.376 OA
BRANCH   4   5
ATOM      5  C   UNL A   1      32.053  22.452  24.160  1.00  0.00     0.202 C 
BRANCH   5   6
ATOM      6  C   UNL A   1      31.399  23.512  25.074  1.00  0.00     0.261 C 
BRANCH   6   7
ATOM      7  O   UNL A   1      31.598  24.895  24.748  1.00  0.00    -0.463 OA
BRANCH   7   8
ATOM      8  C   UNL A   1      30.866  25.820  25.405  1.00  0.00     0.313 C 
ATOM      9  O   UNL A   1      30.290  25.586  26.464  1.00  0.00    -0.252 OA
BRANCH   8  10
ATOM     10  C   UNL A   1      30.874  27.228  24.762  1.00  0.00     0.133 C 
BRANCH  10  11
ATOM     11  C   UNL A   1      31.046  27.421  23.227  1.00  0.00     0.047 C 
BRANCH  11  12
ATOM     12  C   UNL A   1      30.046  28.238  22.451  1.00  0.00    -0.030 C 
ATOM     13  C   UNL A   1      28.036  29.713  22.243  1.00  0.00     0.035 C 
ATOM     14  C   UNL A   1      28.942  28.783  22.987  1.00  0.00    -0.035 C 
ENDBRANCH  11  12
ENDBRANCH  10  11
BRANCH  10  15
ATOM     15  C   UNL A   1      31.773  28.163  25.601  1.00  0.00    -0.032 A 
ATOM     16  C   UNL A   1      32.895  27.736  26.337  1.00  0.00     0.005 A 
ATOM     17  C   UNL A   1      31.404  29.517  25.714  1.00  0.00     0.025 A 
ATOM     18  C   UNL A   1      33.596  28.612  27.172  1.00  0.00     0.002 A 
ATOM     19  C   UNL A   1      32.116  30.392  26.537  1.00  0.00     0.041 A 
ATOM     20  C   UNL A   1      33.206  29.943  27.274  1.00  0.00     0.020 A 
ATOM     21  Cl  UNL A   1      31.631  32.038  26.651  1.00  0.00    -0.084 Cl
ENDBRANCH  10  15
ENDBRANCH   8  10
ENDBRANCH   7   8
ENDBRANCH   6   7
ENDBRANCH   5   6
ENDBRANCH   4   5
ENDBRANCH   3   4
ENDBRANCH   2   3
ENDBRANCH   1   2
BRANCH   1  22
ATOM     22  C   UNL A   1      37.193  22.317  24.693  1.00  0.00     0.188 C 
BRANCH  22  23
ATOM     23  C   UNL A   1      38.226  22.221  25.836  1.00  0.00     0.188 C 
BRANCH  23  24
ATOM     24  O   UNL A   1      39.193  21.193  25.699  1.00  0.00    -0.376 OA
BRANCH  24  25
ATOM     25  C   UNL A   1      40.342  21.237  26.530  1.00  0.00     0.202 C 
BRANCH  25  26
ATOM     26  C   UNL A   1      41.530  22.073  26.032  1.00  0.00     0.261 C 
BRANCH  26  27
ATOM     27  O   UNL A   1      41.973  23.120  26.908  1.00  0.00    -0.460 OA
BRANCH  27  28
ATOM     28  C   UNL A   1      41.567  24.373  26.624  1.00  0.00     0.338 C 
ATOM     29  O   UNL A   1      40.418  24.784  26.560  1.00  0.00    -0.246 OA
BRANCH  28  30
ATOM     30  C   UNL A   1      42.760  25.236  26.570  1.00  0.00     0.060 A 
ATOM     31  C   UNL A   1      43.427  25.546  27.762  1.00  0.00     0.016 A 
ATOM     32  C   UNL A   1      43.214  25.741  25.349  1.00  0.00     0.016 A 
ATOM     33  C   UNL A   1      44.522  26.406  27.744  1.00  0.00     0.010 A 
ATOM     34  C   UNL A   1      44.297  26.623  25.334  1.00  0.00     0.010 A 
ATOM     35  C   UNL A   1      44.924  26.995  26.537  1.00  0.00    -0.014 A 
BRANCH  35  36
ATOM     36  C   UNL A   1      45.816  28.178  26.573  1.00  0.00     0.031 A 
ATOM     37  C   UNL A   1      47.285  27.955  26.336  1.00  0.00     0.074 A 
ATOM     38  C   UNL A   1      45.339  29.419  26.766  1.00  0.00     0.049 A 
ATOM     39  N   UNL A   1      48.274  28.811  26.354  1.00  0.00    -0.248 NA
ATOM     40  C   UNL A   1      47.694  26.572  26.041  1.00  0.00     0.031 C 
ATOM     41  C   UNL A   1      43.933  29.766  26.952  1.00  0.00     0.029 A 
ATOM     42  N   UNL A   1      45.999  30.621  26.842  1.00  0.00    -0.354 N 
ATOM     43  C   UNL A   1      49.417  28.070  26.081  1.00  0.00     0.074 A 
ATOM     44  C   UNL A   1      49.007  26.691  25.939  1.00  0.00     0.031 C 
ATOM     45  C   UNL A   1      43.835  31.096  27.133  1.00  0.00     0.029 A 
ATOM     46  C   UNL A   1      45.174  31.685  27.108  1.00  0.00     0.049 A 
ATOM     47  H   UNL A   1      46.971  30.710  26.716  1.00  0.00     0.167 HD
ATOM     48  C   UNL A   1      50.693  28.502  25.950  1.00  0.00     0.037 A 
ATOM     49  C   UNL A   1      45.476  32.980  27.328  1.00  0.00     0.037 A 
ATOM     50  C   UNL A   1      51.097  29.875  26.097  1.00  0.00     0.049 A 
ATOM     51  C   UNL A   1      46.917  33.423  27.260  1.00  0.00     0.074 A 
ATOM     52  C   UNL A   1      52.363  30.419  25.981  1.00  0.00     0.029 A 
ATOM     53  N   UNL A   1      50.237  30.921  26.402  1.00  0.00    -0.354 N 
ATOM     54  N   UNL A   1      47.992  32.722  26.986  1.00  0.00    -0.248 NA
ATOM     55  C   UNL A   1      47.184  34.844  27.524  1.00  0.00     0.031 C 
ATOM     56  C   UNL A   1      52.279  31.783  26.278  1.00  0.00     0.029 A 
ATOM     57  C   UNL A   1      50.950  32.104  26.503  1.00  0.00     0.049 A 
ATOM     58  H   UNL A   1      49.264  30.834  26.527  1.00  0.00     0.167 HD
ATOM     59  C   UNL A   1      49.052  33.621  27.004  1.00  0.00     0.074 A 
ATOM     60  C   UNL A   1      48.489  34.920  27.305  1.00  0.00     0.031 C 
ATOM     61  C   UNL A   1      50.372  33.393  26.789  1.00  0.00     0.037 A 
BRANCH  48  62
ATOM     62  C   UNL A   1      51.747  27.470  25.668  1.00  0.00     0.064 A 
ATOM     63  C   UNL A   1      52.092  27.100  24.358  1.00  0.00     0.173 A 
ATOM     64  C   UNL A   1      52.438  26.857  26.725  1.00  0.00     0.173 A 
ATOM     65  F   UNL A   1      51.450  27.641  23.312  1.00  0.00    -0.203 F 
ATOM     66  C   UNL A   1      53.066  26.133  24.120  1.00  0.00     0.198 A 
ATOM     67  C   UNL A   1      53.436  25.918  26.481  1.00  0.00     0.198 A 
ATOM     68  F   UNL A   1      52.150  27.175  27.996  1.00  0.00    -0.203 F 
ATOM     69  F   UNL A   1      53.337  25.754  22.863  1.00  0.00    -0.200 F 
ATOM     70  C   UNL A   1      53.743  25.549  25.180  1.00  0.00     0.200 A 
ATOM     71  F   UNL A   1      54.099  25.366  27.507  1.00  0.00    -0.200 F 
ATOM     72  F   UNL A   1      54.685  24.625  24.949  1.00  0.00    -0.200 F 
ENDBRANCH  48  62
BRANCH  49  73
ATOM     73  C   UNL A   1      44.399  33.956  27.649  1.00  0.00     0.064 A 
ATOM     74  C   UNL A   1      43.834  34.765  26.652  1.00  0.00     0.173 A 
ATOM     75  C   UNL A   1      43.939  34.126  28.962  1.00  0.00     0.173 A 
ATOM     76  F   UNL A   1      44.258  34.660  25.384  1.00  0.00    -0.203 F 
ATOM     77  C   UNL A   1      42.871  35.724  26.962  1.00  0.00     0.198 A 
ATOM     78  C   UNL A   1      42.951  35.062  29.266  1.00  0.00     0.198 A 
ATOM     79  F   UNL A   1      44.447  33.382  29.955  1.00  0.00    -0.203 F 
ATOM     80  F   UNL A   1      42.392  36.525  26.000  1.00  0.00    -0.200 F 
ATOM     81  C   UNL A   1      42.427  35.869  28.267  1.00  0.00     0.200 A 
ATOM     82  F   UNL A   1      42.517  35.189  30.527  1.00  0.00    -0.200 F 
ATOM     83  F   UNL A   1      41.503  36.792  28.566  1.00  0.00    -0.200 F 
ENDBRANCH  49  73
BRANCH  61  84
ATOM     84  C   UNL A   1      51.294  34.582  26.805  1.00  0.00     0.064 A 
ATOM     85  C   UNL A   1      51.990  34.970  27.959  1.00  0.00     0.173 A 
ATOM     86  C   UNL A   1      51.509  35.323  25.632  1.00  0.00     0.173 A 
ATOM     87  F   UNL A   1      51.814  34.303  29.110  1.00  0.00    -0.203 F 
ATOM     88  C   UNL A   1      52.834  36.077  27.949  1.00  0.00     0.198 A 
ATOM     89  C   UNL A   1      52.384  36.406  25.614  1.00  0.00     0.198 A 
ATOM     90  F   UNL A   1      50.879  34.990  24.495  1.00  0.00    -0.203 F 
ATOM     91  F   UNL A   1      53.440  36.466  29.079  1.00  0.00    -0.200 F 
ATOM     92  C   UNL A   1      53.036  36.790  26.776  1.00  0.00     0.200 A 
ATOM     93  F   UNL A   1      52.593  37.079  24.475  1.00  0.00    -0.200 F 
ATOM     94  F   UNL A   1      53.854  37.851  26.766  1.00  0.00    -0.200 F 
ENDBRANCH  61  84
ENDBRANCH  35  36
ENDBRANCH  28  30
ENDBRANCH  27  28
ENDBRANCH  26  27
ENDBRANCH  25  26
ENDBRANCH  24  25
ENDBRANCH  23  24
ENDBRANCH  22  23
ENDBRANCH   1  22
TORSDOF 23
ENDMDL
