MODEL 1
REMARK VINA RESULT:      -9.6      0.000      0.000
REMARK SMILES C[C@@H](CC(=O)OCCOCCOCCOCCOC(=O)c1ccc(-c2c3nc(c(-c4c(F)c(F)c(F)c(F)c4F)c4ccc([nH]4)c(-c4c(F)c(F)c(F)c(F)c4F)c4nc(c(-c5c(F)c(F)c(F)c(F)c5F)c5ccc2[nH]5)C=C4)C=C3)cc1)NC(=O)[C@@H]1CCCN(C(N)=O)C1
REMARK SMILES IDX 11 1 10 2 9 3 8 4 7 5 6 6 4 7 5 8 3 9 2 10 1 11 84 12 85 13
REMARK SMILES IDX 86 15 87 16 88 17 95 18 89 19 91 20 90 21 92 22 93 23 94 24
REMARK SMILES IDX 12 27 13 28 14 29 15 30 16 31 17 32 18 33 19 34 20 35 21 36
REMARK SMILES IDX 22 37 83 38 23 39 82 40 24 41 25 42 26 43 76 44 27 45 81 46
REMARK SMILES IDX 75 47 77 48 28 49 80 50 74 51 73 52 29 54 61 55 41 56 60 57
REMARK SMILES IDX 42 58 45 59 59 60 78 61 43 62 44 63 58 65 79 66 46 67 30 68
REMARK SMILES IDX 31 69 39 70 32 71 33 72 37 73 40 74 34 75 35 76 38 77 36 78
REMARK SMILES IDX 62 79 63 80 71 81 64 82 65 83 69 84 72 85 66 86 67 87 70 88
REMARK SMILES IDX 68 89 47 90 48 91 56 92 49 93 50 94 54 95 57 96 51 97 52 98
REMARK SMILES IDX 55 99 53 100
REMARK H PARENT 84 14 93 25 93 26 77 53 45 64
REMARK Flexibility Score: inf
ROOT
ATOM      1  C   UNL A   1      38.179  23.848  26.463  1.00  0.00     0.188 C 
ENDROOT
BRANCH   1   2
ATOM      2  C   UNL A   1      37.223  23.184  25.474  1.00  0.00     0.188 C 
BRANCH   2   3
ATOM      3  O   UNL A   1      36.380  22.137  25.924  1.00  0.00    -0.376 OA
BRANCH   3   4
ATOM      4  C   UNL A   1      36.059  21.050  25.058  1.00  0.00     0.202 C 
BRANCH   4   5
ATOM      5  C   UNL A   1      34.623  20.499  24.998  1.00  0.00     0.261 C 
BRANCH   5   6
ATOM      6  O   UNL A   1      33.618  21.530  24.883  1.00  0.00    -0.463 OA
BRANCH   6   7
ATOM      7  C   UNL A   1      32.341  21.156  25.089  1.00  0.00     0.307 C 
ATOM      8  O   UNL A   1      31.945  19.996  25.001  1.00  0.00    -0.252 OA
BRANCH   7   9
ATOM      9  C   UNL A   1      31.386  22.250  25.512  1.00  0.00     0.147 C 
BRANCH   9  10
ATOM     10  C   UNL A   1      31.339  23.690  24.974  1.00  0.00     0.090 C 
ATOM     11  C   UNL A   1      30.900  23.890  23.530  1.00  0.00     0.031 C 
BRANCH  10  12
ATOM     12  N   UNL A   1      32.511  24.524  25.283  1.00  0.00    -0.353 N 
ATOM     13  C   UNL A   1      32.722  25.793  25.716  1.00  0.00     0.225 C 
ATOM     14  H   UNL A   1      33.355  24.038  25.138  1.00  0.00     0.163 HD
ATOM     15  O   UNL A   1      33.919  26.112  25.812  1.00  0.00    -0.275 OA
BRANCH  13  16
ATOM     16  C   UNL A   1      31.668  26.844  26.122  1.00  0.00     0.098 C 
ATOM     17  C   UNL A   1      30.928  27.508  24.965  1.00  0.00     0.017 C 
ATOM     18  C   UNL A   1      32.046  27.859  27.193  1.00  0.00     0.134 C 
ATOM     19  C   UNL A   1      31.681  28.704  24.415  1.00  0.00     0.022 C 
ATOM     20  N   UNL A   1      32.741  29.033  26.674  1.00  0.00    -0.324 N 
ATOM     21  C   UNL A   1      32.144  29.682  25.500  1.00  0.00     0.121 C 
BRANCH  20  22
ATOM     22  C   UNL A   1      33.850  29.620  27.250  1.00  0.00     0.314 C 
ATOM     23  N   UNL A   1      33.653  30.748  27.970  1.00  0.00    -0.351 N 
ATOM     24  O   UNL A   1      34.980  29.143  27.210  1.00  0.00    -0.249 OA
ATOM     25  H   UNL A   1      32.756  31.151  28.018  1.00  0.00     0.161 HD
ATOM     26  H   UNL A   1      34.406  31.166  28.447  1.00  0.00     0.161 HD
ENDBRANCH  20  22
ENDBRANCH  13  16
ENDBRANCH  10  12
ENDBRANCH   9  10
ENDBRANCH   7   9
ENDBRANCH   6   7
ENDBRANCH   5   6
ENDBRANCH   4   5
ENDBRANCH   3   4
ENDBRANCH   2   3
ENDBRANCH   1   2
BRANCH   1  27
ATOM     27  O   UNL A   1      39.530  23.481  26.315  1.00  0.00    -0.377 OA
BRANCH  27  28
ATOM     28  C   UNL A   1      39.945  22.173  26.671  1.00  0.00     0.188 C 
BRANCH  28  29
ATOM     29  C   UNL A   1      41.055  21.997  27.712  1.00  0.00     0.188 C 
BRANCH  29  30
ATOM     30  O   UNL A   1      42.047  20.992  27.550  1.00  0.00    -0.376 OA
BRANCH  30  31
ATOM     31  C   UNL A   1      41.728  19.630  27.306  1.00  0.00     0.202 C 
BRANCH  31  32
ATOM     32  C   UNL A   1      42.360  18.833  26.155  1.00  0.00     0.261 C 
BRANCH  32  33
ATOM     33  O   UNL A   1      42.750  19.575  25.000  1.00  0.00    -0.460 OA
BRANCH  33  34
ATOM     34  C   UNL A   1      44.063  19.504  24.690  1.00  0.00     0.338 C 
ATOM     35  O   UNL A   1      44.677  18.553  24.251  1.00  0.00    -0.246 OA
BRANCH  34  36
ATOM     36  C   UNL A   1      44.654  20.840  24.876  1.00  0.00     0.060 A 
ATOM     37  C   UNL A   1      45.228  21.162  26.112  1.00  0.00     0.016 A 
ATOM     38  C   UNL A   1      44.541  21.800  23.868  1.00  0.00     0.016 A 
ATOM     39  C   UNL A   1      45.640  22.467  26.368  1.00  0.00     0.010 A 
ATOM     40  C   UNL A   1      44.934  23.111  24.133  1.00  0.00     0.010 A 
ATOM     41  C   UNL A   1      45.437  23.457  25.400  1.00  0.00    -0.014 A 
BRANCH  41  42
ATOM     42  C   UNL A   1      45.514  24.885  25.782  1.00  0.00     0.031 A 
ATOM     43  C   UNL A   1      46.849  25.570  25.684  1.00  0.00     0.074 A 
ATOM     44  C   UNL A   1      44.431  25.555  26.207  1.00  0.00     0.049 A 
ATOM     45  N   UNL A   1      47.206  26.763  26.080  1.00  0.00    -0.248 NA
ATOM     46  C   UNL A   1      47.933  24.794  25.058  1.00  0.00     0.031 C 
ATOM     47  C   UNL A   1      43.077  25.014  26.280  1.00  0.00     0.029 A 
ATOM     48  N   UNL A   1      44.311  26.839  26.675  1.00  0.00    -0.354 N 
ATOM     49  C   UNL A   1      48.555  26.873  25.771  1.00  0.00     0.074 A 
ATOM     50  C   UNL A   1      48.962  25.620  25.178  1.00  0.00     0.031 C 
ATOM     51  C   UNL A   1      42.263  25.955  26.790  1.00  0.00     0.029 A 
ATOM     52  C   UNL A   1      43.049  27.143  27.119  1.00  0.00     0.049 A 
ATOM     53  H   UNL A   1      45.059  27.480  26.692  1.00  0.00     0.167 HD
ATOM     54  C   UNL A   1      49.379  27.930  25.962  1.00  0.00     0.037 A 
ATOM     55  C   UNL A   1      42.596  28.244  27.751  1.00  0.00     0.037 A 
ATOM     56  C   UNL A   1      48.962  29.174  26.552  1.00  0.00     0.049 A 
ATOM     57  C   UNL A   1      43.553  29.376  28.034  1.00  0.00     0.074 A 
ATOM     58  C   UNL A   1      49.713  30.311  26.788  1.00  0.00     0.029 A 
ATOM     59  N   UNL A   1      47.678  29.438  27.006  1.00  0.00    -0.354 N 
ATOM     60  N   UNL A   1      44.827  29.479  27.738  1.00  0.00    -0.248 NA
ATOM     61  C   UNL A   1      43.008  30.545  28.738  1.00  0.00     0.031 C 
ATOM     62  C   UNL A   1      48.900  31.241  27.441  1.00  0.00     0.029 A 
ATOM     63  C   UNL A   1      47.622  30.713  27.544  1.00  0.00     0.049 A 
ATOM     64  H   UNL A   1      46.920  28.812  26.954  1.00  0.00     0.167 HD
ATOM     65  C   UNL A   1      45.222  30.738  28.176  1.00  0.00     0.074 A 
ATOM     66  C   UNL A   1      44.053  31.362  28.760  1.00  0.00     0.031 C 
ATOM     67  C   UNL A   1      46.440  31.329  28.093  1.00  0.00     0.037 A 
BRANCH  54  68
ATOM     68  C   UNL A   1      50.818  27.773  25.566  1.00  0.00     0.064 A 
ATOM     69  C   UNL A   1      51.814  27.443  26.497  1.00  0.00     0.173 A 
ATOM     70  C   UNL A   1      51.201  27.927  24.224  1.00  0.00     0.173 A 
ATOM     71  F   UNL A   1      51.504  27.301  27.794  1.00  0.00    -0.203 F 
ATOM     72  C   UNL A   1      53.143  27.302  26.105  1.00  0.00     0.198 A 
ATOM     73  C   UNL A   1      52.525  27.751  23.830  1.00  0.00     0.198 A 
ATOM     74  F   UNL A   1      50.288  28.240  23.291  1.00  0.00    -0.203 F 
ATOM     75  F   UNL A   1      54.085  27.040  27.020  1.00  0.00    -0.200 F 
ATOM     76  C   UNL A   1      53.495  27.448  24.771  1.00  0.00     0.200 A 
ATOM     77  F   UNL A   1      52.859  27.877  22.538  1.00  0.00    -0.200 F 
ATOM     78  F   UNL A   1      54.773  27.303  24.395  1.00  0.00    -0.200 F 
ENDBRANCH  54  68
BRANCH  55  79
ATOM     79  C   UNL A   1      41.176  28.324  28.180  1.00  0.00     0.064 A 
ATOM     80  C   UNL A   1      40.201  28.891  27.348  1.00  0.00     0.173 A 
ATOM     81  C   UNL A   1      40.766  27.861  29.439  1.00  0.00     0.173 A 
ATOM     82  F   UNL A   1      40.546  29.370  26.143  1.00  0.00    -0.203 F 
ATOM     83  C   UNL A   1      38.878  29.014  27.767  1.00  0.00     0.198 A 
ATOM     84  C   UNL A   1      39.437  27.954  29.845  1.00  0.00     0.198 A 
ATOM     85  F   UNL A   1      41.658  27.309  30.276  1.00  0.00    -0.203 F 
ATOM     86  F   UNL A   1      37.977  29.609  26.972  1.00  0.00    -0.200 F 
ATOM     87  C   UNL A   1      38.495  28.540  29.013  1.00  0.00     0.200 A 
ATOM     88  F   UNL A   1      39.069  27.482  31.044  1.00  0.00    -0.200 F 
ATOM     89  F   UNL A   1      37.223  28.657  29.416  1.00  0.00    -0.200 F 
ENDBRANCH  55  79
BRANCH  67  90
ATOM     90  C   UNL A   1      46.566  32.747  28.570  1.00  0.00     0.064 A 
ATOM     91  C   UNL A   1      46.323  33.841  27.729  1.00  0.00     0.173 A 
ATOM     92  C   UNL A   1      46.859  33.007  29.919  1.00  0.00     0.173 A 
ATOM     93  F   UNL A   1      46.050  33.648  26.429  1.00  0.00    -0.203 F 
ATOM     94  C   UNL A   1      46.387  35.145  28.216  1.00  0.00     0.198 A 
ATOM     95  C   UNL A   1      46.889  34.309  30.409  1.00  0.00     0.198 A 
ATOM     96  F   UNL A   1      47.089  31.996  30.769  1.00  0.00    -0.203 F 
ATOM     97  F   UNL A   1      46.192  36.179  27.385  1.00  0.00    -0.200 F 
ATOM     98  C   UNL A   1      46.658  35.377  29.556  1.00  0.00     0.200 A 
ATOM     99  F   UNL A   1      47.130  34.529  31.708  1.00  0.00    -0.200 F 
ATOM    100  F   UNL A   1      46.700  36.632  30.026  1.00  0.00    -0.200 F 
ENDBRANCH  67  90
ENDBRANCH  41  42
ENDBRANCH  34  36
ENDBRANCH  33  34
ENDBRANCH  32  33
ENDBRANCH  31  32
ENDBRANCH  30  31
ENDBRANCH  29  30
ENDBRANCH  28  29
ENDBRANCH  27  28
ENDBRANCH   1  27
TORSDOF 24
ENDMDL
MODEL 2
REMARK VINA RESULT:      -9.2      1.513      7.441
REMARK SMILES C[C@@H](CC(=O)OCCOCCOCCOCCOC(=O)c1ccc(-c2c3nc(c(-c4c(F)c(F)c(F)c(F)c4F)c4ccc([nH]4)c(-c4c(F)c(F)c(F)c(F)c4F)c4nc(c(-c5c(F)c(F)c(F)c(F)c5F)c5ccc2[nH]5)C=C4)C=C3)cc1)NC(=O)[C@@H]1CCCN(C(N)=O)C1
REMARK SMILES IDX 11 1 10 2 9 3 8 4 7 5 6 6 4 7 5 8 3 9 2 10 1 11 84 12 85 13
REMARK SMILES IDX 86 15 87 16 88 17 95 18 89 19 91 20 90 21 92 22 93 23 94 24
REMARK SMILES IDX 12 27 13 28 14 29 15 30 16 31 17 32 18 33 19 34 20 35 21 36
REMARK SMILES IDX 22 37 83 38 23 39 82 40 24 41 25 42 26 43 76 44 27 45 81 46
REMARK SMILES IDX 75 47 77 48 28 49 80 50 74 51 73 52 29 54 61 55 41 56 60 57
REMARK SMILES IDX 42 58 45 59 59 60 78 61 43 62 44 63 58 65 79 66 46 67 30 68
REMARK SMILES IDX 31 69 39 70 32 71 33 72 37 73 40 74 34 75 35 76 38 77 36 78
REMARK SMILES IDX 62 79 63 80 71 81 64 82 65 83 69 84 72 85 66 86 67 87 70 88
REMARK SMILES IDX 68 89 47 90 48 91 56 92 49 93 50 94 54 95 57 96 51 97 52 98
REMARK SMILES IDX 55 99 53 100
REMARK H PARENT 84 14 93 25 93 26 77 53 45 64
REMARK Flexibility Score: inf
ROOT
ATOM      1  C   UNL A   1      39.589  23.720  27.628  1.00  0.00     0.188 C 
ENDROOT
BRANCH   1   2
ATOM      2  C   UNL A   1      39.119  23.571  26.182  1.00  0.00     0.188 C 
BRANCH   2   3
ATOM      3  O   UNL A   1      37.950  22.819  25.909  1.00  0.00    -0.376 OA
BRANCH   3   4
ATOM      4  C   UNL A   1      38.052  21.472  25.452  1.00  0.00     0.202 C 
BRANCH   4   5
ATOM      5  C   UNL A   1      36.838  20.768  24.819  1.00  0.00     0.261 C 
BRANCH   5   6
ATOM      6  O   UNL A   1      35.718  21.651  24.593  1.00  0.00    -0.463 OA
BRANCH   6   7
ATOM      7  C   UNL A   1      34.493  21.150  24.840  1.00  0.00     0.307 C 
ATOM      8  O   UNL A   1      34.246  19.948  24.907  1.00  0.00    -0.252 OA
BRANCH   7   9
ATOM      9  C   UNL A   1      33.400  22.161  25.109  1.00  0.00     0.147 C 
BRANCH   9  10
ATOM     10  C   UNL A   1      33.217  23.002  26.385  1.00  0.00     0.090 C 
ATOM     11  C   UNL A   1      33.595  22.361  27.713  1.00  0.00     0.031 C 
BRANCH  10  12
ATOM     12  N   UNL A   1      31.935  23.716  26.497  1.00  0.00    -0.353 N 
ATOM     13  C   UNL A   1      31.518  25.002  26.370  1.00  0.00     0.225 C 
ATOM     14  H   UNL A   1      31.194  23.108  26.721  1.00  0.00     0.163 HD
ATOM     15  O   UNL A   1      30.308  25.175  26.592  1.00  0.00    -0.275 OA
BRANCH  13  16
ATOM     16  C   UNL A   1      32.352  26.234  25.959  1.00  0.00     0.098 C 
ATOM     17  C   UNL A   1      31.581  27.547  25.878  1.00  0.00     0.017 C 
ATOM     18  C   UNL A   1      33.318  26.086  24.791  1.00  0.00     0.134 C 
ATOM     19  C   UNL A   1      30.918  27.741  24.528  1.00  0.00     0.022 C 
ATOM     20  N   UNL A   1      32.702  26.303  23.485  1.00  0.00    -0.324 N 
ATOM     21  C   UNL A   1      31.865  27.502  23.347  1.00  0.00     0.121 C 
BRANCH  20  22
ATOM     22  C   UNL A   1      32.918  25.525  22.366  1.00  0.00     0.314 C 
ATOM     23  N   UNL A   1      32.324  24.310  22.329  1.00  0.00    -0.351 N 
ATOM     24  O   UNL A   1      33.547  25.898  21.380  1.00  0.00    -0.249 OA
ATOM     25  H   UNL A   1      31.813  23.989  23.107  1.00  0.00     0.161 HD
ATOM     26  H   UNL A   1      32.402  23.748  21.525  1.00  0.00     0.161 HD
ENDBRANCH  20  22
ENDBRANCH  13  16
ENDBRANCH  10  12
ENDBRANCH   9  10
ENDBRANCH   7   9
ENDBRANCH   6   7
ENDBRANCH   5   6
ENDBRANCH   4   5
ENDBRANCH   3   4
ENDBRANCH   2   3
ENDBRANCH   1   2
BRANCH   1  27
ATOM     27  O   UNL A   1      40.783  23.038  27.934  1.00  0.00    -0.377 OA
BRANCH  27  28
ATOM     28  C   UNL A   1      41.296  22.079  27.024  1.00  0.00     0.188 C 
BRANCH  28  29
ATOM     29  C   UNL A   1      41.162  20.589  27.352  1.00  0.00     0.188 C 
BRANCH  29  30
ATOM     30  O   UNL A   1      42.258  19.704  27.162  1.00  0.00    -0.376 OA
BRANCH  30  31
ATOM     31  C   UNL A   1      42.360  18.834  26.045  1.00  0.00     0.202 C 
BRANCH  31  32
ATOM     32  C   UNL A   1      43.696  18.557  25.340  1.00  0.00     0.261 C 
BRANCH  32  33
ATOM     33  O   UNL A   1      44.024  19.397  24.233  1.00  0.00    -0.460 OA
BRANCH  33  34
ATOM     34  C   UNL A   1      45.229  20.004  24.313  1.00  0.00     0.338 C 
ATOM     35  O   UNL A   1      46.297  19.600  23.903  1.00  0.00    -0.246 OA
BRANCH  34  36
ATOM     36  C   UNL A   1      45.036  21.337  24.908  1.00  0.00     0.060 A 
ATOM     37  C   UNL A   1      44.827  22.433  24.062  1.00  0.00     0.016 A 
ATOM     38  C   UNL A   1      45.173  21.513  26.286  1.00  0.00     0.016 A 
ATOM     39  C   UNL A   1      44.810  23.722  24.587  1.00  0.00     0.010 A 
ATOM     40  C   UNL A   1      45.178  22.805  26.808  1.00  0.00     0.010 A 
ATOM     41  C   UNL A   1      45.047  23.915  25.953  1.00  0.00    -0.014 A 
BRANCH  41  42
ATOM     42  C   UNL A   1      45.405  25.261  26.454  1.00  0.00     0.031 A 
ATOM     43  C   UNL A   1      44.309  26.107  27.042  1.00  0.00     0.074 A 
ATOM     44  C   UNL A   1      46.664  25.720  26.389  1.00  0.00     0.049 A 
ATOM     45  N   UNL A   1      44.335  27.357  27.424  1.00  0.00    -0.248 NA
ATOM     46  C   UNL A   1      43.002  25.452  27.213  1.00  0.00     0.031 C 
ATOM     47  C   UNL A   1      47.816  24.965  25.903  1.00  0.00     0.029 A 
ATOM     48  N   UNL A   1      47.177  26.948  26.721  1.00  0.00    -0.354 N 
ATOM     49  C   UNL A   1      43.048  27.642  27.860  1.00  0.00     0.074 A 
ATOM     50  C   UNL A   1      42.258  26.447  27.673  1.00  0.00     0.031 C 
ATOM     51  C   UNL A   1      48.901  25.758  25.944  1.00  0.00     0.029 A 
ATOM     52  C   UNL A   1      48.509  27.085  26.417  1.00  0.00     0.049 A 
ATOM     53  H   UNL A   1      46.642  27.663  27.137  1.00  0.00     0.167 HD
ATOM     54  C   UNL A   1      42.571  28.800  28.374  1.00  0.00     0.037 A 
ATOM     55  C   UNL A   1      49.303  28.171  26.481  1.00  0.00     0.037 A 
ATOM     56  C   UNL A   1      43.368  29.983  28.558  1.00  0.00     0.049 A 
ATOM     57  C   UNL A   1      48.728  29.476  26.975  1.00  0.00     0.074 A 
ATOM     58  C   UNL A   1      42.988  31.208  29.075  1.00  0.00     0.029 A 
ATOM     59  N   UNL A   1      44.710  30.089  28.220  1.00  0.00    -0.354 N 
ATOM     60  N   UNL A   1      47.513  29.742  27.390  1.00  0.00    -0.248 NA
ATOM     61  C   UNL A   1      49.637  30.630  27.012  1.00  0.00     0.031 C 
ATOM     62  C   UNL A   1      44.081  32.074  28.994  1.00  0.00     0.029 A 
ATOM     63  C   UNL A   1      45.165  31.367  28.497  1.00  0.00     0.049 A 
ATOM     64  H   UNL A   1      45.257  29.363  27.841  1.00  0.00     0.167 HD
ATOM     65  C   UNL A   1      47.524  31.077  27.779  1.00  0.00     0.074 A 
ATOM     66  C   UNL A   1      48.866  31.567  27.549  1.00  0.00     0.031 C 
ATOM     67  C   UNL A   1      46.516  31.827  28.289  1.00  0.00     0.037 A 
BRANCH  54  68
ATOM     68  C   UNL A   1      41.117  28.853  28.739  1.00  0.00     0.064 A 
ATOM     69  C   UNL A   1      40.123  29.137  27.791  1.00  0.00     0.173 A 
ATOM     70  C   UNL A   1      40.709  28.588  30.055  1.00  0.00     0.173 A 
ATOM     71  F   UNL A   1      40.460  29.414  26.522  1.00  0.00    -0.203 F 
ATOM     72  C   UNL A   1      38.778  29.181  28.152  1.00  0.00     0.198 A 
ATOM     73  C   UNL A   1      39.361  28.598  30.406  1.00  0.00     0.198 A 
ATOM     74  F   UNL A   1      41.618  28.308  31.003  1.00  0.00    -0.203 F 
ATOM     75  F   UNL A   1      37.851  29.506  27.242  1.00  0.00    -0.200 F 
ATOM     76  C   UNL A   1      38.399  28.902  29.457  1.00  0.00     0.200 A 
ATOM     77  F   UNL A   1      38.996  28.314  31.664  1.00  0.00    -0.200 F 
ATOM     78  F   UNL A   1      37.104  28.936  29.801  1.00  0.00    -0.200 F 
ENDBRANCH  54  68
BRANCH  55  79
ATOM     79  C   UNL A   1      50.722  28.082  26.048  1.00  0.00     0.064 A 
ATOM     80  C   UNL A   1      51.068  28.134  24.690  1.00  0.00     0.173 A 
ATOM     81  C   UNL A   1      51.760  27.917  26.977  1.00  0.00     0.173 A 
ATOM     82  F   UNL A   1      50.110  28.266  23.761  1.00  0.00    -0.203 F 
ATOM     83  C   UNL A   1      52.392  27.999  24.277  1.00  0.00     0.198 A 
ATOM     84  C   UNL A   1      53.087  27.816  26.566  1.00  0.00     0.198 A 
ATOM     85  F   UNL A   1      51.486  27.861  28.288  1.00  0.00    -0.203 F 
ATOM     86  F   UNL A   1      52.687  27.998  22.970  1.00  0.00    -0.200 F 
ATOM     87  C   UNL A   1      53.401  27.847  25.216  1.00  0.00     0.200 A 
ATOM     88  F   UNL A   1      54.061  27.683  27.477  1.00  0.00    -0.200 F 
ATOM     89  F   UNL A   1      54.675  27.719  24.819  1.00  0.00    -0.200 F 
ENDBRANCH  55  79
BRANCH  67  90
ATOM     90  C   UNL A   1      46.832  33.233  28.712  1.00  0.00     0.064 A 
ATOM     91  C   UNL A   1      47.320  33.535  29.990  1.00  0.00     0.173 A 
ATOM     92  C   UNL A   1      46.716  34.284  27.787  1.00  0.00     0.173 A 
ATOM     93  F   UNL A   1      47.440  32.570  30.914  1.00  0.00    -0.203 F 
ATOM     94  C   UNL A   1      47.664  34.841  30.333  1.00  0.00     0.198 A 
ATOM     95  C   UNL A   1      47.091  35.581  28.123  1.00  0.00     0.198 A 
ATOM     96  F   UNL A   1      46.263  34.047  26.547  1.00  0.00    -0.203 F 
ATOM     97  F   UNL A   1      48.091  35.115  31.574  1.00  0.00    -0.200 F 
ATOM     98  C   UNL A   1      47.560  35.859  29.397  1.00  0.00     0.200 A 
ATOM     99  F   UNL A   1      47.009  36.558  27.211  1.00  0.00    -0.200 F 
ATOM    100  F   UNL A   1      47.910  37.111  29.725  1.00  0.00    -0.200 F 
ENDBRANCH  67  90
ENDBRANCH  41  42
ENDBRANCH  34  36
ENDBRANCH  33  34
ENDBRANCH  32  33
ENDBRANCH  31  32
ENDBRANCH  30  31
ENDBRANCH  29  30
ENDBRANCH  28  29
ENDBRANCH  27  28
ENDBRANCH   1  27
TORSDOF 24
ENDMDL
MODEL 3
REMARK VINA RESULT:      -9.0      1.664      7.397
REMARK SMILES C[C@@H](CC(=O)OCCOCCOCCOCCOC(=O)c1ccc(-c2c3nc(c(-c4c(F)c(F)c(F)c(F)c4F)c4ccc([nH]4)c(-c4c(F)c(F)c(F)c(F)c4F)c4nc(c(-c5c(F)c(F)c(F)c(F)c5F)c5ccc2[nH]5)C=C4)C=C3)cc1)NC(=O)[C@@H]1CCCN(C(N)=O)C1
REMARK SMILES IDX 11 1 10 2 9 3 8 4 7 5 6 6 4 7 5 8 3 9 2 10 1 11 84 12 85 13
REMARK SMILES IDX 86 15 87 16 88 17 95 18 89 19 91 20 90 21 92 22 93 23 94 24
REMARK SMILES IDX 12 27 13 28 14 29 15 30 16 31 17 32 18 33 19 34 20 35 21 36
REMARK SMILES IDX 22 37 83 38 23 39 82 40 24 41 25 42 26 43 76 44 27 45 81 46
REMARK SMILES IDX 75 47 77 48 28 49 80 50 74 51 73 52 29 54 61 55 41 56 60 57
REMARK SMILES IDX 42 58 45 59 59 60 78 61 43 62 44 63 58 65 79 66 46 67 30 68
REMARK SMILES IDX 31 69 39 70 32 71 33 72 37 73 40 74 34 75 35 76 38 77 36 78
REMARK SMILES IDX 62 79 63 80 71 81 64 82 65 83 69 84 72 85 66 86 67 87 70 88
REMARK SMILES IDX 68 89 47 90 48 91 56 92 49 93 50 94 54 95 57 96 51 97 52 98
REMARK SMILES IDX 55 99 53 100
REMARK H PARENT 84 14 93 25 93 26 77 53 45 64
REMARK Flexibility Score: inf
ROOT
ATOM      1  C   UNL A   1      39.803  23.361  27.248  1.00  0.00     0.188 C 
ENDROOT
BRANCH   1   2
ATOM      2  C   UNL A   1      38.929  22.859  26.100  1.00  0.00     0.188 C 
BRANCH   2   3
ATOM      3  O   UNL A   1      37.526  22.786  26.279  1.00  0.00    -0.376 OA
BRANCH   3   4
ATOM      4  C   UNL A   1      36.674  23.765  25.687  1.00  0.00     0.202 C 
BRANCH   4   5
ATOM      5  C   UNL A   1      35.438  23.335  24.876  1.00  0.00     0.261 C 
BRANCH   5   6
ATOM      6  O   UNL A   1      35.351  21.908  24.677  1.00  0.00    -0.463 OA
BRANCH   6   7
ATOM      7  C   UNL A   1      34.241  21.299  25.135  1.00  0.00     0.307 C 
ATOM      8  O   UNL A   1      33.969  21.180  26.327  1.00  0.00    -0.252 OA
BRANCH   7   9
ATOM      9  C   UNL A   1      33.271  20.804  24.085  1.00  0.00     0.147 C 
BRANCH   9  10
ATOM     10  C   UNL A   1      32.468  21.664  23.094  1.00  0.00     0.090 C 
ATOM     11  C   UNL A   1      31.800  20.955  21.924  1.00  0.00     0.031 C 
BRANCH  10  12
ATOM     12  N   UNL A   1      33.127  22.901  22.646  1.00  0.00    -0.353 N 
ATOM     13  C   UNL A   1      32.763  24.198  22.479  1.00  0.00     0.225 C 
ATOM     14  H   UNL A   1      34.070  22.749  22.407  1.00  0.00     0.163 HD
ATOM     15  O   UNL A   1      33.659  24.930  22.029  1.00  0.00    -0.275 OA
BRANCH  13  16
ATOM     16  C   UNL A   1      31.404  24.851  22.809  1.00  0.00     0.098 C 
ATOM     17  C   UNL A   1      31.403  26.377  22.838  1.00  0.00     0.017 C 
ATOM     18  C   UNL A   1      30.595  24.275  23.963  1.00  0.00     0.134 C 
ATOM     19  C   UNL A   1      31.819  26.925  24.189  1.00  0.00     0.022 C 
ATOM     20  N   UNL A   1      30.960  24.819  25.269  1.00  0.00    -0.324 N 
ATOM     21  C   UNL A   1      31.071  26.280  25.361  1.00  0.00     0.121 C 
BRANCH  20  22
ATOM     22  C   UNL A   1      31.118  24.078  26.422  1.00  0.00     0.314 C 
ATOM     23  N   UNL A   1      32.383  23.782  26.803  1.00  0.00    -0.351 N 
ATOM     24  O   UNL A   1      30.194  23.741  27.156  1.00  0.00    -0.249 OA
ATOM     25  H   UNL A   1      33.142  24.041  26.232  1.00  0.00     0.161 HD
ATOM     26  H   UNL A   1      32.543  23.307  27.650  1.00  0.00     0.161 HD
ENDBRANCH  20  22
ENDBRANCH  13  16
ENDBRANCH  10  12
ENDBRANCH   9  10
ENDBRANCH   7   9
ENDBRANCH   6   7
ENDBRANCH   5   6
ENDBRANCH   4   5
ENDBRANCH   3   4
ENDBRANCH   2   3
ENDBRANCH   1   2
BRANCH   1  27
ATOM     27  O   UNL A   1      40.804  22.463  27.665  1.00  0.00    -0.377 OA
BRANCH  27  28
ATOM     28  C   UNL A   1      41.459  21.648  26.707  1.00  0.00     0.188 C 
BRANCH  28  29
ATOM     29  C   UNL A   1      41.262  20.129  26.756  1.00  0.00     0.188 C 
BRANCH  29  30
ATOM     30  O   UNL A   1      42.331  19.272  27.132  1.00  0.00    -0.376 OA
BRANCH  30  31
ATOM     31  C   UNL A   1      42.765  18.186  26.326  1.00  0.00     0.202 C 
BRANCH  31  32
ATOM     32  C   UNL A   1      43.983  18.291  25.396  1.00  0.00     0.261 C 
BRANCH  32  33
ATOM     33  O   UNL A   1      43.945  19.317  24.404  1.00  0.00    -0.460 OA
BRANCH  33  34
ATOM     34  C   UNL A   1      45.088  20.025  24.268  1.00  0.00     0.338 C 
ATOM     35  O   UNL A   1      46.094  19.713  23.665  1.00  0.00    -0.246 OA
BRANCH  34  36
ATOM     36  C   UNL A   1      44.895  21.339  24.905  1.00  0.00     0.060 A 
ATOM     37  C   UNL A   1      44.590  22.443  24.100  1.00  0.00     0.016 A 
ATOM     38  C   UNL A   1      45.123  21.492  26.274  1.00  0.00     0.016 A 
ATOM     39  C   UNL A   1      44.569  23.721  24.653  1.00  0.00     0.010 A 
ATOM     40  C   UNL A   1      45.123  22.774  26.823  1.00  0.00     0.010 A 
ATOM     41  C   UNL A   1      44.896  23.895  26.003  1.00  0.00    -0.014 A 
BRANCH  41  42
ATOM     42  C   UNL A   1      45.244  25.241  26.508  1.00  0.00     0.031 A 
ATOM     43  C   UNL A   1      44.143  26.078  27.098  1.00  0.00     0.074 A 
ATOM     44  C   UNL A   1      46.500  25.710  26.442  1.00  0.00     0.049 A 
ATOM     45  N   UNL A   1      44.161  27.327  27.484  1.00  0.00    -0.248 NA
ATOM     46  C   UNL A   1      42.841  25.413  27.269  1.00  0.00     0.031 C 
ATOM     47  C   UNL A   1      47.657  24.965  25.953  1.00  0.00     0.029 A 
ATOM     48  N   UNL A   1      47.005  26.941  26.776  1.00  0.00    -0.354 N 
ATOM     49  C   UNL A   1      42.872  27.602  27.922  1.00  0.00     0.074 A 
ATOM     50  C   UNL A   1      42.090  26.401  27.733  1.00  0.00     0.031 C 
ATOM     51  C   UNL A   1      48.736  25.765  25.995  1.00  0.00     0.029 A 
ATOM     52  C   UNL A   1      48.335  27.088  26.472  1.00  0.00     0.049 A 
ATOM     53  H   UNL A   1      46.465  27.651  27.195  1.00  0.00     0.167 HD
ATOM     54  C   UNL A   1      42.387  28.755  28.440  1.00  0.00     0.037 A 
ATOM     55  C   UNL A   1      49.121  28.180  26.538  1.00  0.00     0.037 A 
ATOM     56  C   UNL A   1      43.175  29.944  28.626  1.00  0.00     0.049 A 
ATOM     57  C   UNL A   1      48.537  29.479  27.036  1.00  0.00     0.074 A 
ATOM     58  C   UNL A   1      42.786  31.165  29.147  1.00  0.00     0.029 A 
ATOM     59  N   UNL A   1      44.516  30.060  28.287  1.00  0.00    -0.354 N 
ATOM     60  N   UNL A   1      47.320  29.736  27.453  1.00  0.00    -0.248 NA
ATOM     61  C   UNL A   1      49.437  30.641  27.075  1.00  0.00     0.031 C 
ATOM     62  C   UNL A   1      43.874  32.038  29.067  1.00  0.00     0.029 A 
ATOM     63  C   UNL A   1      44.962  31.341  28.566  1.00  0.00     0.049 A 
ATOM     64  H   UNL A   1      45.067  29.339  27.906  1.00  0.00     0.167 HD
ATOM     65  C   UNL A   1      47.322  31.070  27.845  1.00  0.00     0.074 A 
ATOM     66  C   UNL A   1      48.661  31.570  27.615  1.00  0.00     0.031 C 
ATOM     67  C   UNL A   1      46.309  31.811  28.359  1.00  0.00     0.037 A 
BRANCH  54  68
ATOM     68  C   UNL A   1      40.932  28.796  28.807  1.00  0.00     0.064 A 
ATOM     69  C   UNL A   1      40.483  28.493  30.100  1.00  0.00     0.173 A 
ATOM     70  C   UNL A   1      39.975  29.173  27.853  1.00  0.00     0.173 A 
ATOM     71  F   UNL A   1      41.355  28.111  31.045  1.00  0.00    -0.203 F 
ATOM     72  C   UNL A   1      39.127  28.539  30.418  1.00  0.00     0.198 A 
ATOM     73  C   UNL A   1      38.624  29.252  28.182  1.00  0.00     0.198 A 
ATOM     74  F   UNL A   1      40.349  29.476  26.599  1.00  0.00    -0.203 F 
ATOM     75  F   UNL A   1      38.716  28.194  31.645  1.00  0.00    -0.200 F 
ATOM     76  C   UNL A   1      38.201  28.927  29.461  1.00  0.00     0.200 A 
ATOM     77  F   UNL A   1      37.733  29.642  27.260  1.00  0.00    -0.200 F 
ATOM     78  F   UNL A   1      36.898  28.979  29.770  1.00  0.00    -0.200 F 
ENDBRANCH  54  68
BRANCH  55  79
ATOM     79  C   UNL A   1      50.540  28.102  26.103  1.00  0.00     0.064 A 
ATOM     80  C   UNL A   1      50.880  28.093  24.743  1.00  0.00     0.173 A 
ATOM     81  C   UNL A   1      51.585  28.010  27.034  1.00  0.00     0.173 A 
ATOM     82  F   UNL A   1      49.915  28.156  23.812  1.00  0.00    -0.203 F 
ATOM     83  C   UNL A   1      52.205  27.969  24.331  1.00  0.00     0.198 A 
ATOM     84  C   UNL A   1      52.913  27.919  26.622  1.00  0.00     0.198 A 
ATOM     85  F   UNL A   1      51.318  28.015  28.348  1.00  0.00    -0.203 F 
ATOM     86  F   UNL A   1      52.495  27.909  23.024  1.00  0.00    -0.200 F 
ATOM     87  C   UNL A   1      53.221  27.889  25.271  1.00  0.00     0.200 A 
ATOM     88  F   UNL A   1      53.893  27.856  27.534  1.00  0.00    -0.200 F 
ATOM     89  F   UNL A   1      54.496  27.771  24.875  1.00  0.00    -0.200 F 
ENDBRANCH  55  79
BRANCH  67  90
ATOM     90  C   UNL A   1      46.616  33.218  28.785  1.00  0.00     0.064 A 
ATOM     91  C   UNL A   1      47.102  33.521  30.064  1.00  0.00     0.173 A 
ATOM     92  C   UNL A   1      46.492  34.270  27.863  1.00  0.00     0.173 A 
ATOM     93  F   UNL A   1      47.229  32.554  30.985  1.00  0.00    -0.203 F 
ATOM     94  C   UNL A   1      47.436  34.828  30.410  1.00  0.00     0.198 A 
ATOM     95  C   UNL A   1      46.858  35.569  28.202  1.00  0.00     0.198 A 
ATOM     96  F   UNL A   1      46.040  34.033  26.622  1.00  0.00    -0.203 F 
ATOM     97  F   UNL A   1      47.862  35.102  31.651  1.00  0.00    -0.200 F 
ATOM     98  C   UNL A   1      47.325  35.848  29.476  1.00  0.00     0.200 A 
ATOM     99  F   UNL A   1      46.769  36.548  27.292  1.00  0.00    -0.200 F 
ATOM    100  F   UNL A   1      47.666  37.101  29.807  1.00  0.00    -0.200 F 
ENDBRANCH  67  90
ENDBRANCH  41  42
ENDBRANCH  34  36
ENDBRANCH  33  34
ENDBRANCH  32  33
ENDBRANCH  31  32
ENDBRANCH  30  31
ENDBRANCH  29  30
ENDBRANCH  28  29
ENDBRANCH  27  28
ENDBRANCH   1  27
TORSDOF 24
ENDMDL
