MODEL 1
REMARK VINA RESULT:     -12.0      0.000      0.000
REMARK SMILES C[N@@H+]1CCN(C(=O)c2ccc3[nH]c4c(c3c2)CSCC4)C[C@H]1C(=O)OCCOCCOCCOCCOC(=O)c1ccc(-c2c3nc(c(-c4c(F)c(F)c(F)c(F)c4F)c4ccc([nH]4)c(-c4c(F)c(F)c(F)c(F)c4F)c4nc(c(-c5c(F)c(F)c(F)c(F)c5F)c5ccc2[nH]5)C=C4)C=C3)cc1
REMARK SMILES IDX 31 1 30 2 29 3 28 4 27 5 26 6 25 7 23 8 24 9 22 10 1 11 2 12
REMARK SMILES IDX 3 13 4 15 21 16 5 17 6 18 7 19 8 20 9 21 16 22 10 23 15 24
REMARK SMILES IDX 11 25 14 26 12 27 13 28 17 29 20 31 18 32 19 33 32 34 33 35
REMARK SMILES IDX 34 36 35 37 36 38 37 39 38 40 39 41 40 42 41 43 102 44 42 45
REMARK SMILES IDX 101 46 43 47 44 48 45 49 95 50 46 51 100 52 94 53 96 54
REMARK SMILES IDX 47 55 99 56 93 57 92 58 48 60 80 61 60 62 79 63 61 64 64 65
REMARK SMILES IDX 78 66 97 67 62 68 63 69 77 71 98 72 65 73 49 74 50 75 58 76
REMARK SMILES IDX 51 77 52 78 56 79 59 80 53 81 54 82 57 83 55 84 81 85 82 86
REMARK SMILES IDX 90 87 83 88 84 89 88 90 91 91 85 92 86 93 89 94 87 95 66 96
REMARK SMILES IDX 67 97 75 98 68 99 69 100 73 101 76 102 70 103 71 104 74 105
REMARK SMILES IDX 72 106
REMARK H PARENT 2 14 12 30 96 59 64 70
REMARK Flexibility Score: inf
ROOT
ATOM      1  O   UNL A   1      34.486  34.720  27.883  1.00  0.00    -0.377 OA
ENDROOT
BRANCH   1   2
ATOM      2  C   UNL A   1      35.167  33.517  28.169  1.00  0.00     0.188 C 
BRANCH   2   3
ATOM      3  C   UNL A   1      34.288  32.275  28.302  1.00  0.00     0.188 C 
BRANCH   3   4
ATOM      4  O   UNL A   1      34.571  31.214  27.414  1.00  0.00    -0.376 OA
BRANCH   4   5
ATOM      5  C   UNL A   1      33.836  29.995  27.457  1.00  0.00     0.202 C 
BRANCH   5   6
ATOM      6  C   UNL A   1      33.505  29.095  26.245  1.00  0.00     0.261 C 
BRANCH   6   7
ATOM      7  O   UNL A   1      32.972  29.695  25.036  1.00  0.00    -0.459 OA
BRANCH   7   8
ATOM      8  C   UNL A   1      32.796  28.812  24.024  1.00  0.00     0.366 C 
ATOM      9  O   UNL A   1      33.473  28.852  22.990  1.00  0.00    -0.245 OA
BRANCH   8  10
ATOM     10  C   UNL A   1      31.688  27.775  24.089  1.00  0.00     0.314 C 
ATOM     11  C   UNL A   1      29.797  28.830  22.873  1.00  0.00     0.333 C 
ATOM     12  N   UNL A   1      30.583  27.621  23.080  1.00  0.00    -0.323 N 
ATOM     13  C   UNL A   1      29.654  26.566  23.609  1.00  0.00     0.284 C 
ATOM     14  H   UNL A   1      31.013  27.389  22.185  1.00  0.00     0.348 HD
ATOM     15  C   UNL A   1      30.341  25.212  23.893  1.00  0.00     0.181 C 
ATOM     16  C   UNL A   1      32.446  26.429  24.134  1.00  0.00     0.197 C 
ATOM     17  N   UNL A   1      31.563  25.395  24.668  1.00  0.00    -0.326 N 
BRANCH  17  18
ATOM     18  C   UNL A   1      31.779  24.684  25.836  1.00  0.00     0.254 C 
ATOM     19  O   UNL A   1      31.130  24.834  26.866  1.00  0.00    -0.269 OA
BRANCH  18  20
ATOM     20  C   UNL A   1      32.833  23.650  25.820  1.00  0.00     0.040 A 
ATOM     21  C   UNL A   1      34.101  23.913  26.342  1.00  0.00     0.016 A 
ATOM     22  C   UNL A   1      32.525  22.425  25.218  1.00  0.00     0.024 A 
ATOM     23  C   UNL A   1      35.112  22.950  26.258  1.00  0.00     0.027 A 
ATOM     24  C   UNL A   1      33.526  21.441  25.139  1.00  0.00     0.004 A 
ATOM     25  C   UNL A   1      34.792  21.723  25.660  1.00  0.00     0.046 A 
ATOM     26  C   UNL A   1      33.558  20.111  24.623  1.00  0.00    -0.009 A 
ATOM     27  N   UNL A   1      35.569  20.603  25.463  1.00  0.00    -0.358 N 
ATOM     28  C   UNL A   1      34.819  19.611  24.893  1.00  0.00     0.021 A 
ATOM     29  C   UNL A   1      32.430  19.370  23.984  1.00  0.00     0.107 C 
ATOM     30  H   UNL A   1      36.522  20.527  25.698  1.00  0.00     0.166 HD
ATOM     31  C   UNL A   1      35.316  18.232  24.626  1.00  0.00     0.065 C 
ATOM     32  S   UNL A   1      32.903  17.735  23.313  1.00  0.00    -0.157 SA
ATOM     33  C   UNL A   1      34.143  17.246  24.570  1.00  0.00     0.076 C 
ENDBRANCH  18  20
ENDBRANCH  17  18
ENDBRANCH   8  10
ENDBRANCH   7   8
ENDBRANCH   6   7
ENDBRANCH   5   6
ENDBRANCH   4   5
ENDBRANCH   3   4
ENDBRANCH   2   3
ENDBRANCH   1   2
BRANCH   1  34
ATOM     34  C   UNL A   1      33.685  35.320  28.892  1.00  0.00     0.188 C 
BRANCH  34  35
ATOM     35  C   UNL A   1      33.435  36.818  28.746  1.00  0.00     0.188 C 
BRANCH  35  36
ATOM     36  O   UNL A   1      33.200  37.521  29.966  1.00  0.00    -0.376 OA
BRANCH  36  37
ATOM     37  C   UNL A   1      33.079  36.731  31.154  1.00  0.00     0.202 C 
BRANCH  37  38
ATOM     38  C   UNL A   1      33.712  37.333  32.419  1.00  0.00     0.261 C 
BRANCH  38  39
ATOM     39  O   UNL A   1      34.258  36.301  33.256  1.00  0.00    -0.460 OA
BRANCH  39  40
ATOM     40  C   UNL A   1      33.794  35.045  33.047  1.00  0.00     0.338 C 
ATOM     41  O   UNL A   1      32.636  34.701  32.879  1.00  0.00    -0.246 OA
BRANCH  40  42
ATOM     42  C   UNL A   1      34.965  34.195  32.736  1.00  0.00     0.060 A 
ATOM     43  C   UNL A   1      36.262  34.710  32.740  1.00  0.00     0.016 A 
ATOM     44  C   UNL A   1      34.713  32.901  32.250  1.00  0.00     0.016 A 
ATOM     45  C   UNL A   1      37.298  33.933  32.231  1.00  0.00     0.010 A 
ATOM     46  C   UNL A   1      35.750  32.133  31.722  1.00  0.00     0.010 A 
ATOM     47  C   UNL A   1      37.047  32.647  31.713  1.00  0.00    -0.014 A 
BRANCH  47  48
ATOM     48  C   UNL A   1      38.215  31.802  31.438  1.00  0.00     0.031 A 
ATOM     49  C   UNL A   1      39.011  31.492  32.662  1.00  0.00     0.074 A 
ATOM     50  C   UNL A   1      38.554  31.166  30.297  1.00  0.00     0.049 A 
ATOM     51  N   UNL A   1      40.241  31.799  32.918  1.00  0.00    -0.248 NA
ATOM     52  C   UNL A   1      38.307  30.825  33.768  1.00  0.00     0.031 C 
ATOM     53  C   UNL A   1      37.772  30.996  29.076  1.00  0.00     0.029 A 
ATOM     54  N   UNL A   1      39.697  30.450  30.042  1.00  0.00    -0.354 N 
ATOM     55  C   UNL A   1      40.515  31.252  34.170  1.00  0.00     0.074 A 
ATOM     56  C   UNL A   1      39.267  30.755  34.689  1.00  0.00     0.031 C 
ATOM     57  C   UNL A   1      38.380  30.080  28.283  1.00  0.00     0.029 A 
ATOM     58  C   UNL A   1      39.652  29.696  28.879  1.00  0.00     0.049 A 
ATOM     59  H   UNL A   1      40.483  30.471  30.634  1.00  0.00     0.167 HD
ATOM     60  C   UNL A   1      41.785  31.093  34.627  1.00  0.00     0.037 A 
ATOM     61  C   UNL A   1      40.571  28.788  28.467  1.00  0.00     0.037 A 
ATOM     62  C   UNL A   1      42.728  31.883  33.889  1.00  0.00     0.049 A 
ATOM     63  C   UNL A   1      41.852  29.075  29.155  1.00  0.00     0.074 A 
ATOM     64  C   UNL A   1      42.964  33.232  33.716  1.00  0.00     0.029 A 
ATOM     65  N   UNL A   1      43.467  31.239  32.934  1.00  0.00    -0.354 N 
ATOM     66  N   UNL A   1      42.605  30.112  28.921  1.00  0.00    -0.248 NA
ATOM     67  C   UNL A   1      42.213  28.295  30.331  1.00  0.00     0.031 C 
ATOM     68  C   UNL A   1      43.524  33.357  32.411  1.00  0.00     0.029 A 
ATOM     69  C   UNL A   1      43.598  32.078  31.859  1.00  0.00     0.049 A 
ATOM     70  H   UNL A   1      43.839  30.330  33.007  1.00  0.00     0.167 HD
ATOM     71  C   UNL A   1      43.256  30.347  30.118  1.00  0.00     0.074 A 
ATOM     72  C   UNL A   1      43.112  29.115  30.877  1.00  0.00     0.031 C 
ATOM     73  C   UNL A   1      43.586  31.614  30.491  1.00  0.00     0.037 A 
BRANCH  60  74
ATOM     74  C   UNL A   1      42.226  29.966  35.526  1.00  0.00     0.064 A 
ATOM     75  C   UNL A   1      43.109  30.233  36.592  1.00  0.00     0.173 A 
ATOM     76  C   UNL A   1      42.056  28.605  35.198  1.00  0.00     0.173 A 
ATOM     77  F   UNL A   1      43.372  31.495  36.962  1.00  0.00    -0.203 F 
ATOM     78  C   UNL A   1      43.810  29.213  37.240  1.00  0.00     0.198 A 
ATOM     79  C   UNL A   1      42.715  27.586  35.885  1.00  0.00     0.198 A 
ATOM     80  F   UNL A   1      41.339  28.218  34.134  1.00  0.00    -0.203 F 
ATOM     81  F   UNL A   1      44.728  29.521  38.167  1.00  0.00    -0.200 F 
ATOM     82  C   UNL A   1      43.613  27.892  36.885  1.00  0.00     0.200 A 
ATOM     83  F   UNL A   1      42.530  26.312  35.510  1.00  0.00    -0.200 F 
ATOM     84  F   UNL A   1      44.324  26.917  37.468  1.00  0.00    -0.200 F 
ENDBRANCH  60  74
BRANCH  61  85
ATOM     85  C   UNL A   1      40.399  27.550  27.666  1.00  0.00     0.064 A 
ATOM     86  C   UNL A   1      41.207  27.296  26.541  1.00  0.00     0.173 A 
ATOM     87  C   UNL A   1      39.656  26.463  28.157  1.00  0.00     0.173 A 
ATOM     88  F   UNL A   1      41.978  28.266  26.028  1.00  0.00    -0.203 F 
ATOM     89  C   UNL A   1      41.299  26.021  25.974  1.00  0.00     0.198 A 
ATOM     90  C   UNL A   1      39.740  25.193  27.583  1.00  0.00     0.198 A 
ATOM     91  F   UNL A   1      38.911  26.585  29.265  1.00  0.00    -0.203 F 
ATOM     92  F   UNL A   1      42.141  25.803  24.955  1.00  0.00    -0.200 F 
ATOM     93  C   UNL A   1      40.576  24.967  26.505  1.00  0.00     0.200 A 
ATOM     94  F   UNL A   1      39.059  24.173  28.125  1.00  0.00    -0.200 F 
ATOM     95  F   UNL A   1      40.717  23.730  26.008  1.00  0.00    -0.200 F 
ENDBRANCH  61  85
BRANCH  73  96
ATOM     96  C   UNL A   1      43.676  32.653  29.414  1.00  0.00     0.064 A 
ATOM     97  C   UNL A   1      42.665  33.587  29.131  1.00  0.00     0.173 A 
ATOM     98  C   UNL A   1      44.885  32.772  28.715  1.00  0.00     0.173 A 
ATOM     99  F   UNL A   1      41.522  33.605  29.830  1.00  0.00    -0.203 F 
ATOM    100  C   UNL A   1      42.846  34.562  28.153  1.00  0.00     0.198 A 
ATOM    101  C   UNL A   1      45.078  33.774  27.770  1.00  0.00     0.198 A 
ATOM    102  F   UNL A   1      45.902  31.937  28.985  1.00  0.00    -0.203 F 
ATOM    103  F   UNL A   1      41.861  35.432  27.887  1.00  0.00    -0.200 F 
ATOM    104  C   UNL A   1      44.054  34.661  27.480  1.00  0.00     0.200 A 
ATOM    105  F   UNL A   1      46.264  33.895  27.159  1.00  0.00    -0.200 F 
ATOM    106  F   UNL A   1      44.240  35.628  26.570  1.00  0.00    -0.200 F 
ENDBRANCH  73  96
ENDBRANCH  47  48
ENDBRANCH  40  42
ENDBRANCH  39  40
ENDBRANCH  38  39
ENDBRANCH  37  38
ENDBRANCH  36  37
ENDBRANCH  35  36
ENDBRANCH  34  35
ENDBRANCH   1  34
TORSDOF 22
ENDMDL
MODEL 2
REMARK VINA RESULT:     -11.8      4.109      9.678
REMARK SMILES C[N@@H+]1CCN(C(=O)c2ccc3[nH]c4c(c3c2)CSCC4)C[C@H]1C(=O)OCCOCCOCCOCCOC(=O)c1ccc(-c2c3nc(c(-c4c(F)c(F)c(F)c(F)c4F)c4ccc([nH]4)c(-c4c(F)c(F)c(F)c(F)c4F)c4nc(c(-c5c(F)c(F)c(F)c(F)c5F)c5ccc2[nH]5)C=C4)C=C3)cc1
REMARK SMILES IDX 31 1 30 2 29 3 28 4 27 5 26 6 25 7 23 8 24 9 22 10 1 11 2 12
REMARK SMILES IDX 3 13 4 15 21 16 5 17 6 18 7 19 8 20 9 21 16 22 10 23 15 24
REMARK SMILES IDX 11 25 14 26 12 27 13 28 17 29 20 31 18 32 19 33 32 34 33 35
REMARK SMILES IDX 34 36 35 37 36 38 37 39 38 40 39 41 40 42 41 43 102 44 42 45
REMARK SMILES IDX 101 46 43 47 44 48 45 49 95 50 46 51 100 52 94 53 96 54
REMARK SMILES IDX 47 55 99 56 93 57 92 58 48 60 80 61 60 62 79 63 61 64 64 65
REMARK SMILES IDX 78 66 97 67 62 68 63 69 77 71 98 72 65 73 49 74 50 75 58 76
REMARK SMILES IDX 51 77 52 78 56 79 59 80 53 81 54 82 57 83 55 84 81 85 82 86
REMARK SMILES IDX 90 87 83 88 84 89 88 90 91 91 85 92 86 93 89 94 87 95 66 96
REMARK SMILES IDX 67 97 75 98 68 99 69 100 73 101 76 102 70 103 71 104 74 105
REMARK SMILES IDX 72 106
REMARK H PARENT 2 14 12 30 96 59 64 70
REMARK Flexibility Score: inf
ROOT
ATOM      1  O   UNL A   1      38.140  21.159  25.356  1.00  0.00    -0.377 OA
ENDROOT
BRANCH   1   2
ATOM      2  C   UNL A   1      37.025  20.830  24.555  1.00  0.00     0.188 C 
BRANCH   2   3
ATOM      3  C   UNL A   1      35.869  20.144  25.281  1.00  0.00     0.188 C 
BRANCH   3   4
ATOM      4  O   UNL A   1      35.149  19.183  24.537  1.00  0.00    -0.376 OA
BRANCH   4   5
ATOM      5  C   UNL A   1      33.729  19.105  24.605  1.00  0.00     0.202 C 
BRANCH   5   6
ATOM      6  C   UNL A   1      32.824  19.900  25.573  1.00  0.00     0.261 C 
BRANCH   6   7
ATOM      7  O   UNL A   1      31.715  20.670  25.042  1.00  0.00    -0.459 OA
BRANCH   7   8
ATOM      8  C   UNL A   1      31.692  21.955  25.472  1.00  0.00     0.366 C 
ATOM      9  O   UNL A   1      30.731  22.425  26.092  1.00  0.00    -0.245 OA
BRANCH   8  10
ATOM     10  C   UNL A   1      32.829  22.902  25.131  1.00  0.00     0.314 C 
ATOM     11  C   UNL A   1      34.188  22.995  27.207  1.00  0.00     0.333 C 
ATOM     12  N   UNL A   1      34.197  22.877  25.755  1.00  0.00    -0.323 N 
ATOM     13  C   UNL A   1      34.945  24.061  25.214  1.00  0.00     0.284 C 
ATOM     14  H   UNL A   1      34.621  21.977  25.532  1.00  0.00     0.348 HD
ATOM     15  C   UNL A   1      35.038  24.092  23.672  1.00  0.00     0.181 C 
ATOM     16  C   UNL A   1      33.026  22.707  23.610  1.00  0.00     0.197 C 
ATOM     17  N   UNL A   1      33.733  23.863  23.062  1.00  0.00    -0.326 N 
BRANCH  17  18
ATOM     18  C   UNL A   1      33.226  24.733  22.113  1.00  0.00     0.254 C 
ATOM     19  O   UNL A   1      33.271  24.536  20.903  1.00  0.00    -0.269 OA
BRANCH  18  20
ATOM     20  C   UNL A   1      32.552  25.953  22.597  1.00  0.00     0.040 A 
ATOM     21  C   UNL A   1      31.381  26.413  21.990  1.00  0.00     0.016 A 
ATOM     22  C   UNL A   1      33.160  26.653  23.646  1.00  0.00     0.024 A 
ATOM     23  C   UNL A   1      30.790  27.609  22.412  1.00  0.00     0.027 A 
ATOM     24  C   UNL A   1      32.569  27.849  24.091  1.00  0.00     0.004 A 
ATOM     25  C   UNL A   1      31.402  28.298  23.468  1.00  0.00     0.046 A 
ATOM     26  C   UNL A   1      32.897  28.784  25.118  1.00  0.00    -0.009 A 
ATOM     27  N   UNL A   1      31.035  29.470  24.093  1.00  0.00    -0.358 N 
ATOM     28  C   UNL A   1      31.896  29.738  25.122  1.00  0.00     0.021 A 
ATOM     29  C   UNL A   1      34.055  28.711  26.060  1.00  0.00     0.107 C 
ATOM     30  H   UNL A   1      30.267  30.031  23.837  1.00  0.00     0.166 HD
ATOM     31  C   UNL A   1      31.742  30.878  26.068  1.00  0.00     0.065 C 
ATOM     32  S   UNL A   1      34.224  30.179  27.140  1.00  0.00    -0.157 SA
ATOM     33  C   UNL A   1      32.452  30.568  27.392  1.00  0.00     0.076 C 
ENDBRANCH  18  20
ENDBRANCH  17  18
ENDBRANCH   8  10
ENDBRANCH   7   8
ENDBRANCH   6   7
ENDBRANCH   5   6
ENDBRANCH   4   5
ENDBRANCH   3   4
ENDBRANCH   2   3
ENDBRANCH   1   2
BRANCH   1  34
ATOM     34  C   UNL A   1      38.202  22.443  25.963  1.00  0.00     0.188 C 
BRANCH  34  35
ATOM     35  C   UNL A   1      39.530  22.810  26.618  1.00  0.00     0.188 C 
BRANCH  35  36
ATOM     36  O   UNL A   1      40.268  21.717  27.163  1.00  0.00    -0.376 OA
BRANCH  36  37
ATOM     37  C   UNL A   1      40.951  20.871  26.232  1.00  0.00     0.202 C 
BRANCH  37  38
ATOM     38  C   UNL A   1      42.479  21.032  26.188  1.00  0.00     0.261 C 
BRANCH  38  39
ATOM     39  O   UNL A   1      42.871  22.329  26.667  1.00  0.00    -0.460 OA
BRANCH  39  40
ATOM     40  C   UNL A   1      43.019  23.298  25.731  1.00  0.00     0.338 C 
ATOM     41  O   UNL A   1      43.133  23.154  24.525  1.00  0.00    -0.246 OA
BRANCH  40  42
ATOM     42  C   UNL A   1      42.697  24.587  26.385  1.00  0.00     0.060 A 
ATOM     43  C   UNL A   1      43.039  24.836  27.715  1.00  0.00     0.016 A 
ATOM     44  C   UNL A   1      41.868  25.478  25.683  1.00  0.00     0.016 A 
ATOM     45  C   UNL A   1      42.525  25.965  28.344  1.00  0.00     0.010 A 
ATOM     46  C   UNL A   1      41.337  26.598  26.323  1.00  0.00     0.010 A 
ATOM     47  C   UNL A   1      41.666  26.845  27.655  1.00  0.00    -0.014 A 
BRANCH  47  48
ATOM     48  C   UNL A   1      41.380  28.133  28.300  1.00  0.00     0.031 A 
ATOM     49  C   UNL A   1      42.423  29.166  28.027  1.00  0.00     0.074 A 
ATOM     50  C   UNL A   1      40.264  28.530  28.945  1.00  0.00     0.049 A 
ATOM     51  N   UNL A   1      43.190  29.773  28.872  1.00  0.00    -0.248 NA
ATOM     52  C   UNL A   1      42.689  29.493  26.618  1.00  0.00     0.031 C 
ATOM     53  C   UNL A   1      38.969  27.861  29.031  1.00  0.00     0.029 A 
ATOM     54  N   UNL A   1      40.054  29.711  29.612  1.00  0.00    -0.354 N 
ATOM     55  C   UNL A   1      43.955  30.661  28.119  1.00  0.00     0.074 A 
ATOM     56  C   UNL A   1      43.680  30.377  26.735  1.00  0.00     0.031 C 
ATOM     57  C   UNL A   1      38.059  28.720  29.552  1.00  0.00     0.029 A 
ATOM     58  C   UNL A   1      38.730  29.949  29.950  1.00  0.00     0.049 A 
ATOM     59  H   UNL A   1      40.782  30.335  29.833  1.00  0.00     0.167 HD
ATOM     60  C   UNL A   1      44.640  31.689  28.687  1.00  0.00     0.037 A 
ATOM     61  C   UNL A   1      38.222  31.092  30.473  1.00  0.00     0.037 A 
ATOM     62  C   UNL A   1      44.804  31.511  30.102  1.00  0.00     0.049 A 
ATOM     63  C   UNL A   1      39.330  31.855  31.096  1.00  0.00     0.074 A 
ATOM     64  C   UNL A   1      45.474  30.620  30.914  1.00  0.00     0.029 A 
ATOM     65  N   UNL A   1      43.958  32.212  30.919  1.00  0.00    -0.354 N 
ATOM     66  N   UNL A   1      39.955  31.502  32.182  1.00  0.00    -0.248 NA
ATOM     67  C   UNL A   1      39.939  32.951  30.353  1.00  0.00     0.031 C 
ATOM     68  C   UNL A   1      44.714  30.553  32.118  1.00  0.00     0.029 A 
ATOM     69  C   UNL A   1      43.620  31.406  31.974  1.00  0.00     0.049 A 
ATOM     70  H   UNL A   1      43.645  33.134  30.773  1.00  0.00     0.167 HD
ATOM     71  C   UNL A   1      41.223  32.035  32.043  1.00  0.00     0.074 A 
ATOM     72  C   UNL A   1      41.099  33.045  31.004  1.00  0.00     0.031 C 
ATOM     73  C   UNL A   1      42.305  31.399  32.573  1.00  0.00     0.037 A 
BRANCH  60  74
ATOM     74  C   UNL A   1      44.873  33.021  28.023  1.00  0.00     0.064 A 
ATOM     75  C   UNL A   1      46.179  33.389  27.643  1.00  0.00     0.173 A 
ATOM     76  C   UNL A   1      43.920  34.061  28.023  1.00  0.00     0.173 A 
ATOM     77  F   UNL A   1      47.171  32.486  27.643  1.00  0.00    -0.203 F 
ATOM     78  C   UNL A   1      46.514  34.711  27.340  1.00  0.00     0.198 A 
ATOM     79  C   UNL A   1      44.246  35.369  27.666  1.00  0.00     0.198 A 
ATOM     80  F   UNL A   1      42.672  33.877  28.475  1.00  0.00    -0.203 F 
ATOM     81  F   UNL A   1      47.791  35.035  27.100  1.00  0.00    -0.200 F 
ATOM     82  C   UNL A   1      45.548  35.699  27.354  1.00  0.00     0.200 A 
ATOM     83  F   UNL A   1      43.300  36.319  27.710  1.00  0.00    -0.200 F 
ATOM     84  F   UNL A   1      45.876  36.976  27.118  1.00  0.00    -0.200 F 
ENDBRANCH  60  74
BRANCH  61  85
ATOM     85  C   UNL A   1      36.876  31.699  30.317  1.00  0.00     0.064 A 
ATOM     86  C   UNL A   1      35.983  31.773  31.402  1.00  0.00     0.173 A 
ATOM     87  C   UNL A   1      36.557  32.482  29.193  1.00  0.00     0.173 A 
ATOM     88  F   UNL A   1      36.228  31.088  32.529  1.00  0.00    -0.203 F 
ATOM     89  C   UNL A   1      34.866  32.615  31.380  1.00  0.00     0.198 A 
ATOM     90  C   UNL A   1      35.435  33.314  29.168  1.00  0.00     0.198 A 
ATOM     91  F   UNL A   1      37.380  32.534  28.136  1.00  0.00    -0.203 F 
ATOM     92  F   UNL A   1      34.086  32.717  32.466  1.00  0.00    -0.200 F 
ATOM     93  C   UNL A   1      34.601  33.395  30.269  1.00  0.00     0.200 A 
ATOM     94  F   UNL A   1      35.207  34.088  28.098  1.00  0.00    -0.200 F 
ATOM     95  F   UNL A   1      33.573  34.254  30.273  1.00  0.00    -0.200 F 
ENDBRANCH  61  85
BRANCH  73  96
ATOM     96  C   UNL A   1      42.061  30.420  33.680  1.00  0.00     0.064 A 
ATOM     97  C   UNL A   1      41.689  29.080  33.482  1.00  0.00     0.173 A 
ATOM     98  C   UNL A   1      42.322  30.835  34.993  1.00  0.00     0.173 A 
ATOM     99  F   UNL A   1      41.524  28.580  32.249  1.00  0.00    -0.203 F 
ATOM    100  C   UNL A   1      41.539  28.212  34.561  1.00  0.00     0.198 A 
ATOM    101  C   UNL A   1      42.213  29.954  36.065  1.00  0.00     0.198 A 
ATOM    102  F   UNL A   1      42.732  32.091  35.232  1.00  0.00    -0.203 F 
ATOM    103  F   UNL A   1      41.164  26.942  34.350  1.00  0.00    -0.200 F 
ATOM    104  C   UNL A   1      41.808  28.646  35.850  1.00  0.00     0.200 A 
ATOM    105  F   UNL A   1      42.523  30.367  37.301  1.00  0.00    -0.200 F 
ATOM    106  F   UNL A   1      41.704  27.797  36.882  1.00  0.00    -0.200 F 
ENDBRANCH  73  96
ENDBRANCH  47  48
ENDBRANCH  40  42
ENDBRANCH  39  40
ENDBRANCH  38  39
ENDBRANCH  37  38
ENDBRANCH  36  37
ENDBRANCH  35  36
ENDBRANCH  34  35
ENDBRANCH   1  34
TORSDOF 22
ENDMDL
MODEL 3
REMARK VINA RESULT:     -11.6      2.447      3.700
REMARK SMILES C[N@@H+]1CCN(C(=O)c2ccc3[nH]c4c(c3c2)CSCC4)C[C@H]1C(=O)OCCOCCOCCOCCOC(=O)c1ccc(-c2c3nc(c(-c4c(F)c(F)c(F)c(F)c4F)c4ccc([nH]4)c(-c4c(F)c(F)c(F)c(F)c4F)c4nc(c(-c5c(F)c(F)c(F)c(F)c5F)c5ccc2[nH]5)C=C4)C=C3)cc1
REMARK SMILES IDX 31 1 30 2 29 3 28 4 27 5 26 6 25 7 23 8 24 9 22 10 1 11 2 12
REMARK SMILES IDX 3 13 4 15 21 16 5 17 6 18 7 19 8 20 9 21 16 22 10 23 15 24
REMARK SMILES IDX 11 25 14 26 12 27 13 28 17 29 20 31 18 32 19 33 32 34 33 35
REMARK SMILES IDX 34 36 35 37 36 38 37 39 38 40 39 41 40 42 41 43 102 44 42 45
REMARK SMILES IDX 101 46 43 47 44 48 45 49 95 50 46 51 100 52 94 53 96 54
REMARK SMILES IDX 47 55 99 56 93 57 92 58 48 60 80 61 60 62 79 63 61 64 64 65
REMARK SMILES IDX 78 66 97 67 62 68 63 69 77 71 98 72 65 73 49 74 50 75 58 76
REMARK SMILES IDX 51 77 52 78 56 79 59 80 53 81 54 82 57 83 55 84 81 85 82 86
REMARK SMILES IDX 90 87 83 88 84 89 88 90 91 91 85 92 86 93 89 94 87 95 66 96
REMARK SMILES IDX 67 97 75 98 68 99 69 100 73 101 76 102 70 103 71 104 74 105
REMARK SMILES IDX 72 106
REMARK H PARENT 2 14 12 30 96 59 64 70
REMARK Flexibility Score: inf
ROOT
ATOM      1  O   UNL A   1      32.506  30.179  27.063  1.00  0.00    -0.377 OA
ENDROOT
BRANCH   1   2
ATOM      2  C   UNL A   1      31.778  30.722  25.982  1.00  0.00     0.188 C 
BRANCH   2   3
ATOM      3  C   UNL A   1      31.059  29.708  25.095  1.00  0.00     0.188 C 
BRANCH   3   4
ATOM      4  O   UNL A   1      31.350  29.771  23.714  1.00  0.00    -0.376 OA
BRANCH   4   5
ATOM      5  C   UNL A   1      30.425  29.305  22.738  1.00  0.00     0.202 C 
BRANCH   5   6
ATOM      6  C   UNL A   1      29.277  28.300  22.986  1.00  0.00     0.261 C 
BRANCH   6   7
ATOM      7  O   UNL A   1      29.575  26.881  23.057  1.00  0.00    -0.459 OA
BRANCH   7   8
ATOM      8  C   UNL A   1      30.823  26.567  22.636  1.00  0.00     0.366 C 
ATOM      9  O   UNL A   1      31.093  26.408  21.439  1.00  0.00    -0.245 OA
BRANCH   8  10
ATOM     10  C   UNL A   1      31.935  26.312  23.639  1.00  0.00     0.314 C 
ATOM     11  C   UNL A   1      33.889  27.522  22.700  1.00  0.00     0.333 C 
ATOM     12  N   UNL A   1      33.103  27.226  23.890  1.00  0.00    -0.323 N 
ATOM     13  C   UNL A   1      34.007  26.521  24.861  1.00  0.00     0.284 C 
ATOM     14  H   UNL A   1      32.733  28.112  24.231  1.00  0.00     0.348 HD
ATOM     15  C   UNL A   1      33.316  26.125  26.184  1.00  0.00     0.181 C 
ATOM     16  C   UNL A   1      31.188  26.159  24.983  1.00  0.00     0.197 C 
ATOM     17  N   UNL A   1      32.045  25.454  25.934  1.00  0.00    -0.326 N 
BRANCH  17  18
ATOM     18  C   UNL A   1      31.761  24.228  26.509  1.00  0.00     0.254 C 
ATOM     19  O   UNL A   1      30.733  23.979  27.131  1.00  0.00    -0.269 OA
BRANCH  18  20
ATOM     20  C   UNL A   1      32.743  23.142  26.322  1.00  0.00     0.040 A 
ATOM     21  C   UNL A   1      34.002  23.204  26.923  1.00  0.00     0.016 A 
ATOM     22  C   UNL A   1      32.380  22.083  25.481  1.00  0.00     0.024 A 
ATOM     23  C   UNL A   1      34.950  22.203  26.681  1.00  0.00     0.027 A 
ATOM     24  C   UNL A   1      33.317  21.061  25.241  1.00  0.00     0.004 A 
ATOM     25  C   UNL A   1      34.574  21.143  25.844  1.00  0.00     0.046 A 
ATOM     26  C   UNL A   1      33.282  19.859  24.475  1.00  0.00    -0.009 A 
ATOM     27  N   UNL A   1      35.283  20.028  25.454  1.00  0.00    -0.358 N 
ATOM     28  C   UNL A   1      34.494  19.223  24.678  1.00  0.00     0.021 A 
ATOM     29  C   UNL A   1      32.136  19.341  23.669  1.00  0.00     0.107 C 
ATOM     30  H   UNL A   1      36.218  19.838  25.698  1.00  0.00     0.166 HD
ATOM     31  C   UNL A   1      34.910  17.890  24.160  1.00  0.00     0.065 C 
ATOM     32  S   UNL A   1      32.528  17.836  22.704  1.00  0.00    -0.157 SA
ATOM     33  C   UNL A   1      33.677  17.023  23.876  1.00  0.00     0.076 C 
ENDBRANCH  18  20
ENDBRANCH  17  18
ENDBRANCH   8  10
ENDBRANCH   7   8
ENDBRANCH   6   7
ENDBRANCH   5   6
ENDBRANCH   4   5
ENDBRANCH   3   4
ENDBRANCH   2   3
ENDBRANCH   1   2
BRANCH   1  34
ATOM     34  C   UNL A   1      33.842  29.745  26.851  1.00  0.00     0.188 C 
BRANCH  34  35
ATOM     35  C   UNL A   1      34.894  30.329  27.788  1.00  0.00     0.188 C 
BRANCH  35  36
ATOM     36  O   UNL A   1      35.201  31.708  27.581  1.00  0.00    -0.376 OA
BRANCH  36  37
ATOM     37  C   UNL A   1      34.451  32.658  28.344  1.00  0.00     0.202 C 
BRANCH  37  38
ATOM     38  C   UNL A   1      35.062  33.052  29.699  1.00  0.00     0.261 C 
BRANCH  38  39
ATOM     39  O   UNL A   1      34.801  32.044  30.689  1.00  0.00    -0.460 OA
BRANCH  39  40
ATOM     40  C   UNL A   1      35.550  32.098  31.817  1.00  0.00     0.338 C 
ATOM     41  O   UNL A   1      35.214  32.517  32.912  1.00  0.00    -0.246 OA
BRANCH  40  42
ATOM     42  C   UNL A   1      36.751  31.265  31.581  1.00  0.00     0.060 A 
ATOM     43  C   UNL A   1      38.037  31.806  31.632  1.00  0.00     0.016 A 
ATOM     44  C   UNL A   1      36.547  29.955  31.116  1.00  0.00     0.016 A 
ATOM     45  C   UNL A   1      39.110  31.039  31.190  1.00  0.00     0.010 A 
ATOM     46  C   UNL A   1      37.623  29.196  30.654  1.00  0.00     0.010 A 
ATOM     47  C   UNL A   1      38.908  29.736  30.692  1.00  0.00    -0.014 A 
BRANCH  47  48
ATOM     48  C   UNL A   1      40.104  28.909  30.493  1.00  0.00     0.031 A 
ATOM     49  C   UNL A   1      40.876  28.687  31.751  1.00  0.00     0.074 A 
ATOM     50  C   UNL A   1      40.488  28.222  29.397  1.00  0.00     0.049 A 
ATOM     51  N   UNL A   1      42.090  29.040  32.019  1.00  0.00    -0.248 NA
ATOM     52  C   UNL A   1      40.161  28.062  32.874  1.00  0.00     0.031 C 
ATOM     53  C   UNL A   1      39.742  27.966  28.168  1.00  0.00     0.029 A 
ATOM     54  N   UNL A   1      41.655  27.525  29.209  1.00  0.00    -0.354 N 
ATOM     55  C   UNL A   1      42.346  28.569  33.305  1.00  0.00     0.074 A 
ATOM     56  C   UNL A   1      41.099  28.067  33.820  1.00  0.00     0.031 C 
ATOM     57  C   UNL A   1      40.393  27.025  27.441  1.00  0.00     0.029 A 
ATOM     58  C   UNL A   1      41.659  26.708  28.088  1.00  0.00     0.049 A 
ATOM     59  H   UNL A   1      42.425  27.598  29.818  1.00  0.00     0.167 HD
ATOM     60  C   UNL A   1      43.607  28.468  33.801  1.00  0.00     0.037 A 
ATOM     61  C   UNL A   1      42.610  25.804  27.748  1.00  0.00     0.037 A 
ATOM     62  C   UNL A   1      44.549  29.243  33.045  1.00  0.00     0.049 A 
ATOM     63  C   UNL A   1      43.866  26.162  28.451  1.00  0.00     0.074 A 
ATOM     64  C   UNL A   1      44.755  30.585  32.804  1.00  0.00     0.029 A 
ATOM     65  N   UNL A   1      45.329  28.568  32.144  1.00  0.00    -0.354 N 
ATOM     66  N   UNL A   1      44.598  27.204  28.179  1.00  0.00    -0.248 NA
ATOM     67  C   UNL A   1      44.217  25.455  29.676  1.00  0.00     0.031 C 
ATOM     68  C   UNL A   1      45.345  30.655  31.508  1.00  0.00     0.029 A 
ATOM     69  C   UNL A   1      45.466  29.351  31.029  1.00  0.00     0.049 A 
ATOM     70  H   UNL A   1      45.722  27.675  32.275  1.00  0.00     0.167 HD
ATOM     71  C   UNL A   1      45.212  27.520  29.377  1.00  0.00     0.074 A 
ATOM     72  C   UNL A   1      45.080  26.327  30.198  1.00  0.00     0.031 C 
ATOM     73  C   UNL A   1      45.501  28.814  29.688  1.00  0.00     0.037 A 
BRANCH  60  74
ATOM     74  C   UNL A   1      44.054  27.404  34.771  1.00  0.00     0.064 A 
ATOM     75  C   UNL A   1      43.976  26.047  34.398  1.00  0.00     0.173 A 
ATOM     76  C   UNL A   1      44.265  27.649  36.144  1.00  0.00     0.173 A 
ATOM     77  F   UNL A   1      43.739  25.701  33.123  1.00  0.00    -0.203 F 
ATOM     78  C   UNL A   1      44.049  25.018  35.340  1.00  0.00     0.198 A 
ATOM     79  C   UNL A   1      44.393  26.618  37.073  1.00  0.00     0.198 A 
ATOM     80  F   UNL A   1      44.243  28.889  36.652  1.00  0.00    -0.203 F 
ATOM     81  F   UNL A   1      43.850  23.750  34.957  1.00  0.00    -0.200 F 
ATOM     82  C   UNL A   1      44.256  25.305  36.676  1.00  0.00     0.200 A 
ATOM     83  F   UNL A   1      44.569  26.916  38.369  1.00  0.00    -0.200 F 
ATOM     84  F   UNL A   1      44.271  24.324  37.589  1.00  0.00    -0.200 F 
ENDBRANCH  60  74
BRANCH  61  85
ATOM     85  C   UNL A   1      42.491  24.521  27.012  1.00  0.00     0.064 A 
ATOM     86  C   UNL A   1      43.007  24.380  25.710  1.00  0.00     0.173 A 
ATOM     87  C   UNL A   1      42.143  23.331  27.675  1.00  0.00     0.173 A 
ATOM     88  F   UNL A   1      43.400  25.459  25.016  1.00  0.00    -0.203 F 
ATOM     89  C   UNL A   1      43.206  23.125  25.128  1.00  0.00     0.198 A 
ATOM     90  C   UNL A   1      42.331  22.078  27.089  1.00  0.00     0.198 A 
ATOM     91  F   UNL A   1      41.708  23.353  28.943  1.00  0.00    -0.203 F 
ATOM     92  F   UNL A   1      43.775  23.031  23.918  1.00  0.00    -0.200 F 
ATOM     93  C   UNL A   1      42.880  21.973  25.824  1.00  0.00     0.200 A 
ATOM     94  F   UNL A   1      42.042  20.969  27.785  1.00  0.00    -0.200 F 
ATOM     95  F   UNL A   1      43.135  20.768  25.296  1.00  0.00    -0.200 F 
ENDBRANCH  61  85
BRANCH  73  96
ATOM     96  C   UNL A   1      45.591  29.796  28.559  1.00  0.00     0.064 A 
ATOM     97  C   UNL A   1      44.485  30.439  27.980  1.00  0.00     0.173 A 
ATOM     98  C   UNL A   1      46.868  30.179  28.123  1.00  0.00     0.173 A 
ATOM     99  F   UNL A   1      43.240  30.204  28.416  1.00  0.00    -0.203 F 
ATOM    100  C   UNL A   1      44.654  31.386  26.972  1.00  0.00     0.198 A 
ATOM    101  C   UNL A   1      47.035  31.156  27.147  1.00  0.00     0.198 A 
ATOM    102  F   UNL A   1      47.960  29.633  28.681  1.00  0.00    -0.203 F 
ATOM    103  F   UNL A   1      43.582  31.973  26.420  1.00  0.00    -0.200 F 
ATOM    104  C   UNL A   1      45.927  31.749  26.562  1.00  0.00     0.200 A 
ATOM    105  F   UNL A   1      48.268  31.539  26.791  1.00  0.00    -0.200 F 
ATOM    106  F   UNL A   1      46.088  32.692  25.623  1.00  0.00    -0.200 F 
ENDBRANCH  73  96
ENDBRANCH  47  48
ENDBRANCH  40  42
ENDBRANCH  39  40
ENDBRANCH  38  39
ENDBRANCH  37  38
ENDBRANCH  36  37
ENDBRANCH  35  36
ENDBRANCH  34  35
ENDBRANCH   1  34
TORSDOF 22
ENDMDL
