MODEL 1
REMARK VINA RESULT:     -11.1      0.000      0.000
REMARK SMILES N#Cc1ccc2c(c1)C=C(C(=O)OCCOCCOCCOCCOC(=O)c1ccc(-c3c4nc(c(-c5c(F)c(F)c(F)c(F)c5F)c5ccc([nH]5)c(-c5c(F)c(F)c(F)c(F)c5F)c5nc(c(-c6c(F)c(F)c(F)c(F)c6F)c6ccc3[nH]6)C=C5)C=C4)cc1)[C@@H](C(F)(F)F)O2
REMARK SMILES IDX 20 1 19 2 18 3 17 4 16 5 15 6 14 7 13 8 11 9 12 10 10 11
REMARK SMILES IDX 3 12 4 13 8 14 5 15 7 16 6 17 9 18 96 19 91 20 2 21 1 22
REMARK SMILES IDX 92 23 93 24 94 25 95 26 21 27 22 28 23 29 24 30 25 31 26 32
REMARK SMILES IDX 27 33 28 34 29 35 90 36 30 37 89 38 31 39 32 40 33 41 83 42
REMARK SMILES IDX 34 43 88 44 82 45 84 46 35 47 87 48 81 49 80 50 36 52 68 53
REMARK SMILES IDX 48 54 67 55 49 56 52 57 66 58 85 59 50 60 51 61 65 63 86 64
REMARK SMILES IDX 53 65 37 66 38 67 46 68 39 69 40 70 44 71 47 72 41 73 42 74
REMARK SMILES IDX 45 75 43 76 69 77 70 78 78 79 71 80 72 81 76 82 79 83 73 84
REMARK SMILES IDX 74 85 77 86 75 87 54 88 55 89 63 90 56 91 57 92 61 93 64 94
REMARK SMILES IDX 58 95 59 96 62 97 60 98
REMARK H PARENT 84 51 52 62
REMARK Flexibility Score: inf
ROOT
ATOM      1  C   UNL A   1      29.845  29.775  22.250  1.00  0.00     0.188 C 
ENDROOT
BRANCH   1   2
ATOM      2  O   UNL A   1      29.695  28.379  21.992  1.00  0.00    -0.377 OA
BRANCH   2   3
ATOM      3  C   UNL A   1      30.414  27.446  22.780  1.00  0.00     0.188 C 
BRANCH   3   4
ATOM      4  C   UNL A   1      29.575  26.607  23.770  1.00  0.00     0.188 C 
BRANCH   4   5
ATOM      5  O   UNL A   1      30.237  25.494  24.333  1.00  0.00    -0.376 OA
BRANCH   5   6
ATOM      6  C   UNL A   1      30.502  25.362  25.715  1.00  0.00     0.202 C 
BRANCH   6   7
ATOM      7  C   UNL A   1      31.845  24.940  26.336  1.00  0.00     0.261 C 
BRANCH   7   8
ATOM      8  O   UNL A   1      32.058  23.549  26.556  1.00  0.00    -0.460 OA
BRANCH   8   9
ATOM      9  C   UNL A   1      33.233  23.052  26.124  1.00  0.00     0.338 C 
ATOM     10  O   UNL A   1      34.345  23.370  26.502  1.00  0.00    -0.246 OA
BRANCH   9  11
ATOM     11  C   UNL A   1      32.943  21.909  25.232  1.00  0.00     0.087 C 
ATOM     12  C   UNL A   1      33.006  17.163  24.500  1.00  0.00     0.053 A 
ATOM     13  C   UNL A   1      32.724  17.375  23.148  1.00  0.00     0.023 A 
ATOM     14  C   UNL A   1      33.050  18.250  25.380  1.00  0.00     0.031 A 
ATOM     15  C   UNL A   1      32.460  18.667  22.684  1.00  0.00     0.048 A 
ATOM     16  C   UNL A   1      32.848  19.547  24.899  1.00  0.00     0.019 A 
ATOM     17  C   UNL A   1      32.523  19.752  23.558  1.00  0.00     0.128 A 
ATOM     18  C   UNL A   1      33.066  20.689  25.768  1.00  0.00     0.027 C 
ATOM     19  O   UNL A   1      32.273  20.977  23.013  1.00  0.00    -0.475 OA
ATOM     20  C   UNL A   1      32.487  22.169  23.820  1.00  0.00     0.316 C 
BRANCH  12  21
ATOM     21  C   UNL A   1      33.294  15.841  24.983  1.00  0.00     0.099 C 
ATOM     22  N   UNL A   1      33.515  14.778  25.381  1.00  0.00    -0.192 NA
ENDBRANCH  12  21
BRANCH  20  23
ATOM     23  C   UNL A   1      33.456  23.091  23.068  1.00  0.00     0.430 C 
ATOM     24  F   UNL A   1      34.746  22.791  23.353  1.00  0.00    -0.167 F 
ATOM     25  F   UNL A   1      33.321  22.981  21.726  1.00  0.00    -0.167 F 
ATOM     26  F   UNL A   1      33.260  24.390  23.389  1.00  0.00    -0.167 F 
ENDBRANCH  20  23
ENDBRANCH   9  11
ENDBRANCH   8   9
ENDBRANCH   7   8
ENDBRANCH   6   7
ENDBRANCH   5   6
ENDBRANCH   4   5
ENDBRANCH   3   4
ENDBRANCH   2   3
ENDBRANCH   1   2
BRANCH   1  27
ATOM     27  C   UNL A   1      29.619  30.419  23.643  1.00  0.00     0.188 C 
BRANCH  27  28
ATOM     28  O   UNL A   1      30.657  30.211  24.575  1.00  0.00    -0.376 OA
BRANCH  28  29
ATOM     29  C   UNL A   1      30.996  31.181  25.540  1.00  0.00     0.202 C 
BRANCH  29  30
ATOM     30  C   UNL A   1      31.791  30.801  26.797  1.00  0.00     0.261 C 
BRANCH  30  31
ATOM     31  O   UNL A   1      33.208  30.983  26.752  1.00  0.00    -0.460 OA
BRANCH  31  32
ATOM     32  C   UNL A   1      33.727  32.024  27.442  1.00  0.00     0.338 C 
ATOM     33  O   UNL A   1      33.208  33.103  27.650  1.00  0.00    -0.246 OA
BRANCH  32  34
ATOM     34  C   UNL A   1      34.973  31.532  28.071  1.00  0.00     0.060 A 
ATOM     35  C   UNL A   1      36.059  32.396  28.229  1.00  0.00     0.016 A 
ATOM     36  C   UNL A   1      35.081  30.184  28.441  1.00  0.00     0.016 A 
ATOM     37  C   UNL A   1      37.246  31.912  28.780  1.00  0.00     0.010 A 
ATOM     38  C   UNL A   1      36.276  29.699  28.981  1.00  0.00     0.010 A 
ATOM     39  C   UNL A   1      37.359  30.567  29.179  1.00  0.00    -0.014 A 
BRANCH  39  40
ATOM     40  C   UNL A   1      38.541  30.137  29.967  1.00  0.00     0.031 A 
ATOM     41  C   UNL A   1      38.789  30.601  31.369  1.00  0.00     0.074 A 
ATOM     42  C   UNL A   1      39.405  29.288  29.377  1.00  0.00     0.049 A 
ATOM     43  N   UNL A   1      39.727  30.227  32.202  1.00  0.00    -0.248 NA
ATOM     44  C   UNL A   1      37.876  31.620  31.905  1.00  0.00     0.031 C 
ATOM     45  C   UNL A   1      39.282  28.799  28.003  1.00  0.00     0.029 A 
ATOM     46  N   UNL A   1      40.535  28.675  29.852  1.00  0.00    -0.354 N 
ATOM     47  C   UNL A   1      39.508  30.941  33.372  1.00  0.00     0.074 A 
ATOM     48  C   UNL A   1      38.379  31.816  33.118  1.00  0.00     0.031 C 
ATOM     49  C   UNL A   1      40.269  27.926  27.759  1.00  0.00     0.029 A 
ATOM     50  C   UNL A   1      41.117  27.824  28.944  1.00  0.00     0.049 A 
ATOM     51  H   UNL A   1      40.895  28.829  30.754  1.00  0.00     0.167 HD
ATOM     52  C   UNL A   1      40.176  30.854  34.549  1.00  0.00     0.037 A 
ATOM     53  C   UNL A   1      42.208  27.042  29.051  1.00  0.00     0.037 A 
ATOM     54  C   UNL A   1      41.311  29.993  34.781  1.00  0.00     0.049 A 
ATOM     55  C   UNL A   1      42.961  27.008  30.350  1.00  0.00     0.074 A 
ATOM     56  C   UNL A   1      42.028  29.811  35.951  1.00  0.00     0.029 A 
ATOM     57  N   UNL A   1      41.905  29.181  33.823  1.00  0.00    -0.354 N 
ATOM     58  N   UNL A   1      42.695  27.622  31.476  1.00  0.00    -0.248 NA
ATOM     59  C   UNL A   1      44.165  26.166  30.397  1.00  0.00     0.031 C 
ATOM     60  C   UNL A   1      43.096  28.948  35.685  1.00  0.00     0.029 A 
ATOM     61  C   UNL A   1      43.003  28.529  34.368  1.00  0.00     0.049 A 
ATOM     62  H   UNL A   1      41.593  29.081  32.895  1.00  0.00     0.167 HD
ATOM     63  C   UNL A   1      43.680  27.228  32.370  1.00  0.00     0.074 A 
ATOM     64  C   UNL A   1      44.538  26.300  31.662  1.00  0.00     0.031 C 
ATOM     65  C   UNL A   1      43.858  27.607  33.660  1.00  0.00     0.037 A 
BRANCH  52  66
ATOM     66  C   UNL A   1      39.699  31.704  35.694  1.00  0.00     0.064 A 
ATOM     67  C   UNL A   1      40.241  32.976  35.935  1.00  0.00     0.173 A 
ATOM     68  C   UNL A   1      38.629  31.287  36.502  1.00  0.00     0.173 A 
ATOM     69  F   UNL A   1      41.264  33.428  35.194  1.00  0.00    -0.203 F 
ATOM     70  C   UNL A   1      39.745  33.787  36.954  1.00  0.00     0.198 A 
ATOM     71  C   UNL A   1      38.114  32.115  37.497  1.00  0.00     0.198 A 
ATOM     72  F   UNL A   1      38.062  30.087  36.306  1.00  0.00    -0.203 F 
ATOM     73  F   UNL A   1      40.303  34.983  37.189  1.00  0.00    -0.200 F 
ATOM     74  C   UNL A   1      38.675  33.360  37.727  1.00  0.00     0.200 A 
ATOM     75  F   UNL A   1      37.065  31.709  38.227  1.00  0.00    -0.200 F 
ATOM     76  F   UNL A   1      38.187  34.150  38.693  1.00  0.00    -0.200 F 
ENDBRANCH  52  66
BRANCH  53  77
ATOM     77  C   UNL A   1      42.620  26.204  27.896  1.00  0.00     0.064 A 
ATOM     78  C   UNL A   1      43.555  26.672  26.963  1.00  0.00     0.173 A 
ATOM     79  C   UNL A   1      42.122  24.902  27.724  1.00  0.00     0.173 A 
ATOM     80  F   UNL A   1      44.047  27.915  27.075  1.00  0.00    -0.203 F 
ATOM     81  C   UNL A   1      43.967  25.876  25.896  1.00  0.00     0.198 A 
ATOM     82  C   UNL A   1      42.562  24.095  26.678  1.00  0.00     0.198 A 
ATOM     83  F   UNL A   1      41.231  24.403  28.594  1.00  0.00    -0.203 F 
ATOM     84  F   UNL A   1      44.835  26.361  24.999  1.00  0.00    -0.200 F 
ATOM     85  C   UNL A   1      43.480  24.585  25.762  1.00  0.00     0.200 A 
ATOM     86  F   UNL A   1      42.105  22.841  26.565  1.00  0.00    -0.200 F 
ATOM     87  F   UNL A   1      43.894  23.813  24.748  1.00  0.00    -0.200 F 
ENDBRANCH  53  77
BRANCH  65  88
ATOM     88  C   UNL A   1      45.020  27.015  34.409  1.00  0.00     0.064 A 
ATOM     89  C   UNL A   1      46.254  27.678  34.494  1.00  0.00     0.173 A 
ATOM     90  C   UNL A   1      44.877  25.809  35.113  1.00  0.00     0.173 A 
ATOM     91  F   UNL A   1      46.451  28.826  33.830  1.00  0.00    -0.203 F 
ATOM     92  C   UNL A   1      47.305  27.146  35.239  1.00  0.00     0.198 A 
ATOM     93  C   UNL A   1      45.916  25.300  35.887  1.00  0.00     0.198 A 
ATOM     94  F   UNL A   1      43.717  25.135  35.073  1.00  0.00    -0.203 F 
ATOM     95  F   UNL A   1      48.486  27.777  35.271  1.00  0.00    -0.200 F 
ATOM     96  C   UNL A   1      47.131  25.966  35.946  1.00  0.00     0.200 A 
ATOM     97  F   UNL A   1      45.739  24.169  36.585  1.00  0.00    -0.200 F 
ATOM     98  F   UNL A   1      48.135  25.469  36.681  1.00  0.00    -0.200 F 
ENDBRANCH  65  88
ENDBRANCH  39  40
ENDBRANCH  32  34
ENDBRANCH  31  32
ENDBRANCH  30  31
ENDBRANCH  29  30
ENDBRANCH  28  29
ENDBRANCH  27  28
ENDBRANCH   1  27
TORSDOF 22
ENDMDL
MODEL 2
REMARK VINA RESULT:     -10.9      4.824     10.671
REMARK SMILES N#Cc1ccc2c(c1)C=C(C(=O)OCCOCCOCCOCCOC(=O)c1ccc(-c3c4nc(c(-c5c(F)c(F)c(F)c(F)c5F)c5ccc([nH]5)c(-c5c(F)c(F)c(F)c(F)c5F)c5nc(c(-c6c(F)c(F)c(F)c(F)c6F)c6ccc3[nH]6)C=C5)C=C4)cc1)[C@@H](C(F)(F)F)O2
REMARK SMILES IDX 20 1 19 2 18 3 17 4 16 5 15 6 14 7 13 8 11 9 12 10 10 11
REMARK SMILES IDX 3 12 4 13 8 14 5 15 7 16 6 17 9 18 96 19 91 20 2 21 1 22
REMARK SMILES IDX 92 23 93 24 94 25 95 26 21 27 22 28 23 29 24 30 25 31 26 32
REMARK SMILES IDX 27 33 28 34 29 35 90 36 30 37 89 38 31 39 32 40 33 41 83 42
REMARK SMILES IDX 34 43 88 44 82 45 84 46 35 47 87 48 81 49 80 50 36 52 68 53
REMARK SMILES IDX 48 54 67 55 49 56 52 57 66 58 85 59 50 60 51 61 65 63 86 64
REMARK SMILES IDX 53 65 37 66 38 67 46 68 39 69 40 70 44 71 47 72 41 73 42 74
REMARK SMILES IDX 45 75 43 76 69 77 70 78 78 79 71 80 72 81 76 82 79 83 73 84
REMARK SMILES IDX 74 85 77 86 75 87 54 88 55 89 63 90 56 91 57 92 61 93 64 94
REMARK SMILES IDX 58 95 59 96 62 97 60 98
REMARK H PARENT 84 51 52 62
REMARK Flexibility Score: inf
ROOT
ATOM      1  C   UNL A   1      34.576  20.597  25.292  1.00  0.00     0.188 C 
ENDROOT
BRANCH   1   2
ATOM      2  O   UNL A   1      33.957  21.879  25.394  1.00  0.00    -0.377 OA
BRANCH   2   3
ATOM      3  C   UNL A   1      32.545  21.977  25.328  1.00  0.00     0.188 C 
BRANCH   3   4
ATOM      4  C   UNL A   1      31.967  22.522  24.004  1.00  0.00     0.188 C 
BRANCH   4   5
ATOM      5  O   UNL A   1      32.799  22.373  22.872  1.00  0.00    -0.376 OA
BRANCH   5   6
ATOM      6  C   UNL A   1      33.602  23.414  22.353  1.00  0.00     0.202 C 
BRANCH   6   7
ATOM      7  C   UNL A   1      33.843  24.780  23.019  1.00  0.00     0.261 C 
BRANCH   7   8
ATOM      8  O   UNL A   1      33.035  25.872  22.590  1.00  0.00    -0.460 OA
BRANCH   8   9
ATOM      9  C   UNL A   1      32.815  26.842  23.498  1.00  0.00     0.338 C 
ATOM     10  O   UNL A   1      33.644  27.376  24.212  1.00  0.00    -0.246 OA
BRANCH   9  11
ATOM     11  C   UNL A   1      31.414  27.289  23.356  1.00  0.00     0.087 C 
ATOM     12  C   UNL A   1      28.317  30.712  22.030  1.00  0.00     0.053 A 
ATOM     13  C   UNL A   1      27.285  30.013  22.663  1.00  0.00     0.023 A 
ATOM     14  C   UNL A   1      29.600  30.158  21.976  1.00  0.00     0.031 A 
ATOM     15  C   UNL A   1      27.531  28.753  23.216  1.00  0.00     0.048 A 
ATOM     16  C   UNL A   1      29.856  28.925  22.586  1.00  0.00     0.019 A 
ATOM     17  C   UNL A   1      28.815  28.210  23.179  1.00  0.00     0.128 A 
ATOM     18  C   UNL A   1      31.216  28.431  22.687  1.00  0.00     0.027 C 
ATOM     19  O   UNL A   1      28.966  26.986  23.761  1.00  0.00    -0.475 OA
ATOM     20  C   UNL A   1      30.305  26.434  23.914  1.00  0.00     0.316 C 
BRANCH  12  21
ATOM     21  C   UNL A   1      28.077  32.014  21.473  1.00  0.00     0.099 C 
ATOM     22  N   UNL A   1      27.870  33.058  21.023  1.00  0.00    -0.192 NA
ENDBRANCH  12  21
BRANCH  20  23
ATOM     23  C   UNL A   1      30.525  26.108  25.397  1.00  0.00     0.430 C 
ATOM     24  F   UNL A   1      30.857  27.215  26.102  1.00  0.00    -0.167 F 
ATOM     25  F   UNL A   1      29.411  25.602  25.974  1.00  0.00    -0.167 F 
ATOM     26  F   UNL A   1      31.516  25.204  25.567  1.00  0.00    -0.167 F 
ENDBRANCH  20  23
ENDBRANCH   9  11
ENDBRANCH   8   9
ENDBRANCH   7   8
ENDBRANCH   6   7
ENDBRANCH   5   6
ENDBRANCH   4   5
ENDBRANCH   3   4
ENDBRANCH   2   3
ENDBRANCH   1   2
BRANCH   1  27
ATOM     27  C   UNL A   1      36.078  20.393  24.962  1.00  0.00     0.188 C 
BRANCH  27  28
ATOM     28  O   UNL A   1      36.964  21.251  25.648  1.00  0.00    -0.376 OA
BRANCH  28  29
ATOM     29  C   UNL A   1      38.352  21.236  25.404  1.00  0.00     0.202 C 
BRANCH  29  30
ATOM     30  C   UNL A   1      39.148  19.925  25.444  1.00  0.00     0.261 C 
BRANCH  30  31
ATOM     31  O   UNL A   1      40.098  19.770  26.502  1.00  0.00    -0.460 OA
BRANCH  31  32
ATOM     32  C   UNL A   1      41.405  19.710  26.163  1.00  0.00     0.338 C 
ATOM     33  O   UNL A   1      41.973  18.816  25.566  1.00  0.00    -0.246 OA
BRANCH  32  34
ATOM     34  C   UNL A   1      41.983  21.035  26.481  1.00  0.00     0.060 A 
ATOM     35  C   UNL A   1      42.215  21.956  25.458  1.00  0.00     0.016 A 
ATOM     36  C   UNL A   1      42.361  21.331  27.800  1.00  0.00     0.016 A 
ATOM     37  C   UNL A   1      42.803  23.185  25.760  1.00  0.00     0.010 A 
ATOM     38  C   UNL A   1      42.962  22.558  28.097  1.00  0.00     0.010 A 
ATOM     39  C   UNL A   1      43.164  23.505  27.083  1.00  0.00    -0.014 A 
BRANCH  39  40
ATOM     40  C   UNL A   1      43.572  24.892  27.413  1.00  0.00     0.031 A 
ATOM     41  C   UNL A   1      44.950  25.413  27.144  1.00  0.00     0.074 A 
ATOM     42  C   UNL A   1      42.645  25.697  27.969  1.00  0.00     0.049 A 
ATOM     43  N   UNL A   1      45.410  26.630  27.293  1.00  0.00    -0.248 NA
ATOM     44  C   UNL A   1      45.944  24.449  26.654  1.00  0.00     0.031 C 
ATOM     45  C   UNL A   1      41.282  25.285  28.308  1.00  0.00     0.029 A 
ATOM     46  N   UNL A   1      42.695  27.020  28.326  1.00  0.00    -0.354 N 
ATOM     47  C   UNL A   1      46.738  26.590  26.892  1.00  0.00     0.074 A 
ATOM     48  C   UNL A   1      47.025  25.211  26.548  1.00  0.00     0.031 C 
ATOM     49  C   UNL A   1      40.611  26.343  28.781  1.00  0.00     0.029 A 
ATOM     50  C   UNL A   1      41.505  27.498  28.817  1.00  0.00     0.049 A 
ATOM     51  H   UNL A   1      43.505  27.573  28.240  1.00  0.00     0.167 HD
ATOM     52  C   UNL A   1      47.621  27.615  26.802  1.00  0.00     0.037 A 
ATOM     53  C   UNL A   1      41.164  28.728  29.243  1.00  0.00     0.037 A 
ATOM     54  C   UNL A   1      47.326  28.981  27.167  1.00  0.00     0.049 A 
ATOM     55  C   UNL A   1      42.182  29.833  29.183  1.00  0.00     0.074 A 
ATOM     56  C   UNL A   1      48.147  30.092  27.074  1.00  0.00     0.029 A 
ATOM     57  N   UNL A   1      46.125  29.420  27.708  1.00  0.00    -0.354 N 
ATOM     58  N   UNL A   1      43.407  29.803  28.722  1.00  0.00    -0.248 NA
ATOM     59  C   UNL A   1      41.766  31.145  29.697  1.00  0.00     0.031 C 
ATOM     60  C   UNL A   1      47.471  31.186  27.624  1.00  0.00     0.029 A 
ATOM     61  C   UNL A   1      46.200  30.777  27.990  1.00  0.00     0.049 A 
ATOM     62  H   UNL A   1      45.336  28.853  27.867  1.00  0.00     0.167 HD
ATOM     63  C   UNL A   1      43.903  31.091  28.869  1.00  0.00     0.074 A 
ATOM     64  C   UNL A   1      42.836  31.886  29.440  1.00  0.00     0.031 C 
ATOM     65  C   UNL A   1      45.135  31.567  28.561  1.00  0.00     0.037 A 
BRANCH  52  66
ATOM     66  C   UNL A   1      48.998  27.315  26.277  1.00  0.00     0.064 A 
ATOM     67  C   UNL A   1      50.047  26.961  27.140  1.00  0.00     0.173 A 
ATOM     68  C   UNL A   1      49.252  27.288  24.897  1.00  0.00     0.173 A 
ATOM     69  F   UNL A   1      49.863  26.968  28.469  1.00  0.00    -0.203 F 
ATOM     70  C   UNL A   1      51.302  26.614  26.641  1.00  0.00     0.198 A 
ATOM     71  C   UNL A   1      50.497  26.908  24.401  1.00  0.00     0.198 A 
ATOM     72  F   UNL A   1      48.281  27.602  24.025  1.00  0.00    -0.203 F 
ATOM     73  F   UNL A   1      52.298  26.316  27.487  1.00  0.00    -0.200 F 
ATOM     74  C   UNL A   1      51.522  26.578  25.272  1.00  0.00     0.200 A 
ATOM     75  F   UNL A   1      50.700  26.851  23.077  1.00  0.00    -0.200 F 
ATOM     76  F   UNL A   1      52.723  26.225  24.794  1.00  0.00    -0.200 F 
ENDBRANCH  52  66
BRANCH  53  77
ATOM     77  C   UNL A   1      39.782  28.976  29.728  1.00  0.00     0.064 A 
ATOM     78  C   UNL A   1      38.785  29.434  28.858  1.00  0.00     0.173 A 
ATOM     79  C   UNL A   1      39.420  28.720  31.061  1.00  0.00     0.173 A 
ATOM     80  F   UNL A   1      39.085  29.709  27.580  1.00  0.00    -0.203 F 
ATOM     81  C   UNL A   1      37.480  29.637  29.303  1.00  0.00     0.198 A 
ATOM     82  C   UNL A   1      38.108  28.890  31.495  1.00  0.00     0.198 A 
ATOM     83  F   UNL A   1      40.336  28.273  31.932  1.00  0.00    -0.203 F 
ATOM     84  F   UNL A   1      36.553  30.110  28.459  1.00  0.00    -0.200 F 
ATOM     85  C   UNL A   1      37.140  29.354  30.617  1.00  0.00     0.200 A 
ATOM     86  F   UNL A   1      37.780  28.594  32.760  1.00  0.00    -0.200 F 
ATOM     87  F   UNL A   1      35.881  29.529  31.038  1.00  0.00    -0.200 F 
ENDBRANCH  53  77
BRANCH  65  88
ATOM     88  C   UNL A   1      45.407  33.022  28.823  1.00  0.00     0.064 A 
ATOM     89  C   UNL A   1      46.022  33.454  30.008  1.00  0.00     0.173 A 
ATOM     90  C   UNL A   1      45.120  33.990  27.846  1.00  0.00     0.173 A 
ATOM     91  F   UNL A   1      46.305  32.575  30.981  1.00  0.00    -0.203 F 
ATOM     92  C   UNL A   1      46.321  34.800  30.213  1.00  0.00     0.198 A 
ATOM     93  C   UNL A   1      45.455  35.328  28.038  1.00  0.00     0.198 A 
ATOM     94  F   UNL A   1      44.539  33.633  26.691  1.00  0.00    -0.203 F 
ATOM     95  F   UNL A   1      46.869  35.193  31.370  1.00  0.00    -0.200 F 
ATOM     96  C   UNL A   1      46.050  35.733  29.223  1.00  0.00     0.200 A 
ATOM     97  F   UNL A   1      45.211  36.224  27.072  1.00  0.00    -0.200 F 
ATOM     98  F   UNL A   1      46.361  37.022  29.413  1.00  0.00    -0.200 F 
ENDBRANCH  65  88
ENDBRANCH  39  40
ENDBRANCH  32  34
ENDBRANCH  31  32
ENDBRANCH  30  31
ENDBRANCH  29  30
ENDBRANCH  28  29
ENDBRANCH  27  28
ENDBRANCH   1  27
TORSDOF 22
ENDMDL
MODEL 3
REMARK VINA RESULT:     -10.8      4.498     10.308
REMARK SMILES N#Cc1ccc2c(c1)C=C(C(=O)OCCOCCOCCOCCOC(=O)c1ccc(-c3c4nc(c(-c5c(F)c(F)c(F)c(F)c5F)c5ccc([nH]5)c(-c5c(F)c(F)c(F)c(F)c5F)c5nc(c(-c6c(F)c(F)c(F)c(F)c6F)c6ccc3[nH]6)C=C5)C=C4)cc1)[C@@H](C(F)(F)F)O2
REMARK SMILES IDX 20 1 19 2 18 3 17 4 16 5 15 6 14 7 13 8 11 9 12 10 10 11
REMARK SMILES IDX 3 12 4 13 8 14 5 15 7 16 6 17 9 18 96 19 91 20 2 21 1 22
REMARK SMILES IDX 92 23 93 24 94 25 95 26 21 27 22 28 23 29 24 30 25 31 26 32
REMARK SMILES IDX 27 33 28 34 29 35 90 36 30 37 89 38 31 39 32 40 33 41 83 42
REMARK SMILES IDX 34 43 88 44 82 45 84 46 35 47 87 48 81 49 80 50 36 52 68 53
REMARK SMILES IDX 48 54 67 55 49 56 52 57 66 58 85 59 50 60 51 61 65 63 86 64
REMARK SMILES IDX 53 65 37 66 38 67 46 68 39 69 40 70 44 71 47 72 41 73 42 74
REMARK SMILES IDX 45 75 43 76 69 77 70 78 78 79 71 80 72 81 76 82 79 83 73 84
REMARK SMILES IDX 74 85 77 86 75 87 54 88 55 89 63 90 56 91 57 92 61 93 64 94
REMARK SMILES IDX 58 95 59 96 62 97 60 98
REMARK H PARENT 84 51 52 62
REMARK Flexibility Score: inf
ROOT
ATOM      1  C   UNL A   1      34.084  23.177  25.890  1.00  0.00     0.188 C 
ENDROOT
BRANCH   1   2
ATOM      2  O   UNL A   1      33.114  23.015  26.924  1.00  0.00    -0.377 OA
BRANCH   2   3
ATOM      3  C   UNL A   1      31.786  22.657  26.581  1.00  0.00     0.188 C 
BRANCH   3   4
ATOM      4  C   UNL A   1      30.778  23.822  26.472  1.00  0.00     0.188 C 
BRANCH   4   5
ATOM      5  O   UNL A   1      30.695  24.435  25.203  1.00  0.00    -0.376 OA
BRANCH   5   6
ATOM      6  C   UNL A   1      30.962  23.757  23.992  1.00  0.00     0.202 C 
BRANCH   6   7
ATOM      7  C   UNL A   1      32.015  24.166  22.946  1.00  0.00     0.261 C 
BRANCH   7   8
ATOM      8  O   UNL A   1      31.675  25.219  22.050  1.00  0.00    -0.460 OA
BRANCH   8   9
ATOM      9  C   UNL A   1      32.490  26.292  22.055  1.00  0.00     0.338 C 
ATOM     10  O   UNL A   1      33.552  26.406  21.471  1.00  0.00    -0.246 OA
BRANCH   9  11
ATOM     11  C   UNL A   1      31.790  27.392  22.751  1.00  0.00     0.087 C 
ATOM     12  C   UNL A   1      29.051  31.327  22.477  1.00  0.00     0.053 A 
ATOM     13  C   UNL A   1      29.324  31.602  23.820  1.00  0.00     0.023 A 
ATOM     14  C   UNL A   1      29.538  30.152  21.895  1.00  0.00     0.031 A 
ATOM     15  C   UNL A   1      30.059  30.691  24.584  1.00  0.00     0.048 A 
ATOM     16  C   UNL A   1      30.326  29.274  22.646  1.00  0.00     0.019 A 
ATOM     17  C   UNL A   1      30.561  29.529  23.998  1.00  0.00     0.128 A 
ATOM     18  C   UNL A   1      30.979  28.149  22.004  1.00  0.00     0.027 C 
ATOM     19  O   UNL A   1      31.284  28.710  24.813  1.00  0.00    -0.475 OA
ATOM     20  C   UNL A   1      31.982  27.570  24.235  1.00  0.00     0.316 C 
BRANCH  12  21
ATOM     21  C   UNL A   1      28.310  32.265  21.680  1.00  0.00     0.099 C 
ATOM     22  N   UNL A   1      27.719  33.030  21.047  1.00  0.00    -0.192 NA
ENDBRANCH  12  21
BRANCH  20  23
ATOM     23  C   UNL A   1      33.466  27.673  24.611  1.00  0.00     0.430 C 
ATOM     24  F   UNL A   1      34.058  26.455  24.625  1.00  0.00    -0.167 F 
ATOM     25  F   UNL A   1      34.160  28.430  23.729  1.00  0.00    -0.167 F 
ATOM     26  F   UNL A   1      33.634  28.222  25.835  1.00  0.00    -0.167 F 
ENDBRANCH  20  23
ENDBRANCH   9  11
ENDBRANCH   8   9
ENDBRANCH   7   8
ENDBRANCH   6   7
ENDBRANCH   5   6
ENDBRANCH   4   5
ENDBRANCH   3   4
ENDBRANCH   2   3
ENDBRANCH   1   2
BRANCH   1  27
ATOM     27  C   UNL A   1      34.550  22.023  24.962  1.00  0.00     0.188 C 
BRANCH  27  28
ATOM     28  O   UNL A   1      35.366  22.416  23.880  1.00  0.00    -0.376 OA
BRANCH  28  29
ATOM     29  C   UNL A   1      36.739  22.102  23.832  1.00  0.00     0.202 C 
BRANCH  29  30
ATOM     30  C   UNL A   1      37.354  21.094  24.812  1.00  0.00     0.261 C 
BRANCH  30  31
ATOM     31  O   UNL A   1      37.922  21.618  26.015  1.00  0.00    -0.460 OA
BRANCH  31  32
ATOM     32  C   UNL A   1      39.233  21.376  26.244  1.00  0.00     0.338 C 
ATOM     33  O   UNL A   1      39.853  20.363  25.984  1.00  0.00    -0.246 OA
BRANCH  32  34
ATOM     34  C   UNL A   1      39.825  22.656  26.693  1.00  0.00     0.060 A 
ATOM     35  C   UNL A   1      40.845  22.652  27.646  1.00  0.00     0.016 A 
ATOM     36  C   UNL A   1      39.308  23.868  26.211  1.00  0.00     0.016 A 
ATOM     37  C   UNL A   1      41.365  23.866  28.099  1.00  0.00     0.010 A 
ATOM     38  C   UNL A   1      39.823  25.082  26.677  1.00  0.00     0.010 A 
ATOM     39  C   UNL A   1      40.874  25.089  27.604  1.00  0.00    -0.014 A 
BRANCH  39  40
ATOM     40  C   UNL A   1      41.592  26.347  27.925  1.00  0.00     0.031 A 
ATOM     41  C   UNL A   1      42.990  26.619  27.461  1.00  0.00     0.074 A 
ATOM     42  C   UNL A   1      40.936  27.267  28.658  1.00  0.00     0.049 A 
ATOM     43  N   UNL A   1      43.697  27.714  27.588  1.00  0.00    -0.248 NA
ATOM     44  C   UNL A   1      43.690  25.525  26.775  1.00  0.00     0.031 C 
ATOM     45  C   UNL A   1      39.585  27.094  29.194  1.00  0.00     0.029 A 
ATOM     46  N   UNL A   1      41.298  28.527  29.061  1.00  0.00    -0.354 N 
ATOM     47  C   UNL A   1      44.916  27.456  26.977  1.00  0.00     0.074 A 
ATOM     48  C   UNL A   1      44.871  26.077  26.529  1.00  0.00     0.031 C 
ATOM     49  C   UNL A   1      39.213  28.221  29.817  1.00  0.00     0.029 A 
ATOM     50  C   UNL A   1      40.312  29.182  29.759  1.00  0.00     0.049 A 
ATOM     51  H   UNL A   1      42.178  28.923  28.871  1.00  0.00     0.167 HD
ATOM     52  C   UNL A   1      45.960  28.301  26.791  1.00  0.00     0.037 A 
ATOM     53  C   UNL A   1      40.288  30.419  30.289  1.00  0.00     0.037 A 
ATOM     54  C   UNL A   1      45.997  29.667  27.259  1.00  0.00     0.049 A 
ATOM     55  C   UNL A   1      41.482  31.314  30.115  1.00  0.00     0.074 A 
ATOM     56  C   UNL A   1      46.997  30.608  27.085  1.00  0.00     0.029 A 
ATOM     57  N   UNL A   1      45.001  30.281  28.006  1.00  0.00    -0.354 N 
ATOM     58  N   UNL A   1      42.595  31.090  29.461  1.00  0.00    -0.248 NA
ATOM     59  C   UNL A   1      41.414  32.639  30.747  1.00  0.00     0.031 C 
ATOM     60  C   UNL A   1      46.640  31.765  27.785  1.00  0.00     0.029 A 
ATOM     61  C   UNL A   1      45.383  31.575  28.333  1.00  0.00     0.049 A 
ATOM     62  H   UNL A   1      44.149  29.862  28.265  1.00  0.00     0.167 HD
ATOM     63  C   UNL A   1      43.351  32.247  29.584  1.00  0.00     0.074 A 
ATOM     64  C   UNL A   1      42.558  33.183  30.354  1.00  0.00     0.031 C 
ATOM     65  C   UNL A   1      44.592  32.505  29.103  1.00  0.00     0.037 A 
BRANCH  52  66
ATOM     66  C   UNL A   1      47.157  27.789  26.038  1.00  0.00     0.064 A 
ATOM     67  C   UNL A   1      47.188  27.776  24.635  1.00  0.00     0.173 A 
ATOM     68  C   UNL A   1      48.319  27.394  26.719  1.00  0.00     0.173 A 
ATOM     69  F   UNL A   1      46.106  28.144  23.931  1.00  0.00    -0.203 F 
ATOM     70  C   UNL A   1      48.327  27.367  23.945  1.00  0.00     0.198 A 
ATOM     71  C   UNL A   1      49.467  27.019  26.026  1.00  0.00     0.198 A 
ATOM     72  F   UNL A   1      48.352  27.402  28.061  1.00  0.00    -0.203 F 
ATOM     73  F   UNL A   1      48.320  27.329  22.605  1.00  0.00    -0.200 F 
ATOM     74  C   UNL A   1      49.469  26.999  24.641  1.00  0.00     0.200 A 
ATOM     75  F   UNL A   1      50.577  26.686  26.701  1.00  0.00    -0.200 F 
ATOM     76  F   UNL A   1      50.570  26.626  23.975  1.00  0.00    -0.200 F 
ENDBRANCH  52  66
BRANCH  53  77
ATOM     77  C   UNL A   1      39.070  30.884  31.001  1.00  0.00     0.064 A 
ATOM     78  C   UNL A   1      38.934  30.709  32.384  1.00  0.00     0.173 A 
ATOM     79  C   UNL A   1      38.037  31.550  30.322  1.00  0.00     0.173 A 
ATOM     80  F   UNL A   1      39.886  30.065  33.075  1.00  0.00    -0.203 F 
ATOM     81  C   UNL A   1      37.807  31.173  33.060  1.00  0.00     0.198 A 
ATOM     82  C   UNL A   1      36.928  32.043  31.004  1.00  0.00     0.198 A 
ATOM     83  F   UNL A   1      38.122  31.749  28.999  1.00  0.00    -0.203 F 
ATOM     84  F   UNL A   1      37.685  30.961  34.378  1.00  0.00    -0.200 F 
ATOM     85  C   UNL A   1      36.811  31.849  32.372  1.00  0.00     0.200 A 
ATOM     86  F   UNL A   1      35.980  32.715  30.339  1.00  0.00    -0.200 F 
ATOM     87  F   UNL A   1      35.739  32.313  33.027  1.00  0.00    -0.200 F 
ENDBRANCH  53  77
BRANCH  65  88
ATOM     88  C   UNL A   1      45.182  33.861  29.381  1.00  0.00     0.064 A 
ATOM     89  C   UNL A   1      45.999  34.092  30.498  1.00  0.00     0.173 A 
ATOM     90  C   UNL A   1      44.990  34.922  28.482  1.00  0.00     0.173 A 
ATOM     91  F   UNL A   1      46.205  33.117  31.397  1.00  0.00    -0.203 F 
ATOM     92  C   UNL A   1      46.587  35.337  30.713  1.00  0.00     0.198 A 
ATOM     93  C   UNL A   1      45.609  36.154  28.680  1.00  0.00     0.198 A 
ATOM     94  F   UNL A   1      44.224  34.757  27.393  1.00  0.00    -0.203 F 
ATOM     95  F   UNL A   1      47.329  35.544  31.809  1.00  0.00    -0.200 F 
ATOM     96  C   UNL A   1      46.402  36.362  29.798  1.00  0.00     0.200 A 
ATOM     97  F   UNL A   1      45.445  37.137  27.783  1.00  0.00    -0.200 F 
ATOM     98  F   UNL A   1      46.987  37.551  29.995  1.00  0.00    -0.200 F 
ENDBRANCH  65  88
ENDBRANCH  39  40
ENDBRANCH  32  34
ENDBRANCH  31  32
ENDBRANCH  30  31
ENDBRANCH  29  30
ENDBRANCH  28  29
ENDBRANCH  27  28
ENDBRANCH   1  27
TORSDOF 22
ENDMDL
