MODEL 1
REMARK VINA RESULT:     -10.9      0.000      0.000
REMARK SMILES O=C(OCCOCCOCCOCCOC(=O)c1ccc([C@H]2CCCN(C(=O)c3ccc4[nH]ccc4c3)C2)cc1)c1ccc(-c2c3nc(c(-c4c(F)c(F)c(F)c(F)c4F)c4ccc([nH]4)c(-c4c(F)c(F)c(F)c(F)c4F)c4nc(c(-c5c(F)c(F)c(F)c(F)c5F)c5ccc2[nH]5)C=C4)C=C3)cc1
REMARK SMILES IDX 10 1 9 2 8 3 7 4 6 5 5 6 4 7 3 8 2 9 1 10 41 11 42 12 103 13
REMARK SMILES IDX 43 14 102 15 44 16 45 17 46 18 96 19 47 20 101 21 95 22
REMARK SMILES IDX 97 23 48 24 100 25 94 26 93 27 49 29 81 30 61 31 80 32 62 33
REMARK SMILES IDX 65 34 79 35 98 36 63 37 64 38 78 40 99 41 66 42 50 43 51 44
REMARK SMILES IDX 59 45 52 46 53 47 57 48 60 49 54 50 55 51 58 52 56 53 82 54
REMARK SMILES IDX 83 55 91 56 84 57 85 58 89 59 92 60 86 61 87 62 90 63 88 64
REMARK SMILES IDX 67 65 68 66 76 67 69 68 70 69 74 70 77 71 71 72 72 73 75 74
REMARK SMILES IDX 73 75 11 76 12 77 13 78 14 79 15 80 16 81 17 82 18 83 19 84
REMARK SMILES IDX 40 85 20 86 39 87 21 88 22 89 23 90 38 91 24 92 26 93 25 94
REMARK SMILES IDX 27 95 28 96 29 97 30 98 37 99 31 100 36 101 32 102 35 103
REMARK SMILES IDX 33 104 34 105
REMARK H PARENT 97 28 65 39 33 106
REMARK Flexibility Score: inf
ROOT
ATOM      1  C   UNL A   1      33.531  27.038  22.397  1.00  0.00     0.188 C 
ENDROOT
BRANCH   1   2
ATOM      2  O   UNL A   1      33.181  27.450  23.714  1.00  0.00    -0.377 OA
BRANCH   2   3
ATOM      3  C   UNL A   1      32.467  28.679  23.837  1.00  0.00     0.188 C 
BRANCH   3   4
ATOM      4  C   UNL A   1      32.889  29.567  25.007  1.00  0.00     0.188 C 
BRANCH   4   5
ATOM      5  O   UNL A   1      31.746  30.176  25.615  1.00  0.00    -0.376 OA
BRANCH   5   6
ATOM      6  C   UNL A   1      32.004  30.836  26.854  1.00  0.00     0.202 C 
BRANCH   6   7
ATOM      7  C   UNL A   1      31.566  32.303  26.884  1.00  0.00     0.261 C 
BRANCH   7   8
ATOM      8  O   UNL A   1      32.680  33.208  26.915  1.00  0.00    -0.460 OA
BRANCH   8   9
ATOM      9  C   UNL A   1      33.120  33.952  27.961  1.00  0.00     0.338 C 
ATOM     10  O   UNL A   1      32.524  34.996  28.226  1.00  0.00    -0.246 OA
BRANCH   9  11
ATOM     11  C   UNL A   1      34.269  33.571  28.841  1.00  0.00     0.060 A 
ATOM     12  C   UNL A   1      35.447  34.302  29.004  1.00  0.00     0.016 A 
ATOM     13  C   UNL A   1      34.114  32.405  29.615  1.00  0.00     0.016 A 
ATOM     14  C   UNL A   1      36.474  33.862  29.825  1.00  0.00     0.010 A 
ATOM     15  C   UNL A   1      35.129  31.968  30.472  1.00  0.00     0.010 A 
ATOM     16  C   UNL A   1      36.329  32.682  30.547  1.00  0.00    -0.014 A 
BRANCH  16  17
ATOM     17  C   UNL A   1      37.524  32.136  31.212  1.00  0.00     0.031 A 
ATOM     18  C   UNL A   1      38.351  31.147  30.450  1.00  0.00     0.074 A 
ATOM     19  C   UNL A   1      37.931  32.639  32.390  1.00  0.00     0.049 A 
ATOM     20  N   UNL A   1      39.416  30.489  30.820  1.00  0.00    -0.248 NA
ATOM     21  C   UNL A   1      37.925  30.873  29.066  1.00  0.00     0.031 C 
ATOM     22  C   UNL A   1      37.262  33.715  33.123  1.00  0.00     0.029 A 
ATOM     23  N   UNL A   1      39.022  32.337  33.160  1.00  0.00    -0.354 N 
ATOM     24  C   UNL A   1      39.764  29.702  29.730  1.00  0.00     0.074 A 
ATOM     25  C   UNL A   1      38.801  29.960  28.684  1.00  0.00     0.031 C 
ATOM     26  C   UNL A   1      37.969  33.996  34.230  1.00  0.00     0.029 A 
ATOM     27  C   UNL A   1      39.096  33.072  34.317  1.00  0.00     0.049 A 
ATOM     28  H   UNL A   1      39.690  31.659  32.908  1.00  0.00     0.167 HD
ATOM     29  C   UNL A   1      40.796  28.835  29.626  1.00  0.00     0.037 A 
ATOM     30  C   UNL A   1      39.961  32.970  35.343  1.00  0.00     0.037 A 
ATOM     31  C   UNL A   1      41.737  28.608  30.689  1.00  0.00     0.049 A 
ATOM     32  C   UNL A   1      41.040  31.921  35.249  1.00  0.00     0.074 A 
ATOM     33  C   UNL A   1      42.781  27.708  30.748  1.00  0.00     0.029 A 
ATOM     34  N   UNL A   1      41.734  29.308  31.890  1.00  0.00    -0.354 N 
ATOM     35  N   UNL A   1      41.319  31.109  34.255  1.00  0.00    -0.248 NA
ATOM     36  C   UNL A   1      41.907  31.757  36.421  1.00  0.00     0.031 C 
ATOM     37  C   UNL A   1      43.385  27.831  32.005  1.00  0.00     0.029 A 
ATOM     38  C   UNL A   1      42.750  28.847  32.708  1.00  0.00     0.049 A 
ATOM     39  H   UNL A   1      41.104  30.027  32.124  1.00  0.00     0.167 HD
ATOM     40  C   UNL A   1      42.400  30.348  34.672  1.00  0.00     0.074 A 
ATOM     41  C   UNL A   1      42.740  30.812  36.004  1.00  0.00     0.031 C 
ATOM     42  C   UNL A   1      43.052  29.349  34.026  1.00  0.00     0.037 A 
BRANCH  29  43
ATOM     43  C   UNL A   1      40.884  28.030  28.364  1.00  0.00     0.064 A 
ATOM     44  C   UNL A   1      40.184  26.827  28.193  1.00  0.00     0.173 A 
ATOM     45  C   UNL A   1      41.735  28.445  27.327  1.00  0.00     0.173 A 
ATOM     46  F   UNL A   1      39.383  26.368  29.168  1.00  0.00    -0.203 F 
ATOM     47  C   UNL A   1      40.359  26.051  27.049  1.00  0.00     0.198 A 
ATOM     48  C   UNL A   1      41.887  27.681  26.173  1.00  0.00     0.198 A 
ATOM     49  F   UNL A   1      42.436  29.582  27.443  1.00  0.00    -0.203 F 
ATOM     50  F   UNL A   1      39.733  24.871  26.938  1.00  0.00    -0.200 F 
ATOM     51  C   UNL A   1      41.208  26.479  26.039  1.00  0.00     0.200 A 
ATOM     52  F   UNL A   1      42.707  28.098  25.199  1.00  0.00    -0.200 F 
ATOM     53  F   UNL A   1      41.387  25.725  24.946  1.00  0.00    -0.200 F 
ENDBRANCH  29  43
BRANCH  30  54
ATOM     54  C   UNL A   1      39.806  33.828  36.549  1.00  0.00     0.064 A 
ATOM     55  C   UNL A   1      40.537  35.016  36.701  1.00  0.00     0.173 A 
ATOM     56  C   UNL A   1      38.931  33.472  37.587  1.00  0.00     0.173 A 
ATOM     57  F   UNL A   1      41.407  35.394  35.753  1.00  0.00    -0.203 F 
ATOM     58  C   UNL A   1      40.406  35.803  37.845  1.00  0.00     0.198 A 
ATOM     59  C   UNL A   1      38.778  34.275  38.716  1.00  0.00     0.198 A 
ATOM     60  F   UNL A   1      38.212  32.343  37.501  1.00  0.00    -0.203 F 
ATOM     61  F   UNL A   1      41.151  36.908  37.985  1.00  0.00    -0.200 F 
ATOM     62  C   UNL A   1      39.521  35.435  38.848  1.00  0.00     0.200 A 
ATOM     63  F   UNL A   1      37.911  33.920  39.675  1.00  0.00    -0.200 F 
ATOM     64  F   UNL A   1      39.394  36.193  39.946  1.00  0.00    -0.200 F 
ENDBRANCH  30  54
BRANCH  42  65
ATOM     65  C   UNL A   1      44.208  28.722  34.742  1.00  0.00     0.064 A 
ATOM     66  C   UNL A   1      45.506  29.242  34.635  1.00  0.00     0.173 A 
ATOM     67  C   UNL A   1      44.001  27.623  35.589  1.00  0.00     0.173 A 
ATOM     68  F   UNL A   1      45.752  30.283  33.827  1.00  0.00    -0.203 F 
ATOM     69  C   UNL A   1      46.561  28.668  35.337  1.00  0.00     0.198 A 
ATOM     70  C   UNL A   1      45.053  27.072  36.312  1.00  0.00     0.198 A 
ATOM     71  F   UNL A   1      42.774  27.097  35.727  1.00  0.00    -0.203 F 
ATOM     72  F   UNL A   1      47.802  29.152  35.188  1.00  0.00    -0.200 F 
ATOM     73  C   UNL A   1      46.332  27.591  36.180  1.00  0.00     0.200 A 
ATOM     74  F   UNL A   1      44.828  26.041  37.137  1.00  0.00    -0.200 F 
ATOM     75  F   UNL A   1      47.348  27.048  36.864  1.00  0.00    -0.200 F 
ENDBRANCH  42  65
ENDBRANCH  16  17
ENDBRANCH   9  11
ENDBRANCH   8   9
ENDBRANCH   7   8
ENDBRANCH   6   7
ENDBRANCH   5   6
ENDBRANCH   4   5
ENDBRANCH   3   4
ENDBRANCH   2   3
ENDBRANCH   1   2
BRANCH   1  76
ATOM     76  C   UNL A   1      32.882  25.755  21.835  1.00  0.00     0.188 C 
BRANCH  76  77
ATOM     77  O   UNL A   1      31.473  25.675  22.006  1.00  0.00    -0.376 OA
BRANCH  77  78
ATOM     78  C   UNL A   1      31.024  24.709  22.952  1.00  0.00     0.202 C 
BRANCH  78  79
ATOM     79  C   UNL A   1      30.453  25.267  24.264  1.00  0.00     0.261 C 
BRANCH  79  80
ATOM     80  O   UNL A   1      30.958  24.670  25.470  1.00  0.00    -0.460 OA
BRANCH  80  81
ATOM     81  C   UNL A   1      31.809  25.371  26.255  1.00  0.00     0.338 C 
ATOM     82  O   UNL A   1      31.553  26.361  26.916  1.00  0.00    -0.246 OA
BRANCH  81  83
ATOM     83  C   UNL A   1      33.057  24.570  26.344  1.00  0.00     0.060 A 
ATOM     84  C   UNL A   1      33.074  23.395  27.110  1.00  0.00     0.016 A 
ATOM     85  C   UNL A   1      34.143  24.878  25.523  1.00  0.00     0.016 A 
ATOM     86  C   UNL A   1      34.141  22.489  26.994  1.00  0.00     0.005 A 
ATOM     87  C   UNL A   1      35.212  23.989  25.432  1.00  0.00     0.005 A 
ATOM     88  C   UNL A   1      35.210  22.764  26.131  1.00  0.00    -0.043 A 
BRANCH  88  89
ATOM     89  C   UNL A   1      36.349  21.803  25.852  1.00  0.00     0.039 C 
ATOM     90  C   UNL A   1      35.920  20.571  25.037  1.00  0.00     0.012 C 
ATOM     91  C   UNL A   1      37.617  22.384  25.202  1.00  0.00     0.128 C 
ATOM     92  C   UNL A   1      37.048  19.526  25.037  1.00  0.00     0.022 C 
ATOM     93  N   UNL A   1      38.674  21.374  25.334  1.00  0.00    -0.338 N 
ATOM     94  C   UNL A   1      38.410  20.112  24.637  1.00  0.00     0.120 C 
BRANCH  93  95
ATOM     95  C   UNL A   1      39.656  21.596  26.296  1.00  0.00     0.253 C 
ATOM     96  O   UNL A   1      39.415  22.008  27.430  1.00  0.00    -0.269 OA
BRANCH  95  97
ATOM     97  C   UNL A   1      41.058  21.255  26.004  1.00  0.00     0.040 A 
ATOM     98  C   UNL A   1      41.448  19.919  26.152  1.00  0.00     0.016 A 
ATOM     99  C   UNL A   1      41.990  22.263  25.729  1.00  0.00     0.024 A 
ATOM    100  C   UNL A   1      42.786  19.546  26.000  1.00  0.00     0.027 A 
ATOM    101  C   UNL A   1      43.346  21.905  25.596  1.00  0.00     0.000 A 
ATOM    102  C   UNL A   1      43.710  20.562  25.728  1.00  0.00     0.045 A 
ATOM    103  C   UNL A   1      44.544  22.638  25.368  1.00  0.00     0.028 A 
ATOM    104  N   UNL A   1      45.076  20.494  25.569  1.00  0.00    -0.361 N 
ATOM    105  C   UNL A   1      45.591  21.746  25.364  1.00  0.00     0.083 A 
ATOM    106  H   UNL A   1      45.606  19.664  25.597  1.00  0.00     0.166 HD
ENDBRANCH  95  97
ENDBRANCH  93  95
ENDBRANCH  88  89
ENDBRANCH  81  83
ENDBRANCH  80  81
ENDBRANCH  79  80
ENDBRANCH  78  79
ENDBRANCH  77  78
ENDBRANCH  76  77
ENDBRANCH   1  76
TORSDOF 23
ENDMDL
MODEL 2
REMARK VINA RESULT:     -10.6      1.855      7.745
REMARK SMILES O=C(OCCOCCOCCOCCOC(=O)c1ccc([C@H]2CCCN(C(=O)c3ccc4[nH]ccc4c3)C2)cc1)c1ccc(-c2c3nc(c(-c4c(F)c(F)c(F)c(F)c4F)c4ccc([nH]4)c(-c4c(F)c(F)c(F)c(F)c4F)c4nc(c(-c5c(F)c(F)c(F)c(F)c5F)c5ccc2[nH]5)C=C4)C=C3)cc1
REMARK SMILES IDX 10 1 9 2 8 3 7 4 6 5 5 6 4 7 3 8 2 9 1 10 41 11 42 12 103 13
REMARK SMILES IDX 43 14 102 15 44 16 45 17 46 18 96 19 47 20 101 21 95 22
REMARK SMILES IDX 97 23 48 24 100 25 94 26 93 27 49 29 81 30 61 31 80 32 62 33
REMARK SMILES IDX 65 34 79 35 98 36 63 37 64 38 78 40 99 41 66 42 50 43 51 44
REMARK SMILES IDX 59 45 52 46 53 47 57 48 60 49 54 50 55 51 58 52 56 53 82 54
REMARK SMILES IDX 83 55 91 56 84 57 85 58 89 59 92 60 86 61 87 62 90 63 88 64
REMARK SMILES IDX 67 65 68 66 76 67 69 68 70 69 74 70 77 71 71 72 72 73 75 74
REMARK SMILES IDX 73 75 11 76 12 77 13 78 14 79 15 80 16 81 17 82 18 83 19 84
REMARK SMILES IDX 40 85 20 86 39 87 21 88 22 89 23 90 38 91 24 92 26 93 25 94
REMARK SMILES IDX 27 95 28 96 29 97 30 98 37 99 31 100 36 101 32 102 35 103
REMARK SMILES IDX 33 104 34 105
REMARK H PARENT 97 28 65 39 33 106
REMARK Flexibility Score: inf
ROOT
ATOM      1  C   UNL A   1      33.504  27.235  22.005  1.00  0.00     0.188 C 
ENDROOT
BRANCH   1   2
ATOM      2  O   UNL A   1      33.209  27.607  23.347  1.00  0.00    -0.377 OA
BRANCH   2   3
ATOM      3  C   UNL A   1      32.377  28.751  23.531  1.00  0.00     0.188 C 
BRANCH   3   4
ATOM      4  C   UNL A   1      32.739  29.641  24.720  1.00  0.00     0.188 C 
BRANCH   4   5
ATOM      5  O   UNL A   1      31.570  29.982  25.470  1.00  0.00    -0.376 OA
BRANCH   5   6
ATOM      6  C   UNL A   1      31.822  30.523  26.766  1.00  0.00     0.202 C 
BRANCH   6   7
ATOM      7  C   UNL A   1      31.519  32.019  26.889  1.00  0.00     0.261 C 
BRANCH   7   8
ATOM      8  O   UNL A   1      32.704  32.827  26.815  1.00  0.00    -0.460 OA
BRANCH   8   9
ATOM      9  C   UNL A   1      33.491  33.248  27.836  1.00  0.00     0.338 C 
ATOM     10  O   UNL A   1      33.171  34.275  28.434  1.00  0.00    -0.246 OA
BRANCH   9  11
ATOM     11  C   UNL A   1      34.713  32.525  28.312  1.00  0.00     0.060 A 
ATOM     12  C   UNL A   1      34.780  31.171  28.642  1.00  0.00     0.016 A 
ATOM     13  C   UNL A   1      35.905  33.270  28.369  1.00  0.00     0.016 A 
ATOM     14  C   UNL A   1      35.953  30.587  29.098  1.00  0.00     0.010 A 
ATOM     15  C   UNL A   1      37.102  32.685  28.796  1.00  0.00     0.010 A 
ATOM     16  C   UNL A   1      37.114  31.345  29.197  1.00  0.00    -0.014 A 
BRANCH  16  17
ATOM     17  C   UNL A   1      38.261  30.750  29.904  1.00  0.00     0.031 A 
ATOM     18  C   UNL A   1      38.428  31.082  31.355  1.00  0.00     0.074 A 
ATOM     19  C   UNL A   1      39.021  29.823  29.298  1.00  0.00     0.049 A 
ATOM     20  N   UNL A   1      39.369  30.728  32.188  1.00  0.00    -0.248 NA
ATOM     21  C   UNL A   1      37.373  31.917  31.957  1.00  0.00     0.031 C 
ATOM     22  C   UNL A   1      38.825  29.333  27.933  1.00  0.00     0.029 A 
ATOM     23  N   UNL A   1      40.088  29.101  29.763  1.00  0.00    -0.354 N 
ATOM     24  C   UNL A   1      39.037  31.324  33.398  1.00  0.00     0.074 A 
ATOM     25  C   UNL A   1      37.812  32.063  33.196  1.00  0.00     0.031 C 
ATOM     26  C   UNL A   1      39.732  28.377  27.677  1.00  0.00     0.029 A 
ATOM     27  C   UNL A   1      40.614  28.241  28.832  1.00  0.00     0.049 A 
ATOM     28  H   UNL A   1      40.442  29.190  30.677  1.00  0.00     0.167 HD
ATOM     29  C   UNL A   1      39.712  31.262  34.568  1.00  0.00     0.037 A 
ATOM     30  C   UNL A   1      41.711  27.465  28.905  1.00  0.00     0.037 A 
ATOM     31  C   UNL A   1      40.927  30.513  34.731  1.00  0.00     0.049 A 
ATOM     32  C   UNL A   1      42.506  27.495  30.186  1.00  0.00     0.074 A 
ATOM     33  C   UNL A   1      41.752  30.423  35.835  1.00  0.00     0.029 A 
ATOM     34  N   UNL A   1      41.487  29.716  33.739  1.00  0.00    -0.354 N 
ATOM     35  N   UNL A   1      42.246  28.130  31.306  1.00  0.00    -0.248 NA
ATOM     36  C   UNL A   1      43.754  26.723  30.209  1.00  0.00     0.031 C 
ATOM     37  C   UNL A   1      42.837  29.606  35.495  1.00  0.00     0.029 A 
ATOM     38  C   UNL A   1      42.660  29.144  34.197  1.00  0.00     0.049 A 
ATOM     39  H   UNL A   1      41.105  29.579  32.842  1.00  0.00     0.167 HD
ATOM     40  C   UNL A   1      43.286  27.826  32.172  1.00  0.00     0.074 A 
ATOM     41  C   UNL A   1      44.170  26.930  31.451  1.00  0.00     0.031 C 
ATOM     42  C   UNL A   1      43.502  28.250  33.441  1.00  0.00     0.037 A 
BRANCH  29  43
ATOM     43  C   UNL A   1      39.184  32.089  35.703  1.00  0.00     0.064 A 
ATOM     44  C   UNL A   1      39.576  33.422  35.902  1.00  0.00     0.173 A 
ATOM     45  C   UNL A   1      38.314  31.515  36.642  1.00  0.00     0.173 A 
ATOM     46  F   UNL A   1      40.433  34.008  35.051  1.00  0.00    -0.203 F 
ATOM     47  C   UNL A   1      39.145  34.137  37.017  1.00  0.00     0.198 A 
ATOM     48  C   UNL A   1      37.864  32.241  37.742  1.00  0.00     0.198 A 
ATOM     49  F   UNL A   1      37.916  30.242  36.506  1.00  0.00    -0.203 F 
ATOM     50  F   UNL A   1      39.588  35.385  37.224  1.00  0.00    -0.200 F 
ATOM     51  C   UNL A   1      38.288  33.547  37.935  1.00  0.00     0.200 A 
ATOM     52  F   UNL A   1      37.035  31.669  38.626  1.00  0.00    -0.200 F 
ATOM     53  F   UNL A   1      37.887  34.230  39.015  1.00  0.00    -0.200 F 
ENDBRANCH  29  43
BRANCH  30  54
ATOM     54  C   UNL A   1      42.146  26.660  27.733  1.00  0.00     0.064 A 
ATOM     55  C   UNL A   1      41.615  25.387  27.480  1.00  0.00     0.173 A 
ATOM     56  C   UNL A   1      43.118  27.141  26.841  1.00  0.00     0.173 A 
ATOM     57  F   UNL A   1      40.701  24.865  28.312  1.00  0.00    -0.203 F 
ATOM     58  C   UNL A   1      42.045  24.626  26.393  1.00  0.00     0.198 A 
ATOM     59  C   UNL A   1      43.525  26.394  25.738  1.00  0.00     0.198 A 
ATOM     60  F   UNL A   1      43.670  28.348  27.036  1.00  0.00    -0.203 F 
ATOM     61  F   UNL A   1      41.553  23.394  26.203  1.00  0.00    -0.200 F 
ATOM     62  C   UNL A   1      42.995  25.133  25.519  1.00  0.00     0.200 A 
ATOM     63  F   UNL A   1      44.434  26.895  24.889  1.00  0.00    -0.200 F 
ATOM     64  F   UNL A   1      43.406  24.403  24.473  1.00  0.00    -0.200 F 
ENDBRANCH  30  54
BRANCH  42  65
ATOM     65  C   UNL A   1      44.724  27.725  34.130  1.00  0.00     0.064 A 
ATOM     66  C   UNL A   1      45.945  28.413  34.083  1.00  0.00     0.173 A 
ATOM     67  C   UNL A   1      44.654  26.549  34.891  1.00  0.00     0.173 A 
ATOM     68  F   UNL A   1      46.061  29.534  33.357  1.00  0.00    -0.203 F 
ATOM     69  C   UNL A   1      47.059  27.929  34.760  1.00  0.00     0.198 A 
ATOM     70  C   UNL A   1      45.763  26.085  35.590  1.00  0.00     0.198 A 
ATOM     71  F   UNL A   1      43.504  25.861  34.970  1.00  0.00    -0.203 F 
ATOM     72  F   UNL A   1      48.229  28.577  34.668  1.00  0.00    -0.200 F 
ATOM     73  C   UNL A   1      46.966  26.771  35.518  1.00  0.00     0.200 A 
ATOM     74  F   UNL A   1      45.666  24.974  36.334  1.00  0.00    -0.200 F 
ATOM     75  F   UNL A   1      48.038  26.314  36.178  1.00  0.00    -0.200 F 
ENDBRANCH  42  65
ENDBRANCH  16  17
ENDBRANCH   9  11
ENDBRANCH   8   9
ENDBRANCH   7   8
ENDBRANCH   6   7
ENDBRANCH   5   6
ENDBRANCH   4   5
ENDBRANCH   3   4
ENDBRANCH   2   3
ENDBRANCH   1   2
BRANCH   1  76
ATOM     76  C   UNL A   1      32.861  25.948  21.445  1.00  0.00     0.188 C 
BRANCH  76  77
ATOM     77  O   UNL A   1      31.462  25.833  21.669  1.00  0.00    -0.376 OA
BRANCH  77  78
ATOM     78  C   UNL A   1      31.084  25.083  22.820  1.00  0.00     0.202 C 
BRANCH  78  79
ATOM     79  C   UNL A   1      30.073  25.755  23.759  1.00  0.00     0.261 C 
BRANCH  79  80
ATOM     80  O   UNL A   1      30.088  25.303  25.123  1.00  0.00    -0.460 OA
BRANCH  80  81
ATOM     81  C   UNL A   1      30.776  26.007  26.052  1.00  0.00     0.338 C 
ATOM     82  O   UNL A   1      30.352  26.908  26.753  1.00  0.00    -0.246 OA
BRANCH  81  83
ATOM     83  C   UNL A   1      32.081  25.318  26.222  1.00  0.00     0.060 A 
ATOM     84  C   UNL A   1      32.109  23.953  26.540  1.00  0.00     0.016 A 
ATOM     85  C   UNL A   1      33.264  25.976  25.883  1.00  0.00     0.016 A 
ATOM     86  C   UNL A   1      33.307  23.227  26.441  1.00  0.00     0.005 A 
ATOM     87  C   UNL A   1      34.456  25.256  25.812  1.00  0.00     0.005 A 
ATOM     88  C   UNL A   1      34.490  23.867  26.047  1.00  0.00    -0.043 A 
BRANCH  88  89
ATOM     89  C   UNL A   1      35.804  23.152  25.804  1.00  0.00     0.039 C 
ATOM     90  C   UNL A   1      37.031  23.970  26.240  1.00  0.00     0.012 C 
ATOM     91  C   UNL A   1      35.951  21.732  26.380  1.00  0.00     0.128 C 
ATOM     92  C   UNL A   1      38.315  23.308  25.712  1.00  0.00     0.022 C 
ATOM     93  N   UNL A   1      37.134  21.129  25.753  1.00  0.00    -0.338 N 
ATOM     94  C   UNL A   1      38.399  21.810  26.041  1.00  0.00     0.120 C 
BRANCH  93  95
ATOM     95  C   UNL A   1      36.916  20.177  24.760  1.00  0.00     0.253 C 
ATOM     96  O   UNL A   1      37.761  19.862  23.924  1.00  0.00    -0.269 OA
BRANCH  95  97
ATOM     97  C   UNL A   1      35.648  19.429  24.728  1.00  0.00     0.040 A 
ATOM     98  C   UNL A   1      34.458  20.164  24.735  1.00  0.00     0.016 A 
ATOM     99  C   UNL A   1      35.646  18.032  24.832  1.00  0.00     0.024 A 
ATOM    100  C   UNL A   1      33.221  19.519  24.820  1.00  0.00     0.027 A 
ATOM    101  C   UNL A   1      34.408  17.369  24.940  1.00  0.00     0.000 A 
ATOM    102  C   UNL A   1      33.231  18.123  24.926  1.00  0.00     0.045 A 
ATOM    103  C   UNL A   1      34.026  16.009  25.103  1.00  0.00     0.028 A 
ATOM    104  N   UNL A   1      32.182  17.241  25.059  1.00  0.00    -0.361 N 
ATOM    105  C   UNL A   1      32.654  15.961  25.180  1.00  0.00     0.083 A 
ATOM    106  H   UNL A   1      31.230  17.494  25.066  1.00  0.00     0.166 HD
ENDBRANCH  95  97
ENDBRANCH  93  95
ENDBRANCH  88  89
ENDBRANCH  81  83
ENDBRANCH  80  81
ENDBRANCH  79  80
ENDBRANCH  78  79
ENDBRANCH  77  78
ENDBRANCH  76  77
ENDBRANCH   1  76
TORSDOF 23
ENDMDL
MODEL 3
REMARK VINA RESULT:     -10.0      2.338      8.728
REMARK SMILES O=C(OCCOCCOCCOCCOC(=O)c1ccc([C@H]2CCCN(C(=O)c3ccc4[nH]ccc4c3)C2)cc1)c1ccc(-c2c3nc(c(-c4c(F)c(F)c(F)c(F)c4F)c4ccc([nH]4)c(-c4c(F)c(F)c(F)c(F)c4F)c4nc(c(-c5c(F)c(F)c(F)c(F)c5F)c5ccc2[nH]5)C=C4)C=C3)cc1
REMARK SMILES IDX 10 1 9 2 8 3 7 4 6 5 5 6 4 7 3 8 2 9 1 10 41 11 42 12 103 13
REMARK SMILES IDX 43 14 102 15 44 16 45 17 46 18 96 19 47 20 101 21 95 22
REMARK SMILES IDX 97 23 48 24 100 25 94 26 93 27 49 29 81 30 61 31 80 32 62 33
REMARK SMILES IDX 65 34 79 35 98 36 63 37 64 38 78 40 99 41 66 42 50 43 51 44
REMARK SMILES IDX 59 45 52 46 53 47 57 48 60 49 54 50 55 51 58 52 56 53 82 54
REMARK SMILES IDX 83 55 91 56 84 57 85 58 89 59 92 60 86 61 87 62 90 63 88 64
REMARK SMILES IDX 67 65 68 66 76 67 69 68 70 69 74 70 77 71 71 72 72 73 75 74
REMARK SMILES IDX 73 75 11 76 12 77 13 78 14 79 15 80 16 81 17 82 18 83 19 84
REMARK SMILES IDX 40 85 20 86 39 87 21 88 22 89 23 90 38 91 24 92 26 93 25 94
REMARK SMILES IDX 27 95 28 96 29 97 30 98 37 99 31 100 36 101 32 102 35 103
REMARK SMILES IDX 33 104 34 105
REMARK H PARENT 97 28 65 39 33 106
REMARK Flexibility Score: inf
ROOT
ATOM      1  C   UNL A   1      35.550  24.060  25.846  1.00  0.00     0.188 C 
ENDROOT
BRANCH   1   2
ATOM      2  O   UNL A   1      34.768  25.130  25.326  1.00  0.00    -0.377 OA
BRANCH   2   3
ATOM      3  C   UNL A   1      33.680  25.584  26.130  1.00  0.00     0.188 C 
BRANCH   3   4
ATOM      4  C   UNL A   1      33.406  27.086  26.075  1.00  0.00     0.188 C 
BRANCH   4   5
ATOM      5  O   UNL A   1      32.006  27.339  25.931  1.00  0.00    -0.376 OA
BRANCH   5   6
ATOM      6  C   UNL A   1      31.655  28.713  25.771  1.00  0.00     0.202 C 
BRANCH   6   7
ATOM      7  C   UNL A   1      32.038  29.598  26.960  1.00  0.00     0.261 C 
BRANCH   7   8
ATOM      8  O   UNL A   1      32.916  30.671  26.586  1.00  0.00    -0.460 OA
BRANCH   8   9
ATOM      9  C   UNL A   1      33.684  31.440  27.397  1.00  0.00     0.338 C 
ATOM     10  O   UNL A   1      33.237  32.525  27.767  1.00  0.00    -0.246 OA
BRANCH   9  11
ATOM     11  C   UNL A   1      35.036  31.042  27.904  1.00  0.00     0.060 A 
ATOM     12  C   UNL A   1      35.443  29.741  28.201  1.00  0.00     0.016 A 
ATOM     13  C   UNL A   1      35.991  32.067  28.029  1.00  0.00     0.016 A 
ATOM     14  C   UNL A   1      36.711  29.464  28.689  1.00  0.00     0.010 A 
ATOM     15  C   UNL A   1      37.285  31.797  28.489  1.00  0.00     0.010 A 
ATOM     16  C   UNL A   1      37.631  30.493  28.856  1.00  0.00    -0.014 A 
BRANCH  16  17
ATOM     17  C   UNL A   1      38.869  30.190  29.594  1.00  0.00     0.031 A 
ATOM     18  C   UNL A   1      38.963  30.662  31.012  1.00  0.00     0.074 A 
ATOM     19  C   UNL A   1      39.798  29.383  29.054  1.00  0.00     0.049 A 
ATOM     20  N   UNL A   1      39.952  30.566  31.859  1.00  0.00    -0.248 NA
ATOM     21  C   UNL A   1      37.764  31.321  31.559  1.00  0.00     0.031 C 
ATOM     22  C   UNL A   1      39.706  28.759  27.734  1.00  0.00     0.029 A 
ATOM     23  N   UNL A   1      40.983  28.922  29.561  1.00  0.00    -0.354 N 
ATOM     24  C   UNL A   1      39.507  31.180  33.022  1.00  0.00     0.074 A 
ATOM     25  C   UNL A   1      38.161  31.648  32.777  1.00  0.00     0.031 C 
ATOM     26  C   UNL A   1      40.783  27.979  27.542  1.00  0.00     0.029 A 
ATOM     27  C   UNL A   1      41.670  28.109  28.694  1.00  0.00     0.049 A 
ATOM     28  H   UNL A   1      41.310  29.151  30.461  1.00  0.00     0.167 HD
ATOM     29  C   UNL A   1      40.176  31.343  34.186  1.00  0.00     0.037 A 
ATOM     30  C   UNL A   1      42.897  27.570  28.815  1.00  0.00     0.037 A 
ATOM     31  C   UNL A   1      41.513  30.860  34.392  1.00  0.00     0.049 A 
ATOM     32  C   UNL A   1      43.666  27.856  30.079  1.00  0.00     0.074 A 
ATOM     33  C   UNL A   1      42.335  31.020  35.489  1.00  0.00     0.029 A 
ATOM     34  N   UNL A   1      42.221  30.111  33.459  1.00  0.00    -0.354 N 
ATOM     35  N   UNL A   1      43.283  28.514  31.150  1.00  0.00    -0.248 NA
ATOM     36  C   UNL A   1      45.040  27.346  30.148  1.00  0.00     0.031 C 
ATOM     37  C   UNL A   1      43.561  30.405  35.202  1.00  0.00     0.029 A 
ATOM     38  C   UNL A   1      43.481  29.816  33.947  1.00  0.00     0.049 A 
ATOM     39  H   UNL A   1      41.877  29.832  32.580  1.00  0.00     0.167 HD
ATOM     40  C   UNL A   1      44.360  28.488  32.024  1.00  0.00     0.074 A 
ATOM     41  C   UNL A   1      45.404  27.727  31.365  1.00  0.00     0.031 C 
ATOM     42  C   UNL A   1      44.485  29.046  33.253  1.00  0.00     0.037 A 
BRANCH  29  43
ATOM     43  C   UNL A   1      39.493  32.140  35.258  1.00  0.00     0.064 A 
ATOM     44  C   UNL A   1      39.635  33.532  35.360  1.00  0.00     0.173 A 
ATOM     45  C   UNL A   1      38.730  31.485  36.236  1.00  0.00     0.173 A 
ATOM     46  F   UNL A   1      40.383  34.201  34.469  1.00  0.00    -0.203 F 
ATOM     47  C   UNL A   1      39.068  34.234  36.422  1.00  0.00     0.198 A 
ATOM     48  C   UNL A   1      38.142  32.194  37.282  1.00  0.00     0.198 A 
ATOM     49  F   UNL A   1      38.570  30.154  36.192  1.00  0.00    -0.203 F 
ATOM     50  F   UNL A   1      39.275  35.553  36.538  1.00  0.00    -0.200 F 
ATOM     51  C   UNL A   1      38.321  33.565  37.380  1.00  0.00     0.200 A 
ATOM     52  F   UNL A   1      37.419  31.545  38.204  1.00  0.00    -0.200 F 
ATOM     53  F   UNL A   1      37.789  34.239  38.408  1.00  0.00    -0.200 F 
ENDBRANCH  29  43
BRANCH  30  54
ATOM     54  C   UNL A   1      43.485  26.774  27.704  1.00  0.00     0.064 A 
ATOM     55  C   UNL A   1      44.149  27.390  26.633  1.00  0.00     0.173 A 
ATOM     56  C   UNL A   1      43.382  25.374  27.680  1.00  0.00     0.173 A 
ATOM     57  F   UNL A   1      44.255  28.726  26.590  1.00  0.00    -0.203 F 
ATOM     58  C   UNL A   1      44.675  26.640  25.582  1.00  0.00     0.198 A 
ATOM     59  C   UNL A   1      43.936  24.623  26.645  1.00  0.00     0.198 A 
ATOM     60  F   UNL A   1      42.751  24.730  28.672  1.00  0.00    -0.203 F 
ATOM     61  F   UNL A   1      45.265  27.258  24.549  1.00  0.00    -0.200 F 
ATOM     62  C   UNL A   1      44.575  25.256  25.592  1.00  0.00     0.200 A 
ATOM     63  F   UNL A   1      43.846  23.285  26.668  1.00  0.00    -0.200 F 
ATOM     64  F   UNL A   1      45.083  24.536  24.583  1.00  0.00    -0.200 F 
ENDBRANCH  30  54
BRANCH  42  65
ATOM     65  C   UNL A   1      45.783  28.825  33.967  1.00  0.00     0.064 A 
ATOM     66  C   UNL A   1      45.989  27.702  34.781  1.00  0.00     0.173 A 
ATOM     67  C   UNL A   1      46.848  29.719  33.786  1.00  0.00     0.173 A 
ATOM     68  F   UNL A   1      44.994  26.829  34.993  1.00  0.00    -0.203 F 
ATOM     69  C   UNL A   1      47.214  27.494  35.406  1.00  0.00     0.198 A 
ATOM     70  C   UNL A   1      48.080  29.491  34.389  1.00  0.00     0.198 A 
ATOM     71  F   UNL A   1      46.698  30.803  33.009  1.00  0.00    -0.203 F 
ATOM     72  F   UNL A   1      47.379  26.438  36.215  1.00  0.00    -0.200 F 
ATOM     73  C   UNL A   1      48.260  28.383  35.203  1.00  0.00     0.200 A 
ATOM     74  F   UNL A   1      49.094  30.342  34.179  1.00  0.00    -0.200 F 
ATOM     75  F   UNL A   1      49.442  28.174  35.797  1.00  0.00    -0.200 F 
ENDBRANCH  42  65
ENDBRANCH  16  17
ENDBRANCH   9  11
ENDBRANCH   8   9
ENDBRANCH   7   8
ENDBRANCH   6   7
ENDBRANCH   5   6
ENDBRANCH   4   5
ENDBRANCH   3   4
ENDBRANCH   2   3
ENDBRANCH   1   2
BRANCH   1  76
ATOM     76  C   UNL A   1      37.076  24.091  25.615  1.00  0.00     0.188 C 
BRANCH  76  77
ATOM     77  O   UNL A   1      37.858  24.161  26.800  1.00  0.00    -0.376 OA
BRANCH  77  78
ATOM     78  C   UNL A   1      39.258  24.338  26.603  1.00  0.00     0.202 C 
BRANCH  78  79
ATOM     79  C   UNL A   1      40.171  23.356  27.350  1.00  0.00     0.261 C 
BRANCH  79  80
ATOM     80  O   UNL A   1      39.810  21.967  27.254  1.00  0.00    -0.460 OA
BRANCH  80  81
ATOM     81  C   UNL A   1      40.314  21.215  26.249  1.00  0.00     0.338 C 
ATOM     82  O   UNL A   1      41.485  20.949  26.046  1.00  0.00    -0.246 OA
BRANCH  81  83
ATOM     83  C   UNL A   1      39.152  20.580  25.575  1.00  0.00     0.060 A 
ATOM     84  C   UNL A   1      38.957  19.196  25.687  1.00  0.00     0.016 A 
ATOM     85  C   UNL A   1      38.163  21.376  24.996  1.00  0.00     0.016 A 
ATOM     86  C   UNL A   1      37.738  18.619  25.293  1.00  0.00     0.005 A 
ATOM     87  C   UNL A   1      36.966  20.794  24.582  1.00  0.00     0.005 A 
ATOM     88  C   UNL A   1      36.717  19.418  24.762  1.00  0.00    -0.043 A 
BRANCH  88  89
ATOM     89  C   UNL A   1      35.332  18.911  24.413  1.00  0.00     0.039 C 
ATOM     90  C   UNL A   1      35.171  17.394  24.614  1.00  0.00     0.012 C 
ATOM     91  C   UNL A   1      34.136  19.608  25.086  1.00  0.00     0.128 C 
ATOM     92  C   UNL A   1      33.851  16.921  23.984  1.00  0.00     0.022 C 
ATOM     93  N   UNL A   1      32.927  19.190  24.366  1.00  0.00    -0.338 N 
ATOM     94  C   UNL A   1      32.640  17.754  24.427  1.00  0.00     0.120 C 
BRANCH  93  95
ATOM     95  C   UNL A   1      32.350  20.111  23.496  1.00  0.00     0.253 C 
ATOM     96  O   UNL A   1      32.138  19.882  22.306  1.00  0.00    -0.269 OA
BRANCH  95  97
ATOM     97  C   UNL A   1      31.881  21.409  24.010  1.00  0.00     0.040 A 
ATOM     98  C   UNL A   1      31.536  21.487  25.363  1.00  0.00     0.016 A 
ATOM     99  C   UNL A   1      31.657  22.478  23.134  1.00  0.00     0.024 A 
ATOM    100  C   UNL A   1      30.979  22.655  25.890  1.00  0.00     0.027 A 
ATOM    101  C   UNL A   1      31.075  23.655  23.647  1.00  0.00     0.000 A 
ATOM    102  C   UNL A   1      30.757  23.717  25.006  1.00  0.00     0.045 A 
ATOM    103  C   UNL A   1      30.671  24.890  23.070  1.00  0.00     0.028 A 
ATOM    104  N   UNL A   1      30.196  24.954  25.236  1.00  0.00    -0.361 N 
ATOM    105  C   UNL A   1      30.128  25.666  24.067  1.00  0.00     0.083 A 
ATOM    106  H   UNL A   1      29.890  25.280  26.113  1.00  0.00     0.166 HD
ENDBRANCH  95  97
ENDBRANCH  93  95
ENDBRANCH  88  89
ENDBRANCH  81  83
ENDBRANCH  80  81
ENDBRANCH  79  80
ENDBRANCH  78  79
ENDBRANCH  77  78
ENDBRANCH  76  77
ENDBRANCH   1  76
TORSDOF 23
ENDMDL
