MODEL 1
REMARK VINA RESULT:     -10.6      0.000      0.000
REMARK SMILES O=C(OCCOCCOCCOCCOC(=O)[C@@H]1CCCC[C@H]1C(=O)Nc1ccc(NC(=O)c2ccco2)cc1)c1ccc(-c2c3nc(c(-c4c(F)c(F)c(F)c(F)c4F)c4ccc([nH]4)c(-c4c(F)c(F)c(F)c(F)c4F)c4nc(c(-c5c(F)c(F)c(F)c(F)c5F)c5ccc2[nH]5)C=C4)C=C3)cc1
REMARK SMILES IDX 10 1 9 2 8 3 7 4 6 5 5 6 4 7 3 8 2 9 1 10 41 11 42 12 103 13
REMARK SMILES IDX 43 14 102 15 44 16 45 17 46 18 96 19 47 20 101 21 95 22
REMARK SMILES IDX 97 23 48 24 100 25 94 26 93 27 49 29 81 30 61 31 80 32 62 33
REMARK SMILES IDX 65 34 79 35 98 36 63 37 64 38 78 40 99 41 66 42 50 43 51 44
REMARK SMILES IDX 59 45 52 46 53 47 57 48 60 49 54 50 55 51 58 52 56 53 82 54
REMARK SMILES IDX 83 55 91 56 84 57 85 58 89 59 92 60 86 61 87 62 90 63 88 64
REMARK SMILES IDX 67 65 68 66 76 67 69 68 70 69 74 70 77 71 71 72 72 73 75 74
REMARK SMILES IDX 73 75 11 76 12 77 13 78 14 79 15 80 16 81 17 82 18 83 19 84
REMARK SMILES IDX 23 85 20 86 22 87 21 88 24 89 25 90 26 91 27 93 28 94 40 95
REMARK SMILES IDX 29 96 39 97 30 98 31 99 32 100 33 102 34 103 35 104 38 105
REMARK SMILES IDX 36 106 37 107
REMARK H PARENT 97 28 65 39 26 92 31 101
REMARK Flexibility Score: inf
ROOT
ATOM      1  C   UNL A   1      39.533  22.539  26.504  1.00  0.00     0.188 C 
ENDROOT
BRANCH   1   2
ATOM      2  O   UNL A   1      40.437  21.544  26.022  1.00  0.00    -0.377 OA
BRANCH   2   3
ATOM      3  C   UNL A   1      40.648  20.432  26.894  1.00  0.00     0.188 C 
BRANCH   3   4
ATOM      4  C   UNL A   1      42.129  20.193  27.178  1.00  0.00     0.188 C 
BRANCH   4   5
ATOM      5  O   UNL A   1      42.386  18.795  26.993  1.00  0.00    -0.376 OA
BRANCH   5   6
ATOM      6  C   UNL A   1      42.982  18.450  25.747  1.00  0.00     0.202 C 
BRANCH   6   7
ATOM      7  C   UNL A   1      44.477  18.160  25.883  1.00  0.00     0.261 C 
BRANCH   7   8
ATOM      8  O   UNL A   1      45.218  18.719  24.785  1.00  0.00    -0.460 OA
BRANCH   8   9
ATOM      9  C   UNL A   1      44.905  19.799  24.025  1.00  0.00     0.338 C 
ATOM     10  O   UNL A   1      44.650  19.620  22.835  1.00  0.00    -0.246 OA
BRANCH   9  11
ATOM     11  C   UNL A   1      44.771  21.195  24.555  1.00  0.00     0.060 A 
ATOM     12  C   UNL A   1      44.217  22.281  23.875  1.00  0.00     0.016 A 
ATOM     13  C   UNL A   1      45.225  21.410  25.870  1.00  0.00     0.016 A 
ATOM     14  C   UNL A   1      44.222  23.560  24.421  1.00  0.00     0.010 A 
ATOM     15  C   UNL A   1      45.216  22.688  26.440  1.00  0.00     0.010 A 
ATOM     16  C   UNL A   1      44.769  23.775  25.684  1.00  0.00    -0.014 A 
BRANCH  16  17
ATOM     17  C   UNL A   1      45.107  25.164  26.050  1.00  0.00     0.031 A 
ATOM     18  C   UNL A   1      44.044  25.971  26.736  1.00  0.00     0.074 A 
ATOM     19  C   UNL A   1      46.368  25.613  25.946  1.00  0.00     0.049 A 
ATOM     20  N   UNL A   1      44.071  27.210  27.147  1.00  0.00    -0.248 NA
ATOM     21  C   UNL A   1      42.777  25.272  27.019  1.00  0.00     0.031 C 
ATOM     22  C   UNL A   1      47.501  24.838  25.443  1.00  0.00     0.029 A 
ATOM     23  N   UNL A   1      46.916  26.816  26.306  1.00  0.00    -0.354 N 
ATOM     24  C   UNL A   1      42.816  27.447  27.694  1.00  0.00     0.074 A 
ATOM     25  C   UNL A   1      42.055  26.226  27.581  1.00  0.00     0.031 C 
ATOM     26  C   UNL A   1      48.620  25.570  25.567  1.00  0.00     0.029 A 
ATOM     27  C   UNL A   1      48.270  26.886  26.095  1.00  0.00     0.049 A 
ATOM     28  H   UNL A   1      46.389  27.559  26.680  1.00  0.00     0.167 HD
ATOM     29  C   UNL A   1      42.342  28.595  28.230  1.00  0.00     0.037 A 
ATOM     30  C   UNL A   1      49.117  27.916  26.292  1.00  0.00     0.037 A 
ATOM     31  C   UNL A   1      43.123  29.792  28.344  1.00  0.00     0.049 A 
ATOM     32  C   UNL A   1      48.548  29.209  26.816  1.00  0.00     0.074 A 
ATOM     33  C   UNL A   1      42.738  31.049  28.767  1.00  0.00     0.029 A 
ATOM     34  N   UNL A   1      44.476  29.863  28.034  1.00  0.00    -0.354 N 
ATOM     35  N   UNL A   1      47.325  29.474  27.217  1.00  0.00    -0.248 NA
ATOM     36  C   UNL A   1      49.464  30.354  26.886  1.00  0.00     0.031 C 
ATOM     37  C   UNL A   1      43.856  31.890  28.687  1.00  0.00     0.029 A 
ATOM     38  C   UNL A   1      44.943  31.146  28.249  1.00  0.00     0.049 A 
ATOM     39  H   UNL A   1      45.022  29.111  27.710  1.00  0.00     0.167 HD
ATOM     40  C   UNL A   1      47.325  30.810  27.592  1.00  0.00     0.074 A 
ATOM     41  C   UNL A   1      48.678  31.295  27.393  1.00  0.00     0.031 C 
ATOM     42  C   UNL A   1      46.303  31.575  28.045  1.00  0.00     0.037 A 
BRANCH  29  43
ATOM     43  C   UNL A   1      40.897  28.601  28.629  1.00  0.00     0.064 A 
ATOM     44  C   UNL A   1      39.881  28.989  27.744  1.00  0.00     0.173 A 
ATOM     45  C   UNL A   1      40.537  28.294  29.951  1.00  0.00     0.173 A 
ATOM     46  F   UNL A   1      40.180  29.332  26.483  1.00  0.00    -0.203 F 
ATOM     47  C   UNL A   1      38.562  29.105  28.178  1.00  0.00     0.198 A 
ATOM     48  C   UNL A   1      39.216  28.390  30.375  1.00  0.00     0.198 A 
ATOM     49  F   UNL A   1      41.475  27.933  30.839  1.00  0.00    -0.203 F 
ATOM     50  F   UNL A   1      37.618  29.547  27.335  1.00  0.00    -0.200 F 
ATOM     51  C   UNL A   1      38.230  28.806  29.492  1.00  0.00     0.200 A 
ATOM     52  F   UNL A   1      38.899  28.107  31.645  1.00  0.00    -0.200 F 
ATOM     53  F   UNL A   1      36.965  28.941  29.913  1.00  0.00    -0.200 F 
ENDBRANCH  29  43
BRANCH  30  54
ATOM     54  C   UNL A   1      50.560  27.780  25.959  1.00  0.00     0.064 A 
ATOM     55  C   UNL A   1      51.019  27.916  24.641  1.00  0.00     0.173 A 
ATOM     56  C   UNL A   1      51.514  27.502  26.950  1.00  0.00     0.173 A 
ATOM     57  F   UNL A   1      50.146  28.152  23.650  1.00  0.00    -0.203 F 
ATOM     58  C   UNL A   1      52.370  27.771  24.328  1.00  0.00     0.198 A 
ATOM     59  C   UNL A   1      52.868  27.387  26.641  1.00  0.00     0.198 A 
ATOM     60  F   UNL A   1      51.132  27.351  28.227  1.00  0.00    -0.203 F 
ATOM     61  F   UNL A   1      52.775  27.863  23.053  1.00  0.00    -0.200 F 
ATOM     62  C   UNL A   1      53.295  27.515  25.329  1.00  0.00     0.200 A 
ATOM     63  F   UNL A   1      53.757  27.148  27.615  1.00  0.00    -0.200 F 
ATOM     64  F   UNL A   1      54.593  27.381  25.029  1.00  0.00    -0.200 F 
ENDBRANCH  30  54
BRANCH  42  65
ATOM     65  C   UNL A   1      46.620  33.002  28.369  1.00  0.00     0.064 A 
ATOM     66  C   UNL A   1      46.501  34.010  27.403  1.00  0.00     0.173 A 
ATOM     67  C   UNL A   1      46.993  33.367  29.669  1.00  0.00     0.173 A 
ATOM     68  F   UNL A   1      46.158  33.701  26.143  1.00  0.00    -0.203 F 
ATOM     69  C   UNL A   1      46.761  35.337  27.725  1.00  0.00     0.198 A 
ATOM     70  C   UNL A   1      47.232  34.698  29.994  1.00  0.00     0.198 A 
ATOM     71  F   UNL A   1      47.112  32.434  30.626  1.00  0.00    -0.203 F 
ATOM     72  F   UNL A   1      46.673  36.284  26.780  1.00  0.00    -0.200 F 
ATOM     73  C   UNL A   1      47.120  35.681  29.021  1.00  0.00     0.200 A 
ATOM     74  F   UNL A   1      47.569  35.031  31.247  1.00  0.00    -0.200 F 
ATOM     75  F   UNL A   1      47.364  36.962  29.331  1.00  0.00    -0.200 F 
ENDBRANCH  42  65
ENDBRANCH  16  17
ENDBRANCH   9  11
ENDBRANCH   8   9
ENDBRANCH   7   8
ENDBRANCH   6   7
ENDBRANCH   5   6
ENDBRANCH   4   5
ENDBRANCH   3   4
ENDBRANCH   2   3
ENDBRANCH   1   2
BRANCH   1  76
ATOM     76  C   UNL A   1      38.229  22.727  25.718  1.00  0.00     0.188 C 
BRANCH  76  77
ATOM     77  O   UNL A   1      37.171  21.820  26.028  1.00  0.00    -0.376 OA
BRANCH  77  78
ATOM     78  C   UNL A   1      36.911  20.797  25.079  1.00  0.00     0.202 C 
BRANCH  78  79
ATOM     79  C   UNL A   1      35.414  20.687  24.756  1.00  0.00     0.261 C 
BRANCH  79  80
ATOM     80  O   UNL A   1      34.538  21.230  25.763  1.00  0.00    -0.463 OA
BRANCH  80  81
ATOM     81  C   UNL A   1      33.200  21.151  25.501  1.00  0.00     0.309 C 
ATOM     82  O   UNL A   1      32.615  20.143  25.129  1.00  0.00    -0.252 OA
BRANCH  81  83
ATOM     83  C   UNL A   1      32.515  22.507  25.670  1.00  0.00     0.111 C 
ATOM     84  C   UNL A   1      31.547  22.597  26.857  1.00  0.00     0.016 C 
ATOM     85  C   UNL A   1      31.841  22.847  24.332  1.00  0.00     0.093 C 
ATOM     86  C   UNL A   1      30.777  23.915  26.874  1.00  0.00     0.001 C 
ATOM     87  C   UNL A   1      31.028  24.143  24.383  1.00  0.00     0.014 C 
ATOM     88  C   UNL A   1      30.050  24.145  25.559  1.00  0.00     0.001 C 
BRANCH  85  89
ATOM     89  C   UNL A   1      32.768  22.772  23.102  1.00  0.00     0.228 C 
ATOM     90  O   UNL A   1      32.505  21.987  22.184  1.00  0.00    -0.274 OA
ATOM     91  N   UNL A   1      33.886  23.561  22.954  1.00  0.00    -0.326 N 
ATOM     92  H   UNL A   1      34.681  23.156  22.537  1.00  0.00     0.169 HD
BRANCH  91  93
ATOM     93  C   UNL A   1      33.971  24.899  23.357  1.00  0.00     0.041 A 
ATOM     94  C   UNL A   1      33.656  25.890  22.445  1.00  0.00     0.028 A 
ATOM     95  C   UNL A   1      34.352  25.251  24.648  1.00  0.00     0.028 A 
ATOM     96  C   UNL A   1      33.514  27.205  22.884  1.00  0.00     0.028 A 
ATOM     97  C   UNL A   1      34.133  26.556  25.101  1.00  0.00     0.028 A 
ATOM     98  C   UNL A   1      33.633  27.533  24.234  1.00  0.00     0.041 A 
BRANCH  98  99
ATOM     99  N   UNL A   1      33.210  28.740  24.819  1.00  0.00    -0.319 N 
ATOM    100  C   UNL A   1      31.970  29.349  24.944  1.00  0.00     0.291 C 
ATOM    101  H   UNL A   1      33.943  29.260  25.222  1.00  0.00     0.170 HD
ATOM    102  O   UNL A   1      31.886  30.306  25.702  1.00  0.00    -0.265 OA
BRANCH 100 103
ATOM    103  C   UNL A   1      30.841  28.838  24.208  1.00  0.00     0.191 A 
ATOM    104  C   UNL A   1      30.272  27.579  24.134  1.00  0.00     0.056 A 
ATOM    105  O   UNL A   1      30.178  29.694  23.371  1.00  0.00    -0.459 OA
ATOM    106  C   UNL A   1      29.241  27.663  23.163  1.00  0.00     0.043 A 
ATOM    107  C   UNL A   1      29.211  28.975  22.748  1.00  0.00     0.196 A 
ENDBRANCH 100 103
ENDBRANCH  98  99
ENDBRANCH  91  93
ENDBRANCH  85  89
ENDBRANCH  81  83
ENDBRANCH  80  81
ENDBRANCH  79  80
ENDBRANCH  78  79
ENDBRANCH  77  78
ENDBRANCH  76  77
ENDBRANCH   1  76
TORSDOF 24
ENDMDL
MODEL 2
REMARK VINA RESULT:     -10.6      1.750      7.617
REMARK SMILES O=C(OCCOCCOCCOCCOC(=O)[C@@H]1CCCC[C@H]1C(=O)Nc1ccc(NC(=O)c2ccco2)cc1)c1ccc(-c2c3nc(c(-c4c(F)c(F)c(F)c(F)c4F)c4ccc([nH]4)c(-c4c(F)c(F)c(F)c(F)c4F)c4nc(c(-c5c(F)c(F)c(F)c(F)c5F)c5ccc2[nH]5)C=C4)C=C3)cc1
REMARK SMILES IDX 10 1 9 2 8 3 7 4 6 5 5 6 4 7 3 8 2 9 1 10 41 11 42 12 103 13
REMARK SMILES IDX 43 14 102 15 44 16 45 17 46 18 96 19 47 20 101 21 95 22
REMARK SMILES IDX 97 23 48 24 100 25 94 26 93 27 49 29 81 30 61 31 80 32 62 33
REMARK SMILES IDX 65 34 79 35 98 36 63 37 64 38 78 40 99 41 66 42 50 43 51 44
REMARK SMILES IDX 59 45 52 46 53 47 57 48 60 49 54 50 55 51 58 52 56 53 82 54
REMARK SMILES IDX 83 55 91 56 84 57 85 58 89 59 92 60 86 61 87 62 90 63 88 64
REMARK SMILES IDX 67 65 68 66 76 67 69 68 70 69 74 70 77 71 71 72 72 73 75 74
REMARK SMILES IDX 73 75 11 76 12 77 13 78 14 79 15 80 16 81 17 82 18 83 19 84
REMARK SMILES IDX 23 85 20 86 22 87 21 88 24 89 25 90 26 91 27 93 28 94 40 95
REMARK SMILES IDX 29 96 39 97 30 98 31 99 32 100 33 102 34 103 35 104 38 105
REMARK SMILES IDX 36 106 37 107
REMARK H PARENT 97 28 65 39 26 92 31 101
REMARK Flexibility Score: inf
ROOT
ATOM      1  C   UNL A   1      35.822  22.597  25.932  1.00  0.00     0.188 C 
ENDROOT
BRANCH   1   2
ATOM      2  O   UNL A   1      36.236  21.285  25.553  1.00  0.00    -0.377 OA
BRANCH   2   3
ATOM      3  C   UNL A   1      37.619  21.151  25.217  1.00  0.00     0.188 C 
BRANCH   3   4
ATOM      4  C   UNL A   1      38.473  22.258  25.830  1.00  0.00     0.188 C 
BRANCH   4   5
ATOM      5  O   UNL A   1      39.749  21.690  26.157  1.00  0.00    -0.376 OA
BRANCH   5   6
ATOM      6  C   UNL A   1      39.867  20.292  25.914  1.00  0.00     0.202 C 
BRANCH   6   7
ATOM      7  C   UNL A   1      41.182  19.724  26.448  1.00  0.00     0.261 C 
BRANCH   7   8
ATOM      8  O   UNL A   1      42.035  19.290  25.375  1.00  0.00    -0.460 OA
BRANCH   8   9
ATOM      9  C   UNL A   1      43.334  19.617  25.153  1.00  0.00     0.338 C 
ATOM     10  O   UNL A   1      44.072  18.765  24.659  1.00  0.00    -0.246 OA
BRANCH   9  11
ATOM     11  C   UNL A   1      43.917  20.975  25.397  1.00  0.00     0.060 A 
ATOM     12  C   UNL A   1      44.933  21.281  26.306  1.00  0.00     0.016 A 
ATOM     13  C   UNL A   1      43.404  22.025  24.613  1.00  0.00     0.016 A 
ATOM     14  C   UNL A   1      45.343  22.592  26.523  1.00  0.00     0.010 A 
ATOM     15  C   UNL A   1      43.823  23.346  24.807  1.00  0.00     0.010 A 
ATOM     16  C   UNL A   1      44.751  23.633  25.812  1.00  0.00    -0.014 A 
BRANCH  16  17
ATOM     17  C   UNL A   1      44.924  25.000  26.339  1.00  0.00     0.031 A 
ATOM     18  C   UNL A   1      46.250  25.664  26.107  1.00  0.00     0.074 A 
ATOM     19  C   UNL A   1      43.877  25.683  26.831  1.00  0.00     0.049 A 
ATOM     20  N   UNL A   1      46.669  26.844  26.476  1.00  0.00    -0.248 NA
ATOM     21  C   UNL A   1      47.236  24.893  25.328  1.00  0.00     0.031 C 
ATOM     22  C   UNL A   1      42.512  25.170  26.940  1.00  0.00     0.029 A 
ATOM     23  N   UNL A   1      43.790  26.973  27.284  1.00  0.00    -0.354 N 
ATOM     24  C   UNL A   1      47.975  26.936  26.012  1.00  0.00     0.074 A 
ATOM     25  C   UNL A   1      48.278  25.705  25.321  1.00  0.00     0.031 C 
ATOM     26  C   UNL A   1      41.712  26.152  27.388  1.00  0.00     0.029 A 
ATOM     27  C   UNL A   1      42.521  27.337  27.660  1.00  0.00     0.049 A 
ATOM     28  H   UNL A   1      44.563  27.580  27.335  1.00  0.00     0.167 HD
ATOM     29  C   UNL A   1      48.847  27.959  26.166  1.00  0.00     0.037 A 
ATOM     30  C   UNL A   1      42.082  28.498  28.184  1.00  0.00     0.037 A 
ATOM     31  C   UNL A   1      48.516  29.178  26.845  1.00  0.00     0.049 A 
ATOM     32  C   UNL A   1      43.090  29.593  28.419  1.00  0.00     0.074 A 
ATOM     33  C   UNL A   1      49.330  30.247  27.164  1.00  0.00     0.029 A 
ATOM     34  N   UNL A   1      47.241  29.486  27.302  1.00  0.00    -0.354 N 
ATOM     35  N   UNL A   1      44.362  29.634  28.093  1.00  0.00    -0.248 NA
ATOM     36  C   UNL A   1      42.612  30.792  29.120  1.00  0.00     0.031 C 
ATOM     37  C   UNL A   1      48.549  31.194  27.840  1.00  0.00     0.029 A 
ATOM     38  C   UNL A   1      47.244  30.728  27.909  1.00  0.00     0.049 A 
ATOM     39  H   UNL A   1      46.451  28.906  27.207  1.00  0.00     0.167 HD
ATOM     40  C   UNL A   1      44.835  30.858  28.543  1.00  0.00     0.074 A 
ATOM     41  C   UNL A   1      43.705  31.542  29.144  1.00  0.00     0.031 C 
ATOM     42  C   UNL A   1      46.089  31.370  28.482  1.00  0.00     0.037 A 
BRANCH  29  43
ATOM     43  C   UNL A   1      50.242  27.731  25.669  1.00  0.00     0.064 A 
ATOM     44  C   UNL A   1      51.297  27.404  26.533  1.00  0.00     0.173 A 
ATOM     45  C   UNL A   1      50.540  27.929  24.312  1.00  0.00     0.173 A 
ATOM     46  F   UNL A   1      51.070  27.245  27.845  1.00  0.00    -0.203 F 
ATOM     47  C   UNL A   1      52.606  27.321  26.062  1.00  0.00     0.198 A 
ATOM     48  C   UNL A   1      51.846  27.823  23.842  1.00  0.00     0.198 A 
ATOM     49  F   UNL A   1      49.568  28.258  23.448  1.00  0.00    -0.203 F 
ATOM     50  F   UNL A   1      53.609  27.078  26.918  1.00  0.00    -0.200 F 
ATOM     51  C   UNL A   1      52.879  27.530  24.718  1.00  0.00     0.200 A 
ATOM     52  F   UNL A   1      52.108  28.032  22.544  1.00  0.00    -0.200 F 
ATOM     53  F   UNL A   1      54.142  27.472  24.272  1.00  0.00    -0.200 F 
ENDBRANCH  29  43
BRANCH  30  54
ATOM     54  C   UNL A   1      40.651  28.665  28.554  1.00  0.00     0.064 A 
ATOM     55  C   UNL A   1      40.189  28.343  29.837  1.00  0.00     0.173 A 
ATOM     56  C   UNL A   1      39.710  29.145  27.628  1.00  0.00     0.173 A 
ATOM     57  F   UNL A   1      41.039  27.853  30.751  1.00  0.00    -0.203 F 
ATOM     58  C   UNL A   1      38.843  28.484  30.177  1.00  0.00     0.198 A 
ATOM     59  C   UNL A   1      38.372  29.314  27.978  1.00  0.00     0.198 A 
ATOM     60  F   UNL A   1      40.093  29.460  26.382  1.00  0.00    -0.203 F 
ATOM     61  F   UNL A   1      38.421  28.125  31.397  1.00  0.00    -0.200 F 
ATOM     62  C   UNL A   1      37.938  28.977  29.250  1.00  0.00     0.200 A 
ATOM     63  F   UNL A   1      37.504  29.799  27.079  1.00  0.00    -0.200 F 
ATOM     64  F   UNL A   1      36.646  29.116  29.578  1.00  0.00    -0.200 F 
ENDBRANCH  30  54
BRANCH  42  65
ATOM     65  C   UNL A   1      46.290  32.735  29.063  1.00  0.00     0.064 A 
ATOM     66  C   UNL A   1      46.109  33.888  28.289  1.00  0.00     0.173 A 
ATOM     67  C   UNL A   1      46.613  32.886  30.418  1.00  0.00     0.173 A 
ATOM     68  F   UNL A   1      45.812  33.786  26.984  1.00  0.00    -0.203 F 
ATOM     69  C   UNL A   1      46.261  35.151  28.850  1.00  0.00     0.198 A 
ATOM     70  C   UNL A   1      46.743  34.151  30.981  1.00  0.00     0.198 A 
ATOM     71  F   UNL A   1      46.788  31.808  31.197  1.00  0.00    -0.203 F 
ATOM     72  F   UNL A   1      46.116  36.243  28.086  1.00  0.00    -0.200 F 
ATOM     73  C   UNL A   1      46.571  35.282  30.196  1.00  0.00     0.200 A 
ATOM     74  F   UNL A   1      47.033  34.277  32.283  1.00  0.00    -0.200 F 
ATOM     75  F   UNL A   1      46.710  36.500  30.736  1.00  0.00    -0.200 F 
ENDBRANCH  42  65
ENDBRANCH  16  17
ENDBRANCH   9  11
ENDBRANCH   8   9
ENDBRANCH   7   8
ENDBRANCH   6   7
ENDBRANCH   5   6
ENDBRANCH   4   5
ENDBRANCH   3   4
ENDBRANCH   2   3
ENDBRANCH   1   2
BRANCH   1  76
ATOM     76  C   UNL A   1      34.445  22.721  26.598  1.00  0.00     0.188 C 
BRANCH  76  77
ATOM     77  O   UNL A   1      33.316  22.509  25.750  1.00  0.00    -0.376 OA
BRANCH  77  78
ATOM     78  C   UNL A   1      32.039  22.534  26.372  1.00  0.00     0.202 C 
BRANCH  78  79
ATOM     79  C   UNL A   1      31.561  23.970  26.633  1.00  0.00     0.261 C 
BRANCH  79  80
ATOM     80  O   UNL A   1      30.420  24.377  25.851  1.00  0.00    -0.463 OA
BRANCH  80  81
ATOM     81  C   UNL A   1      30.672  24.713  24.551  1.00  0.00     0.309 C 
ATOM     82  O   UNL A   1      30.878  23.914  23.647  1.00  0.00    -0.252 OA
BRANCH  81  83
ATOM     83  C   UNL A   1      30.729  26.228  24.366  1.00  0.00     0.111 C 
ATOM     84  C   UNL A   1      29.537  26.831  23.612  1.00  0.00     0.016 C 
ATOM     85  C   UNL A   1      32.074  26.556  23.700  1.00  0.00     0.093 C 
ATOM     86  C   UNL A   1      29.732  28.317  23.318  1.00  0.00     0.001 C 
ATOM     87  C   UNL A   1      32.230  28.040  23.361  1.00  0.00     0.014 C 
ATOM     88  C   UNL A   1      31.031  28.564  22.569  1.00  0.00     0.001 C 
BRANCH  85  89
ATOM     89  C   UNL A   1      33.310  25.973  24.415  1.00  0.00     0.228 C 
ATOM     90  O   UNL A   1      34.092  25.247  23.793  1.00  0.00    -0.274 OA
ATOM     91  N   UNL A   1      33.611  26.240  25.732  1.00  0.00    -0.326 N 
ATOM     92  H   UNL A   1      33.990  25.508  26.272  1.00  0.00     0.169 HD
BRANCH  91  93
ATOM     93  C   UNL A   1      33.414  27.476  26.356  1.00  0.00     0.041 A 
ATOM     94  C   UNL A   1      34.415  28.429  26.278  1.00  0.00     0.028 A 
ATOM     95  C   UNL A   1      32.238  27.772  27.038  1.00  0.00     0.028 A 
ATOM     96  C   UNL A   1      34.152  29.733  26.691  1.00  0.00     0.028 A 
ATOM     97  C   UNL A   1      31.952  29.098  27.380  1.00  0.00     0.028 A 
ATOM     98  C   UNL A   1      32.885  30.110  27.134  1.00  0.00     0.041 A 
BRANCH  98  99
ATOM     99  N   UNL A   1      32.432  31.435  27.273  1.00  0.00    -0.319 N 
ATOM    100  C   UNL A   1      33.035  32.600  27.724  1.00  0.00     0.291 C 
ATOM    101  H   UNL A   1      31.496  31.561  26.993  1.00  0.00     0.170 HD
ATOM    102  O   UNL A   1      32.446  33.654  27.522  1.00  0.00    -0.265 OA
BRANCH 100 103
ATOM    103  C   UNL A   1      34.314  32.538  28.385  1.00  0.00     0.191 A 
ATOM    104  C   UNL A   1      34.667  32.366  29.712  1.00  0.00     0.056 A 
ATOM    105  O   UNL A   1      35.439  32.711  27.627  1.00  0.00    -0.459 OA
ATOM    106  C   UNL A   1      36.079  32.494  29.769  1.00  0.00     0.043 A 
ATOM    107  C   UNL A   1      36.500  32.678  28.472  1.00  0.00     0.196 A 
ENDBRANCH 100 103
ENDBRANCH  98  99
ENDBRANCH  91  93
ENDBRANCH  85  89
ENDBRANCH  81  83
ENDBRANCH  80  81
ENDBRANCH  79  80
ENDBRANCH  78  79
ENDBRANCH  77  78
ENDBRANCH  76  77
ENDBRANCH   1  76
TORSDOF 24
ENDMDL
MODEL 3
REMARK VINA RESULT:     -10.5      0.635      6.845
REMARK SMILES O=C(OCCOCCOCCOCCOC(=O)[C@@H]1CCCC[C@H]1C(=O)Nc1ccc(NC(=O)c2ccco2)cc1)c1ccc(-c2c3nc(c(-c4c(F)c(F)c(F)c(F)c4F)c4ccc([nH]4)c(-c4c(F)c(F)c(F)c(F)c4F)c4nc(c(-c5c(F)c(F)c(F)c(F)c5F)c5ccc2[nH]5)C=C4)C=C3)cc1
REMARK SMILES IDX 10 1 9 2 8 3 7 4 6 5 5 6 4 7 3 8 2 9 1 10 41 11 42 12 103 13
REMARK SMILES IDX 43 14 102 15 44 16 45 17 46 18 96 19 47 20 101 21 95 22
REMARK SMILES IDX 97 23 48 24 100 25 94 26 93 27 49 29 81 30 61 31 80 32 62 33
REMARK SMILES IDX 65 34 79 35 98 36 63 37 64 38 78 40 99 41 66 42 50 43 51 44
REMARK SMILES IDX 59 45 52 46 53 47 57 48 60 49 54 50 55 51 58 52 56 53 82 54
REMARK SMILES IDX 83 55 91 56 84 57 85 58 89 59 92 60 86 61 87 62 90 63 88 64
REMARK SMILES IDX 67 65 68 66 76 67 69 68 70 69 74 70 77 71 71 72 72 73 75 74
REMARK SMILES IDX 73 75 11 76 12 77 13 78 14 79 15 80 16 81 17 82 18 83 19 84
REMARK SMILES IDX 23 85 20 86 22 87 21 88 24 89 25 90 26 91 27 93 28 94 40 95
REMARK SMILES IDX 29 96 39 97 30 98 31 99 32 100 33 102 34 103 35 104 38 105
REMARK SMILES IDX 36 106 37 107
REMARK H PARENT 97 28 65 39 26 92 31 101
REMARK Flexibility Score: inf
ROOT
ATOM      1  C   UNL A   1      38.943  22.444  26.142  1.00  0.00     0.188 C 
ENDROOT
BRANCH   1   2
ATOM      2  O   UNL A   1      39.963  21.476  25.891  1.00  0.00    -0.377 OA
BRANCH   2   3
ATOM      3  C   UNL A   1      40.415  20.750  27.036  1.00  0.00     0.188 C 
BRANCH   3   4
ATOM      4  C   UNL A   1      41.919  20.490  26.999  1.00  0.00     0.188 C 
BRANCH   4   5
ATOM      5  O   UNL A   1      42.113  19.069  27.000  1.00  0.00    -0.376 OA
BRANCH   5   6
ATOM      6  C   UNL A   1      42.595  18.524  25.776  1.00  0.00     0.202 C 
BRANCH   6   7
ATOM      7  C   UNL A   1      44.054  18.078  25.878  1.00  0.00     0.261 C 
BRANCH   7   8
ATOM      8  O   UNL A   1      44.798  18.459  24.708  1.00  0.00    -0.460 OA
BRANCH   8   9
ATOM      9  C   UNL A   1      44.776  19.646  24.050  1.00  0.00     0.338 C 
ATOM     10  O   UNL A   1      44.882  19.635  22.825  1.00  0.00    -0.246 OA
BRANCH   9  11
ATOM     11  C   UNL A   1      44.554  20.973  24.710  1.00  0.00     0.060 A 
ATOM     12  C   UNL A   1      43.763  22.013  24.216  1.00  0.00     0.016 A 
ATOM     13  C   UNL A   1      45.185  21.166  25.953  1.00  0.00     0.016 A 
ATOM     14  C   UNL A   1      43.694  23.243  24.861  1.00  0.00     0.010 A 
ATOM     15  C   UNL A   1      45.106  22.392  26.623  1.00  0.00     0.010 A 
ATOM     16  C   UNL A   1      44.408  23.452  26.039  1.00  0.00    -0.014 A 
BRANCH  16  17
ATOM     17  C   UNL A   1      44.621  24.848  26.465  1.00  0.00     0.031 A 
ATOM     18  C   UNL A   1      45.941  25.477  26.121  1.00  0.00     0.074 A 
ATOM     19  C   UNL A   1      43.609  25.576  26.964  1.00  0.00     0.049 A 
ATOM     20  N   UNL A   1      46.390  26.673  26.389  1.00  0.00    -0.248 NA
ATOM     21  C   UNL A   1      46.876  24.644  25.345  1.00  0.00     0.031 C 
ATOM     22  C   UNL A   1      42.247  25.090  27.177  1.00  0.00     0.029 A 
ATOM     23  N   UNL A   1      43.560  26.894  27.334  1.00  0.00    -0.354 N 
ATOM     24  C   UNL A   1      47.671  26.716  25.853  1.00  0.00     0.074 A 
ATOM     25  C   UNL A   1      47.925  25.439  25.230  1.00  0.00     0.031 C 
ATOM     26  C   UNL A   1      41.481  26.110  27.600  1.00  0.00     0.029 A 
ATOM     27  C   UNL A   1      42.316  27.299  27.751  1.00  0.00     0.049 A 
ATOM     28  H   UNL A   1      44.340  27.493  27.305  1.00  0.00     0.167 HD
ATOM     29  C   UNL A   1      48.560  27.735  25.894  1.00  0.00     0.037 A 
ATOM     30  C   UNL A   1      41.917  28.498  28.219  1.00  0.00     0.037 A 
ATOM     31  C   UNL A   1      48.279  29.000  26.507  1.00  0.00     0.049 A 
ATOM     32  C   UNL A   1      42.946  29.592  28.328  1.00  0.00     0.074 A 
ATOM     33  C   UNL A   1      49.119  30.077  26.713  1.00  0.00     0.029 A 
ATOM     34  N   UNL A   1      47.032  29.355  27.008  1.00  0.00    -0.354 N 
ATOM     35  N   UNL A   1      44.200  29.594  27.936  1.00  0.00    -0.248 NA
ATOM     36  C   UNL A   1      42.519  30.840  28.973  1.00  0.00     0.031 C 
ATOM     37  C   UNL A   1      48.384  31.076  27.364  1.00  0.00     0.029 A 
ATOM     38  C   UNL A   1      47.080  30.634  27.530  1.00  0.00     0.049 A 
ATOM     39  H   UNL A   1      46.232  28.781  26.992  1.00  0.00     0.167 HD
ATOM     40  C   UNL A   1      44.709  30.838  28.278  1.00  0.00     0.074 A 
ATOM     41  C   UNL A   1      43.619  31.576  28.890  1.00  0.00     0.031 C 
ATOM     42  C   UNL A   1      45.963  31.328  28.119  1.00  0.00     0.037 A 
BRANCH  29  43
ATOM     43  C   UNL A   1      49.925  27.456  25.342  1.00  0.00     0.064 A 
ATOM     44  C   UNL A   1      50.194  27.491  23.965  1.00  0.00     0.173 A 
ATOM     45  C   UNL A   1      50.960  27.061  26.204  1.00  0.00     0.173 A 
ATOM     46  F   UNL A   1      49.226  27.820  23.097  1.00  0.00    -0.203 F 
ATOM     47  C   UNL A   1      51.438  27.105  23.471  1.00  0.00     0.198 A 
ATOM     48  C   UNL A   1      52.208  26.699  25.708  1.00  0.00     0.198 A 
ATOM     49  F   UNL A   1      50.748  26.997  27.527  1.00  0.00    -0.203 F 
ATOM     50  F   UNL A   1      51.652  27.078  22.148  1.00  0.00    -0.200 F 
ATOM     51  C   UNL A   1      52.444  26.710  24.341  1.00  0.00     0.200 A 
ATOM     52  F   UNL A   1      53.175  26.312  26.550  1.00  0.00    -0.200 F 
ATOM     53  F   UNL A   1      53.632  26.318  23.862  1.00  0.00    -0.200 F 
ENDBRANCH  29  43
BRANCH  30  54
ATOM     54  C   UNL A   1      40.509  28.709  28.650  1.00  0.00     0.064 A 
ATOM     55  C   UNL A   1      40.115  28.495  29.978  1.00  0.00     0.173 A 
ATOM     56  C   UNL A   1      39.522  29.121  27.741  1.00  0.00     0.173 A 
ATOM     57  F   UNL A   1      41.012  28.072  30.882  1.00  0.00    -0.203 F 
ATOM     58  C   UNL A   1      38.791  28.676  30.378  1.00  0.00     0.198 A 
ATOM     59  C   UNL A   1      38.205  29.330  28.147  1.00  0.00     0.198 A 
ATOM     60  F   UNL A   1      39.838  29.330  26.455  1.00  0.00    -0.203 F 
ATOM     61  F   UNL A   1      38.434  28.422  31.645  1.00  0.00    -0.200 F 
ATOM     62  C   UNL A   1      37.839  29.102  29.464  1.00  0.00     0.200 A 
ATOM     63  F   UNL A   1      37.292  29.750  27.260  1.00  0.00    -0.200 F 
ATOM     64  F   UNL A   1      36.568  29.280  29.848  1.00  0.00    -0.200 F 
ENDBRANCH  30  54
BRANCH  42  65
ATOM     65  C   UNL A   1      46.208  32.725  28.598  1.00  0.00     0.064 A 
ATOM     66  C   UNL A   1      46.033  33.825  27.748  1.00  0.00     0.173 A 
ATOM     67  C   UNL A   1      46.568  32.963  29.931  1.00  0.00     0.173 A 
ATOM     68  F   UNL A   1      45.702  33.639  26.461  1.00  0.00    -0.203 F 
ATOM     69  C   UNL A   1      46.227  35.120  28.215  1.00  0.00     0.198 A 
ATOM     70  C   UNL A   1      46.740  34.261  30.400  1.00  0.00     0.198 A 
ATOM     71  F   UNL A   1      46.739  31.938  30.779  1.00  0.00    -0.203 F 
ATOM     72  F   UNL A   1      46.087  36.159  27.380  1.00  0.00    -0.200 F 
ATOM     73  C   UNL A   1      46.573  35.338  29.541  1.00  0.00     0.200 A 
ATOM     74  F   UNL A   1      47.064  34.471  31.683  1.00  0.00    -0.200 F 
ATOM     75  F   UNL A   1      46.752  36.588  29.991  1.00  0.00    -0.200 F 
ENDBRANCH  42  65
ENDBRANCH  16  17
ENDBRANCH   9  11
ENDBRANCH   8   9
ENDBRANCH   7   8
ENDBRANCH   6   7
ENDBRANCH   5   6
ENDBRANCH   4   5
ENDBRANCH   3   4
ENDBRANCH   2   3
ENDBRANCH   1   2
BRANCH   1  76
ATOM     76  C   UNL A   1      37.627  22.276  25.374  1.00  0.00     0.188 C 
BRANCH  76  77
ATOM     77  O   UNL A   1      36.721  21.297  25.885  1.00  0.00    -0.376 OA
BRANCH  77  78
ATOM     78  C   UNL A   1      36.353  20.248  25.003  1.00  0.00     0.202 C 
BRANCH  78  79
ATOM     79  C   UNL A   1      34.828  20.132  24.860  1.00  0.00     0.261 C 
BRANCH  79  80
ATOM     80  O   UNL A   1      34.075  21.061  25.664  1.00  0.00    -0.463 OA
BRANCH  80  81
ATOM     81  C   UNL A   1      32.732  21.114  25.421  1.00  0.00     0.309 C 
ATOM     82  O   UNL A   1      32.051  20.174  25.033  1.00  0.00    -0.252 OA
BRANCH  81  83
ATOM     83  C   UNL A   1      32.180  22.523  25.633  1.00  0.00     0.111 C 
ATOM     84  C   UNL A   1      31.112  22.638  26.728  1.00  0.00     0.016 C 
ATOM     85  C   UNL A   1      31.684  23.029  24.270  1.00  0.00     0.093 C 
ATOM     86  C   UNL A   1      30.486  24.031  26.779  1.00  0.00     0.001 C 
ATOM     87  C   UNL A   1      31.010  24.401  24.349  1.00  0.00     0.014 C 
ATOM     88  C   UNL A   1      29.924  24.432  25.425  1.00  0.00     0.001 C 
BRANCH  85  89
ATOM     89  C   UNL A   1      32.718  22.935  23.130  1.00  0.00     0.228 C 
ATOM     90  O   UNL A   1      32.522  22.162  22.187  1.00  0.00    -0.274 OA
ATOM     91  N   UNL A   1      33.864  23.698  23.090  1.00  0.00    -0.326 N 
ATOM     92  H   UNL A   1      34.683  23.275  22.744  1.00  0.00     0.169 HD
BRANCH  91  93
ATOM     93  C   UNL A   1      33.944  25.031  23.507  1.00  0.00     0.041 A 
ATOM     94  C   UNL A   1      33.696  26.033  22.586  1.00  0.00     0.028 A 
ATOM     95  C   UNL A   1      34.253  25.369  24.821  1.00  0.00     0.028 A 
ATOM     96  C   UNL A   1      33.547  27.347  23.026  1.00  0.00     0.028 A 
ATOM     97  C   UNL A   1      34.027  26.674  25.270  1.00  0.00     0.028 A 
ATOM     98  C   UNL A   1      33.592  27.664  24.383  1.00  0.00     0.041 A 
BRANCH  98  99
ATOM     99  N   UNL A   1      33.152  28.874  24.951  1.00  0.00    -0.319 N 
ATOM    100  C   UNL A   1      31.912  29.491  25.023  1.00  0.00     0.291 C 
ATOM    101  H   UNL A   1      33.871  29.387  25.387  1.00  0.00     0.170 HD
ATOM    102  O   UNL A   1      31.802  30.448  25.779  1.00  0.00    -0.265 OA
BRANCH 100 103
ATOM    103  C   UNL A   1      30.813  28.990  24.237  1.00  0.00     0.191 A 
ATOM    104  C   UNL A   1      30.238  27.735  24.136  1.00  0.00     0.056 A 
ATOM    105  O   UNL A   1      30.194  29.852  23.374  1.00  0.00    -0.459 OA
ATOM    106  C   UNL A   1      29.252  27.829  23.120  1.00  0.00     0.043 A 
ATOM    107  C   UNL A   1      29.249  29.141  22.707  1.00  0.00     0.196 A 
ENDBRANCH 100 103
ENDBRANCH  98  99
ENDBRANCH  91  93
ENDBRANCH  85  89
ENDBRANCH  81  83
ENDBRANCH  80  81
ENDBRANCH  79  80
ENDBRANCH  78  79
ENDBRANCH  77  78
ENDBRANCH  76  77
ENDBRANCH   1  76
TORSDOF 24
ENDMDL
