MODEL 1
REMARK VINA RESULT:     -11.5      0.000      0.000
REMARK SMILES O=C(OCCOCCOCCOCCOC(=O)c1c(F)cccc1NC(=O)C1CCCCC1)c1ccc(-c2c3nc(c(-c4c(F)c(F)c(F)c(F)c4F)c4ccc([nH]4)c(-c4c(F)c(F)c(F)c(F)c4F)c4nc(c(-c5c(F)c(F)c(F)c(F)c5F)c5ccc2[nH]5)C=C4)C=C3)cc1
REMARK SMILES IDX 9 1 8 2 7 3 6 4 5 5 4 6 3 7 2 8 1 9 34 10 35 11 96 12 36 13
REMARK SMILES IDX 95 14 37 15 38 16 39 17 89 18 40 19 94 20 88 21 90 22 41 23
REMARK SMILES IDX 93 24 87 25 86 26 42 28 74 29 54 30 73 31 55 32 58 33 72 34
REMARK SMILES IDX 91 35 56 36 57 37 71 39 92 40 59 41 43 42 44 43 52 44 45 45
REMARK SMILES IDX 46 46 50 47 53 48 47 49 48 50 51 51 49 52 75 53 76 54 84 55
REMARK SMILES IDX 77 56 78 57 82 58 85 59 79 60 80 61 83 62 81 63 60 64 61 65
REMARK SMILES IDX 69 66 62 67 63 68 67 69 70 70 64 71 65 72 68 73 66 74 10 75
REMARK SMILES IDX 11 76 12 77 13 78 14 79 15 80 16 81 17 82 18 83 19 84 24 85
REMARK SMILES IDX 20 86 21 87 23 88 22 89 25 90 26 91 27 93 28 94 29 95 33 96
REMARK SMILES IDX 30 97 32 98 31 99
REMARK H PARENT 90 27 58 38 25 92
REMARK Flexibility Score: inf
ROOT
ATOM      1  O   UNL A   1      32.682  34.129  28.518  1.00  0.00    -0.377 OA
ENDROOT
BRANCH   1   2
ATOM      2  C   UNL A   1      33.596  34.964  29.219  1.00  0.00     0.188 C 
BRANCH   2   3
ATOM      3  C   UNL A   1      32.937  35.783  30.320  1.00  0.00     0.188 C 
BRANCH   3   4
ATOM      4  O   UNL A   1      32.847  34.996  31.510  1.00  0.00    -0.376 OA
BRANCH   4   5
ATOM      5  C   UNL A   1      34.088  34.703  32.146  1.00  0.00     0.202 C 
BRANCH   5   6
ATOM      6  C   UNL A   1      34.080  33.396  32.942  1.00  0.00     0.261 C 
BRANCH   6   7
ATOM      7  O   UNL A   1      34.943  32.394  32.377  1.00  0.00    -0.460 OA
BRANCH   7   8
ATOM      8  C   UNL A   1      36.129  31.939  32.856  1.00  0.00     0.338 C 
ATOM      9  O   UNL A   1      36.411  32.172  34.031  1.00  0.00    -0.246 OA
BRANCH   8  10
ATOM     10  C   UNL A   1      37.103  31.130  32.060  1.00  0.00     0.060 A 
ATOM     11  C   UNL A   1      38.000  30.196  32.581  1.00  0.00     0.016 A 
ATOM     12  C   UNL A   1      37.076  31.298  30.664  1.00  0.00     0.016 A 
ATOM     13  C   UNL A   1      38.923  29.544  31.776  1.00  0.00     0.010 A 
ATOM     14  C   UNL A   1      37.978  30.621  29.837  1.00  0.00     0.010 A 
ATOM     15  C   UNL A   1      38.944  29.785  30.406  1.00  0.00    -0.014 A 
BRANCH  15  16
ATOM     16  C   UNL A   1      40.143  29.359  29.661  1.00  0.00     0.031 A 
ATOM     17  C   UNL A   1      41.314  30.297  29.647  1.00  0.00     0.074 A 
ATOM     18  C   UNL A   1      40.246  28.105  29.189  1.00  0.00     0.049 A 
ATOM     19  N   UNL A   1      42.460  30.193  29.030  1.00  0.00    -0.248 NA
ATOM     20  C   UNL A   1      41.179  31.522  30.457  1.00  0.00     0.031 C 
ATOM     21  C   UNL A   1      39.216  27.073  29.312  1.00  0.00     0.029 A 
ATOM     22  N   UNL A   1      41.284  27.469  28.560  1.00  0.00    -0.354 N 
ATOM     23  C   UNL A   1      43.155  31.355  29.340  1.00  0.00     0.074 A 
ATOM     24  C   UNL A   1      42.310  32.153  30.196  1.00  0.00     0.031 C 
ATOM     25  C   UNL A   1      39.691  25.920  28.814  1.00  0.00     0.029 A 
ATOM     26  C   UNL A   1      41.025  26.153  28.270  1.00  0.00     0.049 A 
ATOM     27  H   UNL A   1      42.133  27.914  28.337  1.00  0.00     0.167 HD
ATOM     28  C   UNL A   1      44.393  31.717  28.935  1.00  0.00     0.037 A 
ATOM     29  C   UNL A   1      41.781  25.254  27.610  1.00  0.00     0.037 A 
ATOM     30  C   UNL A   1      45.216  30.884  28.104  1.00  0.00     0.049 A 
ATOM     31  C   UNL A   1      43.122  25.705  27.096  1.00  0.00     0.074 A 
ATOM     32  C   UNL A   1      46.442  31.164  27.535  1.00  0.00     0.029 A 
ATOM     33  N   UNL A   1      44.887  29.582  27.744  1.00  0.00    -0.354 N 
ATOM     34  N   UNL A   1      43.724  26.859  27.263  1.00  0.00    -0.248 NA
ATOM     35  C   UNL A   1      43.879  24.745  26.283  1.00  0.00     0.031 C 
ATOM     36  C   UNL A   1      46.842  30.041  26.802  1.00  0.00     0.029 A 
ATOM     37  C   UNL A   1      45.887  29.045  26.955  1.00  0.00     0.049 A 
ATOM     38  H   UNL A   1      44.065  29.113  28.011  1.00  0.00     0.167 HD
ATOM     39  C   UNL A   1      44.928  26.769  26.580  1.00  0.00     0.074 A 
ATOM     40  C   UNL A   1      44.982  25.434  26.016  1.00  0.00     0.031 C 
ATOM     41  C   UNL A   1      45.898  27.705  26.423  1.00  0.00     0.037 A 
BRANCH  28  42
ATOM     42  C   UNL A   1      44.868  33.083  29.328  1.00  0.00     0.064 A 
ATOM     43  C   UNL A   1      45.642  33.251  30.486  1.00  0.00     0.173 A 
ATOM     44  C   UNL A   1      44.607  34.217  28.544  1.00  0.00     0.173 A 
ATOM     45  F   UNL A   1      45.930  32.197  31.265  1.00  0.00    -0.203 F 
ATOM     46  C   UNL A   1      46.140  34.501  30.843  1.00  0.00     0.198 A 
ATOM     47  C   UNL A   1      45.129  35.462  28.890  1.00  0.00     0.198 A 
ATOM     48  F   UNL A   1      43.904  34.105  27.407  1.00  0.00    -0.203 F 
ATOM     49  F   UNL A   1      46.875  34.636  31.956  1.00  0.00    -0.200 F 
ATOM     50  C   UNL A   1      45.891  35.603  30.041  1.00  0.00     0.200 A 
ATOM     51  F   UNL A   1      44.923  36.519  28.092  1.00  0.00    -0.200 F 
ATOM     52  F   UNL A   1      46.401  36.800  30.366  1.00  0.00    -0.200 F 
ENDBRANCH  28  42
BRANCH  29  53
ATOM     53  C   UNL A   1      41.265  23.878  27.380  1.00  0.00     0.064 A 
ATOM     54  C   UNL A   1      41.889  22.762  27.962  1.00  0.00     0.173 A 
ATOM     55  C   UNL A   1      40.166  23.640  26.544  1.00  0.00     0.173 A 
ATOM     56  F   UNL A   1      42.941  22.929  28.777  1.00  0.00    -0.203 F 
ATOM     57  C   UNL A   1      41.458  21.466  27.688  1.00  0.00     0.198 A 
ATOM     58  C   UNL A   1      39.716  22.344  26.294  1.00  0.00     0.198 A 
ATOM     59  F   UNL A   1      39.516  24.671  25.984  1.00  0.00    -0.203 F 
ATOM     60  F   UNL A   1      42.103  20.419  28.222  1.00  0.00    -0.200 F 
ATOM     61  C   UNL A   1      40.370  21.257  26.855  1.00  0.00     0.200 A 
ATOM     62  F   UNL A   1      38.648  22.147  25.510  1.00  0.00    -0.200 F 
ATOM     63  F   UNL A   1      39.950  20.011  26.598  1.00  0.00    -0.200 F 
ENDBRANCH  29  53
BRANCH  41  64
ATOM     64  C   UNL A   1      47.101  27.312  25.624  1.00  0.00     0.064 A 
ATOM     65  C   UNL A   1      48.218  26.749  26.261  1.00  0.00     0.173 A 
ATOM     66  C   UNL A   1      47.186  27.583  24.252  1.00  0.00     0.173 A 
ATOM     67  F   UNL A   1      48.184  26.485  27.576  1.00  0.00    -0.203 F 
ATOM     68  C   UNL A   1      49.384  26.487  25.552  1.00  0.00     0.198 A 
ATOM     69  C   UNL A   1      48.345  27.295  23.541  1.00  0.00     0.198 A 
ATOM     70  F   UNL A   1      46.138  28.112  23.602  1.00  0.00    -0.203 F 
ATOM     71  F   UNL A   1      50.453  25.984  26.185  1.00  0.00    -0.200 F 
ATOM     72  C   UNL A   1      49.446  26.758  24.192  1.00  0.00     0.200 A 
ATOM     73  F   UNL A   1      48.399  27.538  22.225  1.00  0.00    -0.200 F 
ATOM     74  F   UNL A   1      50.570  26.501  23.509  1.00  0.00    -0.200 F 
ENDBRANCH  41  64
ENDBRANCH  15  16
ENDBRANCH   8  10
ENDBRANCH   7   8
ENDBRANCH   6   7
ENDBRANCH   5   6
ENDBRANCH   4   5
ENDBRANCH   3   4
ENDBRANCH   2   3
ENDBRANCH   1   2
BRANCH   1  75
ATOM     75  C   UNL A   1      33.248  33.053  27.777  1.00  0.00     0.188 C 
BRANCH  75  76
ATOM     76  C   UNL A   1      34.703  32.648  28.080  1.00  0.00     0.188 C 
BRANCH  76  77
ATOM     77  O   UNL A   1      35.049  31.385  27.529  1.00  0.00    -0.376 OA
BRANCH  77  78
ATOM     78  C   UNL A   1      33.962  30.493  27.336  1.00  0.00     0.202 C 
BRANCH  78  79
ATOM     79  C   UNL A   1      34.334  29.009  27.365  1.00  0.00     0.261 C 
BRANCH  79  80
ATOM     80  O   UNL A   1      33.302  28.071  27.013  1.00  0.00    -0.460 OA
BRANCH  80  81
ATOM     81  C   UNL A   1      31.988  28.418  27.049  1.00  0.00     0.343 C 
ATOM     82  O   UNL A   1      31.423  29.067  27.888  1.00  0.00    -0.246 OA
BRANCH  81  83
ATOM     83  C   UNL A   1      31.431  28.023  25.727  1.00  0.00     0.119 A 
ATOM     84  C   UNL A   1      31.248  29.060  24.803  1.00  0.00     0.139 A 
ATOM     85  C   UNL A   1      30.908  26.726  25.479  1.00  0.00     0.058 A 
ATOM     86  F   UNL A   1      31.753  30.280  25.035  1.00  0.00    -0.206 F 
ATOM     87  C   UNL A   1      30.504  28.865  23.650  1.00  0.00     0.040 A 
ATOM     88  C   UNL A   1      30.115  26.578  24.332  1.00  0.00     0.027 A 
ATOM     89  C   UNL A   1      29.919  27.629  23.426  1.00  0.00     0.005 A 
BRANCH  85  90
ATOM     90  N   UNL A   1      31.106  25.692  26.433  1.00  0.00    -0.325 N 
ATOM     91  C   UNL A   1      31.808  24.517  26.481  1.00  0.00     0.227 C 
ATOM     92  H   UNL A   1      30.615  25.863  27.268  1.00  0.00     0.169 HD
ATOM     93  O   UNL A   1      31.566  23.765  27.432  1.00  0.00    -0.274 OA
BRANCH  91  94
ATOM     94  C   UNL A   1      32.833  24.111  25.433  1.00  0.00     0.079 C 
ATOM     95  C   UNL A   1      34.264  24.140  25.993  1.00  0.00     0.013 C 
ATOM     96  C   UNL A   1      32.546  22.703  24.893  1.00  0.00     0.013 C 
ATOM     97  C   UNL A   1      35.262  23.848  24.871  1.00  0.00     0.001 C 
ATOM     98  C   UNL A   1      33.530  22.331  23.782  1.00  0.00     0.001 C 
ATOM     99  C   UNL A   1      34.990  22.499  24.208  1.00  0.00     0.000 C 
ENDBRANCH  91  94
ENDBRANCH  85  90
ENDBRANCH  81  83
ENDBRANCH  80  81
ENDBRANCH  79  80
ENDBRANCH  78  79
ENDBRANCH  77  78
ENDBRANCH  76  77
ENDBRANCH  75  76
ENDBRANCH   1  75
TORSDOF 22
ENDMDL
MODEL 2
REMARK VINA RESULT:     -11.2      4.708      7.812
REMARK SMILES O=C(OCCOCCOCCOCCOC(=O)c1c(F)cccc1NC(=O)C1CCCCC1)c1ccc(-c2c3nc(c(-c4c(F)c(F)c(F)c(F)c4F)c4ccc([nH]4)c(-c4c(F)c(F)c(F)c(F)c4F)c4nc(c(-c5c(F)c(F)c(F)c(F)c5F)c5ccc2[nH]5)C=C4)C=C3)cc1
REMARK SMILES IDX 9 1 8 2 7 3 6 4 5 5 4 6 3 7 2 8 1 9 34 10 35 11 96 12 36 13
REMARK SMILES IDX 95 14 37 15 38 16 39 17 89 18 40 19 94 20 88 21 90 22 41 23
REMARK SMILES IDX 93 24 87 25 86 26 42 28 74 29 54 30 73 31 55 32 58 33 72 34
REMARK SMILES IDX 91 35 56 36 57 37 71 39 92 40 59 41 43 42 44 43 52 44 45 45
REMARK SMILES IDX 46 46 50 47 53 48 47 49 48 50 51 51 49 52 75 53 76 54 84 55
REMARK SMILES IDX 77 56 78 57 82 58 85 59 79 60 80 61 83 62 81 63 60 64 61 65
REMARK SMILES IDX 69 66 62 67 63 68 67 69 70 70 64 71 65 72 68 73 66 74 10 75
REMARK SMILES IDX 11 76 12 77 13 78 14 79 15 80 16 81 17 82 18 83 19 84 24 85
REMARK SMILES IDX 20 86 21 87 23 88 22 89 25 90 26 91 27 93 28 94 29 95 33 96
REMARK SMILES IDX 30 97 32 98 31 99
REMARK H PARENT 90 27 58 38 25 92
REMARK Flexibility Score: inf
ROOT
ATOM      1  O   UNL A   1      32.005  28.038  27.471  1.00  0.00    -0.377 OA
ENDROOT
BRANCH   1   2
ATOM      2  C   UNL A   1      33.267  28.624  27.173  1.00  0.00     0.188 C 
BRANCH   2   3
ATOM      3  C   UNL A   1      33.187  30.123  26.914  1.00  0.00     0.188 C 
BRANCH   3   4
ATOM      4  O   UNL A   1      31.827  30.493  26.676  1.00  0.00    -0.376 OA
BRANCH   4   5
ATOM      5  C   UNL A   1      31.540  31.883  26.800  1.00  0.00     0.202 C 
BRANCH   5   6
ATOM      6  C   UNL A   1      32.713  32.711  27.328  1.00  0.00     0.261 C 
BRANCH   6   7
ATOM      7  O   UNL A   1      32.310  34.001  27.818  1.00  0.00    -0.460 OA
BRANCH   7   8
ATOM      8  C   UNL A   1      32.979  34.826  28.664  1.00  0.00     0.338 C 
ATOM      9  O   UNL A   1      32.515  35.946  28.874  1.00  0.00    -0.246 OA
BRANCH   8  10
ATOM     10  C   UNL A   1      34.226  34.448  29.397  1.00  0.00     0.060 A 
ATOM     11  C   UNL A   1      35.527  34.583  28.910  1.00  0.00     0.016 A 
ATOM     12  C   UNL A   1      34.069  33.958  30.706  1.00  0.00     0.016 A 
ATOM     13  C   UNL A   1      36.625  34.137  29.630  1.00  0.00     0.010 A 
ATOM     14  C   UNL A   1      35.171  33.535  31.457  1.00  0.00     0.010 A 
ATOM     15  C   UNL A   1      36.448  33.571  30.889  1.00  0.00    -0.014 A 
BRANCH  15  16
ATOM     16  C   UNL A   1      37.573  32.801  31.451  1.00  0.00     0.031 A 
ATOM     17  C   UNL A   1      37.978  33.105  32.863  1.00  0.00     0.074 A 
ATOM     18  C   UNL A   1      38.074  31.741  30.792  1.00  0.00     0.049 A 
ATOM     19  N   UNL A   1      38.958  32.618  33.575  1.00  0.00    -0.248 NA
ATOM     20  C   UNL A   1      37.150  34.091  33.581  1.00  0.00     0.031 C 
ATOM     21  C   UNL A   1      37.618  31.272  29.484  1.00  0.00     0.029 A 
ATOM     22  N   UNL A   1      39.038  30.838  31.156  1.00  0.00    -0.354 N 
ATOM     23  C   UNL A   1      38.890  33.271  34.798  1.00  0.00     0.074 A 
ATOM     24  C   UNL A   1      37.778  34.190  34.740  1.00  0.00     0.031 C 
ATOM     25  C   UNL A   1      38.271  30.141  29.173  1.00  0.00     0.029 A 
ATOM     26  C   UNL A   1      39.243  29.852  30.224  1.00  0.00     0.049 A 
ATOM     27  H   UNL A   1      39.535  30.892  32.004  1.00  0.00     0.167 HD
ATOM     28  C   UNL A   1      39.694  33.112  35.872  1.00  0.00     0.037 A 
ATOM     29  C   UNL A   1      40.141  28.848  30.219  1.00  0.00     0.037 A 
ATOM     30  C   UNL A   1      40.776  32.168  35.904  1.00  0.00     0.049 A 
ATOM     31  C   UNL A   1      41.084  28.741  31.388  1.00  0.00     0.074 A 
ATOM     32  C   UNL A   1      41.732  31.973  36.880  1.00  0.00     0.029 A 
ATOM     33  N   UNL A   1      41.022  31.238  34.900  1.00  0.00    -0.354 N 
ATOM     34  N   UNL A   1      41.117  29.456  32.489  1.00  0.00    -0.248 NA
ATOM     35  C   UNL A   1      42.127  27.712  31.310  1.00  0.00     0.031 C 
ATOM     36  C   UNL A   1      42.578  30.944  36.452  1.00  0.00     0.029 A 
ATOM     37  C   UNL A   1      42.120  30.467  35.231  1.00  0.00     0.049 A 
ATOM     38  H   UNL A   1      40.493  31.143  34.076  1.00  0.00     0.167 HD
ATOM     39  C   UNL A   1      42.178  28.966  33.235  1.00  0.00     0.074 A 
ATOM     40  C   UNL A   1      42.750  27.875  32.471  1.00  0.00     0.031 C 
ATOM     41  C   UNL A   1      42.647  29.385  34.438  1.00  0.00     0.037 A 
BRANCH  28  42
ATOM     42  C   UNL A   1      39.467  34.027  37.038  1.00  0.00     0.064 A 
ATOM     43  C   UNL A   1      38.755  33.573  38.159  1.00  0.00     0.173 A 
ATOM     44  C   UNL A   1      39.989  35.329  37.076  1.00  0.00     0.173 A 
ATOM     45  F   UNL A   1      38.245  32.332  38.177  1.00  0.00    -0.203 F 
ATOM     46  C   UNL A   1      38.577  34.386  39.274  1.00  0.00     0.198 A 
ATOM     47  C   UNL A   1      39.832  36.131  38.206  1.00  0.00     0.198 A 
ATOM     48  F   UNL A   1      40.709  35.799  36.046  1.00  0.00    -0.203 F 
ATOM     49  F   UNL A   1      37.891  33.930  40.332  1.00  0.00    -0.200 F 
ATOM     50  C   UNL A   1      39.123  35.660  39.301  1.00  0.00     0.200 A 
ATOM     51  F   UNL A   1      40.394  37.346  38.246  1.00  0.00    -0.200 F 
ATOM     52  F   UNL A   1      38.982  36.428  40.390  1.00  0.00    -0.200 F 
ENDBRANCH  28  42
BRANCH  29  53
ATOM     53  C   UNL A   1      40.203  27.913  29.064  1.00  0.00     0.064 A 
ATOM     54  C   UNL A   1      40.917  28.241  27.901  1.00  0.00     0.173 A 
ATOM     55  C   UNL A   1      39.519  26.689  29.079  1.00  0.00     0.173 A 
ATOM     56  F   UNL A   1      41.597  29.395  27.832  1.00  0.00    -0.203 F 
ATOM     57  C   UNL A   1      40.914  27.403  26.787  1.00  0.00     0.198 A 
ATOM     58  C   UNL A   1      39.540  25.837  27.974  1.00  0.00     0.198 A 
ATOM     59  F   UNL A   1      38.843  26.313  30.174  1.00  0.00    -0.203 F 
ATOM     60  F   UNL A   1      41.568  27.767  25.675  1.00  0.00    -0.200 F 
ATOM     61  C   UNL A   1      40.227  26.200  26.825  1.00  0.00     0.200 A 
ATOM     62  F   UNL A   1      38.898  24.663  28.024  1.00  0.00    -0.200 F 
ATOM     63  F   UNL A   1      40.231  25.390  25.757  1.00  0.00    -0.200 F 
ENDBRANCH  29  53
BRANCH  41  64
ATOM     64  C   UNL A   1      43.823  28.651  35.004  1.00  0.00     0.064 A 
ATOM     65  C   UNL A   1      45.128  29.060  34.689  1.00  0.00     0.173 A 
ATOM     66  C   UNL A   1      43.658  27.493  35.773  1.00  0.00     0.173 A 
ATOM     67  F   UNL A   1      45.331  30.158  33.944  1.00  0.00    -0.203 F 
ATOM     68  C   UNL A   1      46.226  28.322  35.112  1.00  0.00     0.198 A 
ATOM     69  C   UNL A   1      44.760  26.771  36.217  1.00  0.00     0.198 A 
ATOM     70  F   UNL A   1      42.428  27.072  36.106  1.00  0.00    -0.203 F 
ATOM     71  F   UNL A   1      47.463  28.707  34.769  1.00  0.00    -0.200 F 
ATOM     72  C   UNL A   1      46.042  27.179  35.877  1.00  0.00     0.200 A 
ATOM     73  F   UNL A   1      44.584  25.679  36.972  1.00  0.00    -0.200 F 
ATOM     74  F   UNL A   1      47.103  26.470  36.288  1.00  0.00    -0.200 F 
ENDBRANCH  41  64
ENDBRANCH  15  16
ENDBRANCH   8  10
ENDBRANCH   7   8
ENDBRANCH   6   7
ENDBRANCH   5   6
ENDBRANCH   4   5
ENDBRANCH   3   4
ENDBRANCH   2   3
ENDBRANCH   1   2
BRANCH   1  75
ATOM     75  C   UNL A   1      31.624  26.920  26.677  1.00  0.00     0.188 C 
BRANCH  75  76
ATOM     76  C   UNL A   1      31.329  27.155  25.183  1.00  0.00     0.188 C 
BRANCH  76  77
ATOM     77  O   UNL A   1      31.932  26.181  24.343  1.00  0.00    -0.376 OA
BRANCH  77  78
ATOM     78  C   UNL A   1      33.260  26.475  23.935  1.00  0.00     0.202 C 
BRANCH  78  79
ATOM     79  C   UNL A   1      34.070  25.267  23.458  1.00  0.00     0.261 C 
BRANCH  79  80
ATOM     80  O   UNL A   1      34.005  24.079  24.266  1.00  0.00    -0.460 OA
BRANCH  80  81
ATOM     81  C   UNL A   1      34.553  24.037  25.509  1.00  0.00     0.343 C 
ATOM     82  O   UNL A   1      34.237  24.682  26.472  1.00  0.00    -0.246 OA
BRANCH  81  83
ATOM     83  C   UNL A   1      35.478  22.871  25.501  1.00  0.00     0.119 A 
ATOM     84  C   UNL A   1      36.845  23.173  25.473  1.00  0.00     0.139 A 
ATOM     85  C   UNL A   1      35.021  21.540  25.308  1.00  0.00     0.058 A 
ATOM     86  F   UNL A   1      37.273  24.428  25.666  1.00  0.00    -0.206 F 
ATOM     87  C   UNL A   1      37.787  22.192  25.201  1.00  0.00     0.040 A 
ATOM     88  C   UNL A   1      35.994  20.585  24.981  1.00  0.00     0.027 A 
ATOM     89  C   UNL A   1      37.358  20.902  24.934  1.00  0.00     0.005 A 
BRANCH  85  90
ATOM     90  N   UNL A   1      33.629  21.261  25.339  1.00  0.00    -0.325 N 
ATOM     91  C   UNL A   1      32.836  20.170  25.098  1.00  0.00     0.227 C 
ATOM     92  H   UNL A   1      33.101  22.050  25.599  1.00  0.00     0.169 HD
ATOM     93  O   UNL A   1      31.619  20.374  25.029  1.00  0.00    -0.274 OA
BRANCH  91  94
ATOM     94  C   UNL A   1      33.385  18.764  24.905  1.00  0.00     0.079 C 
ATOM     95  C   UNL A   1      32.697  17.752  25.835  1.00  0.00     0.013 C 
ATOM     96  C   UNL A   1      33.209  18.295  23.455  1.00  0.00     0.013 C 
ATOM     97  C   UNL A   1      33.368  16.385  25.693  1.00  0.00     0.001 C 
ATOM     98  C   UNL A   1      33.833  16.913  23.245  1.00  0.00     0.001 C 
ATOM     99  C   UNL A   1      33.325  15.880  24.252  1.00  0.00     0.000 C 
ENDBRANCH  91  94
ENDBRANCH  85  90
ENDBRANCH  81  83
ENDBRANCH  80  81
ENDBRANCH  79  80
ENDBRANCH  78  79
ENDBRANCH  77  78
ENDBRANCH  76  77
ENDBRANCH  75  76
ENDBRANCH   1  75
TORSDOF 22
ENDMDL
MODEL 3
REMARK VINA RESULT:     -11.0      4.728      7.710
REMARK SMILES O=C(OCCOCCOCCOCCOC(=O)c1c(F)cccc1NC(=O)C1CCCCC1)c1ccc(-c2c3nc(c(-c4c(F)c(F)c(F)c(F)c4F)c4ccc([nH]4)c(-c4c(F)c(F)c(F)c(F)c4F)c4nc(c(-c5c(F)c(F)c(F)c(F)c5F)c5ccc2[nH]5)C=C4)C=C3)cc1
REMARK SMILES IDX 9 1 8 2 7 3 6 4 5 5 4 6 3 7 2 8 1 9 34 10 35 11 96 12 36 13
REMARK SMILES IDX 95 14 37 15 38 16 39 17 89 18 40 19 94 20 88 21 90 22 41 23
REMARK SMILES IDX 93 24 87 25 86 26 42 28 74 29 54 30 73 31 55 32 58 33 72 34
REMARK SMILES IDX 91 35 56 36 57 37 71 39 92 40 59 41 43 42 44 43 52 44 45 45
REMARK SMILES IDX 46 46 50 47 53 48 47 49 48 50 51 51 49 52 75 53 76 54 84 55
REMARK SMILES IDX 77 56 78 57 82 58 85 59 79 60 80 61 83 62 81 63 60 64 61 65
REMARK SMILES IDX 69 66 62 67 63 68 67 69 70 70 64 71 65 72 68 73 66 74 10 75
REMARK SMILES IDX 11 76 12 77 13 78 14 79 15 80 16 81 17 82 18 83 19 84 24 85
REMARK SMILES IDX 20 86 21 87 23 88 22 89 25 90 26 91 27 93 28 94 29 95 33 96
REMARK SMILES IDX 30 97 32 98 31 99
REMARK H PARENT 90 27 58 38 25 92
REMARK Flexibility Score: inf
ROOT
ATOM      1  O   UNL A   1      31.601  29.320  24.310  1.00  0.00    -0.377 OA
ENDROOT
BRANCH   1   2
ATOM      2  C   UNL A   1      32.774  29.147  25.096  1.00  0.00     0.188 C 
BRANCH   2   3
ATOM      3  C   UNL A   1      32.851  30.103  26.278  1.00  0.00     0.188 C 
BRANCH   3   4
ATOM      4  O   UNL A   1      31.553  30.643  26.539  1.00  0.00    -0.376 OA
BRANCH   4   5
ATOM      5  C   UNL A   1      31.472  32.066  26.553  1.00  0.00     0.202 C 
BRANCH   5   6
ATOM      6  C   UNL A   1      32.610  32.740  27.324  1.00  0.00     0.261 C 
BRANCH   6   7
ATOM      7  O   UNL A   1      32.207  33.970  27.951  1.00  0.00    -0.460 OA
BRANCH   7   8
ATOM      8  C   UNL A   1      32.960  34.820  28.694  1.00  0.00     0.338 C 
ATOM      9  O   UNL A   1      32.561  35.976  28.839  1.00  0.00    -0.246 OA
BRANCH   8  10
ATOM     10  C   UNL A   1      34.226  34.435  29.390  1.00  0.00     0.060 A 
ATOM     11  C   UNL A   1      35.515  34.600  28.882  1.00  0.00     0.016 A 
ATOM     12  C   UNL A   1      34.100  33.903  30.686  1.00  0.00     0.016 A 
ATOM     13  C   UNL A   1      36.632  34.145  29.566  1.00  0.00     0.010 A 
ATOM     14  C   UNL A   1      35.222  33.471  31.402  1.00  0.00     0.010 A 
ATOM     15  C   UNL A   1      36.487  33.539  30.810  1.00  0.00    -0.014 A 
BRANCH  15  16
ATOM     16  C   UNL A   1      37.631  32.765  31.325  1.00  0.00     0.031 A 
ATOM     17  C   UNL A   1      38.061  33.030  32.739  1.00  0.00     0.074 A 
ATOM     18  C   UNL A   1      38.132  31.733  30.624  1.00  0.00     0.049 A 
ATOM     19  N   UNL A   1      39.060  32.532  33.415  1.00  0.00    -0.248 NA
ATOM     20  C   UNL A   1      37.236  33.983  33.503  1.00  0.00     0.031 C 
ATOM     21  C   UNL A   1      37.655  31.299  29.311  1.00  0.00     0.029 A 
ATOM     22  N   UNL A   1      39.112  30.830  30.940  1.00  0.00    -0.354 N 
ATOM     23  C   UNL A   1      39.009  33.146  34.660  1.00  0.00     0.074 A 
ATOM     24  C   UNL A   1      37.885  34.053  34.652  1.00  0.00     0.031 C 
ATOM     25  C   UNL A   1      38.315  30.186  28.952  1.00  0.00     0.029 A 
ATOM     26  C   UNL A   1      39.310  29.876  29.974  1.00  0.00     0.049 A 
ATOM     27  H   UNL A   1      39.626  30.863  31.780  1.00  0.00     0.167 HD
ATOM     28  C   UNL A   1      39.836  32.964  35.712  1.00  0.00     0.037 A 
ATOM     29  C   UNL A   1      40.220  28.884  29.920  1.00  0.00     0.037 A 
ATOM     30  C   UNL A   1      40.929  32.032  35.693  1.00  0.00     0.049 A 
ATOM     31  C   UNL A   1      41.186  28.752  31.067  1.00  0.00     0.074 A 
ATOM     32  C   UNL A   1      41.906  31.818  36.643  1.00  0.00     0.029 A 
ATOM     33  N   UNL A   1      41.166  31.137  34.656  1.00  0.00    -0.354 N 
ATOM     34  N   UNL A   1      41.233  29.432  32.189  1.00  0.00    -0.248 NA
ATOM     35  C   UNL A   1      42.240  27.739  30.935  1.00  0.00     0.031 C 
ATOM     36  C   UNL A   1      42.756  30.813  36.167  1.00  0.00     0.029 A 
ATOM     37  C   UNL A   1      42.278  30.369  34.941  1.00  0.00     0.049 A 
ATOM     38  H   UNL A   1      40.622  31.062  33.839  1.00  0.00     0.167 HD
ATOM     39  C   UNL A   1      42.315  28.932  32.899  1.00  0.00     0.074 A 
ATOM     40  C   UNL A   1      42.883  27.872  32.089  1.00  0.00     0.031 C 
ATOM     41  C   UNL A   1      42.803  29.318  34.104  1.00  0.00     0.037 A 
BRANCH  28  42
ATOM     42  C   UNL A   1      39.622  33.839  36.910  1.00  0.00     0.064 A 
ATOM     43  C   UNL A   1      40.170  35.130  36.945  1.00  0.00     0.173 A 
ATOM     44  C   UNL A   1      38.839  33.430  38.001  1.00  0.00     0.173 A 
ATOM     45  F   UNL A   1      40.917  35.573  35.922  1.00  0.00    -0.203 F 
ATOM     46  C   UNL A   1      39.940  35.980  38.023  1.00  0.00     0.198 A 
ATOM     47  C   UNL A   1      38.589  34.293  39.066  1.00  0.00     0.198 A 
ATOM     48  F   UNL A   1      38.261  32.220  38.002  1.00  0.00    -0.203 F 
ATOM     49  F   UNL A   1      40.478  37.208  38.033  1.00  0.00    -0.200 F 
ATOM     50  C   UNL A   1      39.143  35.565  39.078  1.00  0.00     0.200 A 
ATOM     51  F   UNL A   1      37.785  33.906  40.066  1.00  0.00    -0.200 F 
ATOM     52  F   UNL A   1      38.893  36.397  40.098  1.00  0.00    -0.200 F 
ENDBRANCH  28  42
BRANCH  29  53
ATOM     53  C   UNL A   1      40.269  27.986  28.735  1.00  0.00     0.064 A 
ATOM     54  C   UNL A   1      39.615  26.743  28.739  1.00  0.00     0.173 A 
ATOM     55  C   UNL A   1      40.999  28.328  27.589  1.00  0.00     0.173 A 
ATOM     56  F   UNL A   1      38.895  26.365  29.805  1.00  0.00    -0.203 F 
ATOM     57  C   UNL A   1      39.721  25.865  27.663  1.00  0.00     0.198 A 
ATOM     58  C   UNL A   1      41.081  27.460  26.499  1.00  0.00     0.198 A 
ATOM     59  F   UNL A   1      41.620  29.514  27.521  1.00  0.00    -0.203 F 
ATOM     60  F   UNL A   1      39.124  24.665  27.716  1.00  0.00    -0.200 F 
ATOM     61  C   UNL A   1      40.453  26.225  26.542  1.00  0.00     0.200 A 
ATOM     62  F   UNL A   1      41.767  27.823  25.407  1.00  0.00    -0.200 F 
ATOM     63  F   UNL A   1      40.548  25.383  25.503  1.00  0.00    -0.200 F 
ENDBRANCH  29  53
BRANCH  41  64
ATOM     64  C   UNL A   1      43.997  28.582  34.624  1.00  0.00     0.064 A 
ATOM     65  C   UNL A   1      43.836  27.533  35.542  1.00  0.00     0.173 A 
ATOM     66  C   UNL A   1      45.299  28.978  34.291  1.00  0.00     0.173 A 
ATOM     67  F   UNL A   1      42.606  27.130  35.898  1.00  0.00    -0.203 F 
ATOM     68  C   UNL A   1      44.939  26.918  36.120  1.00  0.00     0.198 A 
ATOM     69  C   UNL A   1      46.401  28.342  34.852  1.00  0.00     0.198 A 
ATOM     70  F   UNL A   1      45.499  29.970  33.410  1.00  0.00    -0.203 F 
ATOM     71  F   UNL A   1      44.764  25.943  37.023  1.00  0.00    -0.200 F 
ATOM     72  C   UNL A   1      46.221  27.321  35.773  1.00  0.00     0.200 A 
ATOM     73  F   UNL A   1      47.639  28.718  34.503  1.00  0.00    -0.200 F 
ATOM     74  F   UNL A   1      47.284  26.724  36.330  1.00  0.00    -0.200 F 
ENDBRANCH  41  64
ENDBRANCH  15  16
ENDBRANCH   8  10
ENDBRANCH   7   8
ENDBRANCH   6   7
ENDBRANCH   5   6
ENDBRANCH   4   5
ENDBRANCH   3   4
ENDBRANCH   2   3
ENDBRANCH   1   2
BRANCH   1  75
ATOM     75  C   UNL A   1      30.746  28.188  24.192  1.00  0.00     0.188 C 
BRANCH  75  76
ATOM     76  C   UNL A   1      31.394  26.800  24.026  1.00  0.00     0.188 C 
BRANCH  76  77
ATOM     77  O   UNL A   1      32.182  26.698  22.848  1.00  0.00    -0.376 OA
BRANCH  77  78
ATOM     78  C   UNL A   1      31.875  25.593  22.012  1.00  0.00     0.202 C 
BRANCH  78  79
ATOM     79  C   UNL A   1      32.891  24.450  22.055  1.00  0.00     0.261 C 
BRANCH  79  80
ATOM     80  O   UNL A   1      33.842  24.462  23.134  1.00  0.00    -0.460 OA
BRANCH  80  81
ATOM     81  C   UNL A   1      34.629  23.386  23.396  1.00  0.00     0.343 C 
ATOM     82  O   UNL A   1      35.553  22.977  22.747  1.00  0.00    -0.246 OA
BRANCH  81  83
ATOM     83  C   UNL A   1      34.259  22.943  24.768  1.00  0.00     0.119 A 
ATOM     84  C   UNL A   1      34.992  23.513  25.816  1.00  0.00     0.139 A 
ATOM     85  C   UNL A   1      33.380  21.852  25.003  1.00  0.00     0.058 A 
ATOM     86  F   UNL A   1      35.812  24.550  25.592  1.00  0.00    -0.206 F 
ATOM     87  C   UNL A   1      34.924  22.995  27.100  1.00  0.00     0.040 A 
ATOM     88  C   UNL A   1      33.377  21.318  26.300  1.00  0.00     0.027 A 
ATOM     89  C   UNL A   1      34.131  21.883  27.337  1.00  0.00     0.005 A 
BRANCH  85  90
ATOM     90  N   UNL A   1      32.650  21.290  23.923  1.00  0.00    -0.325 N 
ATOM     91  C   UNL A   1      32.542  20.054  23.342  1.00  0.00     0.227 C 
ATOM     92  H   UNL A   1      32.077  21.956  23.480  1.00  0.00     0.169 HD
ATOM     93  O   UNL A   1      31.942  19.999  22.263  1.00  0.00    -0.274 OA
BRANCH  91  94
ATOM     94  C   UNL A   1      33.128  18.789  23.952  1.00  0.00     0.079 C 
ATOM     95  C   UNL A   1      32.240  18.235  25.077  1.00  0.00     0.013 C 
ATOM     96  C   UNL A   1      33.314  17.697  22.891  1.00  0.00     0.013 C 
ATOM     97  C   UNL A   1      32.932  17.041  25.738  1.00  0.00     0.001 C 
ATOM     98  C   UNL A   1      33.978  16.456  23.491  1.00  0.00     0.001 C 
ATOM     99  C   UNL A   1      33.244  15.938  24.730  1.00  0.00     0.000 C 
ENDBRANCH  91  94
ENDBRANCH  85  90
ENDBRANCH  81  83
ENDBRANCH  80  81
ENDBRANCH  79  80
ENDBRANCH  78  79
ENDBRANCH  77  78
ENDBRANCH  76  77
ENDBRANCH  75  76
ENDBRANCH   1  75
TORSDOF 22
ENDMDL
