MODEL 1
REMARK VINA RESULT:     -10.5      0.000      0.000
REMARK SMILES O=C(OCCOCCOCCOCCOC(=O)[C@@H]1CCc2[nH]ncc2C1)c1ccc(-c2c3nc(c(-c4c(F)c(F)c(F)c(F)c4F)c4ccc([nH]4)c(-c4c(F)c(F)c(F)c(F)c4F)c4nc(c(-c5c(F)c(F)c(F)c(F)c5F)c5ccc2[nH]5)C=C4)C=C3)cc1
REMARK SMILES IDX 8 1 7 2 6 3 5 4 4 5 3 6 2 7 1 8 27 9 28 10 89 11 29 12 88 13
REMARK SMILES IDX 30 14 31 15 32 16 82 17 33 18 87 19 81 20 83 21 34 22 86 23
REMARK SMILES IDX 80 24 79 25 35 27 67 28 47 29 66 30 48 31 51 32 65 33 84 34
REMARK SMILES IDX 49 35 50 36 64 38 85 39 52 40 36 41 37 42 45 43 38 44 39 45
REMARK SMILES IDX 43 46 46 47 40 48 41 49 44 50 42 51 68 52 69 53 77 54 70 55
REMARK SMILES IDX 71 56 75 57 78 58 72 59 73 60 76 61 74 62 53 63 54 64 62 65
REMARK SMILES IDX 55 66 56 67 60 68 63 69 57 70 58 71 61 72 59 73 9 74 10 75
REMARK SMILES IDX 11 76 12 77 13 78 14 79 15 80 16 81 17 82 18 83 19 84 26 85
REMARK SMILES IDX 20 86 25 87 21 88 24 89 22 90 23 91
REMARK H PARENT 83 26 51 37 22 92
REMARK Flexibility Score: inf
ROOT
ATOM      1  C   UNL A   1      33.260  29.413  25.709  1.00  0.00     0.188 C 
ENDROOT
BRANCH   1   2
ATOM      2  C   UNL A   1      32.969  30.192  26.992  1.00  0.00     0.188 C 
BRANCH   2   3
ATOM      3  O   UNL A   1      31.649  30.708  26.875  1.00  0.00    -0.376 OA
BRANCH   3   4
ATOM      4  C   UNL A   1      31.504  32.107  26.695  1.00  0.00     0.202 C 
BRANCH   4   5
ATOM      5  C   UNL A   1      32.640  32.944  27.273  1.00  0.00     0.261 C 
BRANCH   5   6
ATOM      6  O   UNL A   1      32.227  34.234  27.772  1.00  0.00    -0.460 OA
BRANCH   6   7
ATOM      7  C   UNL A   1      32.903  35.027  28.635  1.00  0.00     0.338 C 
ATOM      8  O   UNL A   1      32.518  36.182  28.857  1.00  0.00    -0.246 OA
BRANCH   7   9
ATOM      9  C   UNL A   1      34.077  34.521  29.377  1.00  0.00     0.060 A 
ATOM     10  C   UNL A   1      35.359  34.577  28.848  1.00  0.00     0.016 A 
ATOM     11  C   UNL A   1      33.922  34.051  30.683  1.00  0.00     0.016 A 
ATOM     12  C   UNL A   1      36.415  33.926  29.452  1.00  0.00     0.010 A 
ATOM     13  C   UNL A   1      35.027  33.548  31.380  1.00  0.00     0.010 A 
ATOM     14  C   UNL A   1      36.270  33.414  30.736  1.00  0.00    -0.014 A 
BRANCH  14  15
ATOM     15  C   UNL A   1      37.395  32.646  31.315  1.00  0.00     0.031 A 
ATOM     16  C   UNL A   1      37.793  32.932  32.733  1.00  0.00     0.074 A 
ATOM     17  C   UNL A   1      37.937  31.611  30.642  1.00  0.00     0.049 A 
ATOM     18  N   UNL A   1      38.821  32.499  33.411  1.00  0.00    -0.248 NA
ATOM     19  C   UNL A   1      36.911  33.834  33.495  1.00  0.00     0.031 C 
ATOM     20  C   UNL A   1      37.527  31.155  29.310  1.00  0.00     0.029 A 
ATOM     21  N   UNL A   1      38.910  30.715  31.005  1.00  0.00    -0.354 N 
ATOM     22  C   UNL A   1      38.743  33.125  34.648  1.00  0.00     0.074 A 
ATOM     23  C   UNL A   1      37.571  33.967  34.633  1.00  0.00     0.031 C 
ATOM     24  C   UNL A   1      38.184  30.027  29.003  1.00  0.00     0.029 A 
ATOM     25  C   UNL A   1      39.153  29.751  30.055  1.00  0.00     0.049 A 
ATOM     26  H   UNL A   1      39.388  30.758  31.864  1.00  0.00     0.167 HD
ATOM     27  C   UNL A   1      39.589  33.004  35.697  1.00  0.00     0.037 A 
ATOM     28  C   UNL A   1      40.093  28.789  30.018  1.00  0.00     0.037 A 
ATOM     29  C   UNL A   1      40.727  32.129  35.689  1.00  0.00     0.049 A 
ATOM     30  C   UNL A   1      41.060  28.719  31.168  1.00  0.00     0.074 A 
ATOM     31  C   UNL A   1      41.731  31.994  36.626  1.00  0.00     0.029 A 
ATOM     32  N   UNL A   1      40.988  31.209  34.679  1.00  0.00    -0.354 N 
ATOM     33  N   UNL A   1      41.083  29.427  32.273  1.00  0.00    -0.248 NA
ATOM     34  C   UNL A   1      42.152  27.744  31.055  1.00  0.00     0.031 C 
ATOM     35  C   UNL A   1      42.614  31.005  36.173  1.00  0.00     0.029 A 
ATOM     36  C   UNL A   1      42.136  30.498  34.973  1.00  0.00     0.049 A 
ATOM     37  H   UNL A   1      40.436  31.083  33.875  1.00  0.00     0.167 HD
ATOM     38  C   UNL A   1      42.190  28.992  32.984  1.00  0.00     0.074 A 
ATOM     39  C   UNL A   1      42.789  27.927  32.202  1.00  0.00     0.031 C 
ATOM     40  C   UNL A   1      42.685  29.441  34.163  1.00  0.00     0.037 A 
BRANCH  27  41
ATOM     41  C   UNL A   1      39.334  33.892  36.878  1.00  0.00     0.064 A 
ATOM     42  C   UNL A   1      39.826  35.205  36.940  1.00  0.00     0.173 A 
ATOM     43  C   UNL A   1      38.642  33.398  37.994  1.00  0.00     0.173 A 
ATOM     44  F   UNL A   1      40.528  35.711  35.916  1.00  0.00    -0.203 F 
ATOM     45  C   UNL A   1      39.662  35.977  38.088  1.00  0.00     0.198 A 
ATOM     46  C   UNL A   1      38.457  34.181  39.130  1.00  0.00     0.198 A 
ATOM     47  F   UNL A   1      38.163  32.145  37.991  1.00  0.00    -0.203 F 
ATOM     48  F   UNL A   1      40.198  37.203  38.151  1.00  0.00    -0.200 F 
ATOM     49  C   UNL A   1      38.976  35.466  39.180  1.00  0.00     0.200 A 
ATOM     50  F   UNL A   1      37.798  33.683  40.186  1.00  0.00    -0.200 F 
ATOM     51  F   UNL A   1      38.834  36.204  40.290  1.00  0.00    -0.200 F 
ENDBRANCH  27  41
BRANCH  28  52
ATOM     52  C   UNL A   1      40.218  27.892  28.835  1.00  0.00     0.064 A 
ATOM     53  C   UNL A   1      40.932  28.280  27.692  1.00  0.00     0.173 A 
ATOM     54  C   UNL A   1      39.606  26.627  28.813  1.00  0.00     0.173 A 
ATOM     55  F   UNL A   1      41.515  29.486  27.646  1.00  0.00    -0.203 F 
ATOM     56  C   UNL A   1      41.012  27.450  26.574  1.00  0.00     0.198 A 
ATOM     57  C   UNL A   1      39.720  25.783  27.710  1.00  0.00     0.198 A 
ATOM     58  F   UNL A   1      38.903  26.201  29.873  1.00  0.00    -0.203 F 
ATOM     59  F   UNL A   1      41.655  27.870  25.475  1.00  0.00    -0.200 F 
ATOM     60  C   UNL A   1      40.414  26.199  26.586  1.00  0.00     0.200 A 
ATOM     61  F   UNL A   1      39.152  24.569  27.737  1.00  0.00    -0.200 F 
ATOM     62  F   UNL A   1      40.495  25.402  25.513  1.00  0.00    -0.200 F 
ENDBRANCH  28  52
BRANCH  40  63
ATOM     63  C   UNL A   1      43.918  28.760  34.672  1.00  0.00     0.064 A 
ATOM     64  C   UNL A   1      43.838  27.607  35.465  1.00  0.00     0.173 A 
ATOM     65  C   UNL A   1      45.186  29.250  34.334  1.00  0.00     0.173 A 
ATOM     66  F   UNL A   1      42.642  27.117  35.825  1.00  0.00    -0.203 F 
ATOM     67  C   UNL A   1      44.991  26.979  35.922  1.00  0.00     0.198 A 
ATOM     68  C   UNL A   1      46.336  28.604  34.771  1.00  0.00     0.198 A 
ATOM     69  F   UNL A   1      45.307  30.349  33.573  1.00  0.00    -0.203 F 
ATOM     70  F   UNL A   1      44.895  25.904  36.717  1.00  0.00    -0.200 F 
ATOM     71  C   UNL A   1      46.238  27.474  35.570  1.00  0.00     0.200 A 
ATOM     72  F   UNL A   1      47.542  29.076  34.423  1.00  0.00    -0.200 F 
ATOM     73  F   UNL A   1      47.348  26.865  36.008  1.00  0.00    -0.200 F 
ENDBRANCH  40  63
ENDBRANCH  14  15
ENDBRANCH   7   9
ENDBRANCH   6   7
ENDBRANCH   5   6
ENDBRANCH   4   5
ENDBRANCH   3   4
ENDBRANCH   2   3
ENDBRANCH   1   2
BRANCH   1  74
ATOM     74  O   UNL A   1      32.131  28.744  25.132  1.00  0.00    -0.377 OA
BRANCH  74  75
ATOM     75  C   UNL A   1      32.147  27.322  25.164  1.00  0.00     0.188 C 
BRANCH  75  76
ATOM     76  C   UNL A   1      32.272  26.621  26.521  1.00  0.00     0.188 C 
BRANCH  76  77
ATOM     77  O   UNL A   1      31.298  25.659  26.864  1.00  0.00    -0.376 OA
BRANCH  77  78
ATOM     78  C   UNL A   1      31.512  24.289  26.548  1.00  0.00     0.202 C 
BRANCH  78  79
ATOM     79  C   UNL A   1      30.654  23.471  25.560  1.00  0.00     0.261 C 
BRANCH  79  80
ATOM     80  O   UNL A   1      31.150  23.313  24.218  1.00  0.00    -0.463 OA
BRANCH  80  81
ATOM     81  C   UNL A   1      32.505  23.213  24.105  1.00  0.00     0.309 C 
ATOM     82  O   UNL A   1      33.242  24.133  23.750  1.00  0.00    -0.252 OA
BRANCH  81  83
ATOM     83  C   UNL A   1      33.062  21.859  24.493  1.00  0.00     0.104 C 
ATOM     84  C   UNL A   1      34.600  21.763  24.399  1.00  0.00     0.022 C 
ATOM     85  C   UNL A   1      32.420  20.734  23.678  1.00  0.00     0.054 C 
ATOM     86  C   UNL A   1      35.126  20.430  25.001  1.00  0.00     0.057 C 
ATOM     87  C   UNL A   1      32.982  19.421  24.052  1.00  0.00    -0.006 A 
ATOM     88  C   UNL A   1      34.225  19.306  24.627  1.00  0.00     0.038 A 
ATOM     89  C   UNL A   1      32.528  18.104  23.891  1.00  0.00     0.138 A 
ATOM     90  N   UNL A   1      34.436  17.973  24.803  1.00  0.00    -0.282 N 
ATOM     91  N   UNL A   1      33.412  17.215  24.357  1.00  0.00    -0.184 NA
ATOM     92  H   UNL A   1      35.251  17.600  25.212  1.00  0.00     0.190 HD
ENDBRANCH  81  83
ENDBRANCH  80  81
ENDBRANCH  79  80
ENDBRANCH  78  79
ENDBRANCH  77  78
ENDBRANCH  76  77
ENDBRANCH  75  76
ENDBRANCH  74  75
ENDBRANCH   1  74
TORSDOF 20
ENDMDL
MODEL 2
REMARK VINA RESULT:     -10.5      2.306      8.033
REMARK SMILES O=C(OCCOCCOCCOCCOC(=O)[C@@H]1CCc2[nH]ncc2C1)c1ccc(-c2c3nc(c(-c4c(F)c(F)c(F)c(F)c4F)c4ccc([nH]4)c(-c4c(F)c(F)c(F)c(F)c4F)c4nc(c(-c5c(F)c(F)c(F)c(F)c5F)c5ccc2[nH]5)C=C4)C=C3)cc1
REMARK SMILES IDX 8 1 7 2 6 3 5 4 4 5 3 6 2 7 1 8 27 9 28 10 89 11 29 12 88 13
REMARK SMILES IDX 30 14 31 15 32 16 82 17 33 18 87 19 81 20 83 21 34 22 86 23
REMARK SMILES IDX 80 24 79 25 35 27 67 28 47 29 66 30 48 31 51 32 65 33 84 34
REMARK SMILES IDX 49 35 50 36 64 38 85 39 52 40 36 41 37 42 45 43 38 44 39 45
REMARK SMILES IDX 43 46 46 47 40 48 41 49 44 50 42 51 68 52 69 53 77 54 70 55
REMARK SMILES IDX 71 56 75 57 78 58 72 59 73 60 76 61 74 62 53 63 54 64 62 65
REMARK SMILES IDX 55 66 56 67 60 68 63 69 57 70 58 71 61 72 59 73 9 74 10 75
REMARK SMILES IDX 11 76 12 77 13 78 14 79 15 80 16 81 17 82 18 83 19 84 26 85
REMARK SMILES IDX 20 86 25 87 21 88 24 89 22 90 23 91
REMARK H PARENT 83 26 51 37 22 92
REMARK Flexibility Score: inf
ROOT
ATOM      1  C   UNL A   1      30.545  27.678  22.637  1.00  0.00     0.188 C 
ENDROOT
BRANCH   1   2
ATOM      2  C   UNL A   1      31.062  29.093  22.900  1.00  0.00     0.188 C 
BRANCH   2   3
ATOM      3  O   UNL A   1      30.276  29.634  23.954  1.00  0.00    -0.376 OA
BRANCH   3   4
ATOM      4  C   UNL A   1      30.928  30.460  24.904  1.00  0.00     0.202 C 
BRANCH   4   5
ATOM      5  C   UNL A   1      32.234  29.893  25.449  1.00  0.00     0.261 C 
BRANCH   5   6
ATOM      6  O   UNL A   1      32.504  30.250  26.822  1.00  0.00    -0.460 OA
BRANCH   6   7
ATOM      7  C   UNL A   1      33.333  31.226  27.260  1.00  0.00     0.338 C 
ATOM      8  O   UNL A   1      32.979  32.411  27.222  1.00  0.00    -0.246 OA
BRANCH   7   9
ATOM      9  C   UNL A   1      34.650  30.903  27.847  1.00  0.00     0.060 A 
ATOM     10  C   UNL A   1      35.059  29.592  28.053  1.00  0.00     0.016 A 
ATOM     11  C   UNL A   1      35.555  31.929  28.128  1.00  0.00     0.016 A 
ATOM     12  C   UNL A   1      36.194  29.300  28.781  1.00  0.00     0.010 A 
ATOM     13  C   UNL A   1      36.794  31.629  28.708  1.00  0.00     0.010 A 
ATOM     14  C   UNL A   1      37.088  30.313  29.106  1.00  0.00    -0.014 A 
BRANCH  14  15
ATOM     15  C   UNL A   1      38.247  29.975  29.964  1.00  0.00     0.031 A 
ATOM     16  C   UNL A   1      39.349  29.147  29.371  1.00  0.00     0.074 A 
ATOM     17  C   UNL A   1      38.382  30.530  31.185  1.00  0.00     0.049 A 
ATOM     18  N   UNL A   1      40.388  28.609  29.950  1.00  0.00    -0.248 NA
ATOM     19  C   UNL A   1      39.271  28.887  27.922  1.00  0.00     0.031 C 
ATOM     20  C   UNL A   1      37.435  31.463  31.804  1.00  0.00     0.029 A 
ATOM     21  N   UNL A   1      39.394  30.437  32.106  1.00  0.00    -0.354 N 
ATOM     22  C   UNL A   1      41.044  27.897  28.955  1.00  0.00     0.074 A 
ATOM     23  C   UNL A   1      40.293  28.069  27.734  1.00  0.00     0.031 C 
ATOM     24  C   UNL A   1      37.946  31.915  32.959  1.00  0.00     0.029 A 
ATOM     25  C   UNL A   1      39.190  31.207  33.227  1.00  0.00     0.049 A 
ATOM     26  H   UNL A   1      40.190  29.873  31.977  1.00  0.00     0.167 HD
ATOM     27  C   UNL A   1      42.174  27.161  29.064  1.00  0.00     0.037 A 
ATOM     28  C   UNL A   1      39.904  31.287  34.365  1.00  0.00     0.037 A 
ATOM     29  C   UNL A   1      42.915  27.041  30.287  1.00  0.00     0.049 A 
ATOM     30  C   UNL A   1      41.120  30.409  34.484  1.00  0.00     0.074 A 
ATOM     31  C   UNL A   1      44.002  26.239  30.575  1.00  0.00     0.029 A 
ATOM     32  N   UNL A   1      42.644  27.783  31.431  1.00  0.00    -0.354 N 
ATOM     33  N   UNL A   1      41.650  29.606  33.591  1.00  0.00    -0.248 NA
ATOM     34  C   UNL A   1      41.816  30.417  35.776  1.00  0.00     0.031 C 
ATOM     35  C   UNL A   1      44.377  26.482  31.903  1.00  0.00     0.029 A 
ATOM     36  C   UNL A   1      43.548  27.463  32.428  1.00  0.00     0.049 A 
ATOM     37  H   UNL A   1      41.917  28.441  31.518  1.00  0.00     0.167 HD
ATOM     38  C   UNL A   1      42.737  29.010  34.210  1.00  0.00     0.074 A 
ATOM     39  C   UNL A   1      42.813  29.575  35.544  1.00  0.00     0.031 C 
ATOM     40  C   UNL A   1      43.584  28.063  33.737  1.00  0.00     0.037 A 
BRANCH  27  41
ATOM     41  C   UNL A   1      42.602  26.393  27.849  1.00  0.00     0.064 A 
ATOM     42  C   UNL A   1      43.549  26.898  26.946  1.00  0.00     0.173 A 
ATOM     43  C   UNL A   1      42.004  25.158  27.551  1.00  0.00     0.173 A 
ATOM     44  F   UNL A   1      44.120  28.092  27.165  1.00  0.00    -0.203 F 
ATOM     45  C   UNL A   1      43.857  26.211  25.774  1.00  0.00     0.198 A 
ATOM     46  C   UNL A   1      42.334  24.462  26.391  1.00  0.00     0.198 A 
ATOM     47  F   UNL A   1      41.083  24.637  28.376  1.00  0.00    -0.203 F 
ATOM     48  F   UNL A   1      44.713  26.744  24.892  1.00  0.00    -0.200 F 
ATOM     49  C   UNL A   1      43.251  24.994  25.499  1.00  0.00     0.200 A 
ATOM     50  F   UNL A   1      41.744  23.288  26.126  1.00  0.00    -0.200 F 
ATOM     51  F   UNL A   1      43.537  24.343  24.362  1.00  0.00    -0.200 F 
ENDBRANCH  27  41
BRANCH  28  52
ATOM     52  C   UNL A   1      39.446  32.147  35.492  1.00  0.00     0.064 A 
ATOM     53  C   UNL A   1      38.560  31.667  36.467  1.00  0.00     0.173 A 
ATOM     54  C   UNL A   1      39.872  33.480  35.609  1.00  0.00     0.173 A 
ATOM     55  F   UNL A   1      38.099  30.410  36.393  1.00  0.00    -0.203 F 
ATOM     56  C   UNL A   1      38.106  32.490  37.498  1.00  0.00     0.198 A 
ATOM     57  C   UNL A   1      39.448  34.289  36.662  1.00  0.00     0.198 A 
ATOM     58  F   UNL A   1      40.715  34.000  34.705  1.00  0.00    -0.203 F 
ATOM     59  F   UNL A   1      37.216  32.021  38.385  1.00  0.00    -0.200 F 
ATOM     60  C   UNL A   1      38.556  33.798  37.600  1.00  0.00     0.200 A 
ATOM     61  F   UNL A   1      39.902  35.547  36.762  1.00  0.00    -0.200 F 
ATOM     62  F   UNL A   1      38.123  34.585  38.593  1.00  0.00    -0.200 F 
ENDBRANCH  28  52
BRANCH  40  63
ATOM     63  C   UNL A   1      44.667  27.611  34.666  1.00  0.00     0.064 A 
ATOM     64  C   UNL A   1      45.904  28.268  34.717  1.00  0.00     0.173 A 
ATOM     65  C   UNL A   1      44.449  26.531  35.532  1.00  0.00     0.173 A 
ATOM     66  F   UNL A   1      46.159  29.294  33.891  1.00  0.00    -0.203 F 
ATOM     67  C   UNL A   1      46.897  27.843  35.592  1.00  0.00     0.198 A 
ATOM     68  C   UNL A   1      45.435  26.127  36.424  1.00  0.00     0.198 A 
ATOM     69  F   UNL A   1      43.277  25.878  35.518  1.00  0.00    -0.203 F 
ATOM     70  F   UNL A   1      48.090  28.455  35.595  1.00  0.00    -0.200 F 
ATOM     71  C   UNL A   1      46.660  26.778  36.449  1.00  0.00     0.200 A 
ATOM     72  F   UNL A   1      45.203  25.105  37.259  1.00  0.00    -0.200 F 
ATOM     73  F   UNL A   1      47.617  26.373  37.294  1.00  0.00    -0.200 F 
ENDBRANCH  40  63
ENDBRANCH  14  15
ENDBRANCH   7   9
ENDBRANCH   6   7
ENDBRANCH   5   6
ENDBRANCH   4   5
ENDBRANCH   3   4
ENDBRANCH   2   3
ENDBRANCH   1   2
BRANCH   1  74
ATOM     74  O   UNL A   1      29.603  27.185  23.597  1.00  0.00    -0.377 OA
BRANCH  74  75
ATOM     75  C   UNL A   1      29.925  25.956  24.235  1.00  0.00     0.188 C 
BRANCH  75  76
ATOM     76  C   UNL A   1      30.208  25.965  25.742  1.00  0.00     0.188 C 
BRANCH  76  77
ATOM     77  O   UNL A   1      29.792  24.851  26.502  1.00  0.00    -0.376 OA
BRANCH  77  78
ATOM     78  C   UNL A   1      30.631  23.708  26.605  1.00  0.00     0.202 C 
BRANCH  78  79
ATOM     79  C   UNL A   1      32.117  23.744  27.021  1.00  0.00     0.261 C 
BRANCH  79  80
ATOM     80  O   UNL A   1      32.817  22.489  27.105  1.00  0.00    -0.463 OA
BRANCH  80  81
ATOM     81  C   UNL A   1      33.643  22.212  26.057  1.00  0.00     0.309 C 
ATOM     82  O   UNL A   1      34.651  21.508  26.135  1.00  0.00    -0.252 OA
BRANCH  81  83
ATOM     83  C   UNL A   1      33.203  22.817  24.740  1.00  0.00     0.104 C 
ATOM     84  C   UNL A   1      33.179  21.816  23.565  1.00  0.00     0.022 C 
ATOM     85  C   UNL A   1      34.055  24.034  24.370  1.00  0.00     0.054 C 
ATOM     86  C   UNL A   1      32.528  22.439  22.299  1.00  0.00     0.057 C 
ATOM     87  C   UNL A   1      33.629  24.606  23.078  1.00  0.00    -0.006 A 
ATOM     88  C   UNL A   1      32.961  23.854  22.142  1.00  0.00     0.038 A 
ATOM     89  C   UNL A   1      33.814  25.860  22.478  1.00  0.00     0.138 A 
ATOM     90  N   UNL A   1      32.758  24.675  21.075  1.00  0.00    -0.282 N 
ATOM     91  N   UNL A   1      33.275  25.908  21.255  1.00  0.00    -0.184 NA
ATOM     92  H   UNL A   1      32.285  24.398  20.256  1.00  0.00     0.190 HD
ENDBRANCH  81  83
ENDBRANCH  80  81
ENDBRANCH  79  80
ENDBRANCH  78  79
ENDBRANCH  77  78
ENDBRANCH  76  77
ENDBRANCH  75  76
ENDBRANCH  74  75
ENDBRANCH   1  74
TORSDOF 20
ENDMDL
MODEL 3
REMARK VINA RESULT:     -10.5      1.690      2.773
REMARK SMILES O=C(OCCOCCOCCOCCOC(=O)[C@@H]1CCc2[nH]ncc2C1)c1ccc(-c2c3nc(c(-c4c(F)c(F)c(F)c(F)c4F)c4ccc([nH]4)c(-c4c(F)c(F)c(F)c(F)c4F)c4nc(c(-c5c(F)c(F)c(F)c(F)c5F)c5ccc2[nH]5)C=C4)C=C3)cc1
REMARK SMILES IDX 8 1 7 2 6 3 5 4 4 5 3 6 2 7 1 8 27 9 28 10 89 11 29 12 88 13
REMARK SMILES IDX 30 14 31 15 32 16 82 17 33 18 87 19 81 20 83 21 34 22 86 23
REMARK SMILES IDX 80 24 79 25 35 27 67 28 47 29 66 30 48 31 51 32 65 33 84 34
REMARK SMILES IDX 49 35 50 36 64 38 85 39 52 40 36 41 37 42 45 43 38 44 39 45
REMARK SMILES IDX 43 46 46 47 40 48 41 49 44 50 42 51 68 52 69 53 77 54 70 55
REMARK SMILES IDX 71 56 75 57 78 58 72 59 73 60 76 61 74 62 53 63 54 64 62 65
REMARK SMILES IDX 55 66 56 67 60 68 63 69 57 70 58 71 61 72 59 73 9 74 10 75
REMARK SMILES IDX 11 76 12 77 13 78 14 79 15 80 16 81 17 82 18 83 19 84 26 85
REMARK SMILES IDX 20 86 25 87 21 88 24 89 22 90 23 91
REMARK H PARENT 83 26 51 37 22 92
REMARK Flexibility Score: inf
ROOT
ATOM      1  C   UNL A   1      35.408  31.467  28.503  1.00  0.00     0.188 C 
ENDROOT
BRANCH   1   2
ATOM      2  C   UNL A   1      34.999  32.815  27.910  1.00  0.00     0.188 C 
BRANCH   2   3
ATOM      3  O   UNL A   1      34.328  33.535  28.936  1.00  0.00    -0.376 OA
BRANCH   3   4
ATOM      4  C   UNL A   1      33.230  34.349  28.559  1.00  0.00     0.202 C 
BRANCH   4   5
ATOM      5  C   UNL A   1      33.077  35.627  29.377  1.00  0.00     0.261 C 
BRANCH   5   6
ATOM      6  O   UNL A   1      32.266  35.474  30.561  1.00  0.00    -0.460 OA
BRANCH   6   7
ATOM      7  C   UNL A   1      32.629  35.745  31.837  1.00  0.00     0.338 C 
ATOM      8  O   UNL A   1      31.966  36.534  32.522  1.00  0.00    -0.246 OA
BRANCH   7   9
ATOM      9  C   UNL A   1      33.783  35.066  32.463  1.00  0.00     0.060 A 
ATOM     10  C   UNL A   1      34.987  35.720  32.682  1.00  0.00     0.016 A 
ATOM     11  C   UNL A   1      33.647  33.758  32.932  1.00  0.00     0.016 A 
ATOM     12  C   UNL A   1      36.116  35.033  33.077  1.00  0.00     0.010 A 
ATOM     13  C   UNL A   1      34.745  33.103  33.503  1.00  0.00     0.010 A 
ATOM     14  C   UNL A   1      36.010  33.716  33.509  1.00  0.00    -0.014 A 
BRANCH  14  15
ATOM     15  C   UNL A   1      37.254  32.985  33.840  1.00  0.00     0.031 A 
ATOM     16  C   UNL A   1      37.817  33.134  35.223  1.00  0.00     0.074 A 
ATOM     17  C   UNL A   1      37.773  32.088  32.978  1.00  0.00     0.049 A 
ATOM     18  N   UNL A   1      38.954  32.715  35.707  1.00  0.00    -0.248 NA
ATOM     19  C   UNL A   1      36.983  33.859  36.199  1.00  0.00     0.031 C 
ATOM     20  C   UNL A   1      37.223  31.761  31.659  1.00  0.00     0.029 A 
ATOM     21  N   UNL A   1      38.847  31.244  33.099  1.00  0.00    -0.354 N 
ATOM     22  C   UNL A   1      38.998  33.179  37.015  1.00  0.00     0.074 A 
ATOM     23  C   UNL A   1      37.777  33.912  37.255  1.00  0.00     0.031 C 
ATOM     24  C   UNL A   1      37.911  30.738  31.130  1.00  0.00     0.029 A 
ATOM     25  C   UNL A   1      39.029  30.425  32.009  1.00  0.00     0.049 A 
ATOM     26  H   UNL A   1      39.431  31.226  33.890  1.00  0.00     0.167 HD
ATOM     27  C   UNL A   1      39.983  33.008  37.927  1.00  0.00     0.037 A 
ATOM     28  C   UNL A   1      40.021  29.559  31.732  1.00  0.00     0.037 A 
ATOM     29  C   UNL A   1      41.169  32.243  37.665  1.00  0.00     0.049 A 
ATOM     30  C   UNL A   1      41.136  29.437  32.735  1.00  0.00     0.074 A 
ATOM     31  C   UNL A   1      42.297  32.085  38.446  1.00  0.00     0.029 A 
ATOM     32  N   UNL A   1      41.357  31.477  36.520  1.00  0.00    -0.354 N 
ATOM     33  N   UNL A   1      41.256  30.009  33.910  1.00  0.00    -0.248 NA
ATOM     34  C   UNL A   1      42.269  28.582  32.363  1.00  0.00     0.031 C 
ATOM     35  C   UNL A   1      43.178  31.238  37.762  1.00  0.00     0.029 A 
ATOM     36  C   UNL A   1      42.582  30.837  36.575  1.00  0.00     0.049 A 
ATOM     37  H   UNL A   1      40.713  31.400  35.781  1.00  0.00     0.167 HD
ATOM     38  C   UNL A   1      42.475  29.590  34.417  1.00  0.00     0.074 A 
ATOM     39  C   UNL A   1      43.040  28.682  33.436  1.00  0.00     0.031 C 
ATOM     40  C   UNL A   1      43.091  29.936  35.574  1.00  0.00     0.037 A 
BRANCH  27  41
ATOM     41  C   UNL A   1      39.826  33.724  39.235  1.00  0.00     0.064 A 
ATOM     42  C   UNL A   1      39.069  33.190  40.289  1.00  0.00     0.173 A 
ATOM     43  C   UNL A   1      40.390  34.997  39.413  1.00  0.00     0.173 A 
ATOM     44  F   UNL A   1      38.476  31.994  40.154  1.00  0.00    -0.203 F 
ATOM     45  C   UNL A   1      38.855  33.917  41.457  1.00  0.00     0.198 A 
ATOM     46  C   UNL A   1      40.196  35.711  40.593  1.00  0.00     0.198 A 
ATOM     47  F   UNL A   1      41.112  35.558  38.431  1.00  0.00    -0.203 F 
ATOM     48  F   UNL A   1      38.073  33.417  42.423  1.00  0.00    -0.200 F 
ATOM     49  C   UNL A   1      39.421  35.175  41.609  1.00  0.00     0.200 A 
ATOM     50  F   UNL A   1      40.741  36.927  40.735  1.00  0.00    -0.200 F 
ATOM     51  F   UNL A   1      39.200  35.881  42.728  1.00  0.00    -0.200 F 
ENDBRANCH  27  41
BRANCH  28  52
ATOM     52  C   UNL A   1      40.050  28.824  30.436  1.00  0.00     0.064 A 
ATOM     53  C   UNL A   1      40.654  29.371  29.296  1.00  0.00     0.173 A 
ATOM     54  C   UNL A   1      39.454  27.558  30.305  1.00  0.00     0.173 A 
ATOM     55  F   UNL A   1      41.217  30.587  29.355  1.00  0.00    -0.203 F 
ATOM     56  C   UNL A   1      40.644  28.693  28.077  1.00  0.00     0.198 A 
ATOM     57  C   UNL A   1      39.478  26.865  29.096  1.00  0.00     0.198 A 
ATOM     58  F   UNL A   1      38.853  26.984  31.358  1.00  0.00    -0.203 F 
ATOM     59  F   UNL A   1      41.181  29.265  26.989  1.00  0.00    -0.200 F 
ATOM     60  C   UNL A   1      40.063  27.437  27.980  1.00  0.00     0.200 A 
ATOM     61  F   UNL A   1      38.930  25.645  29.016  1.00  0.00    -0.200 F 
ATOM     62  F   UNL A   1      40.058  26.785  26.810  1.00  0.00    -0.200 F 
ENDBRANCH  28  52
BRANCH  40  63
ATOM     63  C   UNL A   1      44.426  29.310  35.834  1.00  0.00     0.064 A 
ATOM     64  C   UNL A   1      44.536  28.083  36.504  1.00  0.00     0.173 A 
ATOM     65  C   UNL A   1      45.598  29.929  35.380  1.00  0.00     0.173 A 
ATOM     66  F   UNL A   1      43.440  27.467  36.970  1.00  0.00    -0.203 F 
ATOM     67  C   UNL A   1      45.781  27.508  36.729  1.00  0.00     0.198 A 
ATOM     68  C   UNL A   1      46.838  29.338  35.584  1.00  0.00     0.198 A 
ATOM     69  F   UNL A   1      45.536  31.102  34.731  1.00  0.00    -0.203 F 
ATOM     70  F   UNL A   1      45.871  26.357  37.410  1.00  0.00    -0.200 F 
ATOM     71  C   UNL A   1      46.930  28.131  36.264  1.00  0.00     0.200 A 
ATOM     72  F   UNL A   1      47.948  29.935  35.126  1.00  0.00    -0.200 F 
ATOM     73  F   UNL A   1      48.129  27.573  36.479  1.00  0.00    -0.200 F 
ENDBRANCH  40  63
ENDBRANCH  14  15
ENDBRANCH   7   9
ENDBRANCH   6   7
ENDBRANCH   5   6
ENDBRANCH   4   5
ENDBRANCH   3   4
ENDBRANCH   2   3
ENDBRANCH   1   2
BRANCH   1  74
ATOM     74  O   UNL A   1      34.619  30.349  28.078  1.00  0.00    -0.377 OA
BRANCH  74  75
ATOM     75  C   UNL A   1      33.816  30.537  26.919  1.00  0.00     0.188 C 
BRANCH  75  76
ATOM     76  C   UNL A   1      33.381  29.303  26.121  1.00  0.00     0.188 C 
BRANCH  76  77
ATOM     77  O   UNL A   1      33.038  29.477  24.763  1.00  0.00    -0.376 OA
BRANCH  77  78
ATOM     78  C   UNL A   1      33.356  28.466  23.815  1.00  0.00     0.202 C 
BRANCH  78  79
ATOM     79  C   UNL A   1      33.794  27.031  24.176  1.00  0.00     0.261 C 
BRANCH  79  80
ATOM     80  O   UNL A   1      32.825  25.978  24.020  1.00  0.00    -0.463 OA
BRANCH  80  81
ATOM     81  C   UNL A   1      33.312  24.805  23.525  1.00  0.00     0.309 C 
ATOM     82  O   UNL A   1      33.906  24.698  22.452  1.00  0.00    -0.252 OA
BRANCH  81  83
ATOM     83  C   UNL A   1      33.099  23.611  24.433  1.00  0.00     0.104 C 
ATOM     84  C   UNL A   1      34.040  23.576  25.657  1.00  0.00     0.022 C 
ATOM     85  C   UNL A   1      33.202  22.294  23.659  1.00  0.00     0.054 C 
ATOM     86  C   UNL A   1      33.640  22.451  26.651  1.00  0.00     0.057 C 
ATOM     87  C   UNL A   1      33.010  21.137  24.556  1.00  0.00    -0.006 A 
ATOM     88  C   UNL A   1      33.241  21.225  25.907  1.00  0.00     0.038 A 
ATOM     89  C   UNL A   1      32.665  19.797  24.328  1.00  0.00     0.138 A 
ATOM     90  N   UNL A   1      33.003  19.983  26.412  1.00  0.00    -0.282 N 
ATOM     91  N   UNL A   1      32.652  19.090  25.463  1.00  0.00    -0.184 NA
ATOM     92  H   UNL A   1      33.080  19.760  27.368  1.00  0.00     0.190 HD
ENDBRANCH  81  83
ENDBRANCH  80  81
ENDBRANCH  79  80
ENDBRANCH  78  79
ENDBRANCH  77  78
ENDBRANCH  76  77
ENDBRANCH  75  76
ENDBRANCH  74  75
ENDBRANCH   1  74
TORSDOF 20
ENDMDL
