MODEL 1
REMARK VINA RESULT:     -11.2      0.000      0.000
REMARK SMILES C[C@H](Cc1cccs1)NC(=O)N[C@](C)(C(=O)OCCOCCOCCOCCOC(=O)c1ccc(-c2c3nc(c(-c4c(F)c(F)c(F)c(F)c4F)c4ccc([nH]4)c(-c4c(F)c(F)c(F)c(F)c4F)c4nc(c(-c5c(F)c(F)c(F)c(F)c5F)c5ccc2[nH]5)C=C4)C=C3)cc1)C(F)(F)F
REMARK SMILES IDX 22 1 21 2 20 3 19 4 18 5 17 6 15 7 16 8 13 9 14 10 12 11
REMARK SMILES IDX 9 12 10 13 11 15 2 17 1 18 3 19 4 20 5 21 8 22 6 23 7 24
REMARK SMILES IDX 95 25 96 26 97 27 98 28 23 29 24 30 25 31 26 32 27 33 28 34
REMARK SMILES IDX 29 35 30 36 31 37 32 38 33 39 94 40 34 41 93 42 35 43 36 44
REMARK SMILES IDX 37 45 87 46 38 47 92 48 86 49 88 50 39 51 91 52 85 53 84 54
REMARK SMILES IDX 40 56 72 57 52 58 71 59 53 60 56 61 70 62 89 63 54 64 55 65
REMARK SMILES IDX 69 67 90 68 57 69 41 70 42 71 50 72 43 73 44 74 48 75 51 76
REMARK SMILES IDX 45 77 46 78 49 79 47 80 73 81 74 82 82 83 75 84 76 85 80 86
REMARK SMILES IDX 83 87 77 88 78 89 81 90 79 91 58 92 59 93 67 94 60 95 61 96
REMARK SMILES IDX 65 97 68 98 62 99 63 100 66 101 64 102
REMARK H PARENT 9 14 12 16 88 55 56 66
REMARK Flexibility Score: inf
ROOT
ATOM      1  C   UNL A   1      31.338  27.934  23.525  1.00  0.00     0.188 C 
ENDROOT
BRANCH   1   2
ATOM      2  C   UNL A   1      29.947  27.193  23.245  1.00  0.00     0.188 C 
BRANCH   2   3
ATOM      3  O   UNL A   1      29.218  26.514  24.389  1.00  0.00    -0.376 OA
BRANCH   3   4
ATOM      4  C   UNL A   1      29.702  25.935  25.766  1.00  0.00     0.202 C 
BRANCH   4   5
ATOM      5  C   UNL A   1      31.421  25.754  26.441  1.00  0.00     0.261 C 
BRANCH   5   6
ATOM      6  O   UNL A   1      32.748  25.364  25.545  1.00  0.00    -0.461 OA
BRANCH   6   7
ATOM      7  C   UNL A   1      33.504  24.292  25.024  1.00  0.00     0.341 C 
ATOM      8  O   UNL A   1      34.662  24.113  25.411  1.00  0.00    -0.249 OA
BRANCH   7   9
ATOM      9  C   UNL A   1      32.888  23.347  23.671  1.00  0.00     0.232 C 
ATOM     10  C   UNL A   1      33.087  21.984  22.879  1.00  0.00     0.058 C 
BRANCH   9  11
ATOM     11  N   UNL A   1      31.623  23.098  24.336  1.00  0.00    -0.315 N 
ATOM     12  N   UNL A   1      32.650  21.405  25.605  1.00  0.00    -0.335 N 
ATOM     13  C   UNL A   1      31.582  22.211  25.363  1.00  0.00     0.316 C 
ATOM     14  H   UNL A   1      32.618  21.036  26.517  1.00  0.00     0.165 HD
ATOM     15  O   UNL A   1      30.632  22.215  26.138  1.00  0.00    -0.249 OA
ATOM     16  H   UNL A   1      30.806  23.567  24.047  1.00  0.00     0.166 HD
BRANCH  12  17
ATOM     17  C   UNL A   1      33.864  20.919  24.866  1.00  0.00     0.086 C 
ATOM     18  C   UNL A   1      33.467  19.458  24.411  1.00  0.00     0.031 C 
BRANCH  17  19
ATOM     19  C   UNL A   1      35.396  20.998  25.431  1.00  0.00     0.071 C 
BRANCH  19  20
ATOM     20  C   UNL A   1      37.015  21.811  25.780  1.00  0.00     0.007 A 
ATOM     21  C   UNL A   1      37.385  23.214  25.660  1.00  0.00     0.015 A 
ATOM     22  S   UNL A   1      38.681  21.218  25.815  1.00  0.00    -0.149 S 
ATOM     23  C   UNL A   1      38.564  23.666  26.306  1.00  0.00     0.012 A 
ATOM     24  C   UNL A   1      39.429  22.627  26.354  1.00  0.00     0.065 A 
ENDBRANCH  19  20
ENDBRANCH  17  19
ENDBRANCH  12  17
ENDBRANCH   9  11
BRANCH   9  25
ATOM     25  C   UNL A   1      32.982  24.268  22.412  1.00  0.00     0.422 C 
ATOM     26  F   UNL A   1      34.044  25.119  22.552  1.00  0.00    -0.168 F 
ATOM     27  F   UNL A   1      33.270  23.549  21.285  1.00  0.00    -0.168 F 
ATOM     28  F   UNL A   1      31.908  25.002  22.111  1.00  0.00    -0.168 F 
ENDBRANCH   9  25
ENDBRANCH   7   9
ENDBRANCH   6   7
ENDBRANCH   5   6
ENDBRANCH   4   5
ENDBRANCH   3   4
ENDBRANCH   2   3
ENDBRANCH   1   2
BRANCH   1  29
ATOM     29  O   UNL A   1      31.243  29.218  24.070  1.00  0.00    -0.377 OA
BRANCH  29  30
ATOM     30  C   UNL A   1      31.473  29.211  25.460  1.00  0.00     0.188 C 
BRANCH  30  31
ATOM     31  C   UNL A   1      31.975  30.552  26.056  1.00  0.00     0.188 C 
BRANCH  31  32
ATOM     32  O   UNL A   1      31.051  31.631  26.023  1.00  0.00    -0.376 OA
BRANCH  32  33
ATOM     33  C   UNL A   1      31.391  32.914  26.530  1.00  0.00     0.202 C 
BRANCH  33  34
ATOM     34  C   UNL A   1      32.428  33.147  27.648  1.00  0.00     0.261 C 
BRANCH  34  35
ATOM     35  O   UNL A   1      33.815  33.257  27.299  1.00  0.00    -0.460 OA
BRANCH  35  36
ATOM     36  C   UNL A   1      34.624  34.044  28.034  1.00  0.00     0.338 C 
ATOM     37  O   UNL A   1      34.354  35.152  28.486  1.00  0.00    -0.246 OA
BRANCH  36  38
ATOM     38  C   UNL A   1      35.788  33.212  28.447  1.00  0.00     0.060 A 
ATOM     39  C   UNL A   1      35.701  31.809  28.335  1.00  0.00     0.016 A 
ATOM     40  C   UNL A   1      37.018  33.807  28.750  1.00  0.00     0.016 A 
ATOM     41  C   UNL A   1      36.829  31.010  28.534  1.00  0.00     0.010 A 
ATOM     42  C   UNL A   1      38.128  33.002  29.025  1.00  0.00     0.010 A 
ATOM     43  C   UNL A   1      38.025  31.599  28.958  1.00  0.00    -0.014 A 
BRANCH  43  44
ATOM     44  C   UNL A   1      38.997  30.757  29.698  1.00  0.00     0.031 A 
ATOM     45  C   UNL A   1      39.129  31.037  31.172  1.00  0.00     0.074 A 
ATOM     46  C   UNL A   1      39.707  29.770  29.128  1.00  0.00     0.049 A 
ATOM     47  N   UNL A   1      39.928  30.506  32.059  1.00  0.00    -0.248 NA
ATOM     48  C   UNL A   1      38.228  32.070  31.716  1.00  0.00     0.031 C 
ATOM     49  C   UNL A   1      39.626  29.353  27.732  1.00  0.00     0.029 A 
ATOM     50  N   UNL A   1      40.653  28.937  29.675  1.00  0.00    -0.354 N 
ATOM     51  C   UNL A   1      39.631  31.146  33.255  1.00  0.00     0.074 A 
ATOM     52  C   UNL A   1      38.604  32.123  32.982  1.00  0.00     0.031 C 
ATOM     53  C   UNL A   1      40.505  28.354  27.525  1.00  0.00     0.029 A 
ATOM     54  C   UNL A   1      41.232  28.085  28.767  1.00  0.00     0.049 A 
ATOM     55  H   UNL A   1      40.895  28.950  30.630  1.00  0.00     0.167 HD
ATOM     56  C   UNL A   1      40.162  30.937  34.481  1.00  0.00     0.037 A 
ATOM     57  C   UNL A   1      42.250  27.213  28.922  1.00  0.00     0.037 A 
ATOM     58  C   UNL A   1      41.193  29.976  34.753  1.00  0.00     0.049 A 
ATOM     59  C   UNL A   1      42.896  27.061  30.281  1.00  0.00     0.074 A 
ATOM     60  C   UNL A   1      41.798  29.681  35.960  1.00  0.00     0.029 A 
ATOM     61  N   UNL A   1      41.781  29.162  33.796  1.00  0.00    -0.354 N 
ATOM     62  N   UNL A   1      42.601  27.654  31.414  1.00  0.00    -0.248 NA
ATOM     63  C   UNL A   1      44.017  26.115  30.381  1.00  0.00     0.031 C 
ATOM     64  C   UNL A   1      42.799  28.735  35.723  1.00  0.00     0.029 A 
ATOM     65  C   UNL A   1      42.765  28.385  34.381  1.00  0.00     0.049 A 
ATOM     66  H   UNL A   1      41.534  29.140  32.843  1.00  0.00     0.167 HD
ATOM     67  C   UNL A   1      43.470  27.128  32.363  1.00  0.00     0.074 A 
ATOM     68  C   UNL A   1      44.299  26.161  31.676  1.00  0.00     0.031 C 
ATOM     69  C   UNL A   1      43.573  27.416  33.685  1.00  0.00     0.037 A 
BRANCH  56  70
ATOM     70  C   UNL A   1      39.665  31.801  35.602  1.00  0.00     0.064 A 
ATOM     71  C   UNL A   1      38.632  31.387  36.457  1.00  0.00     0.173 A 
ATOM     72  C   UNL A   1      40.236  33.063  35.824  1.00  0.00     0.173 A 
ATOM     73  F   UNL A   1      38.034  30.200  36.269  1.00  0.00    -0.203 F 
ATOM     74  C   UNL A   1      38.169  32.217  37.474  1.00  0.00     0.198 A 
ATOM     75  C   UNL A   1      39.795  33.876  36.865  1.00  0.00     0.198 A 
ATOM     76  F   UNL A   1      41.222  33.509  35.032  1.00  0.00    -0.203 F 
ATOM     77  F   UNL A   1      37.141  31.827  38.239  1.00  0.00    -0.200 F 
ATOM     78  C   UNL A   1      38.756  33.456  37.683  1.00  0.00     0.200 A 
ATOM     79  F   UNL A   1      40.372  35.067  37.071  1.00  0.00    -0.200 F 
ATOM     80  F   UNL A   1      38.315  34.252  38.667  1.00  0.00    -0.200 F 
ENDBRANCH  56  70
BRANCH  57  81
ATOM     81  C   UNL A   1      42.746  26.425  27.760  1.00  0.00     0.064 A 
ATOM     82  C   UNL A   1      42.296  25.118  27.523  1.00  0.00     0.173 A 
ATOM     83  C   UNL A   1      43.708  26.948  26.883  1.00  0.00     0.173 A 
ATOM     84  F   UNL A   1      41.401  24.558  28.350  1.00  0.00    -0.203 F 
ATOM     85  C   UNL A   1      42.802  24.360  26.468  1.00  0.00     0.198 A 
ATOM     86  C   UNL A   1      44.189  26.201  25.810  1.00  0.00     0.198 A 
ATOM     87  F   UNL A   1      44.180  28.190  27.069  1.00  0.00    -0.203 F 
ATOM     88  F   UNL A   1      42.393  23.095  26.297  1.00  0.00    -0.200 F 
ATOM     89  C   UNL A   1      43.743  24.905  25.608  1.00  0.00     0.200 A 
ATOM     90  F   UNL A   1      45.092  26.736  24.976  1.00  0.00    -0.200 F 
ATOM     91  F   UNL A   1      44.226  24.177  24.592  1.00  0.00    -0.200 F 
ENDBRANCH  57  81
BRANCH  69  92
ATOM     92  C   UNL A   1      44.575  26.642  34.495  1.00  0.00     0.064 A 
ATOM     93  C   UNL A   1      45.834  27.169  34.819  1.00  0.00     0.173 A 
ATOM     94  C   UNL A   1      44.243  25.376  35.005  1.00  0.00     0.173 A 
ATOM     95  F   UNL A   1      46.204  28.371  34.352  1.00  0.00    -0.203 F 
ATOM     96  C   UNL A   1      46.733  26.446  35.600  1.00  0.00     0.198 A 
ATOM     97  C   UNL A   1      45.131  24.672  35.814  1.00  0.00     0.198 A 
ATOM     98  F   UNL A   1      43.048  24.830  34.736  1.00  0.00    -0.203 F 
ATOM     99  F   UNL A   1      47.949  26.947  35.856  1.00  0.00    -0.200 F 
ATOM    100  C   UNL A   1      46.378  25.203  36.104  1.00  0.00     0.200 A 
ATOM    101  F   UNL A   1      44.776  23.481  36.317  1.00  0.00    -0.200 F 
ATOM    102  F   UNL A   1      47.239  24.515  36.864  1.00  0.00    -0.200 F 
ENDBRANCH  69  92
ENDBRANCH  43  44
ENDBRANCH  36  38
ENDBRANCH  35  36
ENDBRANCH  34  35
ENDBRANCH  33  34
ENDBRANCH  32  33
ENDBRANCH  31  32
ENDBRANCH  30  31
ENDBRANCH  29  30
ENDBRANCH   1  29
TORSDOF 25
ENDMDL
MODEL 2
REMARK VINA RESULT:     -11.1      2.390      7.736
REMARK SMILES C[C@H](Cc1cccs1)NC(=O)N[C@](C)(C(=O)OCCOCCOCCOCCOC(=O)c1ccc(-c2c3nc(c(-c4c(F)c(F)c(F)c(F)c4F)c4ccc([nH]4)c(-c4c(F)c(F)c(F)c(F)c4F)c4nc(c(-c5c(F)c(F)c(F)c(F)c5F)c5ccc2[nH]5)C=C4)C=C3)cc1)C(F)(F)F
REMARK SMILES IDX 22 1 21 2 20 3 19 4 18 5 17 6 15 7 16 8 13 9 14 10 12 11
REMARK SMILES IDX 9 12 10 13 11 15 2 17 1 18 3 19 4 20 5 21 8 22 6 23 7 24
REMARK SMILES IDX 95 25 96 26 97 27 98 28 23 29 24 30 25 31 26 32 27 33 28 34
REMARK SMILES IDX 29 35 30 36 31 37 32 38 33 39 94 40 34 41 93 42 35 43 36 44
REMARK SMILES IDX 37 45 87 46 38 47 92 48 86 49 88 50 39 51 91 52 85 53 84 54
REMARK SMILES IDX 40 56 72 57 52 58 71 59 53 60 56 61 70 62 89 63 54 64 55 65
REMARK SMILES IDX 69 67 90 68 57 69 41 70 42 71 50 72 43 73 44 74 48 75 51 76
REMARK SMILES IDX 45 77 46 78 49 79 47 80 73 81 74 82 82 83 75 84 76 85 80 86
REMARK SMILES IDX 83 87 77 88 78 89 81 90 79 91 58 92 59 93 67 94 60 95 61 96
REMARK SMILES IDX 65 97 68 98 62 99 63 100 66 101 64 102
REMARK H PARENT 9 14 12 16 88 55 56 66
REMARK Flexibility Score: inf
ROOT
ATOM      1  C   UNL A   1      34.021  27.748  24.020  1.00  0.00     0.188 C 
ENDROOT
BRANCH   1   2
ATOM      2  C   UNL A   1      33.546  27.451  22.520  1.00  0.00     0.188 C 
BRANCH   2   3
ATOM      3  O   UNL A   1      32.269  26.669  22.281  1.00  0.00    -0.376 OA
BRANCH   3   4
ATOM      4  C   UNL A   1      31.323  25.857  23.235  1.00  0.00     0.202 C 
BRANCH   4   5
ATOM      5  C   UNL A   1      30.689  24.119  23.085  1.00  0.00     0.261 C 
BRANCH   5   6
ATOM      6  O   UNL A   1      31.056  22.891  24.120  1.00  0.00    -0.461 OA
BRANCH   6   7
ATOM      7  C   UNL A   1      32.109  22.117  24.651  1.00  0.00     0.341 C 
ATOM      8  O   UNL A   1      32.222  20.930  24.331  1.00  0.00    -0.249 OA
BRANCH   7   9
ATOM      9  C   UNL A   1      33.129  22.767  25.932  1.00  0.00     0.232 C 
ATOM     10  C   UNL A   1      34.409  22.452  26.820  1.00  0.00     0.058 C 
BRANCH   9  11
ATOM     11  N   UNL A   1      33.636  23.826  25.081  1.00  0.00    -0.315 N 
ATOM     12  N   UNL A   1      35.047  22.269  24.024  1.00  0.00    -0.335 N 
ATOM     13  C   UNL A   1      34.496  23.511  24.079  1.00  0.00     0.316 C 
ATOM     14  H   UNL A   1      35.400  22.075  23.125  1.00  0.00     0.165 HD
ATOM     15  O   UNL A   1      34.686  24.304  23.163  1.00  0.00    -0.249 OA
ATOM     16  H   UNL A   1      33.361  24.760  25.229  1.00  0.00     0.166 HD
BRANCH  12  17
ATOM     17  C   UNL A   1      35.269  21.111  24.954  1.00  0.00     0.086 C 
ATOM     18  C   UNL A   1      36.784  21.258  25.382  1.00  0.00     0.031 C 
BRANCH  17  19
ATOM     19  C   UNL A   1      34.863  19.561  24.631  1.00  0.00     0.071 C 
BRANCH  19  20
ATOM     20  C   UNL A   1      34.160  17.897  25.010  1.00  0.00     0.007 A 
ATOM     21  C   UNL A   1      34.692  16.580  24.692  1.00  0.00     0.015 A 
ATOM     22  S   UNL A   1      32.517  17.325  25.325  1.00  0.00    -0.149 S 
ATOM     23  C   UNL A   1      34.170  15.452  25.375  1.00  0.00     0.012 A 
ATOM     24  C   UNL A   1      32.884  15.724  25.692  1.00  0.00     0.065 A 
ENDBRANCH  19  20
ENDBRANCH  17  19
ENDBRANCH  12  17
ENDBRANCH   9  11
BRANCH   9  25
ATOM     25  C   UNL A   1      32.181  23.070  27.138  1.00  0.00     0.422 C 
ATOM     26  F   UNL A   1      32.838  22.802  28.308  1.00  0.00    -0.168 F 
ATOM     27  F   UNL A   1      31.878  24.400  27.215  1.00  0.00    -0.168 F 
ATOM     28  F   UNL A   1      31.012  22.427  27.170  1.00  0.00    -0.168 F 
ENDBRANCH   9  25
ENDBRANCH   7   9
ENDBRANCH   6   7
ENDBRANCH   5   6
ENDBRANCH   4   5
ENDBRANCH   3   4
ENDBRANCH   2   3
ENDBRANCH   1   2
BRANCH   1  29
ATOM     29  O   UNL A   1      33.509  28.914  24.599  1.00  0.00    -0.377 OA
BRANCH  29  30
ATOM     30  C   UNL A   1      32.261  29.264  24.046  1.00  0.00     0.188 C 
BRANCH  30  31
ATOM     31  C   UNL A   1      31.277  29.962  25.021  1.00  0.00     0.188 C 
BRANCH  31  32
ATOM     32  O   UNL A   1      31.766  30.194  26.335  1.00  0.00    -0.376 OA
BRANCH  32  33
ATOM     33  C   UNL A   1      31.905  31.511  26.852  1.00  0.00     0.202 C 
BRANCH  33  34
ATOM     34  C   UNL A   1      33.170  32.021  27.571  1.00  0.00     0.261 C 
BRANCH  34  35
ATOM     35  O   UNL A   1      33.554  33.394  27.413  1.00  0.00    -0.460 OA
BRANCH  35  36
ATOM     36  C   UNL A   1      33.467  34.232  28.463  1.00  0.00     0.338 C 
ATOM     37  O   UNL A   1      32.521  34.963  28.740  1.00  0.00    -0.246 OA
BRANCH  36  38
ATOM     38  C   UNL A   1      34.589  33.901  29.384  1.00  0.00     0.060 A 
ATOM     39  C   UNL A   1      35.914  34.151  28.969  1.00  0.00     0.016 A 
ATOM     40  C   UNL A   1      34.338  33.536  30.713  1.00  0.00     0.016 A 
ATOM     41  C   UNL A   1      36.975  34.029  29.868  1.00  0.00     0.010 A 
ATOM     42  C   UNL A   1      35.409  33.340  31.591  1.00  0.00     0.010 A 
ATOM     43  C   UNL A   1      36.732  33.545  31.159  1.00  0.00    -0.014 A 
BRANCH  43  44
ATOM     44  C   UNL A   1      37.850  32.890  31.882  1.00  0.00     0.031 A 
ATOM     45  C   UNL A   1      38.495  31.721  31.184  1.00  0.00     0.074 A 
ATOM     46  C   UNL A   1      38.310  33.308  33.072  1.00  0.00     0.049 A 
ATOM     47  N   UNL A   1      39.449  30.924  31.589  1.00  0.00    -0.248 NA
ATOM     48  C   UNL A   1      37.984  31.411  29.837  1.00  0.00     0.031 C 
ATOM     49  C   UNL A   1      37.820  34.461  33.821  1.00  0.00     0.029 A 
ATOM     50  N   UNL A   1      39.305  32.788  33.864  1.00  0.00    -0.354 N 
ATOM     51  C   UNL A   1      39.639  30.019  30.553  1.00  0.00     0.074 A 
ATOM     52  C   UNL A   1      38.690  30.340  29.514  1.00  0.00     0.031 C 
ATOM     53  C   UNL A   1      38.503  34.549  34.978  1.00  0.00     0.029 A 
ATOM     54  C   UNL A   1      39.455  33.439  35.064  1.00  0.00     0.049 A 
ATOM     55  H   UNL A   1      39.859  32.018  33.597  1.00  0.00     0.167 HD
ATOM     56  C   UNL A   1      40.533  29.007  30.467  1.00  0.00     0.037 A 
ATOM     57  C   UNL A   1      40.250  33.150  36.114  1.00  0.00     0.037 A 
ATOM     58  C   UNL A   1      41.469  28.678  31.504  1.00  0.00     0.049 A 
ATOM     59  C   UNL A   1      41.177  31.957  36.037  1.00  0.00     0.074 A 
ATOM     60  C   UNL A   1      42.420  27.675  31.516  1.00  0.00     0.029 A 
ATOM     61  N   UNL A   1      41.560  29.337  32.720  1.00  0.00    -0.354 N 
ATOM     62  N   UNL A   1      41.368  31.115  35.049  1.00  0.00    -0.248 NA
ATOM     63  C   UNL A   1      42.000  31.677  37.223  1.00  0.00     0.031 C 
ATOM     64  C   UNL A   1      43.044  27.685  32.767  1.00  0.00     0.029 A 
ATOM     65  C   UNL A   1      42.533  28.743  33.504  1.00  0.00     0.049 A 
ATOM     66  H   UNL A   1      41.015  30.112  32.985  1.00  0.00     0.167 HD
ATOM     67  C   UNL A   1      42.354  30.233  35.479  1.00  0.00     0.074 A 
ATOM     68  C   UNL A   1      42.728  30.648  36.814  1.00  0.00     0.031 C 
ATOM     69  C   UNL A   1      42.904  29.177  34.828  1.00  0.00     0.037 A 
BRANCH  56  70
ATOM     70  C   UNL A   1      40.499  28.164  29.227  1.00  0.00     0.064 A 
ATOM     71  C   UNL A   1      41.254  28.486  28.088  1.00  0.00     0.173 A 
ATOM     72  C   UNL A   1      39.698  27.013  29.181  1.00  0.00     0.173 A 
ATOM     73  F   UNL A   1      42.014  29.591  28.072  1.00  0.00    -0.203 F 
ATOM     74  C   UNL A   1      41.186  27.702  26.940  1.00  0.00     0.198 A 
ATOM     75  C   UNL A   1      39.660  26.212  28.043  1.00  0.00     0.198 A 
ATOM     76  F   UNL A   1      38.952  26.665  30.239  1.00  0.00    -0.203 F 
ATOM     77  F   UNL A   1      41.867  28.061  25.844  1.00  0.00    -0.200 F 
ATOM     78  C   UNL A   1      40.396  26.561  26.921  1.00  0.00     0.200 A 
ATOM     79  F   UNL A   1      38.905  25.105  28.032  1.00  0.00    -0.200 F 
ATOM     80  F   UNL A   1      40.337  25.804  25.817  1.00  0.00    -0.200 F 
ENDBRANCH  56  70
BRANCH  57  81
ATOM     81  C   UNL A   1      40.200  33.985  37.346  1.00  0.00     0.064 A 
ATOM     82  C   UNL A   1      41.082  35.058  37.533  1.00  0.00     0.173 A 
ATOM     83  C   UNL A   1      39.291  33.704  38.378  1.00  0.00     0.173 A 
ATOM     84  F   UNL A   1      41.992  35.349  36.592  1.00  0.00    -0.203 F 
ATOM     85  C   UNL A   1      41.071  35.805  38.711  1.00  0.00     0.198 A 
ATOM     86  C   UNL A   1      39.260  34.471  39.541  1.00  0.00     0.198 A 
ATOM     87  F   UNL A   1      38.431  32.683  38.256  1.00  0.00    -0.203 F 
ATOM     88  F   UNL A   1      41.962  36.791  38.885  1.00  0.00    -0.200 F 
ATOM     89  C   UNL A   1      40.155  35.515  39.711  1.00  0.00     0.200 A 
ATOM     90  F   UNL A   1      38.367  34.193  40.501  1.00  0.00    -0.200 F 
ATOM     91  F   UNL A   1      40.144  36.235  40.841  1.00  0.00    -0.200 F 
ENDBRANCH  57  81
BRANCH  69  92
ATOM     92  C   UNL A   1      44.007  28.425  35.518  1.00  0.00     0.064 A 
ATOM     93  C   UNL A   1      45.359  28.737  35.314  1.00  0.00     0.173 A 
ATOM     94  C   UNL A   1      43.700  27.414  36.443  1.00  0.00     0.173 A 
ATOM     95  F   UNL A   1      45.709  29.688  34.435  1.00  0.00    -0.203 F 
ATOM     96  C   UNL A   1      46.363  28.046  35.991  1.00  0.00     0.198 A 
ATOM     97  C   UNL A   1      44.704  26.751  37.144  1.00  0.00     0.198 A 
ATOM     98  F   UNL A   1      42.422  27.084  36.686  1.00  0.00    -0.203 F 
ATOM     99  F   UNL A   1      47.650  28.327  35.744  1.00  0.00    -0.200 F 
ATOM    100  C   UNL A   1      46.034  27.062  36.911  1.00  0.00     0.200 A 
ATOM    101  F   UNL A   1      44.382  25.815  38.047  1.00  0.00    -0.200 F 
ATOM    102  F   UNL A   1      47.000  26.407  37.569  1.00  0.00    -0.200 F 
ENDBRANCH  69  92
ENDBRANCH  43  44
ENDBRANCH  36  38
ENDBRANCH  35  36
ENDBRANCH  34  35
ENDBRANCH  33  34
ENDBRANCH  32  33
ENDBRANCH  31  32
ENDBRANCH  30  31
ENDBRANCH  29  30
ENDBRANCH   1  29
TORSDOF 25
ENDMDL
MODEL 3
REMARK VINA RESULT:     -11.0      2.064      8.160
REMARK SMILES C[C@H](Cc1cccs1)NC(=O)N[C@](C)(C(=O)OCCOCCOCCOCCOC(=O)c1ccc(-c2c3nc(c(-c4c(F)c(F)c(F)c(F)c4F)c4ccc([nH]4)c(-c4c(F)c(F)c(F)c(F)c4F)c4nc(c(-c5c(F)c(F)c(F)c(F)c5F)c5ccc2[nH]5)C=C4)C=C3)cc1)C(F)(F)F
REMARK SMILES IDX 22 1 21 2 20 3 19 4 18 5 17 6 15 7 16 8 13 9 14 10 12 11
REMARK SMILES IDX 9 12 10 13 11 15 2 17 1 18 3 19 4 20 5 21 8 22 6 23 7 24
REMARK SMILES IDX 95 25 96 26 97 27 98 28 23 29 24 30 25 31 26 32 27 33 28 34
REMARK SMILES IDX 29 35 30 36 31 37 32 38 33 39 94 40 34 41 93 42 35 43 36 44
REMARK SMILES IDX 37 45 87 46 38 47 92 48 86 49 88 50 39 51 91 52 85 53 84 54
REMARK SMILES IDX 40 56 72 57 52 58 71 59 53 60 56 61 70 62 89 63 54 64 55 65
REMARK SMILES IDX 69 67 90 68 57 69 41 70 42 71 50 72 43 73 44 74 48 75 51 76
REMARK SMILES IDX 45 77 46 78 49 79 47 80 73 81 74 82 82 83 75 84 76 85 80 86
REMARK SMILES IDX 83 87 77 88 78 89 81 90 79 91 58 92 59 93 67 94 60 95 61 96
REMARK SMILES IDX 65 97 68 98 62 99 63 100 66 101 64 102
REMARK H PARENT 9 14 12 16 88 55 56 66
REMARK Flexibility Score: inf
ROOT
ATOM      1  C   UNL A   1      32.346  22.759  27.457  1.00  0.00     0.188 C 
ENDROOT
BRANCH   1   2
ATOM      2  C   UNL A   1      33.929  22.548  27.568  1.00  0.00     0.188 C 
BRANCH   2   3
ATOM      3  O   UNL A   1      34.646  21.704  26.531  1.00  0.00    -0.376 OA
BRANCH   3   4
ATOM      4  C   UNL A   1      34.203  21.121  25.142  1.00  0.00     0.202 C 
BRANCH   4   5
ATOM      5  C   UNL A   1      32.574  21.250  24.263  1.00  0.00     0.261 C 
BRANCH   5   6
ATOM      6  O   UNL A   1      31.698  22.636  24.102  1.00  0.00    -0.461 OA
BRANCH   6   7
ATOM      7  C   UNL A   1      31.591  23.847  23.384  1.00  0.00     0.341 C 
ATOM      8  O   UNL A   1      30.492  24.398  23.270  1.00  0.00    -0.249 OA
BRANCH   7   9
ATOM      9  C   UNL A   1      32.965  24.460  22.468  1.00  0.00     0.232 C 
ATOM     10  C   UNL A   1      33.488  25.720  21.653  1.00  0.00     0.058 C 
BRANCH   9  11
ATOM     11  N   UNL A   1      33.807  24.525  23.647  1.00  0.00    -0.315 N 
ATOM     12  N   UNL A   1      32.890  26.631  24.156  1.00  0.00    -0.335 N 
ATOM     13  C   UNL A   1      33.651  25.561  24.511  1.00  0.00     0.316 C 
ATOM     14  H   UNL A   1      32.621  27.154  24.946  1.00  0.00     0.165 HD
ATOM     15  O   UNL A   1      34.101  25.483  25.648  1.00  0.00    -0.249 OA
ATOM     16  H   UNL A   1      34.480  23.827  23.819  1.00  0.00     0.166 HD
BRANCH  12  17
ATOM     17  C   UNL A   1      32.348  27.238  22.894  1.00  0.00     0.086 C 
ATOM     18  C   UNL A   1      33.497  28.216  22.423  1.00  0.00     0.031 C 
BRANCH  17  19
ATOM     19  C   UNL A   1      30.864  27.905  22.739  1.00  0.00     0.071 C 
BRANCH  19  20
ATOM     20  C   UNL A   1      29.586  29.220  22.943  1.00  0.00     0.007 A 
ATOM     21  C   UNL A   1      29.602  30.390  23.809  1.00  0.00     0.015 A 
ATOM     22  S   UNL A   1      27.841  29.262  22.663  1.00  0.00    -0.149 S 
ATOM     23  C   UNL A   1      28.683  31.440  23.553  1.00  0.00     0.012 A 
ATOM     24  C   UNL A   1      27.581  30.892  22.992  1.00  0.00     0.065 A 
ENDBRANCH  19  20
ENDBRANCH  17  19
ENDBRANCH  12  17
ENDBRANCH   9  11
BRANCH   9  25
ATOM     25  C   UNL A   1      33.232  23.423  21.329  1.00  0.00     0.422 C 
ATOM     26  F   UNL A   1      33.205  24.062  20.120  1.00  0.00    -0.168 F 
ATOM     27  F   UNL A   1      34.494  22.903  21.410  1.00  0.00    -0.168 F 
ATOM     28  F   UNL A   1      32.410  22.374  21.255  1.00  0.00    -0.168 F 
ENDBRANCH   9  25
ENDBRANCH   7   9
ENDBRANCH   6   7
ENDBRANCH   5   6
ENDBRANCH   4   5
ENDBRANCH   3   4
ENDBRANCH   2   3
ENDBRANCH   1   2
BRANCH   1  29
ATOM     29  O   UNL A   1      31.906  24.085  27.491  1.00  0.00    -0.377 OA
BRANCH  29  30
ATOM     30  C   UNL A   1      30.706  24.253  26.771  1.00  0.00     0.188 C 
BRANCH  30  31
ATOM     31  C   UNL A   1      30.381  25.712  26.356  1.00  0.00     0.188 C 
BRANCH  31  32
ATOM     32  O   UNL A   1      31.212  26.717  26.920  1.00  0.00    -0.376 OA
BRANCH  32  33
ATOM     33  C   UNL A   1      31.215  28.045  26.413  1.00  0.00     0.202 C 
BRANCH  33  34
ATOM     34  C   UNL A   1      31.826  29.247  27.163  1.00  0.00     0.261 C 
BRANCH  34  35
ATOM     35  O   UNL A   1      32.873  30.000  26.535  1.00  0.00    -0.460 OA
BRANCH  35  36
ATOM     36  C   UNL A   1      33.270  31.166  27.078  1.00  0.00     0.338 C 
ATOM     37  O   UNL A   1      32.582  32.169  27.242  1.00  0.00    -0.246 OA
BRANCH  36  38
ATOM     38  C   UNL A   1      34.597  30.927  27.710  1.00  0.00     0.060 A 
ATOM     39  C   UNL A   1      35.071  29.604  27.828  1.00  0.00     0.016 A 
ATOM     40  C   UNL A   1      35.452  31.996  28.001  1.00  0.00     0.016 A 
ATOM     41  C   UNL A   1      36.381  29.353  28.241  1.00  0.00     0.010 A 
ATOM     42  C   UNL A   1      36.739  31.742  28.488  1.00  0.00     0.010 A 
ATOM     43  C   UNL A   1      37.191  30.419  28.648  1.00  0.00    -0.014 A 
BRANCH  43  44
ATOM     44  C   UNL A   1      38.302  30.133  29.589  1.00  0.00     0.031 A 
ATOM     45  C   UNL A   1      39.355  29.174  29.099  1.00  0.00     0.074 A 
ATOM     46  C   UNL A   1      38.415  30.704  30.800  1.00  0.00     0.049 A 
ATOM     47  N   UNL A   1      40.406  28.696  29.712  1.00  0.00    -0.248 NA
ATOM     48  C   UNL A   1      39.192  28.686  27.717  1.00  0.00     0.031 C 
ATOM     49  C   UNL A   1      37.504  31.694  31.366  1.00  0.00     0.029 A 
ATOM     50  N   UNL A   1      39.362  30.516  31.778  1.00  0.00    -0.354 N 
ATOM     51  C   UNL A   1      41.016  27.849  28.795  1.00  0.00     0.074 A 
ATOM     52  C   UNL A   1      40.210  27.851  27.598  1.00  0.00     0.031 C 
ATOM     53  C   UNL A   1      37.925  32.011  32.605  1.00  0.00     0.029 A 
ATOM     54  C   UNL A   1      39.115  31.223  32.929  1.00  0.00     0.049 A 
ATOM     55  H   UNL A   1      40.144  29.928  31.665  1.00  0.00     0.167 HD
ATOM     56  C   UNL A   1      42.154  27.132  28.933  1.00  0.00     0.037 A 
ATOM     57  C   UNL A   1      39.764  31.207  34.111  1.00  0.00     0.037 A 
ATOM     58  C   UNL A   1      42.950  27.117  30.128  1.00  0.00     0.049 A 
ATOM     59  C   UNL A   1      40.982  30.326  34.278  1.00  0.00     0.074 A 
ATOM     60  C   UNL A   1      44.123  26.428  30.371  1.00  0.00     0.029 A 
ATOM     61  N   UNL A   1      42.643  27.815  31.286  1.00  0.00    -0.354 N 
ATOM     62  N   UNL A   1      41.567  29.541  33.404  1.00  0.00    -0.248 NA
ATOM     63  C   UNL A   1      41.631  30.331  35.598  1.00  0.00     0.031 C 
ATOM     64  C   UNL A   1      44.492  26.657  31.700  1.00  0.00     0.029 A 
ATOM     65  C   UNL A   1      43.590  27.549  32.259  1.00  0.00     0.049 A 
ATOM     66  H   UNL A   1      41.867  28.411  31.399  1.00  0.00     0.167 HD
ATOM     67  C   UNL A   1      42.667  28.991  34.054  1.00  0.00     0.074 A 
ATOM     68  C   UNL A   1      42.674  29.539  35.394  1.00  0.00     0.031 C 
ATOM     69  C   UNL A   1      43.590  28.115  33.585  1.00  0.00     0.037 A 
BRANCH  56  70
ATOM     70  C   UNL A   1      42.569  26.272  27.777  1.00  0.00     0.064 A 
ATOM     71  C   UNL A   1      43.511  26.705  26.830  1.00  0.00     0.173 A 
ATOM     72  C   UNL A   1      42.016  24.993  27.615  1.00  0.00     0.173 A 
ATOM     73  F   UNL A   1      44.049  27.931  26.924  1.00  0.00    -0.203 F 
ATOM     74  C   UNL A   1      43.862  25.901  25.750  1.00  0.00     0.198 A 
ATOM     75  C   UNL A   1      42.396  24.177  26.553  1.00  0.00     0.198 A 
ATOM     76  F   UNL A   1      41.107  24.534  28.487  1.00  0.00    -0.203 F 
ATOM     77  F   UNL A   1      44.717  26.358  24.825  1.00  0.00    -0.200 F 
ATOM     78  C   UNL A   1      43.311  24.634  25.617  1.00  0.00     0.200 A 
ATOM     79  F   UNL A   1      41.870  22.951  26.434  1.00  0.00    -0.200 F 
ATOM     80  F   UNL A   1      43.654  23.858  24.580  1.00  0.00    -0.200 F 
ENDBRANCH  56  70
BRANCH  57  81
ATOM     81  C   UNL A   1      39.272  32.033  35.248  1.00  0.00     0.064 A 
ATOM     82  C   UNL A   1      39.620  33.387  35.368  1.00  0.00     0.173 A 
ATOM     83  C   UNL A   1      38.473  31.478  36.259  1.00  0.00     0.173 A 
ATOM     84  F   UNL A   1      40.409  33.958  34.446  1.00  0.00    -0.203 F 
ATOM     85  C   UNL A   1      39.205  34.146  36.461  1.00  0.00     0.198 A 
ATOM     86  C   UNL A   1      38.032  32.246  37.335  1.00  0.00     0.198 A 
ATOM     87  F   UNL A   1      38.118  30.186  36.200  1.00  0.00    -0.203 F 
ATOM     88  F   UNL A   1      39.598  35.422  36.576  1.00  0.00    -0.200 F 
ATOM     89  C   UNL A   1      38.406  33.576  37.441  1.00  0.00     0.200 A 
ATOM     90  F   UNL A   1      37.252  31.693  38.274  1.00  0.00    -0.200 F 
ATOM     91  F   UNL A   1      38.005  34.307  38.489  1.00  0.00    -0.200 F 
ENDBRANCH  57  81
BRANCH  69  92
ATOM     92  C   UNL A   1      44.721  27.731  34.499  1.00  0.00     0.064 A 
ATOM     93  C   UNL A   1      45.875  28.518  34.623  1.00  0.00     0.173 A 
ATOM     94  C   UNL A   1      44.617  26.588  35.307  1.00  0.00     0.173 A 
ATOM     95  F   UNL A   1      46.028  29.617  33.869  1.00  0.00    -0.203 F 
ATOM     96  C   UNL A   1      46.895  28.159  35.502  1.00  0.00     0.198 A 
ATOM     97  C   UNL A   1      45.623  26.251  36.209  1.00  0.00     0.198 A 
ATOM     98  F   UNL A   1      43.529  25.806  35.237  1.00  0.00    -0.203 F 
ATOM     99  F   UNL A   1      48.011  28.898  35.568  1.00  0.00    -0.200 F 
ATOM    100  C   UNL A   1      46.764  27.032  36.300  1.00  0.00     0.200 A 
ATOM    101  F   UNL A   1      45.483  25.173  36.994  1.00  0.00    -0.200 F 
ATOM    102  F   UNL A   1      47.740  26.695  37.153  1.00  0.00    -0.200 F 
ENDBRANCH  69  92
ENDBRANCH  43  44
ENDBRANCH  36  38
ENDBRANCH  35  36
ENDBRANCH  34  35
ENDBRANCH  33  34
ENDBRANCH  32  33
ENDBRANCH  31  32
ENDBRANCH  30  31
ENDBRANCH  29  30
ENDBRANCH   1  29
TORSDOF 25
ENDMDL
