MODEL 1
REMARK VINA RESULT:      -8.2      0.000      0.000
REMARK SMILES O=C(OCCOCCOCCOCCOC(=O)[C@H]1SC=C[C@@H]1S(=O)(=O)NCCC1=c2ccccc2=NC1)c1ccc(-c2c3nc(c(-c4c(F)c(F)c(F)c(F)c4F)c4ccc([nH]4)c(-c4c(F)c(F)c(F)c(F)c4F)c4nc(c(-c5c(F)c(F)c(F)c(F)c5F)c5ccc2[nH]5)C=C4)C=C3)cc1
REMARK SMILES IDX 10 1 9 2 8 3 7 4 6 5 5 6 4 7 3 8 2 9 1 10 38 11 39 12 100 13
REMARK SMILES IDX 40 14 99 15 41 16 42 17 43 18 93 19 44 20 98 21 92 22 94 23
REMARK SMILES IDX 45 24 97 25 91 26 90 27 46 29 78 30 58 31 77 32 59 33 62 34
REMARK SMILES IDX 76 35 95 36 60 37 61 38 75 40 96 41 63 42 47 43 48 44 56 45
REMARK SMILES IDX 49 46 50 47 54 48 57 49 51 50 52 51 55 52 53 53 79 54 80 55
REMARK SMILES IDX 88 56 81 57 82 58 86 59 89 60 83 61 84 62 87 63 85 64 64 65
REMARK SMILES IDX 65 66 73 67 66 68 67 69 71 70 74 71 68 72 69 73 72 74 70 75
REMARK SMILES IDX 11 76 12 77 13 78 14 79 15 80 16 81 17 82 18 83 19 84 22 85
REMARK SMILES IDX 20 86 21 87 23 88 24 89 25 90 26 91 27 93 28 94 29 95 30 96
REMARK SMILES IDX 37 97 31 98 35 99 36 100 32 101 34 102 33 103
REMARK H PARENT 94 28 62 39 26 92
REMARK Flexibility Score: inf
ROOT
ATOM      1  C   UNL A   1      46.126  19.124  25.374  1.00  0.00     0.188 C 
ENDROOT
BRANCH   1   2
ATOM      2  O   UNL A   1      46.680  20.361  24.965  1.00  0.00    -0.377 OA
BRANCH   2   3
ATOM      3  C   UNL A   1      45.763  21.338  24.486  1.00  0.00     0.188 C 
BRANCH   3   4
ATOM      4  C   UNL A   1      46.287  22.769  24.309  1.00  0.00     0.188 C 
BRANCH   4   5
ATOM      5  O   UNL A   1      45.737  23.713  25.234  1.00  0.00    -0.376 OA
BRANCH   5   6
ATOM      6  C   UNL A   1      46.658  24.550  25.925  1.00  0.00     0.202 C 
BRANCH   6   7
ATOM      7  C   UNL A   1      47.605  25.389  25.073  1.00  0.00     0.261 C 
BRANCH   7   8
ATOM      8  O   UNL A   1      47.003  26.372  24.222  1.00  0.00    -0.460 OA
BRANCH   8   9
ATOM      9  C   UNL A   1      46.577  27.633  24.444  1.00  0.00     0.338 C 
ATOM     10  O   UNL A   1      46.789  28.459  23.556  1.00  0.00    -0.246 OA
BRANCH   9  11
ATOM     11  C   UNL A   1      45.933  28.130  25.702  1.00  0.00     0.060 A 
ATOM     12  C   UNL A   1      46.807  28.623  26.693  1.00  0.00     0.016 A 
ATOM     13  C   UNL A   1      44.570  28.106  25.999  1.00  0.00     0.016 A 
ATOM     14  C   UNL A   1      46.337  29.043  27.939  1.00  0.00     0.010 A 
ATOM     15  C   UNL A   1      44.097  28.462  27.258  1.00  0.00     0.010 A 
ATOM     16  C   UNL A   1      44.975  28.951  28.224  1.00  0.00    -0.014 A 
BRANCH  16  17
ATOM     17  C   UNL A   1      44.384  29.573  29.419  1.00  0.00     0.031 A 
ATOM     18  C   UNL A   1      44.120  31.039  29.485  1.00  0.00     0.074 A 
ATOM     19  C   UNL A   1      44.277  28.780  30.499  1.00  0.00     0.049 A 
ATOM     20  N   UNL A   1      43.644  31.741  30.480  1.00  0.00    -0.248 NA
ATOM     21  C   UNL A   1      44.468  31.828  28.295  1.00  0.00     0.031 C 
ATOM     22  C   UNL A   1      44.641  27.360  30.526  1.00  0.00     0.029 A 
ATOM     23  N   UNL A   1      43.883  29.050  31.778  1.00  0.00    -0.354 N 
ATOM     24  C   UNL A   1      43.602  33.052  30.029  1.00  0.00     0.074 A 
ATOM     25  C   UNL A   1      44.173  33.058  28.697  1.00  0.00     0.031 C 
ATOM     26  C   UNL A   1      44.454  26.883  31.762  1.00  0.00     0.029 A 
ATOM     27  C   UNL A   1      43.956  27.960  32.606  1.00  0.00     0.049 A 
ATOM     28  H   UNL A   1      43.576  29.937  32.075  1.00  0.00     0.167 HD
ATOM     29  C   UNL A   1      43.105  34.135  30.673  1.00  0.00     0.037 A 
ATOM     30  C   UNL A   1      43.635  27.846  33.905  1.00  0.00     0.037 A 
ATOM     31  C   UNL A   1      42.596  34.083  32.024  1.00  0.00     0.049 A 
ATOM     32  C   UNL A   1      43.077  29.051  34.596  1.00  0.00     0.074 A 
ATOM     33  C   UNL A   1      42.012  35.088  32.774  1.00  0.00     0.029 A 
ATOM     34  N   UNL A   1      42.639  32.955  32.838  1.00  0.00    -0.354 N 
ATOM     35  N   UNL A   1      42.908  30.264  34.125  1.00  0.00    -0.248 NA
ATOM     36  C   UNL A   1      42.641  28.870  35.982  1.00  0.00     0.031 C 
ATOM     37  C   UNL A   1      41.755  34.583  34.054  1.00  0.00     0.029 A 
ATOM     38  C   UNL A   1      42.122  33.246  34.090  1.00  0.00     0.049 A 
ATOM     39  H   UNL A   1      42.987  32.075  32.563  1.00  0.00     0.167 HD
ATOM     40  C   UNL A   1      42.337  30.996  35.153  1.00  0.00     0.074 A 
ATOM     41  C   UNL A   1      42.157  30.073  36.260  1.00  0.00     0.031 C 
ATOM     42  C   UNL A   1      41.999  32.311  35.185  1.00  0.00     0.037 A 
BRANCH  29  43
ATOM     43  C   UNL A   1      43.067  35.441  29.926  1.00  0.00     0.064 A 
ATOM     44  C   UNL A   1      44.045  36.430  30.135  1.00  0.00     0.173 A 
ATOM     45  C   UNL A   1      42.081  35.703  28.962  1.00  0.00     0.173 A 
ATOM     46  F   UNL A   1      45.012  36.242  31.046  1.00  0.00    -0.203 F 
ATOM     47  C   UNL A   1      44.017  37.635  29.436  1.00  0.00     0.198 A 
ATOM     48  C   UNL A   1      42.075  36.896  28.240  1.00  0.00     0.198 A 
ATOM     49  F   UNL A   1      41.121  34.798  28.712  1.00  0.00    -0.203 F 
ATOM     50  F   UNL A   1      44.931  38.579  29.697  1.00  0.00    -0.200 F 
ATOM     51  C   UNL A   1      43.037  37.864  28.483  1.00  0.00     0.200 A 
ATOM     52  F   UNL A   1      41.135  37.110  27.309  1.00  0.00    -0.200 F 
ATOM     53  F   UNL A   1      43.016  39.020  27.805  1.00  0.00    -0.200 F 
ENDBRANCH  29  43
BRANCH  30  54
ATOM     54  C   UNL A   1      43.721  26.511  34.544  1.00  0.00     0.064 A 
ATOM     55  C   UNL A   1      42.568  25.730  34.695  1.00  0.00     0.173 A 
ATOM     56  C   UNL A   1      44.954  25.931  34.881  1.00  0.00     0.173 A 
ATOM     57  F   UNL A   1      41.369  26.243  34.382  1.00  0.00    -0.203 F 
ATOM     58  C   UNL A   1      42.642  24.417  35.153  1.00  0.00     0.198 A 
ATOM     59  C   UNL A   1      45.029  24.609  35.318  1.00  0.00     0.198 A 
ATOM     60  F   UNL A   1      46.089  26.629  34.726  1.00  0.00    -0.203 F 
ATOM     61  F   UNL A   1      41.523  23.694  35.287  1.00  0.00    -0.200 F 
ATOM     62  C   UNL A   1      43.874  23.854  35.452  1.00  0.00     0.200 A 
ATOM     63  F   UNL A   1      46.222  24.058  35.576  1.00  0.00    -0.200 F 
ATOM     64  F   UNL A   1      43.948  22.579  35.856  1.00  0.00    -0.200 F 
ENDBRANCH  30  54
BRANCH  42  65
ATOM     65  C   UNL A   1      41.434  32.818  36.480  1.00  0.00     0.064 A 
ATOM     66  C   UNL A   1      42.272  33.262  37.515  1.00  0.00     0.173 A 
ATOM     67  C   UNL A   1      40.048  32.868  36.688  1.00  0.00     0.173 A 
ATOM     68  F   UNL A   1      43.605  33.219  37.370  1.00  0.00    -0.203 F 
ATOM     69  C   UNL A   1      41.743  33.698  38.726  1.00  0.00     0.198 A 
ATOM     70  C   UNL A   1      39.523  33.343  37.886  1.00  0.00     0.198 A 
ATOM     71  F   UNL A   1      39.204  32.462  35.729  1.00  0.00    -0.203 F 
ATOM     72  F   UNL A   1      42.565  34.052  39.724  1.00  0.00    -0.200 F 
ATOM     73  C   UNL A   1      40.370  33.745  38.907  1.00  0.00     0.200 A 
ATOM     74  F   UNL A   1      38.194  33.404  38.055  1.00  0.00    -0.200 F 
ATOM     75  F   UNL A   1      39.862  34.168  40.074  1.00  0.00    -0.200 F 
ENDBRANCH  42  65
ENDBRANCH  16  17
ENDBRANCH   9  11
ENDBRANCH   8   9
ENDBRANCH   7   8
ENDBRANCH   6   7
ENDBRANCH   5   6
ENDBRANCH   4   5
ENDBRANCH   3   4
ENDBRANCH   2   3
ENDBRANCH   1   2
BRANCH   1  76
ATOM     76  C   UNL A   1      44.648  18.830  25.014  1.00  0.00     0.188 C 
BRANCH  76  77
ATOM     77  O   UNL A   1      43.900  18.163  26.016  1.00  0.00    -0.376 OA
BRANCH  77  78
ATOM     78  C   UNL A   1      42.515  18.481  26.131  1.00  0.00     0.202 C 
BRANCH  78  79
ATOM     79  C   UNL A   1      42.085  19.598  27.098  1.00  0.00     0.261 C 
BRANCH  79  80
ATOM     80  O   UNL A   1      41.354  20.669  26.483  1.00  0.00    -0.462 OA
BRANCH  80  81
ATOM     81  C   UNL A   1      42.014  21.818  26.173  1.00  0.00     0.321 C 
ATOM     82  O   UNL A   1      42.624  22.004  25.129  1.00  0.00    -0.251 OA
BRANCH  81  83
ATOM     83  C   UNL A   1      41.697  22.878  27.216  1.00  0.00     0.184 C 
ATOM     84  S   UNL A   1      42.906  22.778  28.588  1.00  0.00    -0.117 SA
ATOM     85  C   UNL A   1      41.728  24.294  26.657  1.00  0.00     0.172 C 
ATOM     86  C   UNL A   1      43.667  24.246  28.114  1.00  0.00     0.039 C 
ATOM     87  C   UNL A   1      43.012  24.915  27.160  1.00  0.00     0.003 C 
BRANCH  85  88
ATOM     88  S   UNL A   1      40.309  25.277  27.295  1.00  0.00     0.219 S 
ATOM     89  O   UNL A   1      39.134  25.072  26.489  1.00  0.00    -0.212 OA
ATOM     90  O   UNL A   1      40.251  25.120  28.740  1.00  0.00    -0.212 OA
BRANCH  88  91
ATOM     91  N   UNL A   1      40.771  26.875  27.124  1.00  0.00    -0.214 NA
ATOM     92  H   UNL A   1      40.857  27.021  26.118  1.00  0.00     0.141 HD
BRANCH  91  93
ATOM     93  C   UNL A   1      40.041  28.049  27.621  1.00  0.00     0.103 C 
BRANCH  93  94
ATOM     94  C   UNL A   1      40.862  29.094  28.402  1.00  0.00     0.050 C 
BRANCH  94  95
ATOM     95  C   UNL A   1      40.515  29.321  29.846  1.00  0.00    -0.038 C 
ATOM     96  C   UNL A   1      40.099  30.456  30.412  1.00  0.00     0.001 A 
ATOM     97  C   UNL A   1      40.556  28.225  30.868  1.00  0.00     0.174 C 
ATOM     98  C   UNL A   1      39.817  31.782  29.954  1.00  0.00     0.010 A 
ATOM     99  C   UNL A   1      39.906  30.077  31.822  1.00  0.00     0.065 A 
ATOM    100  N   UNL A   1      40.154  28.847  32.152  1.00  0.00    -0.280 NA
ATOM    101  C   UNL A   1      39.390  32.697  30.842  1.00  0.00     0.001 A 
ATOM    102  C   UNL A   1      39.453  31.142  32.741  1.00  0.00     0.028 A 
ATOM    103  C   UNL A   1      39.220  32.370  32.248  1.00  0.00     0.002 A 
ENDBRANCH  94  95
ENDBRANCH  93  94
ENDBRANCH  91  93
ENDBRANCH  88  91
ENDBRANCH  85  88
ENDBRANCH  81  83
ENDBRANCH  80  81
ENDBRANCH  79  80
ENDBRANCH  78  79
ENDBRANCH  77  78
ENDBRANCH  76  77
ENDBRANCH   1  76
TORSDOF 25
ENDMDL
MODEL 2
REMARK VINA RESULT:      -7.3      2.924      7.770
REMARK SMILES O=C(OCCOCCOCCOCCOC(=O)[C@H]1SC=C[C@@H]1S(=O)(=O)NCCC1=c2ccccc2=NC1)c1ccc(-c2c3nc(c(-c4c(F)c(F)c(F)c(F)c4F)c4ccc([nH]4)c(-c4c(F)c(F)c(F)c(F)c4F)c4nc(c(-c5c(F)c(F)c(F)c(F)c5F)c5ccc2[nH]5)C=C4)C=C3)cc1
REMARK SMILES IDX 10 1 9 2 8 3 7 4 6 5 5 6 4 7 3 8 2 9 1 10 38 11 39 12 100 13
REMARK SMILES IDX 40 14 99 15 41 16 42 17 43 18 93 19 44 20 98 21 92 22 94 23
REMARK SMILES IDX 45 24 97 25 91 26 90 27 46 29 78 30 58 31 77 32 59 33 62 34
REMARK SMILES IDX 76 35 95 36 60 37 61 38 75 40 96 41 63 42 47 43 48 44 56 45
REMARK SMILES IDX 49 46 50 47 54 48 57 49 51 50 52 51 55 52 53 53 79 54 80 55
REMARK SMILES IDX 88 56 81 57 82 58 86 59 89 60 83 61 84 62 87 63 85 64 64 65
REMARK SMILES IDX 65 66 73 67 66 68 67 69 71 70 74 71 68 72 69 73 72 74 70 75
REMARK SMILES IDX 11 76 12 77 13 78 14 79 15 80 16 81 17 82 18 83 19 84 22 85
REMARK SMILES IDX 20 86 21 87 23 88 24 89 25 90 26 91 27 93 28 94 29 95 30 96
REMARK SMILES IDX 37 97 31 98 35 99 36 100 32 101 34 102 33 103
REMARK H PARENT 94 28 62 39 26 92
REMARK Flexibility Score: inf
ROOT
ATOM      1  C   UNL A   1      45.007  20.551  24.198  1.00  0.00     0.188 C 
ENDROOT
BRANCH   1   2
ATOM      2  O   UNL A   1      44.022  19.534  24.201  1.00  0.00    -0.377 OA
BRANCH   2   3
ATOM      3  C   UNL A   1      43.953  18.723  25.369  1.00  0.00     0.188 C 
BRANCH   3   4
ATOM      4  C   UNL A   1      42.586  18.594  26.056  1.00  0.00     0.188 C 
BRANCH   4   5
ATOM      5  O   UNL A   1      41.591  19.490  25.552  1.00  0.00    -0.376 OA
BRANCH   5   6
ATOM      6  C   UNL A   1      41.075  20.456  26.462  1.00  0.00     0.202 C 
BRANCH   6   7
ATOM      7  C   UNL A   1      39.887  21.288  25.991  1.00  0.00     0.261 C 
BRANCH   7   8
ATOM      8  O   UNL A   1      39.475  22.362  26.845  1.00  0.00    -0.460 OA
BRANCH   8   9
ATOM      9  C   UNL A   1      39.014  23.604  26.591  1.00  0.00     0.338 C 
ATOM     10  O   UNL A   1      38.240  23.730  25.641  1.00  0.00    -0.246 OA
BRANCH   9  11
ATOM     11  C   UNL A   1      39.414  24.851  27.318  1.00  0.00     0.060 A 
ATOM     12  C   UNL A   1      38.909  24.995  28.626  1.00  0.00     0.016 A 
ATOM     13  C   UNL A   1      40.190  25.892  26.809  1.00  0.00     0.016 A 
ATOM     14  C   UNL A   1      39.146  26.148  29.379  1.00  0.00     0.010 A 
ATOM     15  C   UNL A   1      40.381  27.071  27.523  1.00  0.00     0.010 A 
ATOM     16  C   UNL A   1      39.878  27.194  28.817  1.00  0.00    -0.014 A 
BRANCH  16  17
ATOM     17  C   UNL A   1      40.350  28.334  29.618  1.00  0.00     0.031 A 
ATOM     18  C   UNL A   1      41.668  28.304  30.315  1.00  0.00     0.074 A 
ATOM     19  C   UNL A   1      39.450  29.309  29.837  1.00  0.00     0.049 A 
ATOM     20  N   UNL A   1      42.205  29.210  31.090  1.00  0.00    -0.248 NA
ATOM     21  C   UNL A   1      42.476  27.087  30.151  1.00  0.00     0.031 C 
ATOM     22  C   UNL A   1      38.094  29.327  29.279  1.00  0.00     0.029 A 
ATOM     23  N   UNL A   1      39.513  30.434  30.606  1.00  0.00    -0.354 N 
ATOM     24  C   UNL A   1      43.429  28.690  31.482  1.00  0.00     0.074 A 
ATOM     25  C   UNL A   1      43.522  27.357  30.922  1.00  0.00     0.031 C 
ATOM     26  C   UNL A   1      37.451  30.411  29.727  1.00  0.00     0.029 A 
ATOM     27  C   UNL A   1      38.349  31.160  30.596  1.00  0.00     0.049 A 
ATOM     28  H   UNL A   1      40.311  30.699  31.117  1.00  0.00     0.167 HD
ATOM     29  C   UNL A   1      44.388  29.296  32.224  1.00  0.00     0.037 A 
ATOM     30  C   UNL A   1      38.053  32.317  31.209  1.00  0.00     0.037 A 
ATOM     31  C   UNL A   1      44.222  30.607  32.806  1.00  0.00     0.049 A 
ATOM     32  C   UNL A   1      39.130  32.976  32.015  1.00  0.00     0.074 A 
ATOM     33  C   UNL A   1      45.130  31.361  33.528  1.00  0.00     0.029 A 
ATOM     34  N   UNL A   1      43.046  31.350  32.749  1.00  0.00    -0.354 N 
ATOM     35  N   UNL A   1      40.342  32.547  32.275  1.00  0.00    -0.248 NA
ATOM     36  C   UNL A   1      38.811  34.285  32.589  1.00  0.00     0.031 C 
ATOM     37  C   UNL A   1      44.486  32.530  33.953  1.00  0.00     0.029 A 
ATOM     38  C   UNL A   1      43.194  32.538  33.448  1.00  0.00     0.049 A 
ATOM     39  H   UNL A   1      42.227  31.072  32.279  1.00  0.00     0.167 HD
ATOM     40  C   UNL A   1      40.941  33.535  33.038  1.00  0.00     0.074 A 
ATOM     41  C   UNL A   1      39.964  34.602  33.163  1.00  0.00     0.031 C 
ATOM     42  C   UNL A   1      42.181  33.559  33.590  1.00  0.00     0.037 A 
BRANCH  29  43
ATOM     43  C   UNL A   1      45.689  28.565  32.424  1.00  0.00     0.064 A 
ATOM     44  C   UNL A   1      45.918  27.784  33.571  1.00  0.00     0.173 A 
ATOM     45  C   UNL A   1      46.702  28.601  31.454  1.00  0.00     0.173 A 
ATOM     46  F   UNL A   1      44.990  27.713  34.537  1.00  0.00    -0.203 F 
ATOM     47  C   UNL A   1      47.118  27.099  33.752  1.00  0.00     0.198 A 
ATOM     48  C   UNL A   1      47.888  27.887  31.622  1.00  0.00     0.198 A 
ATOM     49  F   UNL A   1      46.544  29.324  30.335  1.00  0.00    -0.203 F 
ATOM     50  F   UNL A   1      47.328  26.408  34.880  1.00  0.00    -0.200 F 
ATOM     51  C   UNL A   1      48.099  27.144  32.774  1.00  0.00     0.200 A 
ATOM     52  F   UNL A   1      48.830  27.919  30.669  1.00  0.00    -0.200 F 
ATOM     53  F   UNL A   1      49.249  26.477  32.945  1.00  0.00    -0.200 F 
ENDBRANCH  29  43
BRANCH  30  54
ATOM     54  C   UNL A   1      36.735  32.943  30.949  1.00  0.00     0.064 A 
ATOM     55  C   UNL A   1      35.754  32.951  31.948  1.00  0.00     0.173 A 
ATOM     56  C   UNL A   1      36.478  33.661  29.771  1.00  0.00     0.173 A 
ATOM     57  F   UNL A   1      35.958  32.281  33.091  1.00  0.00    -0.203 F 
ATOM     58  C   UNL A   1      34.566  33.659  31.785  1.00  0.00     0.198 A 
ATOM     59  C   UNL A   1      35.298  34.388  29.618  1.00  0.00     0.198 A 
ATOM     60  F   UNL A   1      37.399  33.707  28.797  1.00  0.00    -0.203 F 
ATOM     61  F   UNL A   1      33.646  33.651  32.758  1.00  0.00    -0.200 F 
ATOM     62  C   UNL A   1      34.345  34.388  30.625  1.00  0.00     0.200 A 
ATOM     63  F   UNL A   1      35.101  35.116  28.511  1.00  0.00    -0.200 F 
ATOM     64  F   UNL A   1      33.219  35.100  30.484  1.00  0.00    -0.200 F 
ENDBRANCH  30  54
BRANCH  42  65
ATOM     65  C   UNL A   1      42.519  34.772  34.408  1.00  0.00     0.064 A 
ATOM     66  C   UNL A   1      42.382  34.768  35.805  1.00  0.00     0.173 A 
ATOM     67  C   UNL A   1      42.988  35.943  33.796  1.00  0.00     0.173 A 
ATOM     68  F   UNL A   1      41.922  33.677  36.435  1.00  0.00    -0.203 F 
ATOM     69  C   UNL A   1      42.663  35.906  36.554  1.00  0.00     0.198 A 
ATOM     70  C   UNL A   1      43.306  37.066  34.553  1.00  0.00     0.198 A 
ATOM     71  F   UNL A   1      43.143  35.997  32.465  1.00  0.00    -0.203 F 
ATOM     72  F   UNL A   1      42.459  35.900  37.879  1.00  0.00    -0.200 F 
ATOM     73  C   UNL A   1      43.132  37.051  35.929  1.00  0.00     0.200 A 
ATOM     74  F   UNL A   1      43.775  38.168  33.949  1.00  0.00    -0.200 F 
ATOM     75  F   UNL A   1      43.404  38.146  36.652  1.00  0.00    -0.200 F 
ENDBRANCH  42  65
ENDBRANCH  16  17
ENDBRANCH   9  11
ENDBRANCH   8   9
ENDBRANCH   7   8
ENDBRANCH   6   7
ENDBRANCH   5   6
ENDBRANCH   4   5
ENDBRANCH   3   4
ENDBRANCH   2   3
ENDBRANCH   1   2
BRANCH   1  76
ATOM     76  C   UNL A   1      44.608  21.954  23.677  1.00  0.00     0.188 C 
BRANCH  76  77
ATOM     77  O   UNL A   1      43.579  22.602  24.406  1.00  0.00    -0.376 OA
BRANCH  77  78
ATOM     78  C   UNL A   1      43.814  22.872  25.785  1.00  0.00     0.202 C 
BRANCH  78  79
ATOM     79  C   UNL A   1      43.842  24.334  26.265  1.00  0.00     0.261 C 
BRANCH  79  80
ATOM     80  O   UNL A   1      44.431  25.255  25.334  1.00  0.00    -0.462 OA
BRANCH  80  81
ATOM     81  C   UNL A   1      45.787  25.314  25.243  1.00  0.00     0.321 C 
ATOM     82  O   UNL A   1      46.451  24.705  24.415  1.00  0.00    -0.251 OA
BRANCH  81  83
ATOM     83  C   UNL A   1      46.308  26.396  26.176  1.00  0.00     0.184 C 
ATOM     84  S   UNL A   1      46.836  25.647  27.761  1.00  0.00    -0.117 SA
ATOM     85  C   UNL A   1      47.488  27.166  25.597  1.00  0.00     0.172 C 
ATOM     86  C   UNL A   1      48.500  25.910  27.408  1.00  0.00     0.039 C 
ATOM     87  C   UNL A   1      48.713  26.665  26.326  1.00  0.00     0.003 C 
BRANCH  85  88
ATOM     88  S   UNL A   1      47.308  28.970  25.917  1.00  0.00     0.219 S 
ATOM     89  O   UNL A   1      48.568  29.557  26.290  1.00  0.00    -0.212 OA
ATOM     90  O   UNL A   1      46.509  29.550  24.849  1.00  0.00    -0.212 OA
BRANCH  88  91
ATOM     91  N   UNL A   1      46.285  29.081  27.235  1.00  0.00    -0.214 NA
ATOM     92  H   UNL A   1      46.867  28.863  28.043  1.00  0.00     0.141 HD
BRANCH  91  93
ATOM     93  C   UNL A   1      45.505  30.261  27.632  1.00  0.00     0.103 C 
BRANCH  93  94
ATOM     94  C   UNL A   1      45.224  31.306  26.535  1.00  0.00     0.050 C 
BRANCH  94  95
ATOM     95  C   UNL A   1      44.882  32.703  26.968  1.00  0.00    -0.038 C 
ATOM     96  C   UNL A   1      44.045  33.068  27.943  1.00  0.00     0.001 A 
ATOM     97  C   UNL A   1      45.508  33.916  26.351  1.00  0.00     0.174 C 
ATOM     98  C   UNL A   1      43.226  32.384  28.896  1.00  0.00     0.010 A 
ATOM     99  C   UNL A   1      44.122  34.539  27.917  1.00  0.00     0.065 A 
ATOM    100  N   UNL A   1      44.912  35.083  27.044  1.00  0.00    -0.280 NA
ATOM    101  C   UNL A   1      42.500  33.108  29.764  1.00  0.00     0.001 A 
ATOM    102  C   UNL A   1      43.279  35.266  28.890  1.00  0.00     0.028 A 
ATOM    103  C   UNL A   1      42.522  34.562  29.747  1.00  0.00     0.002 A 
ENDBRANCH  94  95
ENDBRANCH  93  94
ENDBRANCH  91  93
ENDBRANCH  88  91
ENDBRANCH  85  88
ENDBRANCH  81  83
ENDBRANCH  80  81
ENDBRANCH  79  80
ENDBRANCH  78  79
ENDBRANCH  77  78
ENDBRANCH  76  77
ENDBRANCH   1  76
TORSDOF 25
ENDMDL
MODEL 3
REMARK VINA RESULT:      -7.2      3.035      7.840
REMARK SMILES O=C(OCCOCCOCCOCCOC(=O)[C@H]1SC=C[C@@H]1S(=O)(=O)NCCC1=c2ccccc2=NC1)c1ccc(-c2c3nc(c(-c4c(F)c(F)c(F)c(F)c4F)c4ccc([nH]4)c(-c4c(F)c(F)c(F)c(F)c4F)c4nc(c(-c5c(F)c(F)c(F)c(F)c5F)c5ccc2[nH]5)C=C4)C=C3)cc1
REMARK SMILES IDX 10 1 9 2 8 3 7 4 6 5 5 6 4 7 3 8 2 9 1 10 38 11 39 12 100 13
REMARK SMILES IDX 40 14 99 15 41 16 42 17 43 18 93 19 44 20 98 21 92 22 94 23
REMARK SMILES IDX 45 24 97 25 91 26 90 27 46 29 78 30 58 31 77 32 59 33 62 34
REMARK SMILES IDX 76 35 95 36 60 37 61 38 75 40 96 41 63 42 47 43 48 44 56 45
REMARK SMILES IDX 49 46 50 47 54 48 57 49 51 50 52 51 55 52 53 53 79 54 80 55
REMARK SMILES IDX 88 56 81 57 82 58 86 59 89 60 83 61 84 62 87 63 85 64 64 65
REMARK SMILES IDX 65 66 73 67 66 68 67 69 71 70 74 71 68 72 69 73 72 74 70 75
REMARK SMILES IDX 11 76 12 77 13 78 14 79 15 80 16 81 17 82 18 83 19 84 22 85
REMARK SMILES IDX 20 86 21 87 23 88 24 89 25 90 26 91 27 93 28 94 29 95 30 96
REMARK SMILES IDX 37 97 31 98 35 99 36 100 32 101 34 102 33 103
REMARK H PARENT 94 28 62 39 26 92
REMARK Flexibility Score: inf
ROOT
ATOM      1  C   UNL A   1      45.079  20.601  24.262  1.00  0.00     0.188 C 
ENDROOT
BRANCH   1   2
ATOM      2  O   UNL A   1      44.068  19.610  24.233  1.00  0.00    -0.377 OA
BRANCH   2   3
ATOM      3  C   UNL A   1      43.991  18.751  25.366  1.00  0.00     0.188 C 
BRANCH   3   4
ATOM      4  C   UNL A   1      42.617  18.580  26.027  1.00  0.00     0.188 C 
BRANCH   4   5
ATOM      5  O   UNL A   1      41.609  19.459  25.519  1.00  0.00    -0.376 OA
BRANCH   5   6
ATOM      6  C   UNL A   1      41.049  20.394  26.435  1.00  0.00     0.202 C 
BRANCH   6   7
ATOM      7  C   UNL A   1      39.856  21.211  25.950  1.00  0.00     0.261 C 
BRANCH   7   8
ATOM      8  O   UNL A   1      39.430  22.289  26.793  1.00  0.00    -0.460 OA
BRANCH   8   9
ATOM      9  C   UNL A   1      38.963  23.526  26.524  1.00  0.00     0.338 C 
ATOM     10  O   UNL A   1      38.166  23.634  25.592  1.00  0.00    -0.246 OA
BRANCH   9  11
ATOM     11  C   UNL A   1      39.381  24.787  27.216  1.00  0.00     0.060 A 
ATOM     12  C   UNL A   1      38.909  24.958  28.534  1.00  0.00     0.016 A 
ATOM     13  C   UNL A   1      40.144  25.818  26.667  1.00  0.00     0.016 A 
ATOM     14  C   UNL A   1      39.165  26.125  29.257  1.00  0.00     0.010 A 
ATOM     15  C   UNL A   1      40.352  27.010  27.353  1.00  0.00     0.010 A 
ATOM     16  C   UNL A   1      39.882  27.159  28.657  1.00  0.00    -0.014 A 
BRANCH  16  17
ATOM     17  C   UNL A   1      40.374  28.315  29.423  1.00  0.00     0.031 A 
ATOM     18  C   UNL A   1      41.724  28.312  30.057  1.00  0.00     0.074 A 
ATOM     19  C   UNL A   1      39.471  29.279  29.673  1.00  0.00     0.049 A 
ATOM     20  N   UNL A   1      42.283  29.234  30.797  1.00  0.00    -0.248 NA
ATOM     21  C   UNL A   1      42.541  27.105  29.868  1.00  0.00     0.031 C 
ATOM     22  C   UNL A   1      38.090  29.271  29.180  1.00  0.00     0.029 A 
ATOM     23  N   UNL A   1      39.553  30.413  30.427  1.00  0.00    -0.354 N 
ATOM     24  C   UNL A   1      43.532  28.736  31.136  1.00  0.00     0.074 A 
ATOM     25  C   UNL A   1      43.618  27.399  30.586  1.00  0.00     0.031 C 
ATOM     26  C   UNL A   1      37.453  30.351  29.646  1.00  0.00     0.029 A 
ATOM     27  C   UNL A   1      38.379  31.122  30.464  1.00  0.00     0.049 A 
ATOM     28  H   UNL A   1      40.370  30.695  30.897  1.00  0.00     0.167 HD
ATOM     29  C   UNL A   1      44.515  29.364  31.826  1.00  0.00     0.037 A 
ATOM     30  C   UNL A   1      38.095  32.282  31.079  1.00  0.00     0.037 A 
ATOM     31  C   UNL A   1      44.356  30.679  32.402  1.00  0.00     0.049 A 
ATOM     32  C   UNL A   1      39.198  32.965  31.826  1.00  0.00     0.074 A 
ATOM     33  C   UNL A   1      45.286  31.454  33.072  1.00  0.00     0.029 A 
ATOM     34  N   UNL A   1      43.168  31.404  32.392  1.00  0.00    -0.354 N 
ATOM     35  N   UNL A   1      40.427  32.556  32.033  1.00  0.00    -0.248 NA
ATOM     36  C   UNL A   1      38.887  34.275  32.401  1.00  0.00     0.031 C 
ATOM     37  C   UNL A   1      44.645  32.618  33.514  1.00  0.00     0.029 A 
ATOM     38  C   UNL A   1      43.331  32.602  33.071  1.00  0.00     0.049 A 
ATOM     39  H   UNL A   1      42.332  31.109  31.964  1.00  0.00     0.167 HD
ATOM     40  C   UNL A   1      41.047  33.562  32.757  1.00  0.00     0.074 A 
ATOM     41  C   UNL A   1      40.061  34.615  32.917  1.00  0.00     0.031 C 
ATOM     42  C   UNL A   1      42.311  33.610  33.250  1.00  0.00     0.037 A 
BRANCH  29  43
ATOM     43  C   UNL A   1      45.835  28.654  31.972  1.00  0.00     0.064 A 
ATOM     44  C   UNL A   1      47.000  29.150  31.362  1.00  0.00     0.173 A 
ATOM     45  C   UNL A   1      45.958  27.498  32.757  1.00  0.00     0.173 A 
ATOM     46  F   UNL A   1      46.948  30.249  30.595  1.00  0.00    -0.203 F 
ATOM     47  C   UNL A   1      48.224  28.499  31.505  1.00  0.00     0.198 A 
ATOM     48  C   UNL A   1      47.190  26.867  32.925  1.00  0.00     0.198 A 
ATOM     49  F   UNL A   1      44.883  26.976  33.368  1.00  0.00    -0.203 F 
ATOM     50  F   UNL A   1      49.307  28.965  30.867  1.00  0.00    -0.200 F 
ATOM     51  C   UNL A   1      48.320  27.363  32.293  1.00  0.00     0.200 A 
ATOM     52  F   UNL A   1      47.285  25.777  33.699  1.00  0.00    -0.200 F 
ATOM     53  F   UNL A   1      49.500  26.743  32.437  1.00  0.00    -0.200 F 
ENDBRANCH  29  43
BRANCH  30  54
ATOM     54  C   UNL A   1      36.757  32.885  30.874  1.00  0.00     0.064 A 
ATOM     55  C   UNL A   1      35.823  32.890  31.918  1.00  0.00     0.173 A 
ATOM     56  C   UNL A   1      36.434  33.587  29.702  1.00  0.00     0.173 A 
ATOM     57  F   UNL A   1      36.091  32.235  33.057  1.00  0.00    -0.203 F 
ATOM     58  C   UNL A   1      34.618  33.579  31.803  1.00  0.00     0.198 A 
ATOM     59  C   UNL A   1      35.238  34.296  29.597  1.00  0.00     0.198 A 
ATOM     60  F   UNL A   1      37.308  33.636  28.686  1.00  0.00    -0.203 F 
ATOM     61  F   UNL A   1      33.745  33.568  32.818  1.00  0.00    -0.200 F 
ATOM     62  C   UNL A   1      34.332  34.292  30.648  1.00  0.00     0.200 A 
ATOM     63  F   UNL A   1      34.979  35.008  28.493  1.00  0.00    -0.200 F 
ATOM     64  F   UNL A   1      33.191  34.986  30.553  1.00  0.00    -0.200 F 
ENDBRANCH  30  54
BRANCH  42  65
ATOM     65  C   UNL A   1      42.668  34.837  34.038  1.00  0.00     0.064 A 
ATOM     66  C   UNL A   1      43.114  36.006  33.403  1.00  0.00     0.173 A 
ATOM     67  C   UNL A   1      42.557  34.849  35.436  1.00  0.00     0.173 A 
ATOM     68  F   UNL A   1      43.251  36.038  32.068  1.00  0.00    -0.203 F 
ATOM     69  C   UNL A   1      43.476  37.128  34.141  1.00  0.00     0.198 A 
ATOM     70  C   UNL A   1      42.882  35.987  36.168  1.00  0.00     0.198 A 
ATOM     71  F   UNL A   1      42.129  33.760  36.091  1.00  0.00    -0.203 F 
ATOM     72  F   UNL A   1      43.964  38.208  33.516  1.00  0.00    -0.200 F 
ATOM     73  C   UNL A   1      43.353  37.120  35.522  1.00  0.00     0.200 A 
ATOM     74  F   UNL A   1      42.747  35.984  37.502  1.00  0.00    -0.200 F 
ATOM     75  F   UNL A   1      43.700  38.202  36.231  1.00  0.00    -0.200 F 
ENDBRANCH  42  65
ENDBRANCH  16  17
ENDBRANCH   9  11
ENDBRANCH   8   9
ENDBRANCH   7   8
ENDBRANCH   6   7
ENDBRANCH   5   6
ENDBRANCH   4   5
ENDBRANCH   3   4
ENDBRANCH   2   3
ENDBRANCH   1   2
BRANCH   1  76
ATOM     76  C   UNL A   1      44.697  22.047  23.857  1.00  0.00     0.188 C 
BRANCH  76  77
ATOM     77  O   UNL A   1      43.616  22.614  24.578  1.00  0.00    -0.376 OA
BRANCH  77  78
ATOM     78  C   UNL A   1      43.784  22.808  25.980  1.00  0.00     0.202 C 
BRANCH  78  79
ATOM     79  C   UNL A   1      43.388  24.161  26.598  1.00  0.00     0.261 C 
BRANCH  79  80
ATOM     80  O   UNL A   1      43.556  25.287  25.724  1.00  0.00    -0.462 OA
BRANCH  80  81
ATOM     81  C   UNL A   1      44.776  25.885  25.655  1.00  0.00     0.321 C 
ATOM     82  O   UNL A   1      45.562  25.746  24.728  1.00  0.00    -0.251 OA
BRANCH  81  83
ATOM     83  C   UNL A   1      44.907  26.893  26.786  1.00  0.00     0.184 C 
ATOM     84  S   UNL A   1      46.010  26.225  28.087  1.00  0.00    -0.117 SA
ATOM     85  C   UNL A   1      45.468  28.233  26.330  1.00  0.00     0.172 C 
ATOM     86  C   UNL A   1      47.266  27.329  27.684  1.00  0.00     0.039 C 
ATOM     87  C   UNL A   1      46.900  28.275  26.813  1.00  0.00     0.003 C 
BRANCH  85  88
ATOM     88  S   UNL A   1      44.543  29.624  27.105  1.00  0.00     0.219 S 
ATOM     89  O   UNL A   1      43.125  29.377  27.086  1.00  0.00    -0.212 OA
ATOM     90  O   UNL A   1      45.214  29.990  28.342  1.00  0.00    -0.212 OA
BRANCH  88  91
ATOM     91  N   UNL A   1      44.843  30.947  26.127  1.00  0.00    -0.214 NA
ATOM     92  H   UNL A   1      44.697  30.612  25.174  1.00  0.00     0.141 HD
BRANCH  91  93
ATOM     93  C   UNL A   1      44.156  32.244  26.186  1.00  0.00     0.103 C 
BRANCH  93  94
ATOM     94  C   UNL A   1      45.048  33.501  26.152  1.00  0.00     0.050 C 
BRANCH  94  95
ATOM     95  C   UNL A   1      44.810  34.557  27.193  1.00  0.00    -0.038 C 
ATOM     96  C   UNL A   1      45.521  35.668  27.399  1.00  0.00     0.001 A 
ATOM     97  C   UNL A   1      43.654  34.506  28.146  1.00  0.00     0.174 C 
ATOM     98  C   UNL A   1      46.664  36.277  26.791  1.00  0.00     0.010 A 
ATOM     99  C   UNL A   1      44.820  36.311  28.524  1.00  0.00     0.065 A 
ATOM    100  N   UNL A   1      43.774  35.711  29.000  1.00  0.00    -0.280 NA
ATOM    101  C   UNL A   1      47.111  37.447  27.278  1.00  0.00     0.001 A 
ATOM    102  C   UNL A   1      45.383  37.586  29.017  1.00  0.00     0.028 A 
ATOM    103  C   UNL A   1      46.467  38.096  28.409  1.00  0.00     0.002 A 
ENDBRANCH  94  95
ENDBRANCH  93  94
ENDBRANCH  91  93
ENDBRANCH  88  91
ENDBRANCH  85  88
ENDBRANCH  81  83
ENDBRANCH  80  81
ENDBRANCH  79  80
ENDBRANCH  78  79
ENDBRANCH  77  78
ENDBRANCH  76  77
ENDBRANCH   1  76
TORSDOF 25
ENDMDL
