MODEL 1
REMARK VINA RESULT:     -10.4      0.000      0.000
REMARK SMILES O=C(C[C@H]([NH2+]Cc1ccccc1C1CC1)c1cccs1)OCCOCCOCCOCCOC(=O)c1ccc(-c2c3nc(c(-c4c(F)c(F)c(F)c(F)c4F)c4ccc([nH]4)c(-c4c(F)c(F)c(F)c(F)c4F)c4nc(c(-c5c(F)c(F)c(F)c(F)c5F)c5ccc2[nH]5)C=C4)C=C3)cc1
REMARK SMILES IDX 25 1 24 2 23 3 22 4 21 5 2 6 1 7 3 8 4 9 16 10 17 11 20 12
REMARK SMILES IDX 18 13 19 14 5 15 6 18 7 19 8 20 12 21 9 22 11 23 10 24 13 25
REMARK SMILES IDX 14 26 15 27 26 28 27 29 28 30 29 31 30 32 31 33 32 34 33 35
REMARK SMILES IDX 34 36 35 37 36 38 37 39 98 40 38 41 97 42 39 43 40 44 41 45
REMARK SMILES IDX 91 46 42 47 96 48 90 49 92 50 43 51 95 52 89 53 88 54 44 56
REMARK SMILES IDX 76 57 56 58 75 59 57 60 60 61 74 62 93 63 58 64 59 65 73 67
REMARK SMILES IDX 94 68 61 69 45 70 46 71 54 72 47 73 48 74 52 75 55 76 49 77
REMARK SMILES IDX 50 78 53 79 51 80 77 81 78 82 86 83 79 84 80 85 84 86 87 87
REMARK SMILES IDX 81 88 82 89 85 90 83 91 62 92 63 93 71 94 64 95 65 96 69 97
REMARK SMILES IDX 72 98 66 99 67 100 70 101 68 102
REMARK H PARENT 5 16 5 17 92 55 60 66
REMARK Flexibility Score: inf
ROOT
ATOM      1  C   UNL A   1      42.325  20.171  26.350  1.00  0.00     0.188 C 
ENDROOT
BRANCH   1   2
ATOM      2  O   UNL A   1      41.079  20.755  26.695  1.00  0.00    -0.376 OA
BRANCH   2   3
ATOM      3  C   UNL A   1      40.348  21.716  25.974  1.00  0.00     0.202 C 
BRANCH   3   4
ATOM      4  C   UNL A   1      39.026  22.254  26.482  1.00  0.00     0.261 C 
BRANCH   4   5
ATOM      5  O   UNL A   1      37.908  22.182  25.582  1.00  0.00    -0.463 OA
BRANCH   5   6
ATOM      6  C   UNL A   1      36.942  21.255  25.426  1.00  0.00     0.312 C 
ATOM      7  O   UNL A   1      37.188  20.275  24.723  1.00  0.00    -0.252 OA
BRANCH   6   8
ATOM      8  C   UNL A   1      35.562  21.453  25.985  1.00  0.00     0.193 C 
BRANCH   8   9
ATOM      9  C   UNL A   1      34.501  21.801  24.950  1.00  0.00     0.235 C 
BRANCH   9  10
ATOM     10  C   UNL A   1      33.225  22.271  25.623  1.00  0.00     0.062 A 
ATOM     11  C   UNL A   1      33.113  23.089  26.736  1.00  0.00     0.021 A 
ATOM     12  S   UNL A   1      31.675  21.886  24.987  1.00  0.00    -0.143 S 
ATOM     13  C   UNL A   1      31.762  23.414  27.046  1.00  0.00     0.012 A 
ATOM     14  C   UNL A   1      30.879  22.825  26.171  1.00  0.00     0.065 A 
ENDBRANCH   9  10
BRANCH   9  15
ATOM     15  N   UNL A   1      35.014  22.775  23.988  1.00  0.00    -0.335 N 
ATOM     16  H   UNL A   1      34.408  22.780  23.168  1.00  0.00     0.347 HD
ATOM     17  H   UNL A   1      35.965  22.506  23.737  1.00  0.00     0.347 HD
BRANCH  15  18
ATOM     18  C   UNL A   1      35.054  24.118  24.555  1.00  0.00     0.298 C 
BRANCH  18  19
ATOM     19  C   UNL A   1      34.100  25.033  23.830  1.00  0.00     0.010 A 
ATOM     20  C   UNL A   1      33.690  24.575  22.556  1.00  0.00     0.010 A 
ATOM     21  C   UNL A   1      33.582  26.249  24.349  1.00  0.00    -0.036 A 
ATOM     22  C   UNL A   1      32.839  25.322  21.754  1.00  0.00     0.001 A 
ATOM     23  C   UNL A   1      32.773  27.005  23.468  1.00  0.00     0.004 A 
ATOM     24  C   UNL A   1      32.402  26.556  22.200  1.00  0.00     0.000 A 
BRANCH  21  25
ATOM     25  C   UNL A   1      33.649  26.802  25.768  1.00  0.00     0.020 C 
ATOM     26  C   UNL A   1      33.475  28.215  26.211  1.00  0.00     0.009 C 
ATOM     27  C   UNL A   1      32.401  27.228  26.514  1.00  0.00     0.009 C 
ENDBRANCH  21  25
ENDBRANCH  18  19
ENDBRANCH  15  18
ENDBRANCH   9  15
ENDBRANCH   8   9
ENDBRANCH   6   8
ENDBRANCH   5   6
ENDBRANCH   4   5
ENDBRANCH   3   4
ENDBRANCH   2   3
ENDBRANCH   1   2
BRANCH   1  28
ATOM     28  C   UNL A   1      42.479  18.647  26.349  1.00  0.00     0.188 C 
BRANCH  28  29
ATOM     29  O   UNL A   1      43.429  18.072  25.463  1.00  0.00    -0.377 OA
BRANCH  29  30
ATOM     30  C   UNL A   1      44.198  18.995  24.714  1.00  0.00     0.188 C 
BRANCH  30  31
ATOM     31  C   UNL A   1      45.707  18.933  25.018  1.00  0.00     0.188 C 
BRANCH  31  32
ATOM     32  O   UNL A   1      46.360  20.136  25.356  1.00  0.00    -0.376 OA
BRANCH  32  33
ATOM     33  C   UNL A   1      45.880  21.420  24.995  1.00  0.00     0.202 C 
BRANCH  33  34
ATOM     34  C   UNL A   1      46.025  22.737  25.781  1.00  0.00     0.261 C 
BRANCH  34  35
ATOM     35  O   UNL A   1      44.854  23.398  26.247  1.00  0.00    -0.460 OA
BRANCH  35  36
ATOM     36  C   UNL A   1      44.391  24.410  25.493  1.00  0.00     0.338 C 
ATOM     37  O   UNL A   1      44.474  24.531  24.281  1.00  0.00    -0.246 OA
BRANCH  36  38
ATOM     38  C   UNL A   1      43.533  25.242  26.361  1.00  0.00     0.060 A 
ATOM     39  C   UNL A   1      43.919  26.572  26.577  1.00  0.00     0.016 A 
ATOM     40  C   UNL A   1      42.343  24.750  26.908  1.00  0.00     0.016 A 
ATOM     41  C   UNL A   1      43.143  27.401  27.374  1.00  0.00     0.010 A 
ATOM     42  C   UNL A   1      41.588  25.569  27.751  1.00  0.00     0.010 A 
ATOM     43  C   UNL A   1      42.016  26.881  28.020  1.00  0.00    -0.014 A 
BRANCH  43  44
ATOM     44  C   UNL A   1      41.491  27.637  29.176  1.00  0.00     0.031 A 
ATOM     45  C   UNL A   1      42.231  27.513  30.481  1.00  0.00     0.074 A 
ATOM     46  C   UNL A   1      40.473  28.502  29.043  1.00  0.00     0.049 A 
ATOM     47  N   UNL A   1      42.023  28.124  31.618  1.00  0.00    -0.248 NA
ATOM     48  C   UNL A   1      43.369  26.577  30.498  1.00  0.00     0.031 C 
ATOM     49  C   UNL A   1      39.722  28.742  27.813  1.00  0.00     0.029 A 
ATOM     50  N   UNL A   1      39.905  29.349  29.959  1.00  0.00    -0.354 N 
ATOM     51  C   UNL A   1      43.010  27.658  32.476  1.00  0.00     0.074 A 
ATOM     52  C   UNL A   1      43.786  26.679  31.750  1.00  0.00     0.031 C 
ATOM     53  C   UNL A   1      38.779  29.670  28.055  1.00  0.00     0.029 A 
ATOM     54  C   UNL A   1      38.850  30.071  29.459  1.00  0.00     0.049 A 
ATOM     55  H   UNL A   1      40.224  29.433  30.887  1.00  0.00     0.167 HD
ATOM     56  C   UNL A   1      43.260  28.029  33.753  1.00  0.00     0.037 A 
ATOM     57  C   UNL A   1      38.028  30.939  30.080  1.00  0.00     0.037 A 
ATOM     58  C   UNL A   1      42.474  28.990  34.477  1.00  0.00     0.049 A 
ATOM     59  C   UNL A   1      38.274  31.270  31.531  1.00  0.00     0.074 A 
ATOM     60  C   UNL A   1      42.624  29.422  35.783  1.00  0.00     0.029 A 
ATOM     61  N   UNL A   1      41.379  29.665  33.955  1.00  0.00    -0.354 N 
ATOM     62  N   UNL A   1      39.215  30.836  32.336  1.00  0.00    -0.248 NA
ATOM     63  C   UNL A   1      37.349  32.225  32.156  1.00  0.00     0.031 C 
ATOM     64  C   UNL A   1      41.587  30.317  36.067  1.00  0.00     0.029 A 
ATOM     65  C   UNL A   1      40.831  30.495  34.919  1.00  0.00     0.049 A 
ATOM     66  H   UNL A   1      41.042  29.568  33.035  1.00  0.00     0.167 HD
ATOM     67  C   UNL A   1      39.013  31.482  33.548  1.00  0.00     0.074 A 
ATOM     68  C   UNL A   1      37.876  32.361  33.363  1.00  0.00     0.031 C 
ATOM     69  C   UNL A   1      39.699  31.361  34.713  1.00  0.00     0.037 A 
BRANCH  56  70
ATOM     70  C   UNL A   1      44.416  27.371  34.450  1.00  0.00     0.064 A 
ATOM     71  C   UNL A   1      44.265  26.164  35.151  1.00  0.00     0.173 A 
ATOM     72  C   UNL A   1      45.696  27.942  34.398  1.00  0.00     0.173 A 
ATOM     73  F   UNL A   1      43.058  25.587  35.250  1.00  0.00    -0.203 F 
ATOM     74  C   UNL A   1      45.347  25.565  35.790  1.00  0.00     0.198 A 
ATOM     75  C   UNL A   1      46.782  27.324  35.011  1.00  0.00     0.198 A 
ATOM     76  F   UNL A   1      45.895  29.098  33.746  1.00  0.00    -0.203 F 
ATOM     77  F   UNL A   1      45.169  24.439  36.494  1.00  0.00    -0.200 F 
ATOM     78  C   UNL A   1      46.607  26.141  35.711  1.00  0.00     0.200 A 
ATOM     79  F   UNL A   1      48.001  27.876  34.924  1.00  0.00    -0.200 F 
ATOM     80  F   UNL A   1      47.650  25.558  36.317  1.00  0.00    -0.200 F 
ENDBRANCH  56  70
BRANCH  57  81
ATOM     81  C   UNL A   1      36.882  31.538  29.345  1.00  0.00     0.064 A 
ATOM     82  C   UNL A   1      36.855  32.899  29.010  1.00  0.00     0.173 A 
ATOM     83  C   UNL A   1      35.765  30.762  28.998  1.00  0.00     0.173 A 
ATOM     84  F   UNL A   1      37.887  33.690  29.337  1.00  0.00    -0.203 F 
ATOM     85  C   UNL A   1      35.745  33.466  28.385  1.00  0.00     0.198 A 
ATOM     86  C   UNL A   1      34.671  31.321  28.342  1.00  0.00     0.198 A 
ATOM     87  F   UNL A   1      35.737  29.454  29.295  1.00  0.00    -0.203 F 
ATOM     88  F   UNL A   1      35.721  34.781  28.133  1.00  0.00    -0.200 F 
ATOM     89  C   UNL A   1      34.657  32.676  28.047  1.00  0.00     0.200 A 
ATOM     90  F   UNL A   1      33.630  30.550  28.003  1.00  0.00    -0.200 F 
ATOM     91  F   UNL A   1      33.589  33.221  27.447  1.00  0.00    -0.200 F 
ENDBRANCH  57  81
BRANCH  69  92
ATOM     92  C   UNL A   1      39.258  32.226  35.863  1.00  0.00     0.064 A 
ATOM     93  C   UNL A   1      39.727  33.539  36.023  1.00  0.00     0.173 A 
ATOM     94  C   UNL A   1      38.346  31.736  36.811  1.00  0.00     0.173 A 
ATOM     95  F   UNL A   1      40.608  34.054  35.152  1.00  0.00    -0.203 F 
ATOM     96  C   UNL A   1      39.338  34.310  37.116  1.00  0.00     0.198 A 
ATOM     97  C   UNL A   1      37.928  32.524  37.879  1.00  0.00     0.198 A 
ATOM     98  F   UNL A   1      37.855  30.493  36.699  1.00  0.00    -0.203 F 
ATOM     99  F   UNL A   1      39.858  35.533  37.288  1.00  0.00    -0.200 F 
ATOM    100  C   UNL A   1      38.436  33.804  38.040  1.00  0.00     0.200 A 
ATOM    101  F   UNL A   1      37.040  32.041  38.760  1.00  0.00    -0.200 F 
ATOM    102  F   UNL A   1      38.064  34.546  39.092  1.00  0.00    -0.200 F 
ENDBRANCH  69  92
ENDBRANCH  43  44
ENDBRANCH  36  38
ENDBRANCH  35  36
ENDBRANCH  34  35
ENDBRANCH  33  34
ENDBRANCH  32  33
ENDBRANCH  31  32
ENDBRANCH  30  31
ENDBRANCH  29  30
ENDBRANCH  28  29
ENDBRANCH   1  28
TORSDOF 26
ENDMDL
MODEL 2
REMARK VINA RESULT:      -9.8      4.289      6.285
REMARK SMILES O=C(C[C@H]([NH2+]Cc1ccccc1C1CC1)c1cccs1)OCCOCCOCCOCCOC(=O)c1ccc(-c2c3nc(c(-c4c(F)c(F)c(F)c(F)c4F)c4ccc([nH]4)c(-c4c(F)c(F)c(F)c(F)c4F)c4nc(c(-c5c(F)c(F)c(F)c(F)c5F)c5ccc2[nH]5)C=C4)C=C3)cc1
REMARK SMILES IDX 25 1 24 2 23 3 22 4 21 5 2 6 1 7 3 8 4 9 16 10 17 11 20 12
REMARK SMILES IDX 18 13 19 14 5 15 6 18 7 19 8 20 12 21 9 22 11 23 10 24 13 25
REMARK SMILES IDX 14 26 15 27 26 28 27 29 28 30 29 31 30 32 31 33 32 34 33 35
REMARK SMILES IDX 34 36 35 37 36 38 37 39 98 40 38 41 97 42 39 43 40 44 41 45
REMARK SMILES IDX 91 46 42 47 96 48 90 49 92 50 43 51 95 52 89 53 88 54 44 56
REMARK SMILES IDX 76 57 56 58 75 59 57 60 60 61 74 62 93 63 58 64 59 65 73 67
REMARK SMILES IDX 94 68 61 69 45 70 46 71 54 72 47 73 48 74 52 75 55 76 49 77
REMARK SMILES IDX 50 78 53 79 51 80 77 81 78 82 86 83 79 84 80 85 84 86 87 87
REMARK SMILES IDX 81 88 82 89 85 90 83 91 62 92 63 93 71 94 64 95 65 96 69 97
REMARK SMILES IDX 72 98 66 99 67 100 70 101 68 102
REMARK H PARENT 5 16 5 17 92 55 60 66
REMARK Flexibility Score: inf
ROOT
ATOM      1  C   UNL A   1      37.814  21.041  25.164  1.00  0.00     0.188 C 
ENDROOT
BRANCH   1   2
ATOM      2  O   UNL A   1      36.449  21.271  25.477  1.00  0.00    -0.376 OA
BRANCH   2   3
ATOM      3  C   UNL A   1      35.814  22.503  25.715  1.00  0.00     0.202 C 
BRANCH   3   4
ATOM      4  C   UNL A   1      34.347  22.714  25.404  1.00  0.00     0.261 C 
BRANCH   4   5
ATOM      5  O   UNL A   1      33.470  22.923  26.523  1.00  0.00    -0.463 OA
BRANCH   5   6
ATOM      6  C   UNL A   1      32.247  23.482  26.610  1.00  0.00     0.312 C 
ATOM      7  O   UNL A   1      31.454  23.018  27.429  1.00  0.00    -0.252 OA
BRANCH   6   8
ATOM      8  C   UNL A   1      31.805  24.560  25.661  1.00  0.00     0.193 C 
BRANCH   8   9
ATOM      9  C   UNL A   1      31.099  25.737  26.320  1.00  0.00     0.235 C 
BRANCH   9  10
ATOM     10  C   UNL A   1      32.075  26.864  26.598  1.00  0.00     0.062 A 
ATOM     11  C   UNL A   1      33.407  26.935  26.223  1.00  0.00     0.021 A 
ATOM     12  S   UNL A   1      31.582  28.309  27.387  1.00  0.00    -0.143 S 
ATOM     13  C   UNL A   1      34.008  28.180  26.563  1.00  0.00     0.012 A 
ATOM     14  C   UNL A   1      33.124  29.020  27.199  1.00  0.00     0.065 A 
ENDBRANCH   9  10
BRANCH   9  15
ATOM     15  N   UNL A   1      29.959  26.175  25.516  1.00  0.00    -0.335 N 
ATOM     16  H   UNL A   1      29.768  27.155  25.720  1.00  0.00     0.347 HD
ATOM     17  H   UNL A   1      29.157  25.590  25.754  1.00  0.00     0.347 HD
BRANCH  15  18
ATOM     18  C   UNL A   1      30.222  26.029  24.090  1.00  0.00     0.298 C 
BRANCH  18  19
ATOM     19  C   UNL A   1      30.140  27.363  23.392  1.00  0.00     0.010 A 
ATOM     20  C   UNL A   1      28.842  27.922  23.330  1.00  0.00     0.010 A 
ATOM     21  C   UNL A   1      31.246  28.075  22.858  1.00  0.00    -0.036 A 
ATOM     22  C   UNL A   1      28.599  29.131  22.692  1.00  0.00     0.001 A 
ATOM     23  C   UNL A   1      30.938  29.267  22.161  1.00  0.00     0.004 A 
ATOM     24  C   UNL A   1      29.648  29.791  22.079  1.00  0.00     0.000 A 
BRANCH  21  25
ATOM     25  C   UNL A   1      32.738  27.825  23.043  1.00  0.00     0.020 C 
ATOM     26  C   UNL A   1      33.531  26.639  22.608  1.00  0.00     0.009 C 
ATOM     27  C   UNL A   1      33.711  27.930  21.886  1.00  0.00     0.009 C 
ENDBRANCH  21  25
ENDBRANCH  18  19
ENDBRANCH  15  18
ENDBRANCH   9  15
ENDBRANCH   8   9
ENDBRANCH   6   8
ENDBRANCH   5   6
ENDBRANCH   4   5
ENDBRANCH   3   4
ENDBRANCH   2   3
ENDBRANCH   1   2
BRANCH   1  28
ATOM     28  C   UNL A   1      38.909  21.779  25.940  1.00  0.00     0.188 C 
BRANCH  28  29
ATOM     29  O   UNL A   1      40.238  21.290  25.847  1.00  0.00    -0.377 OA
BRANCH  29  30
ATOM     30  C   UNL A   1      40.393  19.901  26.068  1.00  0.00     0.188 C 
BRANCH  30  31
ATOM     31  C   UNL A   1      41.818  19.496  26.494  1.00  0.00     0.188 C 
BRANCH  31  32
ATOM     32  O   UNL A   1      42.580  18.728  25.591  1.00  0.00    -0.376 OA
BRANCH  32  33
ATOM     33  C   UNL A   1      43.881  18.241  25.875  1.00  0.00     0.202 C 
BRANCH  33  34
ATOM     34  C   UNL A   1      45.183  18.520  25.100  1.00  0.00     0.261 C 
BRANCH  34  35
ATOM     35  O   UNL A   1      45.671  19.855  25.023  1.00  0.00    -0.460 OA
BRANCH  35  36
ATOM     36  C   UNL A   1      45.020  20.689  24.194  1.00  0.00     0.338 C 
ATOM     37  O   UNL A   1      44.608  20.446  23.070  1.00  0.00    -0.246 OA
BRANCH  36  38
ATOM     38  C   UNL A   1      44.659  21.888  24.977  1.00  0.00     0.060 A 
ATOM     39  C   UNL A   1      44.545  23.104  24.290  1.00  0.00     0.016 A 
ATOM     40  C   UNL A   1      44.382  21.816  26.346  1.00  0.00     0.016 A 
ATOM     41  C   UNL A   1      44.196  24.260  24.974  1.00  0.00     0.010 A 
ATOM     42  C   UNL A   1      44.081  22.988  27.045  1.00  0.00     0.010 A 
ATOM     43  C   UNL A   1      44.035  24.217  26.364  1.00  0.00    -0.014 A 
BRANCH  43  44
ATOM     44  C   UNL A   1      44.109  25.500  27.092  1.00  0.00     0.031 A 
ATOM     45  C   UNL A   1      45.477  26.068  27.361  1.00  0.00     0.074 A 
ATOM     46  C   UNL A   1      43.004  26.201  27.391  1.00  0.00     0.049 A 
ATOM     47  N   UNL A   1      45.814  27.205  27.911  1.00  0.00    -0.248 NA
ATOM     48  C   UNL A   1      46.620  25.240  26.939  1.00  0.00     0.031 C 
ATOM     49  C   UNL A   1      41.632  25.772  27.126  1.00  0.00     0.029 A 
ATOM     50  N   UNL A   1      42.867  27.434  27.977  1.00  0.00    -0.354 N 
ATOM     51  C   UNL A   1      47.202  27.232  27.888  1.00  0.00     0.074 A 
ATOM     52  C   UNL A   1      47.649  25.982  27.317  1.00  0.00     0.031 C 
ATOM     53  C   UNL A   1      40.789  26.725  27.560  1.00  0.00     0.029 A 
ATOM     54  C   UNL A   1      41.561  27.817  28.150  1.00  0.00     0.049 A 
ATOM     55  H   UNL A   1      43.633  27.991  28.246  1.00  0.00     0.167 HD
ATOM     56  C   UNL A   1      48.032  28.223  28.290  1.00  0.00     0.037 A 
ATOM     57  C   UNL A   1      41.057  28.919  28.738  1.00  0.00     0.037 A 
ATOM     58  C   UNL A   1      47.583  29.457  28.873  1.00  0.00     0.049 A 
ATOM     59  C   UNL A   1      42.007  29.970  29.258  1.00  0.00     0.074 A 
ATOM     60  C   UNL A   1      48.339  30.519  29.338  1.00  0.00     0.029 A 
ATOM     61  N   UNL A   1      46.252  29.791  29.082  1.00  0.00    -0.354 N 
ATOM     62  N   UNL A   1      43.317  29.998  29.224  1.00  0.00    -0.248 NA
ATOM     63  C   UNL A   1      41.402  31.152  29.888  1.00  0.00     0.031 C 
ATOM     64  C   UNL A   1      47.468  31.471  29.877  1.00  0.00     0.029 A 
ATOM     65  C   UNL A   1      46.166  31.034  29.687  1.00  0.00     0.049 A 
ATOM     66  H   UNL A   1      45.483  29.228  28.835  1.00  0.00     0.167 HD
ATOM     67  C   UNL A   1      43.692  31.205  29.799  1.00  0.00     0.074 A 
ATOM     68  C   UNL A   1      42.467  31.895  30.147  1.00  0.00     0.031 C 
ATOM     69  C   UNL A   1      44.935  31.702  30.025  1.00  0.00     0.037 A 
BRANCH  56  70
ATOM     70  C   UNL A   1      49.508  27.994  28.131  1.00  0.00     0.064 A 
ATOM     71  C   UNL A   1      50.182  28.324  26.946  1.00  0.00     0.173 A 
ATOM     72  C   UNL A   1      50.261  27.459  29.187  1.00  0.00     0.173 A 
ATOM     73  F   UNL A   1      49.505  28.819  25.898  1.00  0.00    -0.203 F 
ATOM     74  C   UNL A   1      51.552  28.108  26.816  1.00  0.00     0.198 A 
ATOM     75  C   UNL A   1      51.635  27.275  29.065  1.00  0.00     0.198 A 
ATOM     76  F   UNL A   1      49.665  27.122  30.341  1.00  0.00    -0.203 F 
ATOM     77  F   UNL A   1      52.166  28.386  25.658  1.00  0.00    -0.200 F 
ATOM     78  C   UNL A   1      52.278  27.593  27.879  1.00  0.00     0.200 A 
ATOM     79  F   UNL A   1      52.338  26.788  30.097  1.00  0.00    -0.200 F 
ATOM     80  F   UNL A   1      53.598  27.396  27.757  1.00  0.00    -0.200 F 
ENDBRANCH  56  70
BRANCH  57  81
ATOM     81  C   UNL A   1      39.586  29.077  28.892  1.00  0.00     0.064 A 
ATOM     82  C   UNL A   1      38.770  29.443  27.813  1.00  0.00     0.173 A 
ATOM     83  C   UNL A   1      38.971  28.903  30.142  1.00  0.00     0.173 A 
ATOM     84  F   UNL A   1      39.310  29.642  26.602  1.00  0.00    -0.203 F 
ATOM     85  C   UNL A   1      37.403  29.659  27.983  1.00  0.00     0.198 A 
ATOM     86  C   UNL A   1      37.599  29.085  30.304  1.00  0.00     0.198 A 
ATOM     87  F   UNL A   1      39.704  28.554  31.209  1.00  0.00    -0.203 F 
ATOM     88  F   UNL A   1      36.658  30.069  26.948  1.00  0.00    -0.200 F 
ATOM     89  C   UNL A   1      36.818  29.475  29.227  1.00  0.00     0.200 A 
ATOM     90  F   UNL A   1      37.037  28.889  31.504  1.00  0.00    -0.200 F 
ATOM     91  F   UNL A   1      35.504  29.682  29.390  1.00  0.00    -0.200 F 
ENDBRANCH  57  81
BRANCH  69  92
ATOM     92  C   UNL A   1      45.025  33.070  30.646  1.00  0.00     0.064 A 
ATOM     93  C   UNL A   1      45.116  33.248  32.034  1.00  0.00     0.173 A 
ATOM     94  C   UNL A   1      45.030  34.217  29.837  1.00  0.00     0.173 A 
ATOM     95  F   UNL A   1      45.105  32.186  32.855  1.00  0.00    -0.203 F 
ATOM     96  C   UNL A   1      45.158  34.524  32.592  1.00  0.00     0.198 A 
ATOM     97  C   UNL A   1      45.114  35.489  30.394  1.00  0.00     0.198 A 
ATOM     98  F   UNL A   1      44.959  34.105  28.502  1.00  0.00    -0.203 F 
ATOM     99  F   UNL A   1      45.168  34.670  33.924  1.00  0.00    -0.200 F 
ATOM    100  C   UNL A   1      45.162  35.642  31.772  1.00  0.00     0.200 A 
ATOM    101  F   UNL A   1      45.138  36.568  29.600  1.00  0.00    -0.200 F 
ATOM    102  F   UNL A   1      45.200  36.869  32.309  1.00  0.00    -0.200 F 
ENDBRANCH  69  92
ENDBRANCH  43  44
ENDBRANCH  36  38
ENDBRANCH  35  36
ENDBRANCH  34  35
ENDBRANCH  33  34
ENDBRANCH  32  33
ENDBRANCH  31  32
ENDBRANCH  30  31
ENDBRANCH  29  30
ENDBRANCH  28  29
ENDBRANCH   1  28
TORSDOF 26
ENDMDL
MODEL 3
REMARK VINA RESULT:      -9.8      5.649     11.058
REMARK SMILES O=C(C[C@H]([NH2+]Cc1ccccc1C1CC1)c1cccs1)OCCOCCOCCOCCOC(=O)c1ccc(-c2c3nc(c(-c4c(F)c(F)c(F)c(F)c4F)c4ccc([nH]4)c(-c4c(F)c(F)c(F)c(F)c4F)c4nc(c(-c5c(F)c(F)c(F)c(F)c5F)c5ccc2[nH]5)C=C4)C=C3)cc1
REMARK SMILES IDX 25 1 24 2 23 3 22 4 21 5 2 6 1 7 3 8 4 9 16 10 17 11 20 12
REMARK SMILES IDX 18 13 19 14 5 15 6 18 7 19 8 20 12 21 9 22 11 23 10 24 13 25
REMARK SMILES IDX 14 26 15 27 26 28 27 29 28 30 29 31 30 32 31 33 32 34 33 35
REMARK SMILES IDX 34 36 35 37 36 38 37 39 98 40 38 41 97 42 39 43 40 44 41 45
REMARK SMILES IDX 91 46 42 47 96 48 90 49 92 50 43 51 95 52 89 53 88 54 44 56
REMARK SMILES IDX 76 57 56 58 75 59 57 60 60 61 74 62 93 63 58 64 59 65 73 67
REMARK SMILES IDX 94 68 61 69 45 70 46 71 54 72 47 73 48 74 52 75 55 76 49 77
REMARK SMILES IDX 50 78 53 79 51 80 77 81 78 82 86 83 79 84 80 85 84 86 87 87
REMARK SMILES IDX 81 88 82 89 85 90 83 91 62 92 63 93 71 94 64 95 65 96 69 97
REMARK SMILES IDX 72 98 66 99 67 100 70 101 68 102
REMARK H PARENT 5 16 5 17 92 55 60 66
REMARK Flexibility Score: inf
ROOT
ATOM      1  C   UNL A   1      35.133  33.816  27.934  1.00  0.00     0.188 C 
ENDROOT
BRANCH   1   2
ATOM      2  O   UNL A   1      34.850  32.468  27.593  1.00  0.00    -0.376 OA
BRANCH   2   3
ATOM      3  C   UNL A   1      33.906  31.609  28.183  1.00  0.00     0.202 C 
BRANCH   3   4
ATOM      4  C   UNL A   1      32.916  30.823  27.349  1.00  0.00     0.261 C 
BRANCH   4   5
ATOM      5  O   UNL A   1      33.035  29.391  27.379  1.00  0.00    -0.463 OA
BRANCH   5   6
ATOM      6  C   UNL A   1      32.161  28.413  27.067  1.00  0.00     0.312 C 
ATOM      7  O   UNL A   1      31.761  27.683  27.973  1.00  0.00    -0.252 OA
BRANCH   6   8
ATOM      8  C   UNL A   1      31.770  28.131  25.644  1.00  0.00     0.193 C 
BRANCH   8   9
ATOM      9  C   UNL A   1      31.921  26.677  25.219  1.00  0.00     0.235 C 
BRANCH   9  10
ATOM     10  C   UNL A   1      32.197  26.576  23.731  1.00  0.00     0.062 A 
ATOM     11  C   UNL A   1      33.267  27.116  23.035  1.00  0.00     0.021 A 
ATOM     12  S   UNL A   1      31.193  25.648  22.689  1.00  0.00    -0.143 S 
ATOM     13  C   UNL A   1      33.270  26.748  21.660  1.00  0.00     0.012 A 
ATOM     14  C   UNL A   1      32.198  25.948  21.340  1.00  0.00     0.065 A 
ENDBRANCH   9  10
BRANCH   9  15
ATOM     15  N   UNL A   1      32.942  26.006  26.021  1.00  0.00    -0.335 N 
ATOM     16  H   UNL A   1      32.845  26.299  26.993  1.00  0.00     0.347 HD
ATOM     17  H   UNL A   1      33.858  26.263  25.653  1.00  0.00     0.347 HD
BRANCH  15  18
ATOM     18  C   UNL A   1      32.812  24.556  25.948  1.00  0.00     0.298 C 
BRANCH  18  19
ATOM     19  C   UNL A   1      34.065  23.934  25.384  1.00  0.00     0.010 A 
ATOM     20  C   UNL A   1      35.272  24.518  25.834  1.00  0.00     0.010 A 
ATOM     21  C   UNL A   1      34.099  22.822  24.502  1.00  0.00    -0.036 A 
ATOM     22  C   UNL A   1      36.507  24.076  25.381  1.00  0.00     0.001 A 
ATOM     23  C   UNL A   1      35.376  22.453  24.017  1.00  0.00     0.004 A 
ATOM     24  C   UNL A   1      36.558  23.060  24.445  1.00  0.00     0.000 A 
BRANCH  21  25
ATOM     25  C   UNL A   1      32.979  21.867  24.105  1.00  0.00     0.020 C 
ATOM     26  C   UNL A   1      31.507  22.093  24.188  1.00  0.00     0.009 C 
ATOM     27  C   UNL A   1      32.159  22.082  22.849  1.00  0.00     0.009 C 
ENDBRANCH  21  25
ENDBRANCH  18  19
ENDBRANCH  15  18
ENDBRANCH   9  15
ENDBRANCH   8   9
ENDBRANCH   6   8
ENDBRANCH   5   6
ENDBRANCH   4   5
ENDBRANCH   3   4
ENDBRANCH   2   3
ENDBRANCH   1   2
BRANCH   1  28
ATOM     28  C   UNL A   1      34.914  34.300  29.371  1.00  0.00     0.188 C 
BRANCH  28  29
ATOM     29  O   UNL A   1      35.859  33.912  30.357  1.00  0.00    -0.377 OA
BRANCH  29  30
ATOM     30  C   UNL A   1      37.176  33.694  29.886  1.00  0.00     0.188 C 
BRANCH  30  31
ATOM     31  C   UNL A   1      38.268  34.059  30.910  1.00  0.00     0.188 C 
BRANCH  31  32
ATOM     32  O   UNL A   1      37.914  34.914  31.973  1.00  0.00    -0.376 OA
BRANCH  32  33
ATOM     33  C   UNL A   1      37.600  34.458  33.278  1.00  0.00     0.202 C 
BRANCH  33  34
ATOM     34  C   UNL A   1      36.443  33.532  33.701  1.00  0.00     0.261 C 
BRANCH  34  35
ATOM     35  O   UNL A   1      36.622  32.122  33.628  1.00  0.00    -0.460 OA
BRANCH  35  36
ATOM     36  C   UNL A   1      35.946  31.477  32.662  1.00  0.00     0.338 C 
ATOM     37  O   UNL A   1      34.776  31.629  32.345  1.00  0.00    -0.246 OA
BRANCH  36  38
ATOM     38  C   UNL A   1      36.937  30.722  31.868  1.00  0.00     0.060 A 
ATOM     39  C   UNL A   1      38.162  30.415  32.476  1.00  0.00     0.016 A 
ATOM     40  C   UNL A   1      36.654  30.274  30.574  1.00  0.00     0.016 A 
ATOM     41  C   UNL A   1      39.124  29.698  31.780  1.00  0.00     0.010 A 
ATOM     42  C   UNL A   1      37.642  29.596  29.854  1.00  0.00     0.010 A 
ATOM     43  C   UNL A   1      38.894  29.350  30.444  1.00  0.00    -0.014 A 
BRANCH  43  44
ATOM     44  C   UNL A   1      40.073  29.000  29.624  1.00  0.00     0.031 A 
ATOM     45  C   UNL A   1      41.117  30.065  29.421  1.00  0.00     0.074 A 
ATOM     46  C   UNL A   1      40.273  27.748  29.185  1.00  0.00     0.049 A 
ATOM     47  N   UNL A   1      42.271  29.994  28.810  1.00  0.00    -0.248 NA
ATOM     48  C   UNL A   1      40.820  31.388  29.996  1.00  0.00     0.031 C 
ATOM     49  C   UNL A   1      39.354  26.628  29.373  1.00  0.00     0.029 A 
ATOM     50  N   UNL A   1      41.328  27.209  28.494  1.00  0.00    -0.354 N 
ATOM     51  C   UNL A   1      42.839  31.254  28.942  1.00  0.00     0.074 A 
ATOM     52  C   UNL A   1      41.888  32.085  29.643  1.00  0.00     0.031 C 
ATOM     53  C   UNL A   1      39.883  25.532  28.800  1.00  0.00     0.029 A 
ATOM     54  C   UNL A   1      41.164  25.882  28.188  1.00  0.00     0.049 A 
ATOM     55  H   UNL A   1      42.128  27.726  28.243  1.00  0.00     0.167 HD
ATOM     56  C   UNL A   1      44.057  31.676  28.530  1.00  0.00     0.037 A 
ATOM     57  C   UNL A   1      41.955  25.057  27.476  1.00  0.00     0.037 A 
ATOM     58  C   UNL A   1      44.993  30.850  27.816  1.00  0.00     0.049 A 
ATOM     59  C   UNL A   1      43.271  25.577  26.951  1.00  0.00     0.074 A 
ATOM     60  C   UNL A   1      46.245  31.183  27.331  1.00  0.00     0.029 A 
ATOM     61  N   UNL A   1      44.771  29.522  27.477  1.00  0.00    -0.354 N 
ATOM     62  N   UNL A   1      43.810  26.766  27.087  1.00  0.00    -0.248 NA
ATOM     63  C   UNL A   1      44.095  24.634  26.184  1.00  0.00     0.031 C 
ATOM     64  C   UNL A   1      46.757  30.073  26.650  1.00  0.00     0.029 A 
ATOM     65  C   UNL A   1      45.855  29.027  26.771  1.00  0.00     0.049 A 
ATOM     66  H   UNL A   1      43.964  29.008  27.706  1.00  0.00     0.167 HD
ATOM     67  C   UNL A   1      45.042  26.704  26.450  1.00  0.00     0.074 A 
ATOM     68  C   UNL A   1      45.183  25.351  25.952  1.00  0.00     0.031 C 
ATOM     69  C   UNL A   1      45.974  27.677  26.284  1.00  0.00     0.037 A 
BRANCH  56  70
ATOM     70  C   UNL A   1      44.430  33.101  28.822  1.00  0.00     0.064 A 
ATOM     71  C   UNL A   1      45.080  33.464  30.011  1.00  0.00     0.173 A 
ATOM     72  C   UNL A   1      44.154  34.113  27.891  1.00  0.00     0.173 A 
ATOM     73  F   UNL A   1      45.348  32.539  30.945  1.00  0.00    -0.203 F 
ATOM     74  C   UNL A   1      45.421  34.790  30.267  1.00  0.00     0.198 A 
ATOM     75  C   UNL A   1      44.525  35.432  28.134  1.00  0.00     0.198 A 
ATOM     76  F   UNL A   1      43.530  33.821  26.739  1.00  0.00    -0.203 F 
ATOM     77  F   UNL A   1      45.997  35.120  31.430  1.00  0.00    -0.200 F 
ATOM     78  C   UNL A   1      45.152  35.771  29.323  1.00  0.00     0.200 A 
ATOM     79  F   UNL A   1      44.276  36.376  27.217  1.00  0.00    -0.200 F 
ATOM     80  F   UNL A   1      45.491  37.044  29.565  1.00  0.00    -0.200 F 
ENDBRANCH  56  70
BRANCH  57  81
ATOM     81  C   UNL A   1      41.520  23.663  27.194  1.00  0.00     0.064 A 
ATOM     82  C   UNL A   1      40.435  23.390  26.349  1.00  0.00     0.173 A 
ATOM     83  C   UNL A   1      42.161  22.572  27.802  1.00  0.00     0.173 A 
ATOM     84  F   UNL A   1      39.774  24.396  25.760  1.00  0.00    -0.203 F 
ATOM     85  C   UNL A   1      39.989  22.084  26.148  1.00  0.00     0.198 A 
ATOM     86  C   UNL A   1      41.737  21.265  27.572  1.00  0.00     0.198 A 
ATOM     87  F   UNL A   1      43.204  22.776  28.619  1.00  0.00    -0.203 F 
ATOM     88  F   UNL A   1      38.911  21.857  25.386  1.00  0.00    -0.200 F 
ATOM     89  C   UNL A   1      40.643  21.023  26.756  1.00  0.00     0.200 A 
ATOM     90  F   UNL A   1      42.384  20.243  28.149  1.00  0.00    -0.200 F 
ATOM     91  F   UNL A   1      40.214  19.767  26.562  1.00  0.00    -0.200 F 
ENDBRANCH  57  81
BRANCH  69  92
ATOM     92  C   UNL A   1      47.241  27.298  25.566  1.00  0.00     0.064 A 
ATOM     93  C   UNL A   1      47.422  27.552  24.198  1.00  0.00     0.173 A 
ATOM     94  C   UNL A   1      48.293  26.679  26.261  1.00  0.00     0.173 A 
ATOM     95  F   UNL A   1      46.445  28.132  23.484  1.00  0.00    -0.203 F 
ATOM     96  C   UNL A   1      48.586  27.158  23.543  1.00  0.00     0.198 A 
ATOM     97  C   UNL A   1      49.471  26.323  25.612  1.00  0.00     0.198 A 
ATOM     98  F   UNL A   1      48.180  26.424  27.573  1.00  0.00    -0.203 F 
ATOM     99  F   UNL A   1      48.704  27.344  22.221  1.00  0.00    -0.200 F 
ATOM    100  C   UNL A   1      49.611  26.548  24.251  1.00  0.00     0.200 A 
ATOM    101  F   UNL A   1      50.469  25.753  26.302  1.00  0.00    -0.200 F 
ATOM    102  F   UNL A   1      50.730  26.167  23.619  1.00  0.00    -0.200 F 
ENDBRANCH  69  92
ENDBRANCH  43  44
ENDBRANCH  36  38
ENDBRANCH  35  36
ENDBRANCH  34  35
ENDBRANCH  33  34
ENDBRANCH  32  33
ENDBRANCH  31  32
ENDBRANCH  30  31
ENDBRANCH  29  30
ENDBRANCH  28  29
ENDBRANCH   1  28
TORSDOF 26
ENDMDL
