MODEL 1
REMARK VINA RESULT:     -10.4      0.000      0.000
REMARK SMILES C[C@@H]1Oc2c(C(=O)OCCOCCOCCOCCOC(=O)c3ccc(-c4c5nc(c(-c6c(F)c(F)c(F)c(F)c6F)c6ccc([nH]6)c(-c6c(F)c(F)c(F)c(F)c6F)c6nc(c(-c7c(F)c(F)c(F)c(F)c7F)c7ccc4[nH]7)C=C6)C=C5)cc3)cccc2[C@@H]1C
REMARK SMILES IDX 15 1 14 2 13 3 12 4 11 5 10 6 9 7 8 8 6 9 7 10 5 11 1 12
REMARK SMILES IDX 2 13 3 14 90 15 4 16 89 17 91 18 88 19 86 20 87 21 16 22
REMARK SMILES IDX 17 23 18 24 19 25 20 26 21 27 22 28 23 29 24 30 85 31 25 32
REMARK SMILES IDX 84 33 26 34 27 35 28 36 78 37 29 38 83 39 77 40 79 41 30 42
REMARK SMILES IDX 82 43 76 44 75 45 31 47 63 48 43 49 62 50 44 51 47 52 61 53
REMARK SMILES IDX 80 54 45 55 46 56 60 58 81 59 48 60 32 61 33 62 41 63 34 64
REMARK SMILES IDX 35 65 39 66 42 67 36 68 37 69 40 70 38 71 64 72 65 73 73 74
REMARK SMILES IDX 66 75 67 76 71 77 74 78 68 79 69 80 72 81 70 82 49 83 50 84
REMARK SMILES IDX 58 85 51 86 52 87 56 88 59 89 53 90 54 91 57 92 55 93
REMARK H PARENT 79 46 47 57
REMARK Flexibility Score: inf
ROOT
ATOM      1  C   UNL A   1      43.356  18.718  26.138  1.00  0.00     0.188 C 
ENDROOT
BRANCH   1   2
ATOM      2  O   UNL A   1      42.313  19.081  27.030  1.00  0.00    -0.377 OA
BRANCH   2   3
ATOM      3  C   UNL A   1      41.650  20.329  26.874  1.00  0.00     0.188 C 
BRANCH   3   4
ATOM      4  C   UNL A   1      40.286  20.398  26.160  1.00  0.00     0.188 C 
BRANCH   4   5
ATOM      5  O   UNL A   1      39.789  21.717  25.963  1.00  0.00    -0.376 OA
BRANCH   5   6
ATOM      6  C   UNL A   1      38.415  21.813  25.613  1.00  0.00     0.202 C 
BRANCH   6   7
ATOM      7  C   UNL A   1      37.764  23.123  26.062  1.00  0.00     0.261 C 
BRANCH   7   8
ATOM      8  O   UNL A   1      36.336  23.061  26.195  1.00  0.00    -0.460 OA
BRANCH   8   9
ATOM      9  C   UNL A   1      35.592  23.437  25.128  1.00  0.00     0.342 C 
ATOM     10  O   UNL A   1      35.953  23.451  23.963  1.00  0.00    -0.246 OA
BRANCH   9  11
ATOM     11  C   UNL A   1      34.236  23.759  25.623  1.00  0.00     0.102 A 
ATOM     12  C   UNL A   1      33.740  28.416  24.901  1.00  0.00     0.053 C 
ATOM     13  C   UNL A   1      33.738  27.318  25.959  1.00  0.00     0.177 C 
ATOM     14  O   UNL A   1      34.522  26.194  25.470  1.00  0.00    -0.489 OA
ATOM     15  C   UNL A   1      32.346  26.820  26.418  1.00  0.00     0.060 C 
ATOM     16  C   UNL A   1      33.813  25.071  25.802  1.00  0.00     0.137 A 
ATOM     17  C   UNL A   1      32.541  25.350  26.283  1.00  0.00     0.002 A 
ATOM     18  C   UNL A   1      31.135  27.337  25.651  1.00  0.00     0.017 C 
ATOM     19  C   UNL A   1      31.645  24.331  26.573  1.00  0.00     0.008 A 
ATOM     20  C   UNL A   1      33.329  22.723  25.898  1.00  0.00     0.019 A 
ATOM     21  C   UNL A   1      32.040  23.009  26.363  1.00  0.00     0.001 A 
ENDBRANCH   9  11
ENDBRANCH   8   9
ENDBRANCH   7   8
ENDBRANCH   6   7
ENDBRANCH   5   6
ENDBRANCH   4   5
ENDBRANCH   3   4
ENDBRANCH   2   3
ENDBRANCH   1   2
BRANCH   1  22
ATOM     22  C   UNL A   1      43.881  19.723  25.091  1.00  0.00     0.188 C 
BRANCH  22  23
ATOM     23  O   UNL A   1      45.293  19.885  25.080  1.00  0.00    -0.376 OA
BRANCH  23  24
ATOM     24  C   UNL A   1      45.778  21.217  25.015  1.00  0.00     0.202 C 
BRANCH  24  25
ATOM     25  C   UNL A   1      45.182  22.151  26.073  1.00  0.00     0.261 C 
BRANCH  25  26
ATOM     26  O   UNL A   1      44.783  23.441  25.584  1.00  0.00    -0.460 OA
BRANCH  26  27
ATOM     27  C   UNL A   1      43.486  23.602  25.236  1.00  0.00     0.338 C 
ATOM     28  O   UNL A   1      42.844  22.940  24.443  1.00  0.00    -0.246 OA
BRANCH  27  29
ATOM     29  C   UNL A   1      42.915  24.626  26.134  1.00  0.00     0.060 A 
ATOM     30  C   UNL A   1      41.933  24.276  27.063  1.00  0.00     0.016 A 
ATOM     31  C   UNL A   1      43.348  25.952  26.023  1.00  0.00     0.016 A 
ATOM     32  C   UNL A   1      41.413  25.251  27.914  1.00  0.00     0.010 A 
ATOM     33  C   UNL A   1      42.824  26.930  26.872  1.00  0.00     0.010 A 
ATOM     34  C   UNL A   1      41.877  26.577  27.844  1.00  0.00    -0.014 A 
BRANCH  34  35
ATOM     35  C   UNL A   1      41.534  27.514  28.940  1.00  0.00     0.031 A 
ATOM     36  C   UNL A   1      40.365  28.444  28.870  1.00  0.00     0.074 A 
ATOM     37  C   UNL A   1      42.322  27.494  30.032  1.00  0.00     0.049 A 
ATOM     38  N   UNL A   1      39.871  29.205  29.814  1.00  0.00    -0.248 NA
ATOM     39  C   UNL A   1      39.665  28.547  27.584  1.00  0.00     0.031 C 
ATOM     40  C   UNL A   1      43.521  26.667  30.178  1.00  0.00     0.029 A 
ATOM     41  N   UNL A   1      42.233  28.168  31.222  1.00  0.00    -0.354 N 
ATOM     42  C   UNL A   1      38.788  29.860  29.249  1.00  0.00     0.074 A 
ATOM     43  C   UNL A   1      38.725  29.446  27.861  1.00  0.00     0.031 C 
ATOM     44  C   UNL A   1      44.037  26.854  31.401  1.00  0.00     0.029 A 
ATOM     45  C   UNL A   1      43.214  27.824  32.118  1.00  0.00     0.049 A 
ATOM     46  H   UNL A   1      41.534  28.834  31.415  1.00  0.00     0.167 HD
ATOM     47  C   UNL A   1      37.920  30.711  29.848  1.00  0.00     0.037 A 
ATOM     48  C   UNL A   1      43.422  28.228  33.385  1.00  0.00     0.037 A 
ATOM     49  C   UNL A   1      38.001  31.119  31.229  1.00  0.00     0.049 A 
ATOM     50  C   UNL A   1      42.450  29.184  34.016  1.00  0.00     0.074 A 
ATOM     51  C   UNL A   1      37.126  31.920  31.942  1.00  0.00     0.029 A 
ATOM     52  N   UNL A   1      39.024  30.773  32.101  1.00  0.00    -0.354 N 
ATOM     53  N   UNL A   1      41.359  29.703  33.510  1.00  0.00    -0.248 NA
ATOM     54  C   UNL A   1      42.731  29.603  35.397  1.00  0.00     0.031 C 
ATOM     55  C   UNL A   1      37.645  32.104  33.226  1.00  0.00     0.029 A 
ATOM     56  C   UNL A   1      38.818  31.375  33.333  1.00  0.00     0.049 A 
ATOM     57  H   UNL A   1      39.782  30.186  31.878  1.00  0.00     0.167 HD
ATOM     58  C   UNL A   1      40.812  30.492  34.510  1.00  0.00     0.074 A 
ATOM     59  C   UNL A   1      41.683  30.371  35.662  1.00  0.00     0.031 C 
ATOM     60  C   UNL A   1      39.689  31.248  34.473  1.00  0.00     0.037 A 
BRANCH  47  61
ATOM     61  C   UNL A   1      36.778  31.251  29.037  1.00  0.00     0.064 A 
ATOM     62  C   UNL A   1      35.665  30.454  28.733  1.00  0.00     0.173 A 
ATOM     63  C   UNL A   1      36.731  32.608  28.680  1.00  0.00     0.173 A 
ATOM     64  F   UNL A   1      35.658  29.152  29.056  1.00  0.00    -0.203 F 
ATOM     65  C   UNL A   1      34.550  30.993  28.095  1.00  0.00     0.198 A 
ATOM     66  C   UNL A   1      35.604  33.149  28.064  1.00  0.00     0.198 A 
ATOM     67  F   UNL A   1      37.763  33.418  28.963  1.00  0.00    -0.203 F 
ATOM     68  F   UNL A   1      33.503  30.208  27.804  1.00  0.00    -0.200 F 
ATOM     69  C   UNL A   1      34.516  32.341  27.773  1.00  0.00     0.200 A 
ATOM     70  F   UNL A   1      35.564  34.456  27.771  1.00  0.00    -0.200 F 
ATOM     71  F   UNL A   1      33.430  32.864  27.186  1.00  0.00    -0.200 F 
ENDBRANCH  47  61
BRANCH  48  72
ATOM     72  C   UNL A   1      44.570  27.677  34.146  1.00  0.00     0.064 A 
ATOM     73  C   UNL A   1      45.810  28.328  34.145  1.00  0.00     0.173 A 
ATOM     74  C   UNL A   1      44.440  26.515  34.921  1.00  0.00     0.173 A 
ATOM     75  F   UNL A   1      45.984  29.435  33.408  1.00  0.00    -0.203 F 
ATOM     76  C   UNL A   1      46.882  27.832  34.883  1.00  0.00     0.198 A 
ATOM     77  C   UNL A   1      45.505  26.036  35.680  1.00  0.00     0.198 A 
ATOM     78  F   UNL A   1      43.270  25.863  34.963  1.00  0.00    -0.203 F 
ATOM     79  F   UNL A   1      48.067  28.457  34.842  1.00  0.00    -0.200 F 
ATOM     80  C   UNL A   1      46.726  26.692  35.656  1.00  0.00     0.200 A 
ATOM     81  F   UNL A   1      45.344  24.944  36.440  1.00  0.00    -0.200 F 
ATOM     82  F   UNL A   1      47.754  26.223  36.377  1.00  0.00    -0.200 F 
ENDBRANCH  48  72
BRANCH  60  83
ATOM     83  C   UNL A   1      39.320  32.011  35.711  1.00  0.00     0.064 A 
ATOM     84  C   UNL A   1      39.800  33.308  35.936  1.00  0.00     0.173 A 
ATOM     85  C   UNL A   1      38.402  31.479  36.628  1.00  0.00     0.173 A 
ATOM     86  F   UNL A   1      40.691  33.854  35.095  1.00  0.00    -0.203 F 
ATOM     87  C   UNL A   1      39.373  34.047  37.036  1.00  0.00     0.198 A 
ATOM     88  C   UNL A   1      37.958  32.230  37.713  1.00  0.00     0.198 A 
ATOM     89  F   UNL A   1      37.909  30.243  36.454  1.00  0.00    -0.203 F 
ATOM     90  F   UNL A   1      39.859  35.279  37.244  1.00  0.00    -0.200 F 
ATOM     91  C   UNL A   1      38.443  33.513  37.916  1.00  0.00     0.200 A 
ATOM     92  F   UNL A   1      37.048  31.718  38.554  1.00  0.00    -0.200 F 
ATOM     93  F   UNL A   1      38.014  34.236  38.960  1.00  0.00    -0.200 F 
ENDBRANCH  60  83
ENDBRANCH  34  35
ENDBRANCH  27  29
ENDBRANCH  26  27
ENDBRANCH  25  26
ENDBRANCH  24  25
ENDBRANCH  23  24
ENDBRANCH  22  23
ENDBRANCH   1  22
TORSDOF 20
ENDMDL
MODEL 2
REMARK VINA RESULT:      -9.8      4.792     11.165
REMARK SMILES C[C@@H]1Oc2c(C(=O)OCCOCCOCCOCCOC(=O)c3ccc(-c4c5nc(c(-c6c(F)c(F)c(F)c(F)c6F)c6ccc([nH]6)c(-c6c(F)c(F)c(F)c(F)c6F)c6nc(c(-c7c(F)c(F)c(F)c(F)c7F)c7ccc4[nH]7)C=C6)C=C5)cc3)cccc2[C@@H]1C
REMARK SMILES IDX 15 1 14 2 13 3 12 4 11 5 10 6 9 7 8 8 6 9 7 10 5 11 1 12
REMARK SMILES IDX 2 13 3 14 90 15 4 16 89 17 91 18 88 19 86 20 87 21 16 22
REMARK SMILES IDX 17 23 18 24 19 25 20 26 21 27 22 28 23 29 24 30 85 31 25 32
REMARK SMILES IDX 84 33 26 34 27 35 28 36 78 37 29 38 83 39 77 40 79 41 30 42
REMARK SMILES IDX 82 43 76 44 75 45 31 47 63 48 43 49 62 50 44 51 47 52 61 53
REMARK SMILES IDX 80 54 45 55 46 56 60 58 81 59 48 60 32 61 33 62 41 63 34 64
REMARK SMILES IDX 35 65 39 66 42 67 36 68 37 69 40 70 38 71 64 72 65 73 73 74
REMARK SMILES IDX 66 75 67 76 71 77 74 78 68 79 69 80 72 81 70 82 49 83 50 84
REMARK SMILES IDX 58 85 51 86 52 87 56 88 59 89 53 90 54 91 57 92 55 93
REMARK H PARENT 79 46 47 57
REMARK Flexibility Score: inf
ROOT
ATOM      1  C   UNL A   1      32.828  36.331  29.715  1.00  0.00     0.188 C 
ENDROOT
BRANCH   1   2
ATOM      2  O   UNL A   1      32.746  37.254  30.791  1.00  0.00    -0.377 OA
BRANCH   2   3
ATOM      3  C   UNL A   1      32.789  36.785  32.131  1.00  0.00     0.188 C 
BRANCH   3   4
ATOM      4  C   UNL A   1      34.031  37.049  33.006  1.00  0.00     0.188 C 
BRANCH   4   5
ATOM      5  O   UNL A   1      34.280  36.054  33.993  1.00  0.00    -0.376 OA
BRANCH   5   6
ATOM      6  C   UNL A   1      34.916  34.870  33.530  1.00  0.00     0.202 C 
BRANCH   6   7
ATOM      7  C   UNL A   1      35.997  34.350  34.479  1.00  0.00     0.261 C 
BRANCH   7   8
ATOM      8  O   UNL A   1      37.133  33.768  33.823  1.00  0.00    -0.460 OA
BRANCH   8   9
ATOM      9  C   UNL A   1      38.190  34.575  33.570  1.00  0.00     0.342 C 
ATOM     10  O   UNL A   1      38.767  35.286  34.375  1.00  0.00    -0.246 OA
BRANCH   9  11
ATOM     11  C   UNL A   1      38.565  34.383  32.152  1.00  0.00     0.102 A 
ATOM     12  C   UNL A   1      43.291  34.037  32.165  1.00  0.00     0.053 C 
ATOM     13  C   UNL A   1      42.107  34.830  31.624  1.00  0.00     0.177 C 
ATOM     14  O   UNL A   1      40.976  34.661  32.525  1.00  0.00    -0.489 OA
ATOM     15  C   UNL A   1      41.672  34.498  30.176  1.00  0.00     0.060 C 
ATOM     16  C   UNL A   1      39.882  34.479  31.722  1.00  0.00     0.137 A 
ATOM     17  C   UNL A   1      40.209  34.311  30.383  1.00  0.00     0.002 A 
ATOM     18  C   UNL A   1      42.340  33.303  29.507  1.00  0.00     0.017 C 
ATOM     19  C   UNL A   1      39.236  34.013  29.439  1.00  0.00     0.008 A 
ATOM     20  C   UNL A   1      37.577  34.065  31.206  1.00  0.00     0.019 A 
ATOM     21  C   UNL A   1      37.913  33.875  29.860  1.00  0.00     0.001 A 
ENDBRANCH   9  11
ENDBRANCH   8   9
ENDBRANCH   7   8
ENDBRANCH   6   7
ENDBRANCH   5   6
ENDBRANCH   4   5
ENDBRANCH   3   4
ENDBRANCH   2   3
ENDBRANCH   1   2
BRANCH   1  22
ATOM     22  C   UNL A   1      33.954  36.444  28.666  1.00  0.00     0.188 C 
BRANCH  22  23
ATOM     23  O   UNL A   1      34.660  35.235  28.421  1.00  0.00    -0.376 OA
BRANCH  23  24
ATOM     24  C   UNL A   1      34.142  34.063  29.030  1.00  0.00     0.202 C 
BRANCH  24  25
ATOM     25  C   UNL A   1      33.772  32.955  28.039  1.00  0.00     0.261 C 
BRANCH  25  26
ATOM     26  O   UNL A   1      34.886  32.214  27.517  1.00  0.00    -0.460 OA
BRANCH  26  27
ATOM     27  C   UNL A   1      34.771  30.868  27.464  1.00  0.00     0.338 C 
ATOM     28  O   UNL A   1      33.908  30.220  26.904  1.00  0.00    -0.246 OA
BRANCH  27  29
ATOM     29  C   UNL A   1      35.997  30.299  28.060  1.00  0.00     0.060 A 
ATOM     30  C   UNL A   1      37.240  30.538  27.472  1.00  0.00     0.016 A 
ATOM     31  C   UNL A   1      35.892  29.495  29.202  1.00  0.00     0.016 A 
ATOM     32  C   UNL A   1      38.390  30.006  28.055  1.00  0.00     0.010 A 
ATOM     33  C   UNL A   1      37.044  28.957  29.783  1.00  0.00     0.010 A 
ATOM     34  C   UNL A   1      38.302  29.237  29.230  1.00  0.00    -0.014 A 
BRANCH  34  35
ATOM     35  C   UNL A   1      39.542  28.939  29.985  1.00  0.00     0.031 A 
ATOM     36  C   UNL A   1      39.883  29.614  31.274  1.00  0.00     0.074 A 
ATOM     37  C   UNL A   1      40.365  28.009  29.465  1.00  0.00     0.049 A 
ATOM     38  N   UNL A   1      40.858  29.340  32.105  1.00  0.00    -0.248 NA
ATOM     39  C   UNL A   1      39.041  30.745  31.684  1.00  0.00     0.031 C 
ATOM     40  C   UNL A   1      40.154  27.331  28.185  1.00  0.00     0.029 A 
ATOM     41  N   UNL A   1      41.528  27.463  29.945  1.00  0.00    -0.354 N 
ATOM     42  C   UNL A   1      40.736  30.245  33.148  1.00  0.00     0.074 A 
ATOM     43  C   UNL A   1      39.620  31.111  32.823  1.00  0.00     0.031 C 
ATOM     44  C   UNL A   1      41.132  26.435  27.996  1.00  0.00     0.029 A 
ATOM     45  C   UNL A   1      42.046  26.485  29.134  1.00  0.00     0.049 A 
ATOM     46  H   UNL A   1      41.948  27.744  30.790  1.00  0.00     0.167 HD
ATOM     47  C   UNL A   1      41.478  30.321  34.280  1.00  0.00     0.037 A 
ATOM     48  C   UNL A   1      43.129  25.700  29.293  1.00  0.00     0.037 A 
ATOM     49  C   UNL A   1      42.590  29.455  34.585  1.00  0.00     0.049 A 
ATOM     50  C   UNL A   1      43.940  25.820  30.551  1.00  0.00     0.074 A 
ATOM     51  C   UNL A   1      43.355  29.410  35.738  1.00  0.00     0.029 A 
ATOM     52  N   UNL A   1      43.106  28.493  33.728  1.00  0.00    -0.354 N 
ATOM     53  N   UNL A   1      43.742  26.596  31.587  1.00  0.00    -0.248 NA
ATOM     54  C   UNL A   1      45.118  24.949  30.668  1.00  0.00     0.031 C 
ATOM     55  C   UNL A   1      44.366  28.463  35.558  1.00  0.00     0.029 A 
ATOM     56  C   UNL A   1      44.201  27.877  34.314  1.00  0.00     0.049 A 
ATOM     57  H   UNL A   1      42.747  28.278  32.836  1.00  0.00     0.167 HD
ATOM     58  C   UNL A   1      44.754  26.296  32.486  1.00  0.00     0.074 A 
ATOM     59  C   UNL A   1      45.558  25.254  31.881  1.00  0.00     0.031 C 
ATOM     60  C   UNL A   1      44.993  26.839  33.704  1.00  0.00     0.037 A 
BRANCH  47  61
ATOM     61  C   UNL A   1      41.112  31.356  35.303  1.00  0.00     0.064 A 
ATOM     62  C   UNL A   1      41.871  32.527  35.453  1.00  0.00     0.173 A 
ATOM     63  C   UNL A   1      39.925  31.244  36.044  1.00  0.00     0.173 A 
ATOM     64  F   UNL A   1      43.012  32.684  34.765  1.00  0.00    -0.203 F 
ATOM     65  C   UNL A   1      41.457  33.544  36.309  1.00  0.00     0.198 A 
ATOM     66  C   UNL A   1      39.502  32.275  36.881  1.00  0.00     0.198 A 
ATOM     67  F   UNL A   1      39.155  30.152  35.925  1.00  0.00    -0.203 F 
ATOM     68  F   UNL A   1      42.205  34.648  36.444  1.00  0.00    -0.200 F 
ATOM     69  C   UNL A   1      40.268  33.423  37.012  1.00  0.00     0.200 A 
ATOM     70  F   UNL A   1      38.343  32.165  37.545  1.00  0.00    -0.200 F 
ATOM     71  F   UNL A   1      39.858  34.415  37.814  1.00  0.00    -0.200 F 
ENDBRANCH  47  61
BRANCH  48  72
ATOM     72  C   UNL A   1      43.460  24.698  28.250  1.00  0.00     0.064 A 
ATOM     73  C   UNL A   1      42.868  23.429  28.261  1.00  0.00     0.173 A 
ATOM     74  C   UNL A   1      44.339  25.003  27.200  1.00  0.00     0.173 A 
ATOM     75  F   UNL A   1      42.030  23.090  29.251  1.00  0.00    -0.203 F 
ATOM     76  C   UNL A   1      43.151  22.496  27.266  1.00  0.00     0.198 A 
ATOM     77  C   UNL A   1      44.600  24.079  26.191  1.00  0.00     0.198 A 
ATOM     78  F   UNL A   1      44.922  26.209  27.141  1.00  0.00    -0.203 F 
ATOM     79  F   UNL A   1      42.594  21.278  27.315  1.00  0.00    -0.200 F 
ATOM     80  C   UNL A   1      44.010  22.825  26.228  1.00  0.00     0.200 A 
ATOM     81  F   UNL A   1      45.416  24.408  25.181  1.00  0.00    -0.200 F 
ATOM     82  F   UNL A   1      44.271  21.932  25.263  1.00  0.00    -0.200 F 
ENDBRANCH  48  72
BRANCH  60  83
ATOM     83  C   UNL A   1      46.170  26.324  34.479  1.00  0.00     0.064 A 
ATOM     84  C   UNL A   1      46.056  25.205  35.316  1.00  0.00     0.173 A 
ATOM     85  C   UNL A   1      47.441  26.892  34.307  1.00  0.00     0.173 A 
ATOM     86  F   UNL A   1      44.859  24.637  35.524  1.00  0.00    -0.203 F 
ATOM     87  C   UNL A   1      47.174  24.673  35.953  1.00  0.00     0.198 A 
ATOM     88  C   UNL A   1      48.560  26.342  34.925  1.00  0.00     0.198 A 
ATOM     89  F   UNL A   1      47.602  27.961  33.511  1.00  0.00    -0.203 F 
ATOM     90  F   UNL A   1      47.040  23.615  36.765  1.00  0.00    -0.200 F 
ATOM     91  C   UNL A   1      48.426  25.233  35.747  1.00  0.00     0.200 A 
ATOM     92  F   UNL A   1      49.772  26.875  34.712  1.00  0.00    -0.200 F 
ATOM     93  F   UNL A   1      49.505  24.703  36.341  1.00  0.00    -0.200 F 
ENDBRANCH  60  83
ENDBRANCH  34  35
ENDBRANCH  27  29
ENDBRANCH  26  27
ENDBRANCH  25  26
ENDBRANCH  24  25
ENDBRANCH  23  24
ENDBRANCH  22  23
ENDBRANCH   1  22
TORSDOF 20
ENDMDL
MODEL 3
REMARK VINA RESULT:      -9.7      1.055      2.153
REMARK SMILES C[C@@H]1Oc2c(C(=O)OCCOCCOCCOCCOC(=O)c3ccc(-c4c5nc(c(-c6c(F)c(F)c(F)c(F)c6F)c6ccc([nH]6)c(-c6c(F)c(F)c(F)c(F)c6F)c6nc(c(-c7c(F)c(F)c(F)c(F)c7F)c7ccc4[nH]7)C=C6)C=C5)cc3)cccc2[C@@H]1C
REMARK SMILES IDX 15 1 14 2 13 3 12 4 11 5 10 6 9 7 8 8 6 9 7 10 5 11 1 12
REMARK SMILES IDX 2 13 3 14 90 15 4 16 89 17 91 18 88 19 86 20 87 21 16 22
REMARK SMILES IDX 17 23 18 24 19 25 20 26 21 27 22 28 23 29 24 30 85 31 25 32
REMARK SMILES IDX 84 33 26 34 27 35 28 36 78 37 29 38 83 39 77 40 79 41 30 42
REMARK SMILES IDX 82 43 76 44 75 45 31 47 63 48 43 49 62 50 44 51 47 52 61 53
REMARK SMILES IDX 80 54 45 55 46 56 60 58 81 59 48 60 32 61 33 62 41 63 34 64
REMARK SMILES IDX 35 65 39 66 42 67 36 68 37 69 40 70 38 71 64 72 65 73 73 74
REMARK SMILES IDX 66 75 67 76 71 77 74 78 68 79 69 80 72 81 70 82 49 83 50 84
REMARK SMILES IDX 58 85 51 86 52 87 56 88 59 89 53 90 54 91 57 92 55 93
REMARK H PARENT 79 46 47 57
REMARK Flexibility Score: inf
ROOT
ATOM      1  C   UNL A   1      40.543  19.982  26.587  1.00  0.00     0.188 C 
ENDROOT
BRANCH   1   2
ATOM      2  O   UNL A   1      39.993  21.043  25.819  1.00  0.00    -0.377 OA
BRANCH   2   3
ATOM      3  C   UNL A   1      39.297  22.099  26.467  1.00  0.00     0.188 C 
BRANCH   3   4
ATOM      4  C   UNL A   1      37.996  22.657  25.856  1.00  0.00     0.188 C 
BRANCH   4   5
ATOM      5  O   UNL A   1      37.650  22.099  24.593  1.00  0.00    -0.376 OA
BRANCH   5   6
ATOM      6  C   UNL A   1      36.261  22.055  24.298  1.00  0.00     0.202 C 
BRANCH   6   7
ATOM      7  C   UNL A   1      35.401  22.828  25.300  1.00  0.00     0.261 C 
BRANCH   7   8
ATOM      8  O   UNL A   1      34.223  23.423  24.736  1.00  0.00    -0.460 OA
BRANCH   8   9
ATOM      9  C   UNL A   1      33.107  23.447  25.503  1.00  0.00     0.342 C 
ATOM     10  O   UNL A   1      32.964  22.914  26.590  1.00  0.00    -0.246 OA
BRANCH   9  11
ATOM     11  C   UNL A   1      32.114  24.301  24.815  1.00  0.00     0.102 A 
ATOM     12  C   UNL A   1      33.882  28.690  25.068  1.00  0.00     0.053 C 
ATOM     13  C   UNL A   1      32.695  27.808  25.437  1.00  0.00     0.177 C 
ATOM     14  O   UNL A   1      33.140  26.424  25.502  1.00  0.00    -0.489 OA
ATOM     15  C   UNL A   1      31.458  27.913  24.512  1.00  0.00     0.060 C 
ATOM     16  C   UNL A   1      32.161  25.687  24.890  1.00  0.00     0.137 A 
ATOM     17  C   UNL A   1      31.210  26.469  24.248  1.00  0.00     0.002 A 
ATOM     18  C   UNL A   1      31.610  28.737  23.239  1.00  0.00     0.017 C 
ATOM     19  C   UNL A   1      30.201  25.891  23.490  1.00  0.00     0.008 A 
ATOM     20  C   UNL A   1      31.107  23.710  24.035  1.00  0.00     0.019 A 
ATOM     21  C   UNL A   1      30.161  24.502  23.372  1.00  0.00     0.001 A 
ENDBRANCH   9  11
ENDBRANCH   8   9
ENDBRANCH   7   8
ENDBRANCH   6   7
ENDBRANCH   5   6
ENDBRANCH   4   5
ENDBRANCH   3   4
ENDBRANCH   2   3
ENDBRANCH   1   2
BRANCH   1  22
ATOM     22  C   UNL A   1      42.024  19.581  26.428  1.00  0.00     0.188 C 
BRANCH  22  23
ATOM     23  O   UNL A   1      42.732  20.310  25.434  1.00  0.00    -0.376 OA
BRANCH  23  24
ATOM     24  C   UNL A   1      44.111  20.543  25.680  1.00  0.00     0.202 C 
BRANCH  24  25
ATOM     25  C   UNL A   1      44.578  21.957  25.323  1.00  0.00     0.261 C 
BRANCH  25  26
ATOM     26  O   UNL A   1      43.720  23.013  25.784  1.00  0.00    -0.460 OA
BRANCH  26  27
ATOM     27  C   UNL A   1      43.998  24.269  25.369  1.00  0.00     0.338 C 
ATOM     28  O   UNL A   1      44.581  24.603  24.356  1.00  0.00    -0.246 OA
BRANCH  27  29
ATOM     29  C   UNL A   1      43.299  25.197  26.282  1.00  0.00     0.060 A 
ATOM     30  C   UNL A   1      42.480  24.699  27.298  1.00  0.00     0.016 A 
ATOM     31  C   UNL A   1      43.445  26.577  26.097  1.00  0.00     0.016 A 
ATOM     32  C   UNL A   1      41.838  25.587  28.160  1.00  0.00     0.010 A 
ATOM     33  C   UNL A   1      42.798  27.467  26.959  1.00  0.00     0.010 A 
ATOM     34  C   UNL A   1      42.017  26.975  28.015  1.00  0.00    -0.014 A 
BRANCH  34  35
ATOM     35  C   UNL A   1      41.574  27.873  29.108  1.00  0.00     0.031 A 
ATOM     36  C   UNL A   1      40.353  28.729  29.003  1.00  0.00     0.074 A 
ATOM     37  C   UNL A   1      42.318  27.884  30.230  1.00  0.00     0.049 A 
ATOM     38  N   UNL A   1      39.776  29.444  29.936  1.00  0.00    -0.248 NA
ATOM     39  C   UNL A   1      39.699  28.809  27.690  1.00  0.00     0.031 C 
ATOM     40  C   UNL A   1      43.559  27.130  30.414  1.00  0.00     0.029 A 
ATOM     41  N   UNL A   1      42.140  28.533  31.424  1.00  0.00    -0.354 N 
ATOM     42  C   UNL A   1      38.678  30.041  29.335  1.00  0.00     0.074 A 
ATOM     43  C   UNL A   1      38.696  29.644  27.941  1.00  0.00     0.031 C 
ATOM     44  C   UNL A   1      44.013  27.329  31.659  1.00  0.00     0.029 A 
ATOM     45  C   UNL A   1      43.105  28.236  32.355  1.00  0.00     0.049 A 
ATOM     46  H   UNL A   1      41.394  29.151  31.598  1.00  0.00     0.167 HD
ATOM     47  C   UNL A   1      37.736  30.827  29.910  1.00  0.00     0.037 A 
ATOM     48  C   UNL A   1      43.236  28.633  33.634  1.00  0.00     0.037 A 
ATOM     49  C   UNL A   1      37.736  31.218  31.298  1.00  0.00     0.049 A 
ATOM     50  C   UNL A   1      42.183  29.517  34.238  1.00  0.00     0.074 A 
ATOM     51  C   UNL A   1      36.786  31.953  31.986  1.00  0.00     0.029 A 
ATOM     52  N   UNL A   1      38.744  30.922  32.206  1.00  0.00    -0.354 N 
ATOM     53  N   UNL A   1      41.083  29.976  33.694  1.00  0.00    -0.248 NA
ATOM     54  C   UNL A   1      42.383  29.931  35.634  1.00  0.00     0.031 C 
ATOM     55  C   UNL A   1      37.241  32.149  33.292  1.00  0.00     0.029 A 
ATOM     56  C   UNL A   1      38.452  31.492  33.437  1.00  0.00     0.049 A 
ATOM     57  H   UNL A   1      39.545  30.387  32.007  1.00  0.00     0.167 HD
ATOM     58  C   UNL A   1      40.449  30.714  34.682  1.00  0.00     0.074 A 
ATOM     59  C   UNL A   1      41.280  30.630  35.866  1.00  0.00     0.031 C 
ATOM     60  C   UNL A   1      39.284  31.401  34.610  1.00  0.00     0.037 A 
BRANCH  47  61
ATOM     61  C   UNL A   1      36.595  31.309  29.061  1.00  0.00     0.064 A 
ATOM     62  C   UNL A   1      35.516  30.467  28.753  1.00  0.00     0.173 A 
ATOM     63  C   UNL A   1      36.513  32.654  28.667  1.00  0.00     0.173 A 
ATOM     64  F   UNL A   1      35.544  29.175  29.110  1.00  0.00    -0.203 F 
ATOM     65  C   UNL A   1      34.399  30.954  28.078  1.00  0.00     0.198 A 
ATOM     66  C   UNL A   1      35.383  33.141  28.013  1.00  0.00     0.198 A 
ATOM     67  F   UNL A   1      37.511  33.504  28.951  1.00  0.00    -0.203 F 
ATOM     68  F   UNL A   1      33.385  30.128  27.784  1.00  0.00    -0.200 F 
ATOM     69  C   UNL A   1      34.328  32.291  27.720  1.00  0.00     0.200 A 
ATOM     70  F   UNL A   1      35.307  34.438  27.685  1.00  0.00    -0.200 F 
ATOM     71  F   UNL A   1      33.240  32.763  27.096  1.00  0.00    -0.200 F 
ENDBRANCH  47  61
BRANCH  48  72
ATOM     72  C   UNL A   1      44.386  28.141  34.434  1.00  0.00     0.064 A 
ATOM     73  C   UNL A   1      44.306  26.933  35.138  1.00  0.00     0.173 A 
ATOM     74  C   UNL A   1      45.598  28.845  34.474  1.00  0.00     0.173 A 
ATOM     75  F   UNL A   1      43.162  26.233  35.137  1.00  0.00    -0.203 F 
ATOM     76  C   UNL A   1      45.393  26.452  35.863  1.00  0.00     0.198 A 
ATOM     77  C   UNL A   1      46.693  28.348  35.178  1.00  0.00     0.198 A 
ATOM     78  F   UNL A   1      45.727  30.001  33.807  1.00  0.00    -0.203 F 
ATOM     79  F   UNL A   1      45.281  25.308  36.552  1.00  0.00    -0.200 F 
ATOM     80  C   UNL A   1      46.588  27.155  35.875  1.00  0.00     0.200 A 
ATOM     81  F   UNL A   1      47.851  29.023  35.172  1.00  0.00    -0.200 F 
ATOM     82  F   UNL A   1      47.638  26.684  36.562  1.00  0.00    -0.200 F 
ENDBRANCH  48  72
BRANCH  60  83
ATOM     83  C   UNL A   1      38.820  32.120  35.841  1.00  0.00     0.064 A 
ATOM     84  C   UNL A   1      38.138  31.447  36.864  1.00  0.00     0.173 A 
ATOM     85  C   UNL A   1      39.147  33.469  36.044  1.00  0.00     0.173 A 
ATOM     86  F   UNL A   1      37.791  30.160  36.711  1.00  0.00    -0.203 F 
ATOM     87  C   UNL A   1      37.801  32.099  38.047  1.00  0.00     0.198 A 
ATOM     88  C   UNL A   1      38.830  34.111  37.238  1.00  0.00     0.198 A 
ATOM     89  F   UNL A   1      39.804  34.156  35.096  1.00  0.00    -0.203 F 
ATOM     90  F   UNL A   1      37.132  31.442  39.005  1.00  0.00    -0.200 F 
ATOM     91  C   UNL A   1      38.158  33.425  38.238  1.00  0.00     0.200 A 
ATOM     92  F   UNL A   1      39.190  35.388  37.427  1.00  0.00    -0.200 F 
ATOM     93  F   UNL A   1      37.854  34.043  39.389  1.00  0.00    -0.200 F 
ENDBRANCH  60  83
ENDBRANCH  34  35
ENDBRANCH  27  29
ENDBRANCH  26  27
ENDBRANCH  25  26
ENDBRANCH  24  25
ENDBRANCH  23  24
ENDBRANCH  22  23
ENDBRANCH   1  22
TORSDOF 20
ENDMDL
