MODEL 1
REMARK VINA RESULT:      -9.0      0.000      0.000
REMARK SMILES C[C@H](Oc1cccc(/C=C2/SC(=S)N(c3ccc(Cl)c(Cl)c3)C2=O)c1)C(=O)OCCOCCOCCOCCOC(=O)c1ccc(-c2c3nc(c(-c4c(F)c(F)c(F)c(F)c4F)c4ccc([nH]4)c(-c4c(F)c(F)c(F)c(F)c4F)c4nc(c(-c5c(F)c(F)c(F)c(F)c5F)c5ccc2[nH]5)C=C4)C=C3)cc1
REMARK SMILES IDX 33 1 32 2 31 3 30 4 29 5 28 6 26 7 27 8 2 9 1 10 3 11 4 12
REMARK SMILES IDX 5 13 25 14 6 15 8 16 7 17 9 18 10 19 11 20 23 21 12 22 14 23
REMARK SMILES IDX 24 24 13 25 15 26 16 27 22 28 17 29 20 30 18 31 21 32 19 33
REMARK SMILES IDX 34 34 35 35 36 36 37 37 38 38 39 39 40 40 41 41 42 42 43 43
REMARK SMILES IDX 44 44 105 45 45 46 104 47 46 48 47 49 48 50 98 51 49 52
REMARK SMILES IDX 103 53 97 54 99 55 50 56 102 57 96 58 95 59 51 61 83 62
REMARK SMILES IDX 63 63 82 64 64 65 67 66 81 67 100 68 65 69 66 70 80 72
REMARK SMILES IDX 101 73 68 74 52 75 53 76 61 77 54 78 55 79 59 80 62 81 56 82
REMARK SMILES IDX 57 83 60 84 58 85 84 86 85 87 93 88 86 89 87 90 91 91 94 92
REMARK SMILES IDX 88 93 89 94 92 95 90 96 69 97 70 98 78 99 71 100 72 101
REMARK SMILES IDX 76 102 79 103 73 104 74 105 77 106 75 107
REMARK H PARENT 99 60 67 71
REMARK Flexibility Score: inf
ROOT
ATOM      1  C   UNL A   1      38.559  34.603  30.032  1.00  0.00     0.188 C 
ENDROOT
BRANCH   1   2
ATOM      2  C   UNL A   1      37.752  33.574  29.221  1.00  0.00     0.188 C 
BRANCH   2   3
ATOM      3  O   UNL A   1      36.579  33.946  28.511  1.00  0.00    -0.376 OA
BRANCH   3   4
ATOM      4  C   UNL A   1      35.279  33.659  29.002  1.00  0.00     0.202 C 
BRANCH   4   5
ATOM      5  C   UNL A   1      34.269  34.748  29.404  1.00  0.00     0.261 C 
BRANCH   5   6
ATOM      6  O   UNL A   1      33.540  34.552  30.620  1.00  0.00    -0.461 OA
BRANCH   6   7
ATOM      7  C   UNL A   1      34.068  35.142  31.721  1.00  0.00     0.347 C 
ATOM      8  O   UNL A   1      33.884  36.315  32.032  1.00  0.00    -0.248 OA
BRANCH   7   9
ATOM      9  C   UNL A   1      34.972  34.203  32.538  1.00  0.00     0.279 C 
ATOM     10  C   UNL A   1      34.022  33.247  33.253  1.00  0.00     0.066 C 
BRANCH   9  11
ATOM     11  O   UNL A   1      35.846  34.856  33.459  1.00  0.00    -0.479 OA
BRANCH  11  12
ATOM     12  C   UNL A   1      36.906  34.172  33.998  1.00  0.00     0.121 A 
ATOM     13  C   UNL A   1      37.928  33.558  33.280  1.00  0.00     0.046 A 
ATOM     14  C   UNL A   1      36.903  34.061  35.395  1.00  0.00     0.054 A 
ATOM     15  C   UNL A   1      38.867  32.754  33.931  1.00  0.00     0.004 A 
ATOM     16  C   UNL A   1      37.837  33.244  36.061  1.00  0.00    -0.021 A 
ATOM     17  C   UNL A   1      38.814  32.585  35.314  1.00  0.00     0.008 A 
BRANCH  16  18
ATOM     18  C   UNL A   1      37.814  33.049  37.518  1.00  0.00     0.029 C 
ATOM     19  C   UNL A   1      38.449  33.808  38.422  1.00  0.00     0.081 C 
ATOM     20  S   UNL A   1      38.452  33.464  40.107  1.00  0.00    -0.054 SA
ATOM     21  C   UNL A   1      39.288  35.009  38.152  1.00  0.00     0.270 C 
ATOM     22  C   UNL A   1      39.677  34.688  40.452  1.00  0.00     0.152 C 
ATOM     23  N   UNL A   1      40.038  35.338  39.279  1.00  0.00    -0.261 N 
ATOM     24  O   UNL A   1      39.298  35.581  37.070  1.00  0.00    -0.268 OA
ATOM     25  S   UNL A   1      40.163  34.975  42.028  1.00  0.00    -0.051 S 
BRANCH  23  26
ATOM     26  C   UNL A   1      41.120  36.267  39.144  1.00  0.00     0.052 A 
ATOM     27  C   UNL A   1      42.360  35.860  38.628  1.00  0.00     0.028 A 
ATOM     28  C   UNL A   1      41.012  37.573  39.638  1.00  0.00     0.048 A 
ATOM     29  C   UNL A   1      43.465  36.716  38.633  1.00  0.00     0.024 A 
ATOM     30  C   UNL A   1      42.112  38.441  39.625  1.00  0.00     0.061 A 
ATOM     31  C   UNL A   1      43.348  38.006  39.143  1.00  0.00     0.059 A 
ATOM     32  Cl  UNL A   1      41.866  40.034  40.234  1.00  0.00    -0.083 Cl
ATOM     33  Cl  UNL A   1      44.764  38.991  39.181  1.00  0.00    -0.083 Cl
ENDBRANCH  23  26
ENDBRANCH  16  18
ENDBRANCH  11  12
ENDBRANCH   9  11
ENDBRANCH   7   9
ENDBRANCH   6   7
ENDBRANCH   5   6
ENDBRANCH   4   5
ENDBRANCH   3   4
ENDBRANCH   2   3
ENDBRANCH   1   2
BRANCH   1  34
ATOM     34  O   UNL A   1      39.924  34.274  30.200  1.00  0.00    -0.377 OA
BRANCH  34  35
ATOM     35  C   UNL A   1      40.848  34.924  29.340  1.00  0.00     0.188 C 
BRANCH  35  36
ATOM     36  C   UNL A   1      42.105  35.567  29.964  1.00  0.00     0.188 C 
BRANCH  36  37
ATOM     37  O   UNL A   1      42.346  35.193  31.314  1.00  0.00    -0.376 OA
BRANCH  37  38
ATOM     38  C   UNL A   1      43.517  35.676  31.956  1.00  0.00     0.202 C 
BRANCH  38  39
ATOM     39  C   UNL A   1      44.191  36.914  31.340  1.00  0.00     0.261 C 
BRANCH  39  40
ATOM     40  O   UNL A   1      45.594  36.789  31.054  1.00  0.00    -0.460 OA
BRANCH  40  41
ATOM     41  C   UNL A   1      45.950  36.751  29.757  1.00  0.00     0.338 C 
ATOM     42  O   UNL A   1      46.454  37.657  29.105  1.00  0.00    -0.246 OA
BRANCH  41  43
ATOM     43  C   UNL A   1      45.817  35.365  29.267  1.00  0.00     0.060 A 
ATOM     44  C   UNL A   1      45.073  35.141  28.103  1.00  0.00     0.016 A 
ATOM     45  C   UNL A   1      46.375  34.294  29.970  1.00  0.00     0.016 A 
ATOM     46  C   UNL A   1      44.811  33.840  27.681  1.00  0.00     0.010 A 
ATOM     47  C   UNL A   1      46.096  32.987  29.556  1.00  0.00     0.010 A 
ATOM     48  C   UNL A   1      45.260  32.758  28.447  1.00  0.00    -0.014 A 
BRANCH  48  49
ATOM     49  C   UNL A   1      44.628  31.431  28.237  1.00  0.00     0.031 A 
ATOM     50  C   UNL A   1      45.366  30.422  27.394  1.00  0.00     0.074 A 
ATOM     51  C   UNL A   1      43.472  31.093  28.834  1.00  0.00     0.049 A 
ATOM     52  N   UNL A   1      45.039  29.194  27.079  1.00  0.00    -0.248 NA
ATOM     53  C   UNL A   1      46.656  30.857  26.834  1.00  0.00     0.031 C 
ATOM     54  C   UNL A   1      42.686  31.957  29.712  1.00  0.00     0.029 A 
ATOM     55  N   UNL A   1      42.749  29.928  28.772  1.00  0.00    -0.354 N 
ATOM     56  C   UNL A   1      46.077  28.719  26.286  1.00  0.00     0.074 A 
ATOM     57  C   UNL A   1      47.021  29.801  26.127  1.00  0.00     0.031 C 
ATOM     58  C   UNL A   1      41.572  31.304  30.082  1.00  0.00     0.029 A 
ATOM     59  C   UNL A   1      41.564  29.980  29.460  1.00  0.00     0.049 A 
ATOM     60  H   UNL A   1      43.054  29.131  28.281  1.00  0.00     0.167 HD
ATOM     61  C   UNL A   1      46.238  27.484  25.754  1.00  0.00     0.037 A 
ATOM     62  C   UNL A   1      40.580  29.066  29.561  1.00  0.00     0.037 A 
ATOM     63  C   UNL A   1      45.299  26.408  25.916  1.00  0.00     0.049 A 
ATOM     64  C   UNL A   1      40.744  27.726  28.889  1.00  0.00     0.074 A 
ATOM     65  C   UNL A   1      45.382  25.110  25.442  1.00  0.00     0.029 A 
ATOM     66  N   UNL A   1      44.094  26.510  26.596  1.00  0.00    -0.354 N 
ATOM     67  N   UNL A   1      41.746  27.267  28.180  1.00  0.00    -0.248 NA
ATOM     68  C   UNL A   1      39.642  26.767  29.054  1.00  0.00     0.031 C 
ATOM     69  C   UNL A   1      44.197  24.447  25.778  1.00  0.00     0.029 A 
ATOM     70  C   UNL A   1      43.410  25.305  26.527  1.00  0.00     0.049 A 
ATOM     71  H   UNL A   1      43.772  27.317  27.058  1.00  0.00     0.167 HD
ATOM     72  C   UNL A   1      41.419  25.955  27.857  1.00  0.00     0.074 A 
ATOM     73  C   UNL A   1      40.128  25.691  28.454  1.00  0.00     0.031 C 
ATOM     74  C   UNL A   1      42.131  25.049  27.139  1.00  0.00     0.037 A 
BRANCH  61  75
ATOM     75  C   UNL A   1      47.465  27.244  24.920  1.00  0.00     0.064 A 
ATOM     76  C   UNL A   1      48.615  26.634  25.445  1.00  0.00     0.173 A 
ATOM     77  C   UNL A   1      47.481  27.612  23.565  1.00  0.00     0.173 A 
ATOM     78  F   UNL A   1      48.661  26.277  26.737  1.00  0.00    -0.203 F 
ATOM     79  C   UNL A   1      49.745  26.432  24.655  1.00  0.00     0.198 A 
ATOM     80  C   UNL A   1      48.598  27.377  22.770  1.00  0.00     0.198 A 
ATOM     81  F   UNL A   1      46.409  28.197  23.010  1.00  0.00    -0.203 F 
ATOM     82  F   UNL A   1      50.851  25.901  25.193  1.00  0.00    -0.200 F 
ATOM     83  C   UNL A   1      49.732  26.797  23.317  1.00  0.00     0.200 A 
ATOM     84  F   UNL A   1      48.579  27.716  21.474  1.00  0.00    -0.200 F 
ATOM     85  F   UNL A   1      50.817  26.595  22.556  1.00  0.00    -0.200 F 
ENDBRANCH  61  75
BRANCH  62  86
ATOM     86  C   UNL A   1      39.354  29.373  30.344  1.00  0.00     0.064 A 
ATOM     87  C   UNL A   1      38.187  29.828  29.713  1.00  0.00     0.173 A 
ATOM     88  C   UNL A   1      39.335  29.252  31.741  1.00  0.00     0.173 A 
ATOM     89  F   UNL A   1      38.166  29.992  28.382  1.00  0.00    -0.203 F 
ATOM     90  C   UNL A   1      37.056  30.169  30.452  1.00  0.00     0.198 A 
ATOM     91  C   UNL A   1      38.192  29.561  32.475  1.00  0.00     0.198 A 
ATOM     92  F   UNL A   1      40.432  28.842  32.392  1.00  0.00    -0.203 F 
ATOM     93  F   UNL A   1      35.974  30.658  29.829  1.00  0.00    -0.200 F 
ATOM     94  C   UNL A   1      37.057  30.028  31.831  1.00  0.00     0.200 A 
ATOM     95  F   UNL A   1      38.195  29.419  33.808  1.00  0.00    -0.200 F 
ATOM     96  F   UNL A   1      35.969  30.358  32.541  1.00  0.00    -0.200 F 
ENDBRANCH  62  86
BRANCH  74  97
ATOM     97  C   UNL A   1      41.561  23.662  27.018  1.00  0.00     0.064 A 
ATOM     98  C   UNL A   1      42.164  22.551  27.625  1.00  0.00     0.173 A 
ATOM     99  C   UNL A   1      40.375  23.450  26.297  1.00  0.00     0.173 A 
ATOM    100  F   UNL A   1      43.304  22.694  28.319  1.00  0.00    -0.203 F 
ATOM    101  C   UNL A   1      41.627  21.274  27.477  1.00  0.00     0.198 A 
ATOM    102  C   UNL A   1      39.819  22.179  26.185  1.00  0.00     0.198 A 
ATOM    103  F   UNL A   1      39.748  24.478  25.705  1.00  0.00    -0.203 F 
ATOM    104  F   UNL A   1      42.258  20.218  28.008  1.00  0.00    -0.200 F 
ATOM    105  C   UNL A   1      40.452  21.090  26.764  1.00  0.00     0.200 A 
ATOM    106  F   UNL A   1      38.672  22.007  25.512  1.00  0.00    -0.200 F 
ATOM    107  F   UNL A   1      39.935  19.861  26.625  1.00  0.00    -0.200 F 
ENDBRANCH  74  97
ENDBRANCH  48  49
ENDBRANCH  41  43
ENDBRANCH  40  41
ENDBRANCH  39  40
ENDBRANCH  38  39
ENDBRANCH  37  38
ENDBRANCH  36  37
ENDBRANCH  35  36
ENDBRANCH  34  35
ENDBRANCH   1  34
TORSDOF 24
ENDMDL
MODEL 2
REMARK VINA RESULT:      -8.8      6.384     11.328
REMARK SMILES C[C@H](Oc1cccc(/C=C2/SC(=S)N(c3ccc(Cl)c(Cl)c3)C2=O)c1)C(=O)OCCOCCOCCOCCOC(=O)c1ccc(-c2c3nc(c(-c4c(F)c(F)c(F)c(F)c4F)c4ccc([nH]4)c(-c4c(F)c(F)c(F)c(F)c4F)c4nc(c(-c5c(F)c(F)c(F)c(F)c5F)c5ccc2[nH]5)C=C4)C=C3)cc1
REMARK SMILES IDX 33 1 32 2 31 3 30 4 29 5 28 6 26 7 27 8 2 9 1 10 3 11 4 12
REMARK SMILES IDX 5 13 25 14 6 15 8 16 7 17 9 18 10 19 11 20 23 21 12 22 14 23
REMARK SMILES IDX 24 24 13 25 15 26 16 27 22 28 17 29 20 30 18 31 21 32 19 33
REMARK SMILES IDX 34 34 35 35 36 36 37 37 38 38 39 39 40 40 41 41 42 42 43 43
REMARK SMILES IDX 44 44 105 45 45 46 104 47 46 48 47 49 48 50 98 51 49 52
REMARK SMILES IDX 103 53 97 54 99 55 50 56 102 57 96 58 95 59 51 61 83 62
REMARK SMILES IDX 63 63 82 64 64 65 67 66 81 67 100 68 65 69 66 70 80 72
REMARK SMILES IDX 101 73 68 74 52 75 53 76 61 77 54 78 55 79 59 80 62 81 56 82
REMARK SMILES IDX 57 83 60 84 58 85 84 86 85 87 93 88 86 89 87 90 91 91 94 92
REMARK SMILES IDX 88 93 89 94 92 95 90 96 69 97 70 98 78 99 71 100 72 101
REMARK SMILES IDX 76 102 79 103 73 104 74 105 77 106 75 107
REMARK H PARENT 99 60 67 71
REMARK Flexibility Score: inf
ROOT
ATOM      1  C   UNL A   1      35.795  33.110  33.457  1.00  0.00     0.188 C 
ENDROOT
BRANCH   1   2
ATOM      2  C   UNL A   1      34.567  32.726  32.614  1.00  0.00     0.188 C 
BRANCH   2   3
ATOM      3  O   UNL A   1      34.460  33.102  31.248  1.00  0.00    -0.376 OA
BRANCH   3   4
ATOM      4  C   UNL A   1      34.877  32.246  30.195  1.00  0.00     0.202 C 
BRANCH   4   5
ATOM      5  C   UNL A   1      34.449  32.437  28.731  1.00  0.00     0.261 C 
BRANCH   5   6
ATOM      6  O   UNL A   1      34.349  31.264  27.917  1.00  0.00    -0.461 OA
BRANCH   6   7
ATOM      7  C   UNL A   1      33.193  31.130  27.221  1.00  0.00     0.347 C 
ATOM      8  O   UNL A   1      32.313  31.984  27.170  1.00  0.00    -0.248 OA
BRANCH   7   9
ATOM      9  C   UNL A   1      33.059  29.765  26.525  1.00  0.00     0.279 C 
ATOM     10  C   UNL A   1      34.456  29.152  26.563  1.00  0.00     0.066 C 
BRANCH   9  11
ATOM     11  O   UNL A   1      32.546  29.812  25.194  1.00  0.00    -0.479 OA
BRANCH  11  12
ATOM     12  C   UNL A   1      32.931  28.868  24.277  1.00  0.00     0.121 A 
ATOM     13  C   UNL A   1      33.714  29.101  23.150  1.00  0.00     0.046 A 
ATOM     14  C   UNL A   1      32.438  27.576  24.499  1.00  0.00     0.054 A 
ATOM     15  C   UNL A   1      33.909  28.092  22.202  1.00  0.00     0.004 A 
ATOM     16  C   UNL A   1      32.617  26.555  23.546  1.00  0.00    -0.021 A 
ATOM     17  C   UNL A   1      33.351  26.829  22.390  1.00  0.00     0.008 A 
BRANCH  16  18
ATOM     18  C   UNL A   1      32.049  25.210  23.716  1.00  0.00     0.029 C 
ATOM     19  C   UNL A   1      32.684  24.148  24.232  1.00  0.00     0.081 C 
ATOM     20  S   UNL A   1      31.985  22.579  24.314  1.00  0.00    -0.054 SA
ATOM     21  C   UNL A   1      34.078  24.107  24.754  1.00  0.00     0.270 C 
ATOM     22  C   UNL A   1      33.505  21.823  24.799  1.00  0.00     0.152 C 
ATOM     23  N   UNL A   1      34.499  22.787  24.903  1.00  0.00    -0.261 N 
ATOM     24  O   UNL A   1      34.729  25.116  24.989  1.00  0.00    -0.268 OA
ATOM     25  S   UNL A   1      33.560  20.186  25.143  1.00  0.00    -0.051 S 
BRANCH  23  26
ATOM     26  C   UNL A   1      35.892  22.523  25.106  1.00  0.00     0.052 A 
ATOM     27  C   UNL A   1      36.467  21.315  24.684  1.00  0.00     0.028 A 
ATOM     28  C   UNL A   1      36.691  23.408  25.843  1.00  0.00     0.048 A 
ATOM     29  C   UNL A   1      37.786  20.984  25.012  1.00  0.00     0.024 A 
ATOM     30  C   UNL A   1      38.020  23.089  26.155  1.00  0.00     0.061 A 
ATOM     31  C   UNL A   1      38.563  21.865  25.759  1.00  0.00     0.059 A 
ATOM     32  Cl  UNL A   1      38.922  24.257  27.043  1.00  0.00    -0.083 Cl
ATOM     33  Cl  UNL A   1      40.160  21.372  26.185  1.00  0.00    -0.083 Cl
ENDBRANCH  23  26
ENDBRANCH  16  18
ENDBRANCH  11  12
ENDBRANCH   9  11
ENDBRANCH   7   9
ENDBRANCH   6   7
ENDBRANCH   5   6
ENDBRANCH   4   5
ENDBRANCH   3   4
ENDBRANCH   2   3
ENDBRANCH   1   2
BRANCH   1  34
ATOM     34  O   UNL A   1      37.014  32.561  32.997  1.00  0.00    -0.377 OA
BRANCH  34  35
ATOM     35  C   UNL A   1      37.971  33.473  32.478  1.00  0.00     0.188 C 
BRANCH  35  36
ATOM     36  C   UNL A   1      38.180  33.528  30.949  1.00  0.00     0.188 C 
BRANCH  36  37
ATOM     37  O   UNL A   1      38.962  34.628  30.504  1.00  0.00    -0.376 OA
BRANCH  37  38
ATOM     38  C   UNL A   1      39.452  34.620  29.171  1.00  0.00     0.202 C 
BRANCH  38  39
ATOM     39  C   UNL A   1      40.775  35.360  28.908  1.00  0.00     0.261 C 
BRANCH  39  40
ATOM     40  O   UNL A   1      41.001  35.781  27.553  1.00  0.00    -0.460 OA
BRANCH  40  41
ATOM     41  C   UNL A   1      41.971  36.693  27.353  1.00  0.00     0.338 C 
ATOM     42  O   UNL A   1      41.894  37.901  27.532  1.00  0.00    -0.246 OA
BRANCH  41  43
ATOM     43  C   UNL A   1      43.234  35.987  27.059  1.00  0.00     0.060 A 
ATOM     44  C   UNL A   1      43.320  35.248  25.873  1.00  0.00     0.016 A 
ATOM     45  C   UNL A   1      44.302  36.010  27.959  1.00  0.00     0.016 A 
ATOM     46  C   UNL A   1      44.441  34.461  25.620  1.00  0.00     0.010 A 
ATOM     47  C   UNL A   1      45.419  35.205  27.714  1.00  0.00     0.010 A 
ATOM     48  C   UNL A   1      45.462  34.380  26.574  1.00  0.00    -0.014 A 
BRANCH  48  49
ATOM     49  C   UNL A   1      46.413  33.242  26.499  1.00  0.00     0.031 A 
ATOM     50  C   UNL A   1      47.872  33.554  26.283  1.00  0.00     0.074 A 
ATOM     51  C   UNL A   1      46.018  31.972  26.692  1.00  0.00     0.049 A 
ATOM     52  N   UNL A   1      48.898  32.746  26.200  1.00  0.00    -0.248 NA
ATOM     53  C   UNL A   1      48.222  34.978  26.146  1.00  0.00     0.031 C 
ATOM     54  C   UNL A   1      44.647  31.542  26.959  1.00  0.00     0.029 A 
ATOM     55  N   UNL A   1      46.740  30.805  26.673  1.00  0.00    -0.354 N 
ATOM     56  C   UNL A   1      50.006  33.562  26.000  1.00  0.00     0.074 A 
ATOM     57  C   UNL A   1      49.525  34.922  25.926  1.00  0.00     0.031 C 
ATOM     58  C   UNL A   1      44.621  30.201  27.047  1.00  0.00     0.029 A 
ATOM     59  C   UNL A   1      45.972  29.681  26.834  1.00  0.00     0.049 A 
ATOM     60  H   UNL A   1      47.717  30.779  26.554  1.00  0.00     0.167 HD
ATOM     61  C   UNL A   1      51.310  33.210  25.907  1.00  0.00     0.037 A 
ATOM     62  C   UNL A   1      46.321  28.380  26.799  1.00  0.00     0.037 A 
ATOM     63  C   UNL A   1      51.787  31.856  25.984  1.00  0.00     0.049 A 
ATOM     64  C   UNL A   1      47.770  28.009  26.608  1.00  0.00     0.074 A 
ATOM     65  C   UNL A   1      53.090  31.395  25.930  1.00  0.00     0.029 A 
ATOM     66  N   UNL A   1      50.973  30.740  26.118  1.00  0.00    -0.354 N 
ATOM     67  N   UNL A   1      48.817  28.785  26.466  1.00  0.00    -0.248 NA
ATOM     68  C   UNL A   1      48.086  26.573  26.598  1.00  0.00     0.031 C 
ATOM     69  C   UNL A   1      53.061  29.997  25.964  1.00  0.00     0.029 A 
ATOM     70  C   UNL A   1      51.746  29.589  26.118  1.00  0.00     0.049 A 
ATOM     71  H   UNL A   1      49.992  30.763  26.201  1.00  0.00     0.167 HD
ATOM     72  C   UNL A   1      49.916  27.938  26.398  1.00  0.00     0.074 A 
ATOM     73  C   UNL A   1      49.408  26.589  26.522  1.00  0.00     0.031 C 
ATOM     74  C   UNL A   1      51.230  28.251  26.257  1.00  0.00     0.037 A 
BRANCH  61  75
ATOM     75  C   UNL A   1      52.310  34.309  25.679  1.00  0.00     0.064 A 
ATOM     76  C   UNL A   1      52.862  35.045  26.739  1.00  0.00     0.173 A 
ATOM     77  C   UNL A   1      52.737  34.615  24.378  1.00  0.00     0.173 A 
ATOM     78  F   UNL A   1      52.477  34.805  28.002  1.00  0.00    -0.203 F 
ATOM     79  C   UNL A   1      53.778  36.067  26.502  1.00  0.00     0.198 A 
ATOM     80  C   UNL A   1      53.679  35.613  24.148  1.00  0.00     0.198 A 
ATOM     81  F   UNL A   1      52.244  33.943  23.327  1.00  0.00    -0.203 F 
ATOM     82  F   UNL A   1      54.248  36.794  27.524  1.00  0.00    -0.200 F 
ATOM     83  C   UNL A   1      54.192  36.345  25.208  1.00  0.00     0.200 A 
ATOM     84  F   UNL A   1      54.089  35.870  22.898  1.00  0.00    -0.200 F 
ATOM     85  F   UNL A   1      55.080  37.323  24.982  1.00  0.00    -0.200 F 
ENDBRANCH  61  75
BRANCH  62  86
ATOM     86  C   UNL A   1      45.286  27.326  26.963  1.00  0.00     0.064 A 
ATOM     87  C   UNL A   1      44.845  26.937  28.236  1.00  0.00     0.173 A 
ATOM     88  C   UNL A   1      44.744  26.661  25.854  1.00  0.00     0.173 A 
ATOM     89  F   UNL A   1      45.359  27.519  29.330  1.00  0.00    -0.203 F 
ATOM     90  C   UNL A   1      43.916  25.910  28.393  1.00  0.00     0.198 A 
ATOM     91  C   UNL A   1      43.789  25.659  26.011  1.00  0.00     0.198 A 
ATOM     92  F   UNL A   1      45.149  26.982  24.618  1.00  0.00    -0.203 F 
ATOM     93  F   UNL A   1      43.556  25.519  29.624  1.00  0.00    -0.200 F 
ATOM     94  C   UNL A   1      43.383  25.278  27.281  1.00  0.00     0.200 A 
ATOM     95  F   UNL A   1      43.273  25.052  24.934  1.00  0.00    -0.200 F 
ATOM     96  F   UNL A   1      42.491  24.289  27.433  1.00  0.00    -0.200 F 
ENDBRANCH  62  86
BRANCH  74  97
ATOM     97  C   UNL A   1      52.219  27.119  26.300  1.00  0.00     0.064 A 
ATOM     98  C   UNL A   1      52.446  26.282  25.197  1.00  0.00     0.173 A 
ATOM     99  C   UNL A   1      52.969  26.885  27.464  1.00  0.00     0.173 A 
ATOM    100  F   UNL A   1      51.750  26.454  24.063  1.00  0.00    -0.203 F 
ATOM    101  C   UNL A   1      53.352  25.226  25.273  1.00  0.00     0.198 A 
ATOM    102  C   UNL A   1      53.903  25.854  27.523  1.00  0.00     0.198 A 
ATOM    103  F   UNL A   1      52.803  27.662  28.546  1.00  0.00    -0.203 F 
ATOM    104  F   UNL A   1      53.501  24.398  24.231  1.00  0.00    -0.200 F 
ATOM    105  C   UNL A   1      54.084  25.018  26.433  1.00  0.00     0.200 A 
ATOM    106  F   UNL A   1      54.625  25.668  28.637  1.00  0.00    -0.200 F 
ATOM    107  F   UNL A   1      54.958  24.004  26.502  1.00  0.00    -0.200 F 
ENDBRANCH  74  97
ENDBRANCH  48  49
ENDBRANCH  41  43
ENDBRANCH  40  41
ENDBRANCH  39  40
ENDBRANCH  38  39
ENDBRANCH  37  38
ENDBRANCH  36  37
ENDBRANCH  35  36
ENDBRANCH  34  35
ENDBRANCH   1  34
TORSDOF 24
ENDMDL
MODEL 3
REMARK VINA RESULT:      -7.8      5.630      9.650
REMARK SMILES C[C@H](Oc1cccc(/C=C2/SC(=S)N(c3ccc(Cl)c(Cl)c3)C2=O)c1)C(=O)OCCOCCOCCOCCOC(=O)c1ccc(-c2c3nc(c(-c4c(F)c(F)c(F)c(F)c4F)c4ccc([nH]4)c(-c4c(F)c(F)c(F)c(F)c4F)c4nc(c(-c5c(F)c(F)c(F)c(F)c5F)c5ccc2[nH]5)C=C4)C=C3)cc1
REMARK SMILES IDX 33 1 32 2 31 3 30 4 29 5 28 6 26 7 27 8 2 9 1 10 3 11 4 12
REMARK SMILES IDX 5 13 25 14 6 15 8 16 7 17 9 18 10 19 11 20 23 21 12 22 14 23
REMARK SMILES IDX 24 24 13 25 15 26 16 27 22 28 17 29 20 30 18 31 21 32 19 33
REMARK SMILES IDX 34 34 35 35 36 36 37 37 38 38 39 39 40 40 41 41 42 42 43 43
REMARK SMILES IDX 44 44 105 45 45 46 104 47 46 48 47 49 48 50 98 51 49 52
REMARK SMILES IDX 103 53 97 54 99 55 50 56 102 57 96 58 95 59 51 61 83 62
REMARK SMILES IDX 63 63 82 64 64 65 67 66 81 67 100 68 65 69 66 70 80 72
REMARK SMILES IDX 101 73 68 74 52 75 53 76 61 77 54 78 55 79 59 80 62 81 56 82
REMARK SMILES IDX 57 83 60 84 58 85 84 86 85 87 93 88 86 89 87 90 91 91 94 92
REMARK SMILES IDX 88 93 89 94 92 95 90 96 69 97 70 98 78 99 71 100 72 101
REMARK SMILES IDX 76 102 79 103 73 104 74 105 77 106 75 107
REMARK H PARENT 99 60 67 71
REMARK Flexibility Score: inf
ROOT
ATOM      1  C   UNL A   1      44.924  43.220  26.363  1.00  0.00     0.188 C 
ENDROOT
BRANCH   1   2
ATOM      2  C   UNL A   1      45.434  43.333  27.810  1.00  0.00     0.188 C 
BRANCH   2   3
ATOM      3  O   UNL A   1      44.906  44.299  28.707  1.00  0.00    -0.376 OA
BRANCH   3   4
ATOM      4  C   UNL A   1      44.390  43.943  29.981  1.00  0.00     0.202 C 
BRANCH   4   5
ATOM      5  C   UNL A   1      43.903  44.973  31.014  1.00  0.00     0.261 C 
BRANCH   5   6
ATOM      6  O   UNL A   1      42.941  44.533  31.978  1.00  0.00    -0.461 OA
BRANCH   6   7
ATOM      7  C   UNL A   1      43.344  44.580  33.272  1.00  0.00     0.347 C 
ATOM      8  O   UNL A   1      43.566  45.617  33.891  1.00  0.00    -0.248 OA
BRANCH   7   9
ATOM      9  C   UNL A   1      43.547  43.188  33.894  1.00  0.00     0.279 C 
ATOM     10  C   UNL A   1      42.378  42.346  33.392  1.00  0.00     0.066 C 
BRANCH   9  11
ATOM     11  O   UNL A   1      43.630  43.169  35.320  1.00  0.00    -0.479 OA
BRANCH  11  12
ATOM     12  C   UNL A   1      44.616  42.444  35.938  1.00  0.00     0.121 A 
ATOM     13  C   UNL A   1      45.829  42.947  36.400  1.00  0.00     0.046 A 
ATOM     14  C   UNL A   1      44.368  41.070  36.057  1.00  0.00     0.054 A 
ATOM     15  C   UNL A   1      46.822  42.083  36.869  1.00  0.00     0.004 A 
ATOM     16  C   UNL A   1      45.365  40.188  36.516  1.00  0.00    -0.021 A 
ATOM     17  C   UNL A   1      46.598  40.708  36.914  1.00  0.00     0.008 A 
BRANCH  16  18
ATOM     18  C   UNL A   1      45.160  38.734  36.583  1.00  0.00     0.029 C 
ATOM     19  C   UNL A   1      45.375  37.863  35.588  1.00  0.00     0.081 C 
ATOM     20  S   UNL A   1      45.025  36.183  35.710  1.00  0.00    -0.054 SA
ATOM     21  C   UNL A   1      45.879  38.174  34.221  1.00  0.00     0.270 C 
ATOM     22  C   UNL A   1      45.301  35.903  33.989  1.00  0.00     0.152 C 
ATOM     23  N   UNL A   1      45.669  37.090  33.370  1.00  0.00    -0.261 N 
ATOM     24  O   UNL A   1      46.383  39.249  33.928  1.00  0.00    -0.268 OA
ATOM     25  S   UNL A   1      45.190  34.356  33.359  1.00  0.00    -0.051 S 
BRANCH  23  26
ATOM     26  C   UNL A   1      45.805  37.282  31.957  1.00  0.00     0.052 A 
ATOM     27  C   UNL A   1      44.715  37.694  31.176  1.00  0.00     0.028 A 
ATOM     28  C   UNL A   1      46.994  36.943  31.297  1.00  0.00     0.048 A 
ATOM     29  C   UNL A   1      44.795  37.738  29.781  1.00  0.00     0.024 A 
ATOM     30  C   UNL A   1      47.085  37.006  29.900  1.00  0.00     0.061 A 
ATOM     31  C   UNL A   1      45.977  37.382  29.138  1.00  0.00     0.059 A 
ATOM     32  Cl  UNL A   1      48.600  36.592  29.190  1.00  0.00    -0.083 Cl
ATOM     33  Cl  UNL A   1      45.993  37.394  27.413  1.00  0.00    -0.083 Cl
ENDBRANCH  23  26
ENDBRANCH  16  18
ENDBRANCH  11  12
ENDBRANCH   9  11
ENDBRANCH   7   9
ENDBRANCH   6   7
ENDBRANCH   5   6
ENDBRANCH   4   5
ENDBRANCH   3   4
ENDBRANCH   2   3
ENDBRANCH   1   2
BRANCH   1  34
ATOM     34  O   UNL A   1      44.101  42.096  26.120  1.00  0.00    -0.377 OA
BRANCH  34  35
ATOM     35  C   UNL A   1      43.495  42.013  24.839  1.00  0.00     0.188 C 
BRANCH  35  36
ATOM     36  C   UNL A   1      42.021  41.562  24.751  1.00  0.00     0.188 C 
BRANCH  36  37
ATOM     37  O   UNL A   1      41.484  41.073  25.972  1.00  0.00    -0.376 OA
BRANCH  37  38
ATOM     38  C   UNL A   1      41.371  39.669  26.153  1.00  0.00     0.202 C 
BRANCH  38  39
ATOM     39  C   UNL A   1      42.572  38.947  26.786  1.00  0.00     0.261 C 
BRANCH  39  40
ATOM     40  O   UNL A   1      42.678  37.541  26.510  1.00  0.00    -0.460 OA
BRANCH  40  41
ATOM     41  C   UNL A   1      42.283  36.698  27.482  1.00  0.00     0.338 C 
ATOM     42  O   UNL A   1      41.414  36.897  28.321  1.00  0.00    -0.246 OA
BRANCH  41  43
ATOM     43  C   UNL A   1      42.932  35.390  27.269  1.00  0.00     0.060 A 
ATOM     44  C   UNL A   1      43.253  34.618  28.392  1.00  0.00     0.016 A 
ATOM     45  C   UNL A   1      43.266  34.948  25.987  1.00  0.00     0.016 A 
ATOM     46  C   UNL A   1      43.984  33.442  28.246  1.00  0.00     0.010 A 
ATOM     47  C   UNL A   1      44.015  33.776  25.841  1.00  0.00     0.010 A 
ATOM     48  C   UNL A   1      44.430  33.055  26.977  1.00  0.00    -0.014 A 
BRANCH  48  49
ATOM     49  C   UNL A   1      45.539  32.071  26.885  1.00  0.00     0.031 A 
ATOM     50  C   UNL A   1      46.942  32.600  26.739  1.00  0.00     0.074 A 
ATOM     51  C   UNL A   1      45.326  30.749  27.001  1.00  0.00     0.049 A 
ATOM     52  N   UNL A   1      48.078  31.954  26.658  1.00  0.00    -0.248 NA
ATOM     53  C   UNL A   1      47.086  34.065  26.684  1.00  0.00     0.031 C 
ATOM     54  C   UNL A   1      44.025  30.113  27.195  1.00  0.00     0.029 A 
ATOM     55  N   UNL A   1      46.211  29.701  26.955  1.00  0.00    -0.354 N 
ATOM     56  C   UNL A   1      49.060  32.930  26.539  1.00  0.00     0.074 A 
ATOM     57  C   UNL A   1      48.389  34.209  26.512  1.00  0.00     0.031 C 
ATOM     58  C   UNL A   1      44.192  28.779  27.219  1.00  0.00     0.029 A 
ATOM     59  C   UNL A   1      45.610  28.471  27.033  1.00  0.00     0.049 A 
ATOM     60  H   UNL A   1      47.185  29.822  26.873  1.00  0.00     0.167 HD
ATOM     61  C   UNL A   1      50.405  32.775  26.480  1.00  0.00     0.037 A 
ATOM     62  C   UNL A   1      46.146  27.238  26.949  1.00  0.00     0.037 A 
ATOM     63  C   UNL A   1      51.070  31.501  26.511  1.00  0.00     0.049 A 
ATOM     64  C   UNL A   1      47.639  27.089  26.797  1.00  0.00     0.074 A 
ATOM     65  C   UNL A   1      52.428  31.235  26.485  1.00  0.00     0.029 A 
ATOM     66  N   UNL A   1      50.424  30.275  26.561  1.00  0.00    -0.354 N 
ATOM     67  N   UNL A   1      48.565  28.014  26.733  1.00  0.00    -0.248 NA
ATOM     68  C   UNL A   1      48.160  25.716  26.731  1.00  0.00     0.031 C 
ATOM     69  C   UNL A   1      52.601  29.848  26.452  1.00  0.00     0.029 A 
ATOM     70  C   UNL A   1      51.355  29.248  26.536  1.00  0.00     0.049 A 
ATOM     71  H   UNL A   1      49.448  30.151  26.607  1.00  0.00     0.167 HD
ATOM     72  C   UNL A   1      49.778  27.338  26.667  1.00  0.00     0.074 A 
ATOM     73  C   UNL A   1      49.468  25.926  26.707  1.00  0.00     0.031 C 
ATOM     74  C   UNL A   1      51.036  27.844  26.591  1.00  0.00     0.037 A 
BRANCH  61  75
ATOM     75  C   UNL A   1      51.240  34.016  26.342  1.00  0.00     0.064 A 
ATOM     76  C   UNL A   1      51.674  34.488  25.093  1.00  0.00     0.173 A 
ATOM     77  C   UNL A   1      51.594  34.758  27.480  1.00  0.00     0.173 A 
ATOM     78  F   UNL A   1      51.377  33.808  23.974  1.00  0.00    -0.203 F 
ATOM     79  C   UNL A   1      52.457  35.635  24.991  1.00  0.00     0.198 A 
ATOM     80  C   UNL A   1      52.347  35.924  27.371  1.00  0.00     0.198 A 
ATOM     81  F   UNL A   1      51.206  34.355  28.699  1.00  0.00    -0.203 F 
ATOM     82  F   UNL A   1      52.907  36.033  23.794  1.00  0.00    -0.200 F 
ATOM     83  C   UNL A   1      52.786  36.356  26.129  1.00  0.00     0.200 A 
ATOM     84  F   UNL A   1      52.652  36.627  28.470  1.00  0.00    -0.200 F 
ATOM     85  F   UNL A   1      53.534  37.464  26.030  1.00  0.00    -0.200 F 
ENDBRANCH  61  75
BRANCH  62  86
ATOM     86  C   UNL A   1      45.271  26.038  27.024  1.00  0.00     0.064 A 
ATOM     87  C   UNL A   1      45.040  25.386  28.244  1.00  0.00     0.173 A 
ATOM     88  C   UNL A   1      44.677  25.500  25.873  1.00  0.00     0.173 A 
ATOM     89  F   UNL A   1      45.613  25.842  29.367  1.00  0.00    -0.203 F 
ATOM     90  C   UNL A   1      44.265  24.229  28.305  1.00  0.00     0.198 A 
ATOM     91  C   UNL A   1      43.874  24.363  25.942  1.00  0.00     0.198 A 
ATOM     92  F   UNL A   1      44.885  26.075  24.682  1.00  0.00    -0.203 F 
ATOM     93  F   UNL A   1      44.109  23.592  29.474  1.00  0.00    -0.200 F 
ATOM     94  C   UNL A   1      43.676  23.724  27.156  1.00  0.00     0.200 A 
ATOM     95  F   UNL A   1      43.304  23.880  24.831  1.00  0.00    -0.200 F 
ATOM     96  F   UNL A   1      42.933  22.610  27.216  1.00  0.00    -0.200 F 
ENDBRANCH  62  86
BRANCH  74  97
ATOM     97  C   UNL A   1      52.177  26.866  26.618  1.00  0.00     0.064 A 
ATOM     98  C   UNL A   1      52.952  26.652  27.767  1.00  0.00     0.173 A 
ATOM     99  C   UNL A   1      52.485  26.113  25.473  1.00  0.00     0.173 A 
ATOM    100  F   UNL A   1      52.709  27.351  28.886  1.00  0.00    -0.203 F 
ATOM    101  C   UNL A   1      54.018  25.755  27.756  1.00  0.00     0.198 A 
ATOM    102  C   UNL A   1      53.525  25.188  25.478  1.00  0.00     0.198 A 
ATOM    103  F   UNL A   1      51.769  26.267  24.348  1.00  0.00    -0.203 F 
ATOM    104  F   UNL A   1      54.788  25.618  28.845  1.00  0.00    -0.200 F 
ATOM    105  C   UNL A   1      54.300  25.020  26.615  1.00  0.00     0.200 A 
ATOM    106  F   UNL A   1      53.781  24.463  24.380  1.00  0.00    -0.200 F 
ATOM    107  F   UNL A   1      55.324  24.156  26.607  1.00  0.00    -0.200 F 
ENDBRANCH  74  97
ENDBRANCH  48  49
ENDBRANCH  41  43
ENDBRANCH  40  41
ENDBRANCH  39  40
ENDBRANCH  38  39
ENDBRANCH  37  38
ENDBRANCH  36  37
ENDBRANCH  35  36
ENDBRANCH  34  35
ENDBRANCH   1  34
TORSDOF 24
ENDMDL
