MODEL 1
REMARK VINA RESULT:      -9.9      0.000      0.000
REMARK SMILES C[C@@H](C(=O)OCCOCCOCCOCCOC(=O)c1ccc(-c2c3nc(c(-c4c(F)c(F)c(F)c(F)c4F)c4ccc([nH]4)c(-c4c(F)c(F)c(F)c(F)c4F)c4nc(c(-c5c(F)c(F)c(F)c(F)c5F)c5ccc2[nH]5)C=C4)C=C3)cc1)c1ccc(-c2cccc(OC(=O)NC3CC3)c2)c(F)c1
REMARK SMILES IDX 9 1 8 2 7 3 6 4 5 5 3 6 4 7 2 8 1 9 83 10 84 11 102 12 85 13
REMARK SMILES IDX 100 14 86 15 101 16 87 17 88 18 99 19 89 20 91 21 90 22
REMARK SMILES IDX 92 23 93 24 94 25 95 26 96 28 97 29 98 30 10 31 11 32 12 33
REMARK SMILES IDX 13 34 14 35 15 36 16 37 17 38 18 39 19 40 20 41 21 42 82 43
REMARK SMILES IDX 22 44 81 45 23 46 24 47 25 48 75 49 26 50 80 51 74 52 76 53
REMARK SMILES IDX 27 54 79 55 73 56 72 57 28 59 60 60 40 61 59 62 41 63 44 64
REMARK SMILES IDX 58 65 77 66 42 67 43 68 57 70 78 71 45 72 29 73 30 74 38 75
REMARK SMILES IDX 31 76 32 77 36 78 39 79 33 80 34 81 37 82 35 83 61 84 62 85
REMARK SMILES IDX 70 86 63 87 64 88 68 89 71 90 65 91 66 92 69 93 67 94 46 95
REMARK SMILES IDX 47 96 55 97 48 98 49 99 53 100 56 101 50 102 51 103 54 104
REMARK SMILES IDX 52 105
REMARK H PARENT 95 27 76 58 44 69
REMARK Flexibility Score: inf
ROOT
ATOM      1  C   UNL A   1      31.667  35.672  31.469  1.00  0.00     0.188 C 
ENDROOT
BRANCH   1   2
ATOM      2  O   UNL A   1      32.243  36.073  30.242  1.00  0.00    -0.376 OA
BRANCH   2   3
ATOM      3  C   UNL A   1      32.905  35.146  29.395  1.00  0.00     0.202 C 
BRANCH   3   4
ATOM      4  C   UNL A   1      34.311  35.319  28.782  1.00  0.00     0.261 C 
BRANCH   4   5
ATOM      5  O   UNL A   1      35.396  34.672  29.453  1.00  0.00    -0.463 OA
BRANCH   5   6
ATOM      6  C   UNL A   1      35.168  33.436  29.955  1.00  0.00     0.313 C 
ATOM      7  O   UNL A   1      34.284  33.180  30.767  1.00  0.00    -0.252 OA
BRANCH   6   8
ATOM      8  C   UNL A   1      36.069  32.360  29.329  1.00  0.00     0.126 C 
ATOM      9  C   UNL A   1      37.404  32.912  28.803  1.00  0.00     0.025 C 
BRANCH   8  10
ATOM     10  C   UNL A   1      35.292  31.404  28.416  1.00  0.00    -0.031 A 
ATOM     11  C   UNL A   1      34.005  31.778  27.988  1.00  0.00     0.005 A 
ATOM     12  C   UNL A   1      35.754  30.140  28.017  1.00  0.00     0.044 A 
ATOM     13  C   UNL A   1      33.203  30.925  27.224  1.00  0.00     0.012 A 
ATOM     14  C   UNL A   1      34.943  29.287  27.256  1.00  0.00     0.131 A 
ATOM     15  C   UNL A   1      33.644  29.645  26.874  1.00  0.00     0.018 A 
ATOM     16  F   UNL A   1      35.428  28.078  26.932  1.00  0.00    -0.206 F 
BRANCH  15  17
ATOM     17  C   UNL A   1      32.690  28.688  26.296  1.00  0.00    -0.012 A 
ATOM     18  C   UNL A   1      31.767  27.976  27.078  1.00  0.00     0.009 A 
ATOM     19  C   UNL A   1      32.800  28.365  24.932  1.00  0.00     0.056 A 
ATOM     20  C   UNL A   1      30.988  26.959  26.514  1.00  0.00     0.004 A 
ATOM     21  C   UNL A   1      32.039  27.342  24.377  1.00  0.00     0.133 A 
ATOM     22  C   UNL A   1      31.131  26.634  25.165  1.00  0.00     0.047 A 
BRANCH  21  23
ATOM     23  O   UNL A   1      32.141  26.918  23.030  1.00  0.00    -0.410 OA
BRANCH  23  24
ATOM     24  C   UNL A   1      33.320  26.713  22.317  1.00  0.00     0.412 C 
ATOM     25  O   UNL A   1      33.958  27.564  21.707  1.00  0.00    -0.224 OA
ATOM     26  N   UNL A   1      33.758  25.414  22.317  1.00  0.00    -0.318 N 
ATOM     27  H   UNL A   1      34.557  25.246  21.768  1.00  0.00     0.167 HD
BRANCH  26  28
ATOM     28  C   UNL A   1      33.241  24.271  22.988  1.00  0.00     0.085 C 
ATOM     29  C   UNL A   1      32.910  22.935  22.387  1.00  0.00     0.027 C 
ATOM     30  C   UNL A   1      34.157  23.092  23.200  1.00  0.00     0.027 C 
ENDBRANCH  26  28
ENDBRANCH  23  24
ENDBRANCH  21  23
ENDBRANCH  15  17
ENDBRANCH   8  10
ENDBRANCH   6   8
ENDBRANCH   5   6
ENDBRANCH   4   5
ENDBRANCH   3   4
ENDBRANCH   2   3
ENDBRANCH   1   2
BRANCH   1  31
ATOM     31  C   UNL A   1      31.835  36.600  32.681  1.00  0.00     0.188 C 
BRANCH  31  32
ATOM     32  O   UNL A   1      32.715  37.692  32.491  1.00  0.00    -0.377 OA
BRANCH  32  33
ATOM     33  C   UNL A   1      34.068  37.551  32.901  1.00  0.00     0.188 C 
BRANCH  33  34
ATOM     34  C   UNL A   1      34.768  36.177  32.873  1.00  0.00     0.188 C 
BRANCH  34  35
ATOM     35  O   UNL A   1      34.872  35.531  34.132  1.00  0.00    -0.376 OA
BRANCH  35  36
ATOM     36  C   UNL A   1      35.069  34.127  34.168  1.00  0.00     0.202 C 
BRANCH  36  37
ATOM     37  C   UNL A   1      36.309  33.563  33.455  1.00  0.00     0.261 C 
BRANCH  37  38
ATOM     38  O   UNL A   1      36.553  32.156  33.617  1.00  0.00    -0.460 OA
BRANCH  38  39
ATOM     39  C   UNL A   1      37.561  31.780  34.435  1.00  0.00     0.338 C 
ATOM     40  O   UNL A   1      37.497  31.541  35.622  1.00  0.00    -0.246 OA
BRANCH  39  41
ATOM     41  C   UNL A   1      38.747  31.513  33.590  1.00  0.00     0.060 A 
ATOM     42  C   UNL A   1      38.727  31.919  32.250  1.00  0.00     0.016 A 
ATOM     43  C   UNL A   1      39.867  30.867  34.116  1.00  0.00     0.016 A 
ATOM     44  C   UNL A   1      39.813  31.641  31.419  1.00  0.00     0.010 A 
ATOM     45  C   UNL A   1      40.944  30.568  33.278  1.00  0.00     0.010 A 
ATOM     46  C   UNL A   1      40.906  30.921  31.917  1.00  0.00    -0.014 A 
BRANCH  46  47
ATOM     47  C   UNL A   1      41.903  30.355  30.974  1.00  0.00     0.031 A 
ATOM     48  C   UNL A   1      43.143  31.156  30.686  1.00  0.00     0.074 A 
ATOM     49  C   UNL A   1      41.730  29.150  30.405  1.00  0.00     0.049 A 
ATOM     50  N   UNL A   1      44.125  30.907  29.858  1.00  0.00    -0.248 NA
ATOM     51  C   UNL A   1      43.293  32.414  31.436  1.00  0.00     0.031 C 
ATOM     52  C   UNL A   1      40.597  28.259  30.639  1.00  0.00     0.029 A 
ATOM     53  N   UNL A   1      42.510  28.475  29.498  1.00  0.00    -0.354 N 
ATOM     54  C   UNL A   1      45.002  31.977  29.982  1.00  0.00     0.074 A 
ATOM     55  C   UNL A   1      44.421  32.894  30.937  1.00  0.00     0.031 C 
ATOM     56  C   UNL A   1      40.747  27.158  29.880  1.00  0.00     0.029 A 
ATOM     57  C   UNL A   1      41.965  27.287  29.081  1.00  0.00     0.049 A 
ATOM     58  H   UNL A   1      43.378  28.812  29.177  1.00  0.00     0.167 HD
ATOM     59  C   UNL A   1      46.191  32.171  29.364  1.00  0.00     0.037 A 
ATOM     60  C   UNL A   1      42.388  26.419  28.139  1.00  0.00     0.037 A 
ATOM     61  C   UNL A   1      46.763  31.259  28.410  1.00  0.00     0.049 A 
ATOM     62  C   UNL A   1      43.672  26.700  27.398  1.00  0.00     0.074 A 
ATOM     63  C   UNL A   1      47.965  31.360  27.732  1.00  0.00     0.029 A 
ATOM     64  N   UNL A   1      46.166  30.079  27.988  1.00  0.00    -0.354 N 
ATOM     65  N   UNL A   1      44.508  27.702  27.534  1.00  0.00    -0.248 NA
ATOM     66  C   UNL A   1      44.076  25.723  26.375  1.00  0.00     0.031 C 
ATOM     67  C   UNL A   1      48.065  30.275  26.855  1.00  0.00     0.029 A 
ATOM     68  C   UNL A   1      46.961  29.459  27.039  1.00  0.00     0.049 A 
ATOM     69  H   UNL A   1      45.304  29.734  28.316  1.00  0.00     0.167 HD
ATOM     70  C   UNL A   1      45.547  27.461  26.643  1.00  0.00     0.074 A 
ATOM     71  C   UNL A   1      45.244  26.209  25.981  1.00  0.00     0.031 C 
ATOM     72  C   UNL A   1      46.652  28.207  26.395  1.00  0.00     0.037 A 
BRANCH  59  73
ATOM     73  C   UNL A   1      46.938  33.435  29.679  1.00  0.00     0.064 A 
ATOM     74  C   UNL A   1      47.740  33.556  30.825  1.00  0.00     0.173 A 
ATOM     75  C   UNL A   1      46.870  34.534  28.808  1.00  0.00     0.173 A 
ATOM     76  F   UNL A   1      47.828  32.542  31.698  1.00  0.00    -0.203 F 
ATOM     77  C   UNL A   1      48.423  34.738  31.100  1.00  0.00     0.198 A 
ATOM     78  C   UNL A   1      47.581  35.702  29.070  1.00  0.00     0.198 A 
ATOM     79  F   UNL A   1      46.120  34.472  27.698  1.00  0.00    -0.203 F 
ATOM     80  F   UNL A   1      49.139  34.849  32.228  1.00  0.00    -0.200 F 
ATOM     81  C   UNL A   1      48.350  35.807  30.219  1.00  0.00     0.200 A 
ATOM     82  F   UNL A   1      47.521  36.727  28.209  1.00  0.00    -0.200 F 
ATOM     83  F   UNL A   1      49.014  36.941  30.482  1.00  0.00    -0.200 F 
ENDBRANCH  59  73
BRANCH  60  84
ATOM     84  C   UNL A   1      41.579  25.211  27.820  1.00  0.00     0.064 A 
ATOM     85  C   UNL A   1      41.944  23.945  28.298  1.00  0.00     0.173 A 
ATOM     86  C   UNL A   1      40.440  25.294  27.005  1.00  0.00     0.173 A 
ATOM     87  F   UNL A   1      43.040  23.806  29.058  1.00  0.00    -0.203 F 
ATOM     88  C   UNL A   1      41.216  22.807  27.954  1.00  0.00     0.198 A 
ATOM     89  C   UNL A   1      39.693  24.161  26.689  1.00  0.00     0.198 A 
ATOM     90  F   UNL A   1      40.048  26.480  26.518  1.00  0.00    -0.203 F 
ATOM     91  F   UNL A   1      41.621  21.601  28.378  1.00  0.00    -0.200 F 
ATOM     92  C   UNL A   1      40.088  22.916  27.156  1.00  0.00     0.200 A 
ATOM     93  F   UNL A   1      38.596  24.275  25.929  1.00  0.00    -0.200 F 
ATOM     94  F   UNL A   1      39.387  21.822  26.827  1.00  0.00    -0.200 F 
ENDBRANCH  60  84
BRANCH  72  95
ATOM     95  C   UNL A   1      47.646  27.671  25.401  1.00  0.00     0.064 A 
ATOM     96  C   UNL A   1      47.508  27.887  24.022  1.00  0.00     0.173 A 
ATOM     97  C   UNL A   1      48.779  26.967  25.843  1.00  0.00     0.173 A 
ATOM     98  F   UNL A   1      46.440  28.543  23.545  1.00  0.00    -0.203 F 
ATOM     99  C   UNL A   1      48.450  27.394  23.122  1.00  0.00     0.198 A 
ATOM    100  C   UNL A   1      49.736  26.508  24.943  1.00  0.00     0.198 A 
ATOM    101  F   UNL A   1      48.966  26.740  27.152  1.00  0.00    -0.203 F 
ATOM    102  F   UNL A   1      48.269  27.566  21.805  1.00  0.00    -0.200 F 
ATOM    103  C   UNL A   1      49.567  26.713  23.583  1.00  0.00     0.200 A 
ATOM    104  F   UNL A   1      50.824  25.867  25.394  1.00  0.00    -0.200 F 
ATOM    105  F   UNL A   1      50.476  26.248  22.716  1.00  0.00    -0.200 F 
ENDBRANCH  72  95
ENDBRANCH  46  47
ENDBRANCH  39  41
ENDBRANCH  38  39
ENDBRANCH  37  38
ENDBRANCH  36  37
ENDBRANCH  35  36
ENDBRANCH  34  35
ENDBRANCH  33  34
ENDBRANCH  32  33
ENDBRANCH  31  32
ENDBRANCH   1  31
TORSDOF 25
ENDMDL
MODEL 2
REMARK VINA RESULT:      -9.5      4.208      9.184
REMARK SMILES C[C@@H](C(=O)OCCOCCOCCOCCOC(=O)c1ccc(-c2c3nc(c(-c4c(F)c(F)c(F)c(F)c4F)c4ccc([nH]4)c(-c4c(F)c(F)c(F)c(F)c4F)c4nc(c(-c5c(F)c(F)c(F)c(F)c5F)c5ccc2[nH]5)C=C4)C=C3)cc1)c1ccc(-c2cccc(OC(=O)NC3CC3)c2)c(F)c1
REMARK SMILES IDX 9 1 8 2 7 3 6 4 5 5 3 6 4 7 2 8 1 9 83 10 84 11 102 12 85 13
REMARK SMILES IDX 100 14 86 15 101 16 87 17 88 18 99 19 89 20 91 21 90 22
REMARK SMILES IDX 92 23 93 24 94 25 95 26 96 28 97 29 98 30 10 31 11 32 12 33
REMARK SMILES IDX 13 34 14 35 15 36 16 37 17 38 18 39 19 40 20 41 21 42 82 43
REMARK SMILES IDX 22 44 81 45 23 46 24 47 25 48 75 49 26 50 80 51 74 52 76 53
REMARK SMILES IDX 27 54 79 55 73 56 72 57 28 59 60 60 40 61 59 62 41 63 44 64
REMARK SMILES IDX 58 65 77 66 42 67 43 68 57 70 78 71 45 72 29 73 30 74 38 75
REMARK SMILES IDX 31 76 32 77 36 78 39 79 33 80 34 81 37 82 35 83 61 84 62 85
REMARK SMILES IDX 70 86 63 87 64 88 68 89 71 90 65 91 66 92 69 93 67 94 46 95
REMARK SMILES IDX 47 96 55 97 48 98 49 99 53 100 56 101 50 102 51 103 54 104
REMARK SMILES IDX 52 105
REMARK H PARENT 95 27 76 58 44 69
REMARK Flexibility Score: inf
ROOT
ATOM      1  C   UNL A   1      40.569  26.322  28.326  1.00  0.00     0.188 C 
ENDROOT
BRANCH   1   2
ATOM      2  O   UNL A   1      40.373  27.432  29.179  1.00  0.00    -0.376 OA
BRANCH   2   3
ATOM      3  C   UNL A   1      39.480  28.481  28.838  1.00  0.00     0.202 C 
BRANCH   3   4
ATOM      4  C   UNL A   1      38.785  29.441  29.828  1.00  0.00     0.261 C 
BRANCH   4   5
ATOM      5  O   UNL A   1      38.259  30.658  29.291  1.00  0.00    -0.463 OA
BRANCH   5   6
ATOM      6  C   UNL A   1      36.935  30.887  29.452  1.00  0.00     0.313 C 
ATOM      7  O   UNL A   1      36.344  30.763  30.520  1.00  0.00    -0.252 OA
BRANCH   6   8
ATOM      8  C   UNL A   1      36.258  31.414  28.177  1.00  0.00     0.126 C 
ATOM      9  C   UNL A   1      35.971  32.924  28.217  1.00  0.00     0.025 C 
BRANCH   8  10
ATOM     10  C   UNL A   1      35.132  30.495  27.689  1.00  0.00    -0.031 A 
ATOM     11  C   UNL A   1      35.457  29.188  27.281  1.00  0.00     0.005 A 
ATOM     12  C   UNL A   1      33.790  30.886  27.563  1.00  0.00     0.044 A 
ATOM     13  C   UNL A   1      34.501  28.321  26.747  1.00  0.00     0.012 A 
ATOM     14  C   UNL A   1      32.836  30.013  27.021  1.00  0.00     0.131 A 
ATOM     15  C   UNL A   1      33.175  28.731  26.572  1.00  0.00     0.018 A 
ATOM     16  F   UNL A   1      31.574  30.456  26.897  1.00  0.00    -0.206 F 
BRANCH  15  17
ATOM     17  C   UNL A   1      32.261  27.895  25.781  1.00  0.00    -0.012 A 
ATOM     18  C   UNL A   1      31.245  28.438  24.978  1.00  0.00     0.009 A 
ATOM     19  C   UNL A   1      32.311  26.500  25.943  1.00  0.00     0.056 A 
ATOM     20  C   UNL A   1      30.297  27.608  24.369  1.00  0.00     0.004 A 
ATOM     21  C   UNL A   1      31.357  25.678  25.352  1.00  0.00     0.133 A 
ATOM     22  C   UNL A   1      30.346  26.228  24.565  1.00  0.00     0.047 A 
BRANCH  21  23
ATOM     23  O   UNL A   1      31.305  24.273  25.523  1.00  0.00    -0.410 OA
BRANCH  23  24
ATOM     24  C   UNL A   1      30.856  23.595  26.654  1.00  0.00     0.412 C 
ATOM     25  O   UNL A   1      29.778  23.754  27.217  1.00  0.00    -0.224 OA
ATOM     26  N   UNL A   1      31.750  22.685  27.155  1.00  0.00    -0.318 N 
ATOM     27  H   UNL A   1      31.469  22.244  27.989  1.00  0.00     0.167 HD
BRANCH  26  28
ATOM     28  C   UNL A   1      33.020  22.277  26.660  1.00  0.00     0.085 C 
ATOM     29  C   UNL A   1      34.311  23.040  26.726  1.00  0.00     0.027 C 
ATOM     30  C   UNL A   1      34.084  21.889  27.655  1.00  0.00     0.027 C 
ENDBRANCH  26  28
ENDBRANCH  23  24
ENDBRANCH  21  23
ENDBRANCH  15  17
ENDBRANCH   8  10
ENDBRANCH   6   8
ENDBRANCH   5   6
ENDBRANCH   4   5
ENDBRANCH   3   4
ENDBRANCH   2   3
ENDBRANCH   1   2
BRANCH   1  31
ATOM     31  C   UNL A   1      39.365  25.412  28.041  1.00  0.00     0.188 C 
BRANCH  31  32
ATOM     32  O   UNL A   1      39.335  24.833  26.750  1.00  0.00    -0.377 OA
BRANCH  32  33
ATOM     33  C   UNL A   1      38.257  23.968  26.420  1.00  0.00     0.188 C 
BRANCH  33  34
ATOM     34  C   UNL A   1      38.514  22.546  25.880  1.00  0.00     0.188 C 
BRANCH  34  35
ATOM     35  O   UNL A   1      39.356  21.741  26.689  1.00  0.00    -0.376 OA
BRANCH  35  36
ATOM     36  C   UNL A   1      40.706  21.550  26.297  1.00  0.00     0.202 C 
BRANCH  36  37
ATOM     37  C   UNL A   1      41.794  21.767  27.361  1.00  0.00     0.261 C 
BRANCH  37  38
ATOM     38  O   UNL A   1      42.397  23.070  27.401  1.00  0.00    -0.460 OA
BRANCH  38  39
ATOM     39  C   UNL A   1      42.890  23.503  28.583  1.00  0.00     0.338 C 
ATOM     40  O   UNL A   1      42.608  23.100  29.691  1.00  0.00    -0.246 OA
BRANCH  39  41
ATOM     41  C   UNL A   1      43.998  24.439  28.289  1.00  0.00     0.060 A 
ATOM     42  C   UNL A   1      44.561  25.171  29.342  1.00  0.00     0.016 A 
ATOM     43  C   UNL A   1      44.475  24.593  26.986  1.00  0.00     0.016 A 
ATOM     44  C   UNL A   1      45.577  26.093  29.087  1.00  0.00     0.010 A 
ATOM     45  C   UNL A   1      45.477  25.533  26.728  1.00  0.00     0.010 A 
ATOM     46  C   UNL A   1      46.005  26.314  27.772  1.00  0.00    -0.014 A 
BRANCH  46  47
ATOM     47  C   UNL A   1      46.844  27.498  27.462  1.00  0.00     0.031 A 
ATOM     48  C   UNL A   1      48.329  27.301  27.327  1.00  0.00     0.074 A 
ATOM     49  C   UNL A   1      46.305  28.716  27.279  1.00  0.00     0.049 A 
ATOM     50  N   UNL A   1      49.274  28.184  27.121  1.00  0.00    -0.248 NA
ATOM     51  C   UNL A   1      48.814  25.916  27.439  1.00  0.00     0.031 C 
ATOM     52  C   UNL A   1      44.879  29.027  27.338  1.00  0.00     0.029 A 
ATOM     53  N   UNL A   1      46.905  29.924  27.019  1.00  0.00    -0.354 N 
ATOM     54  C   UNL A   1      50.460  27.463  27.089  1.00  0.00     0.074 A 
ATOM     55  C   UNL A   1      50.124  26.078  27.330  1.00  0.00     0.031 C 
ATOM     56  C   UNL A   1      44.714  30.346  27.136  1.00  0.00     0.029 A 
ATOM     57  C   UNL A   1      46.024  30.976  26.972  1.00  0.00     0.049 A 
ATOM     58  H   UNL A   1      47.874  30.026  26.879  1.00  0.00     0.167 HD
ATOM     59  C   UNL A   1      51.718  27.914  26.867  1.00  0.00     0.037 A 
ATOM     60  C   UNL A   1      46.256  32.297  26.843  1.00  0.00     0.037 A 
ATOM     61  C   UNL A   1      52.051  29.294  26.633  1.00  0.00     0.049 A 
ATOM     62  C   UNL A   1      47.674  32.788  26.684  1.00  0.00     0.074 A 
ATOM     63  C   UNL A   1      53.292  29.854  26.391  1.00  0.00     0.029 A 
ATOM     64  N   UNL A   1      51.134  30.337  26.625  1.00  0.00    -0.354 N 
ATOM     65  N   UNL A   1      48.790  32.101  26.634  1.00  0.00    -0.248 NA
ATOM     66  C   UNL A   1      47.864  34.241  26.558  1.00  0.00     0.031 C 
ATOM     67  C   UNL A   1      53.136  31.241  26.299  1.00  0.00     0.029 A 
ATOM     68  C   UNL A   1      51.788  31.539  26.410  1.00  0.00     0.049 A 
ATOM     69  H   UNL A   1      50.163  30.237  26.752  1.00  0.00     0.167 HD
ATOM     70  C   UNL A   1      49.806  33.030  26.438  1.00  0.00     0.074 A 
ATOM     71  C   UNL A   1      49.171  34.329  26.364  1.00  0.00     0.031 C 
ATOM     72  C   UNL A   1      51.142  32.826  26.328  1.00  0.00     0.037 A 
BRANCH  59  73
ATOM     73  C   UNL A   1      52.832  26.908  26.897  1.00  0.00     0.064 A 
ATOM     74  C   UNL A   1      53.194  26.169  25.759  1.00  0.00     0.173 A 
ATOM     75  C   UNL A   1      53.565  26.696  28.074  1.00  0.00     0.173 A 
ATOM     76  F   UNL A   1      52.516  26.321  24.611  1.00  0.00    -0.203 F 
ATOM     77  C   UNL A   1      54.228  25.238  25.808  1.00  0.00     0.198 A 
ATOM     78  C   UNL A   1      54.620  25.789  28.111  1.00  0.00     0.198 A 
ATOM     79  F   UNL A   1      53.263  27.376  29.191  1.00  0.00    -0.203 F 
ATOM     80  F   UNL A   1      54.520  24.506  24.724  1.00  0.00    -0.200 F 
ATOM     81  C   UNL A   1      54.946  25.054  26.981  1.00  0.00     0.200 A 
ATOM     82  F   UNL A   1      55.321  25.625  29.241  1.00  0.00    -0.200 F 
ATOM     83  F   UNL A   1      55.946  24.163  27.024  1.00  0.00    -0.200 F 
ENDBRANCH  59  73
BRANCH  60  84
ATOM     84  C   UNL A   1      45.122  33.261  26.881  1.00  0.00     0.064 A 
ATOM     85  C   UNL A   1      44.675  33.811  28.091  1.00  0.00     0.173 A 
ATOM     86  C   UNL A   1      44.441  33.628  25.711  1.00  0.00     0.173 A 
ATOM     87  F   UNL A   1      45.273  33.470  29.242  1.00  0.00    -0.203 F 
ATOM     88  C   UNL A   1      43.578  34.670  28.131  1.00  0.00     0.198 A 
ATOM     89  C   UNL A   1      43.366  34.514  25.747  1.00  0.00     0.198 A 
ATOM     90  F   UNL A   1      44.824  33.129  24.527  1.00  0.00    -0.203 F 
ATOM     91  F   UNL A   1      43.137  35.135  29.308  1.00  0.00    -0.200 F 
ATOM     92  C   UNL A   1      42.929  35.027  26.959  1.00  0.00     0.200 A 
ATOM     93  F   UNL A   1      42.751  34.866  24.610  1.00  0.00    -0.200 F 
ATOM     94  F   UNL A   1      41.876  35.855  26.998  1.00  0.00    -0.200 F 
ENDBRANCH  60  84
BRANCH  72  95
ATOM     95  C   UNL A   1      52.011  34.025  26.067  1.00  0.00     0.064 A 
ATOM     96  C   UNL A   1      52.662  34.712  27.104  1.00  0.00     0.173 A 
ATOM     97  C   UNL A   1      52.231  34.467  24.752  1.00  0.00     0.173 A 
ATOM     98  F   UNL A   1      52.478  34.338  28.379  1.00  0.00    -0.203 F 
ATOM     99  C   UNL A   1      53.474  35.811  26.836  1.00  0.00     0.198 A 
ATOM    100  C   UNL A   1      53.072  35.544  24.486  1.00  0.00     0.198 A 
ATOM    101  F   UNL A   1      51.641  33.843  23.722  1.00  0.00    -0.203 F 
ATOM    102  F   UNL A   1      54.042  36.484  27.847  1.00  0.00    -0.200 F 
ATOM    103  C   UNL A   1      53.685  36.221  25.528  1.00  0.00     0.200 A 
ATOM    104  F   UNL A   1      53.289  35.926  23.219  1.00  0.00    -0.200 F 
ATOM    105  F   UNL A   1      54.475  37.273  25.272  1.00  0.00    -0.200 F 
ENDBRANCH  72  95
ENDBRANCH  46  47
ENDBRANCH  39  41
ENDBRANCH  38  39
ENDBRANCH  37  38
ENDBRANCH  36  37
ENDBRANCH  35  36
ENDBRANCH  34  35
ENDBRANCH  33  34
ENDBRANCH  32  33
ENDBRANCH  31  32
ENDBRANCH   1  31
TORSDOF 25
ENDMDL
MODEL 3
REMARK VINA RESULT:      -9.2      4.045      5.894
REMARK SMILES C[C@@H](C(=O)OCCOCCOCCOCCOC(=O)c1ccc(-c2c3nc(c(-c4c(F)c(F)c(F)c(F)c4F)c4ccc([nH]4)c(-c4c(F)c(F)c(F)c(F)c4F)c4nc(c(-c5c(F)c(F)c(F)c(F)c5F)c5ccc2[nH]5)C=C4)C=C3)cc1)c1ccc(-c2cccc(OC(=O)NC3CC3)c2)c(F)c1
REMARK SMILES IDX 9 1 8 2 7 3 6 4 5 5 3 6 4 7 2 8 1 9 83 10 84 11 102 12 85 13
REMARK SMILES IDX 100 14 86 15 101 16 87 17 88 18 99 19 89 20 91 21 90 22
REMARK SMILES IDX 92 23 93 24 94 25 95 26 96 28 97 29 98 30 10 31 11 32 12 33
REMARK SMILES IDX 13 34 14 35 15 36 16 37 17 38 18 39 19 40 20 41 21 42 82 43
REMARK SMILES IDX 22 44 81 45 23 46 24 47 25 48 75 49 26 50 80 51 74 52 76 53
REMARK SMILES IDX 27 54 79 55 73 56 72 57 28 59 60 60 40 61 59 62 41 63 44 64
REMARK SMILES IDX 58 65 77 66 42 67 43 68 57 70 78 71 45 72 29 73 30 74 38 75
REMARK SMILES IDX 31 76 32 77 36 78 39 79 33 80 34 81 37 82 35 83 61 84 62 85
REMARK SMILES IDX 70 86 63 87 64 88 68 89 71 90 65 91 66 92 69 93 67 94 46 95
REMARK SMILES IDX 47 96 55 97 48 98 49 99 53 100 56 101 50 102 51 103 54 104
REMARK SMILES IDX 52 105
REMARK H PARENT 95 27 76 58 44 69
REMARK Flexibility Score: inf
ROOT
ATOM      1  C   UNL A   1      32.093  35.196  31.981  1.00  0.00     0.188 C 
ENDROOT
BRANCH   1   2
ATOM      2  O   UNL A   1      32.936  35.093  30.852  1.00  0.00    -0.376 OA
BRANCH   2   3
ATOM      3  C   UNL A   1      33.875  34.036  30.721  1.00  0.00     0.202 C 
BRANCH   3   4
ATOM      4  C   UNL A   1      34.792  33.780  29.505  1.00  0.00     0.261 C 
BRANCH   4   5
ATOM      5  O   UNL A   1      36.198  33.711  29.755  1.00  0.00    -0.463 OA
BRANCH   5   6
ATOM      6  C   UNL A   1      36.828  32.555  29.441  1.00  0.00     0.313 C 
ATOM      7  O   UNL A   1      36.724  31.991  28.357  1.00  0.00    -0.252 OA
BRANCH   6   8
ATOM      8  C   UNL A   1      37.770  32.065  30.553  1.00  0.00     0.126 C 
ATOM      9  C   UNL A   1      38.454  33.208  31.321  1.00  0.00     0.025 C 
BRANCH   8  10
ATOM     10  C   UNL A   1      38.650  30.893  30.101  1.00  0.00    -0.031 A 
ATOM     11  C   UNL A   1      38.200  29.581  30.339  1.00  0.00     0.005 A 
ATOM     12  C   UNL A   1      39.914  31.035  29.511  1.00  0.00     0.044 A 
ATOM     13  C   UNL A   1      38.982  28.464  30.033  1.00  0.00     0.012 A 
ATOM     14  C   UNL A   1      40.697  29.911  29.210  1.00  0.00     0.131 A 
ATOM     15  C   UNL A   1      40.264  28.610  29.495  1.00  0.00     0.018 A 
ATOM     16  F   UNL A   1      41.912  30.113  28.675  1.00  0.00    -0.206 F 
BRANCH  15  17
ATOM     17  C   UNL A   1      41.152  27.441  29.423  1.00  0.00    -0.012 A 
ATOM     18  C   UNL A   1      42.298  27.312  30.223  1.00  0.00     0.009 A 
ATOM     19  C   UNL A   1      40.927  26.484  28.417  1.00  0.00     0.056 A 
ATOM     20  C   UNL A   1      43.202  26.264  30.011  1.00  0.00     0.004 A 
ATOM     21  C   UNL A   1      41.835  25.454  28.196  1.00  0.00     0.133 A 
ATOM     22  C   UNL A   1      42.976  25.341  28.990  1.00  0.00     0.047 A 
BRANCH  21  23
ATOM     23  O   UNL A   1      41.710  24.493  27.163  1.00  0.00    -0.410 OA
BRANCH  23  24
ATOM     24  C   UNL A   1      42.325  24.540  25.914  1.00  0.00     0.412 C 
ATOM     25  O   UNL A   1      42.239  25.448  25.096  1.00  0.00    -0.224 OA
ATOM     26  N   UNL A   1      43.075  23.432  25.616  1.00  0.00    -0.318 N 
ATOM     27  H   UNL A   1      43.465  23.427  24.713  1.00  0.00     0.167 HD
BRANCH  26  28
ATOM     28  C   UNL A   1      43.379  22.288  26.406  1.00  0.00     0.085 C 
ATOM     29  C   UNL A   1      42.427  21.474  27.233  1.00  0.00     0.027 C 
ATOM     30  C   UNL A   1      42.911  20.939  25.922  1.00  0.00     0.027 C 
ENDBRANCH  26  28
ENDBRANCH  23  24
ENDBRANCH  21  23
ENDBRANCH  15  17
ENDBRANCH   8  10
ENDBRANCH   6   8
ENDBRANCH   5   6
ENDBRANCH   4   5
ENDBRANCH   3   4
ENDBRANCH   2   3
ENDBRANCH   1   2
BRANCH   1  31
ATOM     31  C   UNL A   1      31.886  36.586  32.600  1.00  0.00     0.188 C 
BRANCH  31  32
ATOM     32  O   UNL A   1      32.817  37.573  32.200  1.00  0.00    -0.377 OA
BRANCH  32  33
ATOM     33  C   UNL A   1      34.070  37.633  32.866  1.00  0.00     0.188 C 
BRANCH  33  34
ATOM     34  C   UNL A   1      34.951  36.376  33.018  1.00  0.00     0.188 C 
BRANCH  34  35
ATOM     35  O   UNL A   1      34.704  35.608  34.185  1.00  0.00    -0.376 OA
BRANCH  35  36
ATOM     36  C   UNL A   1      35.028  34.227  34.179  1.00  0.00     0.202 C 
BRANCH  36  37
ATOM     37  C   UNL A   1      36.517  33.845  34.133  1.00  0.00     0.261 C 
BRANCH  37  38
ATOM     38  O   UNL A   1      36.837  32.488  34.476  1.00  0.00    -0.460 OA
BRANCH  38  39
ATOM     39  C   UNL A   1      37.683  32.280  35.510  1.00  0.00     0.338 C 
ATOM     40  O   UNL A   1      37.466  32.465  36.688  1.00  0.00    -0.246 OA
BRANCH  39  41
ATOM     41  C   UNL A   1      38.880  31.592  34.977  1.00  0.00     0.060 A 
ATOM     42  C   UNL A   1      40.135  31.903  35.515  1.00  0.00     0.016 A 
ATOM     43  C   UNL A   1      38.764  30.649  33.952  1.00  0.00     0.016 A 
ATOM     44  C   UNL A   1      41.285  31.303  35.001  1.00  0.00     0.010 A 
ATOM     45  C   UNL A   1      39.919  30.066  33.423  1.00  0.00     0.010 A 
ATOM     46  C   UNL A   1      41.186  30.418  33.920  1.00  0.00    -0.014 A 
BRANCH  46  47
ATOM     47  C   UNL A   1      42.410  30.029  33.177  1.00  0.00     0.031 A 
ATOM     48  C   UNL A   1      42.883  30.926  32.066  1.00  0.00     0.074 A 
ATOM     49  C   UNL A   1      43.103  28.920  33.491  1.00  0.00     0.049 A 
ATOM     50  N   UNL A   1      43.883  30.772  31.236  1.00  0.00    -0.248 NA
ATOM     51  C   UNL A   1      42.121  32.169  31.866  1.00  0.00     0.031 C 
ATOM     52  C   UNL A   1      42.775  27.996  34.573  1.00  0.00     0.029 A 
ATOM     53  N   UNL A   1      44.226  28.380  32.913  1.00  0.00    -0.354 N 
ATOM     54  C   UNL A   1      43.863  31.891  30.413  1.00  0.00     0.074 A 
ATOM     55  C   UNL A   1      42.734  32.697  30.818  1.00  0.00     0.031 C 
ATOM     56  C   UNL A   1      43.669  26.991  34.571  1.00  0.00     0.029 A 
ATOM     57  C   UNL A   1      44.607  27.183  33.465  1.00  0.00     0.049 A 
ATOM     58  H   UNL A   1      44.712  28.811  32.173  1.00  0.00     0.167 HD
ATOM     59  C   UNL A   1      44.718  32.221  29.416  1.00  0.00     0.037 A 
ATOM     60  C   UNL A   1      45.582  26.327  33.098  1.00  0.00     0.037 A 
ATOM     61  C   UNL A   1      45.837  31.413  29.010  1.00  0.00     0.049 A 
ATOM     62  C   UNL A   1      46.468  26.674  31.927  1.00  0.00     0.074 A 
ATOM     63  C   UNL A   1      46.766  31.661  28.016  1.00  0.00     0.029 A 
ATOM     64  N   UNL A   1      46.172  30.189  29.573  1.00  0.00    -0.354 N 
ATOM     65  N   UNL A   1      46.458  27.741  31.165  1.00  0.00    -0.248 NA
ATOM     66  C   UNL A   1      47.506  25.696  31.567  1.00  0.00     0.031 C 
ATOM     67  C   UNL A   1      47.625  30.560  27.935  1.00  0.00     0.029 A 
ATOM     68  C   UNL A   1      47.276  29.658  28.928  1.00  0.00     0.049 A 
ATOM     69  H   UNL A   1      45.696  29.762  30.322  1.00  0.00     0.167 HD
ATOM     70  C   UNL A   1      47.503  27.581  30.262  1.00  0.00     0.074 A 
ATOM     71  C   UNL A   1      48.135  26.318  30.581  1.00  0.00     0.031 C 
ATOM     72  C   UNL A   1      47.904  28.404  29.262  1.00  0.00     0.037 A 
BRANCH  59  73
ATOM     73  C   UNL A   1      44.455  33.499  28.672  1.00  0.00     0.064 A 
ATOM     74  C   UNL A   1      43.886  33.505  27.388  1.00  0.00     0.173 A 
ATOM     75  C   UNL A   1      44.752  34.737  29.262  1.00  0.00     0.173 A 
ATOM     76  F   UNL A   1      43.597  32.350  26.772  1.00  0.00    -0.203 F 
ATOM     77  C   UNL A   1      43.653  34.701  26.713  1.00  0.00     0.198 A 
ATOM     78  C   UNL A   1      44.486  35.932  28.598  1.00  0.00     0.198 A 
ATOM     79  F   UNL A   1      45.295  34.789  30.488  1.00  0.00    -0.203 F 
ATOM     80  F   UNL A   1      43.160  34.680  25.467  1.00  0.00    -0.200 F 
ATOM     81  C   UNL A   1      43.945  35.913  27.322  1.00  0.00     0.200 A 
ATOM     82  F   UNL A   1      44.755  37.101  29.194  1.00  0.00    -0.200 F 
ATOM     83  F   UNL A   1      43.713  37.063  26.674  1.00  0.00    -0.200 F 
ENDBRANCH  59  73
BRANCH  60  84
ATOM     84  C   UNL A   1      45.762  25.043  33.830  1.00  0.00     0.064 A 
ATOM     85  C   UNL A   1      44.997  23.912  33.513  1.00  0.00     0.173 A 
ATOM     86  C   UNL A   1      46.684  24.930  34.882  1.00  0.00     0.173 A 
ATOM     87  F   UNL A   1      44.082  23.975  32.535  1.00  0.00    -0.203 F 
ATOM     88  C   UNL A   1      45.129  22.727  34.235  1.00  0.00     0.198 A 
ATOM     89  C   UNL A   1      46.840  23.735  35.581  1.00  0.00     0.198 A 
ATOM     90  F   UNL A   1      47.439  25.982  35.229  1.00  0.00    -0.203 F 
ATOM     91  F   UNL A   1      44.343  21.680  33.949  1.00  0.00    -0.200 F 
ATOM     92  C   UNL A   1      46.055  22.637  35.263  1.00  0.00     0.200 A 
ATOM     93  F   UNL A   1      47.745  23.649  36.564  1.00  0.00    -0.200 F 
ATOM     94  F   UNL A   1      46.183  21.496  35.956  1.00  0.00    -0.200 F 
ENDBRANCH  60  84
BRANCH  72  95
ATOM     95  C   UNL A   1      49.111  27.994  28.465  1.00  0.00     0.064 A 
ATOM     96  C   UNL A   1      49.017  27.132  27.362  1.00  0.00     0.173 A 
ATOM     97  C   UNL A   1      50.378  28.511  28.784  1.00  0.00     0.173 A 
ATOM     98  F   UNL A   1      47.834  26.601  27.020  1.00  0.00    -0.203 F 
ATOM     99  C   UNL A   1      50.148  26.779  26.629  1.00  0.00     0.198 A 
ATOM    100  C   UNL A   1      51.500  28.185  28.027  1.00  0.00     0.198 A 
ATOM    101  F   UNL A   1      50.525  29.347  29.822  1.00  0.00    -0.203 F 
ATOM    102  F   UNL A   1      50.042  25.911  25.614  1.00  0.00    -0.200 F 
ATOM    103  C   UNL A   1      51.386  27.312  26.957  1.00  0.00     0.200 A 
ATOM    104  F   UNL A   1      52.692  28.717  28.334  1.00  0.00    -0.200 F 
ATOM    105  F   UNL A   1      52.471  26.979  26.244  1.00  0.00    -0.200 F 
ENDBRANCH  72  95
ENDBRANCH  46  47
ENDBRANCH  39  41
ENDBRANCH  38  39
ENDBRANCH  37  38
ENDBRANCH  36  37
ENDBRANCH  35  36
ENDBRANCH  34  35
ENDBRANCH  33  34
ENDBRANCH  32  33
ENDBRANCH  31  32
ENDBRANCH   1  31
TORSDOF 25
ENDMDL
