MODEL 1
REMARK VINA RESULT:     -10.8      0.000      0.000
REMARK SMILES Cc1ccc(Nc2c(F)cccc2Cl)c(CC(=O)OCCOCCOCCOCCOC(=O)c2ccc(-c3c4nc(c(-c5c(F)c(F)c(F)c(F)c5F)c5ccc([nH]5)c(-c5c(F)c(F)c(F)c(F)c5F)c5nc(c(-c6c(F)c(F)c(F)c(F)c6F)c6ccc3[nH]6)C=C5)C=C4)cc2)c1
REMARK SMILES IDX 24 1 23 2 22 3 21 4 20 5 19 6 17 7 18 8 16 9 15 10 1 11 2 12
REMARK SMILES IDX 3 13 97 14 4 15 5 16 6 17 7 19 8 20 13 21 9 22 10 23 12 24
REMARK SMILES IDX 14 25 11 26 25 27 26 28 27 29 28 30 29 31 30 32 31 33 32 34
REMARK SMILES IDX 33 35 34 36 35 37 96 38 36 39 95 40 37 41 38 42 39 43 89 44
REMARK SMILES IDX 40 45 94 46 88 47 90 48 41 49 93 50 87 51 86 52 42 54 74 55
REMARK SMILES IDX 54 56 73 57 55 58 58 59 72 60 91 61 56 62 57 63 71 65 92 66
REMARK SMILES IDX 59 67 43 68 44 69 52 70 45 71 46 72 50 73 53 74 47 75 48 76
REMARK SMILES IDX 51 77 49 78 75 79 76 80 84 81 77 82 78 83 82 84 85 85 79 86
REMARK SMILES IDX 80 87 83 88 81 89 60 90 61 91 69 92 62 93 63 94 67 95 70 96
REMARK SMILES IDX 64 97 65 98 68 99 66 100
REMARK H PARENT 6 18 90 53 58 64
REMARK Flexibility Score: inf
ROOT
ATOM      1  C   UNL A   1      31.725  29.619  25.376  1.00  0.00     0.188 C 
ENDROOT
BRANCH   1   2
ATOM      2  C   UNL A   1      32.984  29.162  24.694  1.00  0.00     0.188 C 
BRANCH   2   3
ATOM      3  O   UNL A   1      33.004  29.056  23.286  1.00  0.00    -0.376 OA
BRANCH   3   4
ATOM      4  C   UNL A   1      32.546  27.799  22.850  1.00  0.00     0.202 C 
BRANCH   4   5
ATOM      5  C   UNL A   1      33.609  26.808  22.391  1.00  0.00     0.261 C 
BRANCH   5   6
ATOM      6  O   UNL A   1      33.167  25.446  22.482  1.00  0.00    -0.463 OA
BRANCH   6   7
ATOM      7  C   UNL A   1      34.024  24.619  23.125  1.00  0.00     0.310 C 
ATOM      8  O   UNL A   1      34.506  23.605  22.626  1.00  0.00    -0.252 OA
BRANCH   7   9
ATOM      9  C   UNL A   1      34.302  24.998  24.556  1.00  0.00     0.160 C 
BRANCH   9  10
ATOM     10  C   UNL A   1      33.834  24.115  25.706  1.00  0.00    -0.013 A 
ATOM     11  C   UNL A   1      30.311  23.059  26.874  1.00  0.00     0.044 C 
ATOM     12  C   UNL A   1      31.800  23.203  26.785  1.00  0.00    -0.051 A 
ATOM     13  C   UNL A   1      32.610  22.423  27.591  1.00  0.00     0.005 A 
ATOM     14  C   UNL A   1      32.416  24.064  25.875  1.00  0.00     0.009 A 
ATOM     15  C   UNL A   1      34.002  22.513  27.491  1.00  0.00     0.026 A 
ATOM     16  C   UNL A   1      34.672  23.319  26.547  1.00  0.00     0.042 A 
BRANCH  16  17
ATOM     17  N   UNL A   1      36.112  23.351  26.501  1.00  0.00    -0.352 N 
ATOM     18  H   UNL A   1      36.530  24.080  27.015  1.00  0.00     0.167 HD
BRANCH  17  19
ATOM     19  C   UNL A   1      37.039  22.474  25.817  1.00  0.00     0.094 A 
ATOM     20  C   UNL A   1      36.631  21.346  25.094  1.00  0.00     0.148 A 
ATOM     21  C   UNL A   1      38.434  22.552  26.053  1.00  0.00     0.067 A 
ATOM     22  F   UNL A   1      35.400  21.293  24.564  1.00  0.00    -0.205 F 
ATOM     23  C   UNL A   1      37.461  20.237  24.894  1.00  0.00     0.041 A 
ATOM     24  C   UNL A   1      39.267  21.422  25.915  1.00  0.00     0.023 A 
ATOM     25  Cl  UNL A   1      39.173  24.021  26.610  1.00  0.00    -0.082 Cl
ATOM     26  C   UNL A   1      38.763  20.243  25.376  1.00  0.00     0.005 A 
ENDBRANCH  17  19
ENDBRANCH  16  17
ENDBRANCH   9  10
ENDBRANCH   7   9
ENDBRANCH   6   7
ENDBRANCH   5   6
ENDBRANCH   4   5
ENDBRANCH   3   4
ENDBRANCH   2   3
ENDBRANCH   1   2
BRANCH   1  27
ATOM     27  O   UNL A   1      31.890  30.328  26.592  1.00  0.00    -0.377 OA
BRANCH  27  28
ATOM     28  C   UNL A   1      33.260  30.684  26.799  1.00  0.00     0.188 C 
BRANCH  28  29
ATOM     29  C   UNL A   1      33.602  31.592  27.990  1.00  0.00     0.188 C 
BRANCH  29  30
ATOM     30  O   UNL A   1      33.699  32.941  27.554  1.00  0.00    -0.376 OA
BRANCH  30  31
ATOM     31  C   UNL A   1      32.532  33.756  27.628  1.00  0.00     0.202 C 
BRANCH  31  32
ATOM     32  C   UNL A   1      32.763  34.792  28.724  1.00  0.00     0.261 C 
BRANCH  32  33
ATOM     33  O   UNL A   1      34.187  34.878  28.965  1.00  0.00    -0.460 OA
BRANCH  33  34
ATOM     34  C   UNL A   1      34.552  34.555  30.243  1.00  0.00     0.338 C 
ATOM     35  O   UNL A   1      34.386  35.263  31.215  1.00  0.00    -0.246 OA
BRANCH  34  36
ATOM     36  C   UNL A   1      35.392  33.310  30.251  1.00  0.00     0.060 A 
ATOM     37  C   UNL A   1      35.146  32.324  31.222  1.00  0.00     0.016 A 
ATOM     38  C   UNL A   1      36.552  33.227  29.486  1.00  0.00     0.016 A 
ATOM     39  C   UNL A   1      36.112  31.342  31.514  1.00  0.00     0.010 A 
ATOM     40  C   UNL A   1      37.518  32.274  29.805  1.00  0.00     0.010 A 
ATOM     41  C   UNL A   1      37.343  31.355  30.859  1.00  0.00    -0.014 A 
BRANCH  41  42
ATOM     42  C   UNL A   1      38.559  30.623  31.302  1.00  0.00     0.031 A 
ATOM     43  C   UNL A   1      38.948  29.325  30.655  1.00  0.00     0.074 A 
ATOM     44  C   UNL A   1      39.511  31.304  31.997  1.00  0.00     0.049 A 
ATOM     45  N   UNL A   1      40.081  28.722  30.833  1.00  0.00    -0.248 NA
ATOM     46  C   UNL A   1      38.087  28.584  29.731  1.00  0.00     0.031 C 
ATOM     47  C   UNL A   1      40.966  31.165  31.865  1.00  0.00     0.029 A 
ATOM     48  N   UNL A   1      39.410  32.347  32.900  1.00  0.00    -0.354 N 
ATOM     49  C   UNL A   1      40.249  27.800  29.821  1.00  0.00     0.074 A 
ATOM     50  C   UNL A   1      38.929  27.651  29.259  1.00  0.00     0.031 C 
ATOM     51  C   UNL A   1      41.606  32.057  32.633  1.00  0.00     0.029 A 
ATOM     52  C   UNL A   1      40.630  32.535  33.572  1.00  0.00     0.049 A 
ATOM     53  H   UNL A   1      38.597  32.883  33.051  1.00  0.00     0.167 HD
ATOM     54  C   UNL A   1      41.518  27.412  29.470  1.00  0.00     0.037 A 
ATOM     55  C   UNL A   1      40.707  32.240  34.910  1.00  0.00     0.037 A 
ATOM     56  C   UNL A   1      42.546  27.829  30.453  1.00  0.00     0.049 A 
ATOM     57  C   UNL A   1      41.432  30.917  35.198  1.00  0.00     0.074 A 
ATOM     58  C   UNL A   1      43.843  28.323  30.418  1.00  0.00     0.029 A 
ATOM     59  N   UNL A   1      42.209  27.830  31.801  1.00  0.00    -0.354 N 
ATOM     60  N   UNL A   1      42.035  30.197  34.283  1.00  0.00    -0.248 NA
ATOM     61  C   UNL A   1      41.515  30.274  36.507  1.00  0.00     0.031 C 
ATOM     62  C   UNL A   1      44.244  28.650  31.754  1.00  0.00     0.029 A 
ATOM     63  C   UNL A   1      43.232  28.262  32.609  1.00  0.00     0.049 A 
ATOM     64  H   UNL A   1      41.329  27.549  32.141  1.00  0.00     0.167 HD
ATOM     65  C   UNL A   1      42.495  29.024  34.803  1.00  0.00     0.074 A 
ATOM     66  C   UNL A   1      42.148  29.122  36.211  1.00  0.00     0.031 C 
ATOM     67  C   UNL A   1      43.090  28.056  34.039  1.00  0.00     0.037 A 
BRANCH  54  68
ATOM     68  C   UNL A   1      41.898  26.764  28.136  1.00  0.00     0.064 A 
ATOM     69  C   UNL A   1      42.204  25.384  28.067  1.00  0.00     0.173 A 
ATOM     70  C   UNL A   1      42.112  27.463  26.927  1.00  0.00     0.173 A 
ATOM     71  F   UNL A   1      42.013  24.580  29.124  1.00  0.00    -0.203 F 
ATOM     72  C   UNL A   1      42.720  24.773  26.915  1.00  0.00     0.198 A 
ATOM     73  C   UNL A   1      42.561  26.835  25.754  1.00  0.00     0.198 A 
ATOM     74  F   UNL A   1      41.948  28.787  26.838  1.00  0.00    -0.203 F 
ATOM     75  F   UNL A   1      43.059  23.476  26.942  1.00  0.00    -0.200 F 
ATOM     76  C   UNL A   1      42.888  25.496  25.754  1.00  0.00     0.200 A 
ATOM     77  F   UNL A   1      42.695  27.551  24.626  1.00  0.00    -0.200 F 
ATOM     78  F   UNL A   1      43.366  24.911  24.646  1.00  0.00    -0.200 F 
ENDBRANCH  54  68
BRANCH  55  79
ATOM     79  C   UNL A   1      39.554  32.896  35.612  1.00  0.00     0.064 A 
ATOM     80  C   UNL A   1      38.577  31.977  36.071  1.00  0.00     0.173 A 
ATOM     81  C   UNL A   1      39.778  34.039  36.397  1.00  0.00     0.173 A 
ATOM     82  F   UNL A   1      38.308  30.877  35.348  1.00  0.00    -0.203 F 
ATOM     83  C   UNL A   1      38.096  32.036  37.379  1.00  0.00     0.198 A 
ATOM     84  C   UNL A   1      39.251  34.116  37.692  1.00  0.00     0.198 A 
ATOM     85  F   UNL A   1      40.681  34.952  36.013  1.00  0.00    -0.203 F 
ATOM     86  F   UNL A   1      37.407  31.003  37.884  1.00  0.00    -0.200 F 
ATOM     87  C   UNL A   1      38.475  33.081  38.203  1.00  0.00     0.200 A 
ATOM     88  F   UNL A   1      39.630  35.111  38.507  1.00  0.00    -0.200 F 
ATOM     89  F   UNL A   1      38.177  33.045  39.511  1.00  0.00    -0.200 F 
ENDBRANCH  55  79
BRANCH  67  90
ATOM     90  C   UNL A   1      43.529  26.716  34.565  1.00  0.00     0.064 A 
ATOM     91  C   UNL A   1      42.627  25.696  34.874  1.00  0.00     0.173 A 
ATOM     92  C   UNL A   1      44.893  26.447  34.847  1.00  0.00     0.173 A 
ATOM     93  F   UNL A   1      41.304  25.901  34.782  1.00  0.00    -0.203 F 
ATOM     94  C   UNL A   1      43.067  24.443  35.303  1.00  0.00     0.198 A 
ATOM     95  C   UNL A   1      45.323  25.218  35.331  1.00  0.00     0.198 A 
ATOM     96  F   UNL A   1      45.858  27.353  34.640  1.00  0.00    -0.203 F 
ATOM     97  F   UNL A   1      42.176  23.462  35.496  1.00  0.00    -0.200 F 
ATOM     98  C   UNL A   1      44.413  24.202  35.522  1.00  0.00     0.200 A 
ATOM     99  F   UNL A   1      46.625  25.021  35.586  1.00  0.00    -0.200 F 
ATOM    100  F   UNL A   1      44.831  22.993  35.917  1.00  0.00    -0.200 F 
ENDBRANCH  67  90
ENDBRANCH  41  42
ENDBRANCH  34  36
ENDBRANCH  33  34
ENDBRANCH  32  33
ENDBRANCH  31  32
ENDBRANCH  30  31
ENDBRANCH  29  30
ENDBRANCH  28  29
ENDBRANCH  27  28
ENDBRANCH   1  27
TORSDOF 23
ENDMDL
MODEL 2
REMARK VINA RESULT:     -10.6      1.362      2.443
REMARK SMILES Cc1ccc(Nc2c(F)cccc2Cl)c(CC(=O)OCCOCCOCCOCCOC(=O)c2ccc(-c3c4nc(c(-c5c(F)c(F)c(F)c(F)c5F)c5ccc([nH]5)c(-c5c(F)c(F)c(F)c(F)c5F)c5nc(c(-c6c(F)c(F)c(F)c(F)c6F)c6ccc3[nH]6)C=C5)C=C4)cc2)c1
REMARK SMILES IDX 24 1 23 2 22 3 21 4 20 5 19 6 17 7 18 8 16 9 15 10 1 11 2 12
REMARK SMILES IDX 3 13 97 14 4 15 5 16 6 17 7 19 8 20 13 21 9 22 10 23 12 24
REMARK SMILES IDX 14 25 11 26 25 27 26 28 27 29 28 30 29 31 30 32 31 33 32 34
REMARK SMILES IDX 33 35 34 36 35 37 96 38 36 39 95 40 37 41 38 42 39 43 89 44
REMARK SMILES IDX 40 45 94 46 88 47 90 48 41 49 93 50 87 51 86 52 42 54 74 55
REMARK SMILES IDX 54 56 73 57 55 58 58 59 72 60 91 61 56 62 57 63 71 65 92 66
REMARK SMILES IDX 59 67 43 68 44 69 52 70 45 71 46 72 50 73 53 74 47 75 48 76
REMARK SMILES IDX 51 77 49 78 75 79 76 80 84 81 77 82 78 83 82 84 85 85 79 86
REMARK SMILES IDX 80 87 83 88 81 89 60 90 61 91 69 92 62 93 63 94 67 95 70 96
REMARK SMILES IDX 64 97 65 98 68 99 66 100
REMARK H PARENT 6 18 90 53 58 64
REMARK Flexibility Score: inf
ROOT
ATOM      1  C   UNL A   1      32.954  28.967  23.731  1.00  0.00     0.188 C 
ENDROOT
BRANCH   1   2
ATOM      2  C   UNL A   1      32.876  27.535  23.282  1.00  0.00     0.188 C 
BRANCH   2   3
ATOM      3  O   UNL A   1      31.609  26.933  23.124  1.00  0.00    -0.376 OA
BRANCH   3   4
ATOM      4  C   UNL A   1      31.699  25.684  22.480  1.00  0.00     0.202 C 
BRANCH   4   5
ATOM      5  C   UNL A   1      33.103  25.154  22.214  1.00  0.00     0.261 C 
BRANCH   5   6
ATOM      6  O   UNL A   1      33.238  23.764  22.545  1.00  0.00    -0.463 OA
BRANCH   6   7
ATOM      7  C   UNL A   1      34.389  23.448  23.183  1.00  0.00     0.310 C 
ATOM      8  O   UNL A   1      35.509  23.706  22.749  1.00  0.00    -0.252 OA
BRANCH   7   9
ATOM      9  C   UNL A   1      34.202  22.676  24.463  1.00  0.00     0.160 C 
BRANCH   9  10
ATOM     10  C   UNL A   1      34.700  21.243  24.595  1.00  0.00    -0.013 A 
ATOM     11  C   UNL A   1      32.841  17.862  24.623  1.00  0.00     0.044 C 
ATOM     12  C   UNL A   1      33.931  18.890  24.663  1.00  0.00    -0.051 A 
ATOM     13  C   UNL A   1      35.253  18.485  24.633  1.00  0.00     0.005 A 
ATOM     14  C   UNL A   1      33.666  20.261  24.677  1.00  0.00     0.009 A 
ATOM     15  C   UNL A   1      36.282  19.432  24.625  1.00  0.00     0.026 A 
ATOM     16  C   UNL A   1      36.067  20.825  24.575  1.00  0.00     0.042 A 
BRANCH  16  17
ATOM     17  N   UNL A   1      37.183  21.738  24.562  1.00  0.00    -0.352 N 
ATOM     18  H   UNL A   1      37.506  21.989  23.667  1.00  0.00     0.167 HD
BRANCH  17  19
ATOM     19  C   UNL A   1      37.900  22.343  25.664  1.00  0.00     0.094 A 
ATOM     20  C   UNL A   1      37.591  23.610  26.173  1.00  0.00     0.148 A 
ATOM     21  C   UNL A   1      39.126  21.803  26.127  1.00  0.00     0.067 A 
ATOM     22  F   UNL A   1      36.350  24.104  26.046  1.00  0.00    -0.205 F 
ATOM     23  C   UNL A   1      38.535  24.415  26.822  1.00  0.00     0.041 A 
ATOM     24  C   UNL A   1      40.110  22.620  26.724  1.00  0.00     0.023 A 
ATOM     25  Cl  UNL A   1      39.515  20.127  25.901  1.00  0.00    -0.082 Cl
ATOM     26  C   UNL A   1      39.826  23.947  27.029  1.00  0.00     0.005 A 
ENDBRANCH  17  19
ENDBRANCH  16  17
ENDBRANCH   9  10
ENDBRANCH   7   9
ENDBRANCH   6   7
ENDBRANCH   5   6
ENDBRANCH   4   5
ENDBRANCH   3   4
ENDBRANCH   2   3
ENDBRANCH   1   2
BRANCH   1  27
ATOM     27  O   UNL A   1      31.958  29.397  24.644  1.00  0.00    -0.377 OA
BRANCH  27  28
ATOM     28  C   UNL A   1      32.169  28.826  25.939  1.00  0.00     0.188 C 
BRANCH  28  29
ATOM     29  C   UNL A   1      31.873  29.697  27.171  1.00  0.00     0.188 C 
BRANCH  29  30
ATOM     30  O   UNL A   1      32.155  31.058  26.876  1.00  0.00    -0.376 OA
BRANCH  30  31
ATOM     31  C   UNL A   1      33.333  31.636  27.430  1.00  0.00     0.202 C 
BRANCH  31  32
ATOM     32  C   UNL A   1      33.061  33.122  27.644  1.00  0.00     0.261 C 
BRANCH  32  33
ATOM     33  O   UNL A   1      33.451  33.457  28.996  1.00  0.00    -0.460 OA
BRANCH  33  34
ATOM     34  C   UNL A   1      34.758  33.842  29.114  1.00  0.00     0.338 C 
ATOM     35  O   UNL A   1      35.179  34.958  28.889  1.00  0.00    -0.246 OA
BRANCH  34  36
ATOM     36  C   UNL A   1      35.641  32.648  29.335  1.00  0.00     0.060 A 
ATOM     37  C   UNL A   1      35.402  31.814  30.442  1.00  0.00     0.016 A 
ATOM     38  C   UNL A   1      36.824  32.492  28.618  1.00  0.00     0.016 A 
ATOM     39  C   UNL A   1      36.394  30.927  30.903  1.00  0.00     0.010 A 
ATOM     40  C   UNL A   1      37.814  31.638  29.103  1.00  0.00     0.010 A 
ATOM     41  C   UNL A   1      37.642  30.887  30.282  1.00  0.00    -0.014 A 
BRANCH  41  42
ATOM     42  C   UNL A   1      38.870  30.280  30.861  1.00  0.00     0.031 A 
ATOM     43  C   UNL A   1      39.373  28.954  30.366  1.00  0.00     0.074 A 
ATOM     44  C   UNL A   1      39.736  31.083  31.537  1.00  0.00     0.049 A 
ATOM     45  N   UNL A   1      40.526  28.446  30.664  1.00  0.00    -0.248 NA
ATOM     46  C   UNL A   1      38.615  28.076  29.474  1.00  0.00     0.031 C 
ATOM     47  C   UNL A   1      41.202  31.027  31.498  1.00  0.00     0.029 A 
ATOM     48  N   UNL A   1      39.519  32.199  32.326  1.00  0.00    -0.354 N 
ATOM     49  C   UNL A   1      40.810  27.445  29.757  1.00  0.00     0.074 A 
ATOM     50  C   UNL A   1      39.537  27.159  29.142  1.00  0.00     0.031 C 
ATOM     51  C   UNL A   1      41.741  32.027  32.209  1.00  0.00     0.029 A 
ATOM     52  C   UNL A   1      40.683  32.528  33.042  1.00  0.00     0.049 A 
ATOM     53  H   UNL A   1      38.668  32.692  32.380  1.00  0.00     0.167 HD
ATOM     54  C   UNL A   1      42.118  27.108  29.516  1.00  0.00     0.037 A 
ATOM     55  C   UNL A   1      40.696  32.365  34.404  1.00  0.00     0.037 A 
ATOM     56  C   UNL A   1      43.058  27.682  30.508  1.00  0.00     0.049 A 
ATOM     57  C   UNL A   1      41.479  31.125  34.860  1.00  0.00     0.074 A 
ATOM     58  C   UNL A   1      44.324  28.253  30.496  1.00  0.00     0.029 A 
ATOM     59  N   UNL A   1      42.641  27.788  31.829  1.00  0.00    -0.354 N 
ATOM     60  N   UNL A   1      42.177  30.363  34.054  1.00  0.00    -0.248 NA
ATOM     61  C   UNL A   1      41.520  30.616  36.228  1.00  0.00     0.031 C 
ATOM     62  C   UNL A   1      44.623  28.730  31.813  1.00  0.00     0.029 A 
ATOM     63  C   UNL A   1      43.585  28.360  32.645  1.00  0.00     0.049 A 
ATOM     64  H   UNL A   1      41.760  27.484  32.146  1.00  0.00     0.167 HD
ATOM     65  C   UNL A   1      42.674  29.276  34.711  1.00  0.00     0.074 A 
ATOM     66  C   UNL A   1      42.237  29.483  36.081  1.00  0.00     0.031 C 
ATOM     67  C   UNL A   1      43.370  28.280  34.079  1.00  0.00     0.037 A 
BRANCH  54  68
ATOM     68  C   UNL A   1      42.616  26.363  28.275  1.00  0.00     0.064 A 
ATOM     69  C   UNL A   1      42.561  26.973  26.999  1.00  0.00     0.173 A 
ATOM     70  C   UNL A   1      43.026  25.011  28.250  1.00  0.00     0.173 A 
ATOM     71  F   UNL A   1      42.229  28.265  26.864  1.00  0.00    -0.203 F 
ATOM     72  C   UNL A   1      42.842  26.283  25.811  1.00  0.00     0.198 A 
ATOM     73  C   UNL A   1      43.375  24.342  27.066  1.00  0.00     0.198 A 
ATOM     74  F   UNL A   1      43.058  24.263  29.358  1.00  0.00    -0.203 F 
ATOM     75  F   UNL A   1      42.697  26.901  24.629  1.00  0.00    -0.200 F 
ATOM     76  C   UNL A   1      43.260  24.970  25.845  1.00  0.00     0.200 A 
ATOM     77  F   UNL A   1      43.805  23.072  27.122  1.00  0.00    -0.200 F 
ATOM     78  F   UNL A   1      43.545  24.312  24.711  1.00  0.00    -0.200 F 
ENDBRANCH  54  68
BRANCH  55  79
ATOM     79  C   UNL A   1      39.466  33.009  34.975  1.00  0.00     0.064 A 
ATOM     80  C   UNL A   1      38.560  32.083  35.550  1.00  0.00     0.173 A 
ATOM     81  C   UNL A   1      39.560  34.273  35.580  1.00  0.00     0.173 A 
ATOM     82  F   UNL A   1      38.414  30.866  34.998  1.00  0.00    -0.203 F 
ATOM     83  C   UNL A   1      38.031  32.292  36.823  1.00  0.00     0.198 A 
ATOM     84  C   UNL A   1      38.985  34.494  36.838  1.00  0.00     0.198 A 
ATOM     85  F   UNL A   1      40.391  35.198  35.080  1.00  0.00    -0.203 F 
ATOM     86  F   UNL A   1      37.420  31.287  37.466  1.00  0.00    -0.200 F 
ATOM     87  C   UNL A   1      38.288  33.480  37.485  1.00  0.00     0.200 A 
ATOM     88  F   UNL A   1      39.246  35.631  37.499  1.00  0.00    -0.200 F 
ATOM     89  F   UNL A   1      37.949  33.612  38.777  1.00  0.00    -0.200 F 
ENDBRANCH  55  79
BRANCH  67  90
ATOM     90  C   UNL A   1      43.855  27.028  34.757  1.00  0.00     0.064 A 
ATOM     91  C   UNL A   1      45.188  26.840  35.126  1.00  0.00     0.173 A 
ATOM     92  C   UNL A   1      42.984  25.934  34.992  1.00  0.00     0.173 A 
ATOM     93  F   UNL A   1      46.120  27.753  34.817  1.00  0.00    -0.203 F 
ATOM     94  C   UNL A   1      45.598  25.693  35.807  1.00  0.00     0.198 A 
ATOM     95  C   UNL A   1      43.407  24.768  35.618  1.00  0.00     0.198 A 
ATOM     96  F   UNL A   1      41.690  25.963  34.647  1.00  0.00    -0.203 F 
ATOM     97  F   UNL A   1      46.866  25.593  36.228  1.00  0.00    -0.200 F 
ATOM     98  C   UNL A   1      44.707  24.663  36.061  1.00  0.00     0.200 A 
ATOM     99  F   UNL A   1      42.541  23.761  35.807  1.00  0.00    -0.200 F 
ATOM    100  F   UNL A   1      45.100  23.573  36.731  1.00  0.00    -0.200 F 
ENDBRANCH  67  90
ENDBRANCH  41  42
ENDBRANCH  34  36
ENDBRANCH  33  34
ENDBRANCH  32  33
ENDBRANCH  31  32
ENDBRANCH  30  31
ENDBRANCH  29  30
ENDBRANCH  28  29
ENDBRANCH  27  28
ENDBRANCH   1  27
TORSDOF 23
ENDMDL
MODEL 3
REMARK VINA RESULT:     -10.0      1.246      2.278
REMARK SMILES Cc1ccc(Nc2c(F)cccc2Cl)c(CC(=O)OCCOCCOCCOCCOC(=O)c2ccc(-c3c4nc(c(-c5c(F)c(F)c(F)c(F)c5F)c5ccc([nH]5)c(-c5c(F)c(F)c(F)c(F)c5F)c5nc(c(-c6c(F)c(F)c(F)c(F)c6F)c6ccc3[nH]6)C=C5)C=C4)cc2)c1
REMARK SMILES IDX 24 1 23 2 22 3 21 4 20 5 19 6 17 7 18 8 16 9 15 10 1 11 2 12
REMARK SMILES IDX 3 13 97 14 4 15 5 16 6 17 7 19 8 20 13 21 9 22 10 23 12 24
REMARK SMILES IDX 14 25 11 26 25 27 26 28 27 29 28 30 29 31 30 32 31 33 32 34
REMARK SMILES IDX 33 35 34 36 35 37 96 38 36 39 95 40 37 41 38 42 39 43 89 44
REMARK SMILES IDX 40 45 94 46 88 47 90 48 41 49 93 50 87 51 86 52 42 54 74 55
REMARK SMILES IDX 54 56 73 57 55 58 58 59 72 60 91 61 56 62 57 63 71 65 92 66
REMARK SMILES IDX 59 67 43 68 44 69 52 70 45 71 46 72 50 73 53 74 47 75 48 76
REMARK SMILES IDX 51 77 49 78 75 79 76 80 84 81 77 82 78 83 82 84 85 85 79 86
REMARK SMILES IDX 80 87 83 88 81 89 60 90 61 91 69 92 62 93 63 94 67 95 70 96
REMARK SMILES IDX 64 97 65 98 68 99 66 100
REMARK H PARENT 6 18 90 53 58 64
REMARK Flexibility Score: inf
ROOT
ATOM      1  C   UNL A   1      31.110  30.210  25.886  1.00  0.00     0.188 C 
ENDROOT
BRANCH   1   2
ATOM      2  C   UNL A   1      31.935  29.199  25.139  1.00  0.00     0.188 C 
BRANCH   2   3
ATOM      3  O   UNL A   1      31.842  29.141  23.731  1.00  0.00    -0.376 OA
BRANCH   3   4
ATOM      4  C   UNL A   1      31.576  27.835  23.279  1.00  0.00     0.202 C 
BRANCH   4   5
ATOM      5  C   UNL A   1      32.700  27.131  22.528  1.00  0.00     0.261 C 
BRANCH   5   6
ATOM      6  O   UNL A   1      32.407  25.751  22.267  1.00  0.00    -0.463 OA
BRANCH   6   7
ATOM      7  C   UNL A   1      33.391  24.891  22.618  1.00  0.00     0.310 C 
ATOM      8  O   UNL A   1      33.674  23.875  21.988  1.00  0.00    -0.252 OA
BRANCH   7   9
ATOM      9  C   UNL A   1      34.093  25.237  23.906  1.00  0.00     0.160 C 
BRANCH   9  10
ATOM     10  C   UNL A   1      33.897  24.391  25.157  1.00  0.00    -0.013 A 
ATOM     11  C   UNL A   1      30.736  22.877  26.773  1.00  0.00     0.044 C 
ATOM     12  C   UNL A   1      32.163  23.255  26.512  1.00  0.00    -0.051 A 
ATOM     13  C   UNL A   1      33.169  22.690  27.276  1.00  0.00     0.005 A 
ATOM     14  C   UNL A   1      32.532  24.123  25.484  1.00  0.00     0.009 A 
ATOM     15  C   UNL A   1      34.509  22.997  27.018  1.00  0.00     0.026 A 
ATOM     16  C   UNL A   1      34.936  23.818  25.953  1.00  0.00     0.042 A 
BRANCH  16  17
ATOM     17  N   UNL A   1      36.338  24.081  25.749  1.00  0.00    -0.352 N 
ATOM     18  H   UNL A   1      36.592  25.031  25.773  1.00  0.00     0.167 HD
BRANCH  17  19
ATOM     19  C   UNL A   1      37.430  23.161  25.514  1.00  0.00     0.094 A 
ATOM     20  C   UNL A   1      37.285  21.973  24.785  1.00  0.00     0.148 A 
ATOM     21  C   UNL A   1      38.650  23.271  26.226  1.00  0.00     0.067 A 
ATOM     22  F   UNL A   1      36.324  21.866  23.856  1.00  0.00    -0.205 F 
ATOM     23  C   UNL A   1      38.110  20.859  24.984  1.00  0.00     0.041 A 
ATOM     24  C   UNL A   1      39.455  22.141  26.486  1.00  0.00     0.023 A 
ATOM     25  Cl  UNL A   1      39.171  24.787  26.892  1.00  0.00    -0.082 Cl
ATOM     26  C   UNL A   1      39.153  20.917  25.898  1.00  0.00     0.005 A 
ENDBRANCH  17  19
ENDBRANCH  16  17
ENDBRANCH   9  10
ENDBRANCH   7   9
ENDBRANCH   6   7
ENDBRANCH   5   6
ENDBRANCH   4   5
ENDBRANCH   3   4
ENDBRANCH   2   3
ENDBRANCH   1   2
BRANCH   1  27
ATOM     27  O   UNL A   1      31.776  30.942  26.900  1.00  0.00    -0.377 OA
BRANCH  27  28
ATOM     28  C   UNL A   1      33.196  30.829  26.766  1.00  0.00     0.188 C 
BRANCH  28  29
ATOM     29  C   UNL A   1      34.078  31.425  27.874  1.00  0.00     0.188 C 
BRANCH  29  30
ATOM     30  O   UNL A   1      34.276  32.812  27.638  1.00  0.00    -0.376 OA
BRANCH  30  31
ATOM     31  C   UNL A   1      33.214  33.706  27.959  1.00  0.00     0.202 C 
BRANCH  31  32
ATOM     32  C   UNL A   1      33.634  34.494  29.196  1.00  0.00     0.261 C 
BRANCH  32  33
ATOM     33  O   UNL A   1      35.062  34.334  29.364  1.00  0.00    -0.460 OA
BRANCH  33  34
ATOM     34  C   UNL A   1      35.427  33.901  30.608  1.00  0.00     0.338 C 
ATOM     35  O   UNL A   1      35.191  34.484  31.647  1.00  0.00    -0.246 OA
BRANCH  34  36
ATOM     36  C   UNL A   1      36.357  32.726  30.505  1.00  0.00     0.060 A 
ATOM     37  C   UNL A   1      36.101  31.580  31.276  1.00  0.00     0.016 A 
ATOM     38  C   UNL A   1      37.584  32.843  29.858  1.00  0.00     0.016 A 
ATOM     39  C   UNL A   1      37.110  30.624  31.504  1.00  0.00     0.010 A 
ATOM     40  C   UNL A   1      38.589  31.912  30.118  1.00  0.00     0.010 A 
ATOM     41  C   UNL A   1      38.391  30.822  30.989  1.00  0.00    -0.014 A 
BRANCH  41  42
ATOM     42  C   UNL A   1      39.616  30.104  31.432  1.00  0.00     0.031 A 
ATOM     43  C   UNL A   1      40.005  28.797  30.801  1.00  0.00     0.074 A 
ATOM     44  C   UNL A   1      40.570  30.800  32.106  1.00  0.00     0.049 A 
ATOM     45  N   UNL A   1      41.143  28.204  30.977  1.00  0.00    -0.248 NA
ATOM     46  C   UNL A   1      39.139  28.037  29.898  1.00  0.00     0.031 C 
ATOM     47  C   UNL A   1      42.025  30.667  31.962  1.00  0.00     0.029 A 
ATOM     48  N   UNL A   1      40.473  31.857  32.994  1.00  0.00    -0.354 N 
ATOM     49  C   UNL A   1      41.306  27.266  29.978  1.00  0.00     0.074 A 
ATOM     50  C   UNL A   1      39.981  27.101  29.432  1.00  0.00     0.031 C 
ATOM     51  C   UNL A   1      42.668  31.574  32.709  1.00  0.00     0.029 A 
ATOM     52  C   UNL A   1      41.698  32.062  33.650  1.00  0.00     0.049 A 
ATOM     53  H   UNL A   1      39.658  32.391  33.144  1.00  0.00     0.167 HD
ATOM     54  C   UNL A   1      42.573  26.879  29.622  1.00  0.00     0.037 A 
ATOM     55  C   UNL A   1      41.790  31.788  34.992  1.00  0.00     0.037 A 
ATOM     56  C   UNL A   1      43.609  27.317  30.588  1.00  0.00     0.049 A 
ATOM     57  C   UNL A   1      42.524  30.474  35.294  1.00  0.00     0.074 A 
ATOM     58  C   UNL A   1      44.903  27.817  30.532  1.00  0.00     0.029 A 
ATOM     59  N   UNL A   1      43.285  27.337  31.939  1.00  0.00    -0.354 N 
ATOM     60  N   UNL A   1      43.122  29.743  34.384  1.00  0.00    -0.248 NA
ATOM     61  C   UNL A   1      42.624  29.853  36.612  1.00  0.00     0.031 C 
ATOM     62  C   UNL A   1      45.315  28.168  31.858  1.00  0.00     0.029 A 
ATOM     63  C   UNL A   1      44.313  27.788  32.729  1.00  0.00     0.049 A 
ATOM     64  H   UNL A   1      42.410  27.057  32.291  1.00  0.00     0.167 HD
ATOM     65  C   UNL A   1      43.594  28.580  34.918  1.00  0.00     0.074 A 
ATOM     66  C   UNL A   1      43.260  28.699  36.327  1.00  0.00     0.031 C 
ATOM     67  C   UNL A   1      44.187  27.603  34.164  1.00  0.00     0.037 A 
BRANCH  54  68
ATOM     68  C   UNL A   1      42.944  26.212  28.294  1.00  0.00     0.064 A 
ATOM     69  C   UNL A   1      43.469  26.977  27.226  1.00  0.00     0.173 A 
ATOM     70  C   UNL A   1      42.681  24.863  27.963  1.00  0.00     0.173 A 
ATOM     71  F   UNL A   1      43.808  28.263  27.398  1.00  0.00    -0.203 F 
ATOM     72  C   UNL A   1      43.667  26.456  25.939  1.00  0.00     0.198 A 
ATOM     73  C   UNL A   1      42.946  24.325  26.693  1.00  0.00     0.198 A 
ATOM     74  F   UNL A   1      42.110  24.022  28.831  1.00  0.00    -0.203 F 
ATOM     75  F   UNL A   1      44.097  27.257  24.953  1.00  0.00    -0.200 F 
ATOM     76  C   UNL A   1      43.416  25.127  25.675  1.00  0.00     0.200 A 
ATOM     77  F   UNL A   1      42.719  23.023  26.462  1.00  0.00    -0.200 F 
ATOM     78  F   UNL A   1      43.618  24.622  24.449  1.00  0.00    -0.200 F 
ENDBRANCH  54  68
BRANCH  55  79
ATOM     79  C   UNL A   1      40.640  32.450  35.695  1.00  0.00     0.064 A 
ATOM     80  C   UNL A   1      40.693  33.866  35.652  1.00  0.00     0.173 A 
ATOM     81  C   UNL A   1      39.369  31.855  35.660  1.00  0.00     0.173 A 
ATOM     82  F   UNL A   1      41.883  34.489  35.704  1.00  0.00    -0.203 F 
ATOM     83  C   UNL A   1      39.578  34.614  35.275  1.00  0.00     0.198 A 
ATOM     84  C   UNL A   1      38.244  32.620  35.330  1.00  0.00     0.198 A 
ATOM     85  F   UNL A   1      39.250  30.521  35.708  1.00  0.00    -0.203 F 
ATOM     86  F   UNL A   1      39.719  35.909  34.958  1.00  0.00    -0.200 F 
ATOM     87  C   UNL A   1      38.366  33.980  35.066  1.00  0.00     0.200 A 
ATOM     88  F   UNL A   1      37.070  32.014  35.102  1.00  0.00    -0.200 F 
ATOM     89  F   UNL A   1      37.343  34.655  34.520  1.00  0.00    -0.200 F 
ENDBRANCH  55  79
BRANCH  67  90
ATOM     90  C   UNL A   1      44.638  26.275  34.707  1.00  0.00     0.064 A 
ATOM     91  C   UNL A   1      45.977  25.990  34.983  1.00  0.00     0.173 A 
ATOM     92  C   UNL A   1      43.722  25.208  34.898  1.00  0.00     0.173 A 
ATOM     93  F   UNL A   1      46.939  26.880  34.699  1.00  0.00    -0.203 F 
ATOM     94  C   UNL A   1      46.359  24.770  35.543  1.00  0.00     0.198 A 
ATOM     95  C   UNL A   1      44.115  23.973  35.400  1.00  0.00     0.198 A 
ATOM     96  F   UNL A   1      42.416  25.331  34.630  1.00  0.00    -0.203 F 
ATOM     97  F   UNL A   1      47.639  24.573  35.882  1.00  0.00    -0.200 F 
ATOM     98  C   UNL A   1      45.428  23.767  35.759  1.00  0.00     0.200 A 
ATOM     99  F   UNL A   1      43.207  22.998  35.553  1.00  0.00    -0.200 F 
ATOM    100  F   UNL A   1      45.797  22.606  36.313  1.00  0.00    -0.200 F 
ENDBRANCH  67  90
ENDBRANCH  41  42
ENDBRANCH  34  36
ENDBRANCH  33  34
ENDBRANCH  32  33
ENDBRANCH  31  32
ENDBRANCH  30  31
ENDBRANCH  29  30
ENDBRANCH  28  29
ENDBRANCH  27  28
ENDBRANCH   1  27
TORSDOF 23
ENDMDL
