MODEL 1
REMARK VINA RESULT:      -9.4      0.000      0.000
REMARK SMILES CC1(C)CC[C@@]2(C(=O)OCCOCCOCCOCCOC(=O)c3ccc(-c4c5nc(c(-c6c(F)c(F)c(F)c(F)c6F)c6ccc([nH]6)c(-c6c(F)c(F)c(F)c(F)c6F)c6nc(c(-c7c(F)c(F)c(F)c(F)c7F)c7ccc4[nH]7)C=C6)C=C5)cc3)CC[C@@]3(C)C(=CC[C@H]4[C@@]5(C)CC[C@H](O)C(C)(C)[C@@H]5CC[C@]43C)[C@@H]2C1
REMARK SMILES IDX 16 1 15 2 14 3 13 4 12 5 11 6 10 7 9 8 7 9 8 10 6 11 1 12
REMARK SMILES IDX 2 13 3 14 4 15 110 16 5 17 109 18 91 19 87 20 89 21 92 22
REMARK SMILES IDX 88 23 90 24 107 25 93 26 94 27 106 28 108 29 95 30 105 31
REMARK SMILES IDX 96 32 97 33 104 34 98 35 101 36 99 37 102 38 103 39 100 40
REMARK SMILES IDX 17 42 18 43 19 44 20 45 21 46 22 47 23 48 24 49 25 50 86 51
REMARK SMILES IDX 26 52 85 53 27 54 28 55 29 56 79 57 30 58 84 59 78 60 80 61
REMARK SMILES IDX 31 62 83 63 77 64 76 65 32 67 64 68 44 69 63 70 45 71 48 72
REMARK SMILES IDX 62 73 81 74 46 75 47 76 61 78 82 79 49 80 33 81 34 82 42 83
REMARK SMILES IDX 35 84 36 85 40 86 43 87 37 88 38 89 41 90 39 91 65 92 66 93
REMARK SMILES IDX 74 94 67 95 68 96 72 97 75 98 69 99 70 100 73 101 71 102
REMARK SMILES IDX 50 103 51 104 59 105 52 106 53 107 57 108 60 109 54 110
REMARK SMILES IDX 55 111 58 112 56 113
REMARK H PARENT 100 41 80 66 48 77
REMARK Flexibility Score: inf
ROOT
ATOM      1  C   UNL A   1      37.061  34.335  35.130  1.00  0.00     0.188 C 
ENDROOT
BRANCH   1   2
ATOM      2  O   UNL A   1      38.243  34.951  34.207  1.00  0.00    -0.377 OA
BRANCH   2   3
ATOM      3  C   UNL A   1      40.102  35.328  34.249  1.00  0.00     0.188 C 
BRANCH   3   4
ATOM      4  C   UNL A   1      41.233  34.814  33.328  1.00  0.00     0.188 C 
BRANCH   4   5
ATOM      5  O   UNL A   1      41.349  34.756  31.921  1.00  0.00    -0.376 OA
BRANCH   5   6
ATOM      6  C   UNL A   1      41.222  33.783  30.904  1.00  0.00     0.202 C 
BRANCH   6   7
ATOM      7  C   UNL A   1      42.080  33.996  29.720  1.00  0.00     0.261 C 
BRANCH   7   8
ATOM      8  O   UNL A   1      41.982  35.299  29.163  1.00  0.00    -0.463 OA
BRANCH   8   9
ATOM      9  C   UNL A   1      43.025  36.120  28.886  1.00  0.00     0.312 C 
ATOM     10  O   UNL A   1      43.839  36.299  29.801  1.00  0.00    -0.252 OA
BRANCH   9  11
ATOM     11  C   UNL A   1      43.360  36.567  27.412  1.00  0.00     0.075 C 
ATOM     12  C   UNL A   1      42.823  40.874  27.611  1.00  0.00     0.011 C 
ATOM     13  C   UNL A   1      43.294  39.543  28.257  1.00  0.00    -0.035 C 
ATOM     14  C   UNL A   1      43.639  40.055  29.709  1.00  0.00     0.011 C 
ATOM     15  C   UNL A   1      42.041  38.637  28.266  1.00  0.00     0.007 C 
ATOM     16  C   UNL A   1      44.571  38.911  27.433  1.00  0.00     0.015 C 
ATOM     17  C   UNL A   1      42.100  37.493  27.235  1.00  0.00     0.020 C 
ATOM     18  C   UNL A   1      44.610  37.367  26.878  1.00  0.00     0.033 C 
ATOM     19  C   UNL A   1      46.035  36.457  26.630  1.00  0.00    -0.063 C 
ATOM     20  C   UNL A   1      43.266  35.327  26.437  1.00  0.00     0.020 C 
ATOM     21  C   UNL A   1      45.992  34.908  26.196  1.00  0.00    -0.006 C 
ATOM     22  C   UNL A   1      47.250  36.858  27.081  1.00  0.00    -0.027 C 
ATOM     23  C   UNL A   1      44.499  34.380  26.149  1.00  0.00     0.013 C 
ATOM     24  C   UNL A   1      46.352  34.955  24.658  1.00  0.00     0.017 C 
ATOM     25  C   UNL A   1      47.287  33.904  27.004  1.00  0.00    -0.020 C 
ATOM     26  C   UNL A   1      48.129  36.052  28.077  1.00  0.00     0.032 C 
ATOM     27  C   UNL A   1      47.691  34.551  28.406  1.00  0.00     0.006 C 
ATOM     28  C   UNL A   1      47.271  32.277  27.171  1.00  0.00     0.008 C 
ATOM     29  C   UNL A   1      48.593  34.070  26.071  1.00  0.00     0.012 C 
ATOM     30  C   UNL A   1      47.134  33.841  30.030  1.00  0.00    -0.025 C 
ATOM     31  C   UNL A   1      47.674  31.527  28.574  1.00  0.00     0.005 C 
ATOM     32  C   UNL A   1      48.620  33.770  30.644  1.00  0.00     0.012 C 
ATOM     33  C   UNL A   1      45.864  34.709  31.350  1.00  0.00     0.010 C 
ATOM     34  C   UNL A   1      46.756  31.973  29.720  1.00  0.00     0.003 C 
ATOM     35  C   UNL A   1      44.589  33.660  32.449  1.00  0.00     0.033 C 
ATOM     36  C   UNL A   1      45.800  30.890  31.006  1.00  0.00    -0.006 C 
ATOM     37  C   UNL A   1      44.490  31.782  32.100  1.00  0.00     0.120 C 
ATOM     38  C   UNL A   1      46.732  30.111  31.955  1.00  0.00     0.014 C 
ATOM     39  C   UNL A   1      45.040  29.745  30.290  1.00  0.00     0.014 C 
BRANCH  37  40
ATOM     40  O   UNL A   1      44.114  31.070  33.269  1.00  0.00    -0.393 OA
ATOM     41  H   UNL A   1      43.668  30.247  33.017  1.00  0.00     0.210 HD
ENDBRANCH  37  40
ENDBRANCH   9  11
ENDBRANCH   8   9
ENDBRANCH   7   8
ENDBRANCH   6   7
ENDBRANCH   5   6
ENDBRANCH   4   5
ENDBRANCH   3   4
ENDBRANCH   2   3
ENDBRANCH   1   2
BRANCH   1  42
ATOM     42  C   UNL A   1      35.614  34.244  34.639  1.00  0.00     0.188 C 
BRANCH  42  43
ATOM     43  O   UNL A   1      34.991  35.352  33.998  1.00  0.00    -0.376 OA
BRANCH  43  44
ATOM     44  C   UNL A   1      34.830  35.331  32.588  1.00  0.00     0.202 C 
BRANCH  44  45
ATOM     45  C   UNL A   1      34.204  34.052  32.046  1.00  0.00     0.261 C 
BRANCH  45  46
ATOM     46  O   UNL A   1      35.212  33.342  31.314  1.00  0.00    -0.460 OA
BRANCH  46  47
ATOM     47  C   UNL A   1      34.799  33.003  30.072  1.00  0.00     0.338 C 
ATOM     48  O   UNL A   1      33.809  33.383  29.490  1.00  0.00    -0.246 OA
BRANCH  47  49
ATOM     49  C   UNL A   1      35.843  32.164  29.452  1.00  0.00     0.060 A 
ATOM     50  C   UNL A   1      35.767  30.781  29.680  1.00  0.00     0.016 A 
ATOM     51  C   UNL A   1      36.979  32.751  28.888  1.00  0.00     0.016 A 
ATOM     52  C   UNL A   1      36.881  29.994  29.508  1.00  0.00     0.010 A 
ATOM     53  C   UNL A   1      38.135  31.993  28.833  1.00  0.00     0.010 A 
ATOM     54  C   UNL A   1      38.079  30.670  29.295  1.00  0.00    -0.014 A 
BRANCH  54  55
ATOM     55  C   UNL A   1      39.210  30.171  30.084  1.00  0.00     0.031 A 
ATOM     56  C   UNL A   1      40.141  29.192  29.413  1.00  0.00     0.074 A 
ATOM     57  C   UNL A   1      39.389  30.674  31.307  1.00  0.00     0.049 A 
ATOM     58  N   UNL A   1      41.101  28.471  29.920  1.00  0.00    -0.248 NA
ATOM     59  C   UNL A   1      39.980  28.999  27.959  1.00  0.00     0.031 C 
ATOM     60  C   UNL A   1      38.572  31.732  31.901  1.00  0.00     0.029 A 
ATOM     61  N   UNL A   1      40.294  30.349  32.266  1.00  0.00    -0.354 N 
ATOM     62  C   UNL A   1      41.617  27.727  28.858  1.00  0.00     0.074 A 
ATOM     63  C   UNL A   1      40.892  28.089  27.674  1.00  0.00     0.031 C 
ATOM     64  C   UNL A   1      38.985  31.934  33.160  1.00  0.00     0.029 A 
ATOM     65  C   UNL A   1      40.029  30.963  33.460  1.00  0.00     0.049 A 
ATOM     66  H   UNL A   1      41.055  29.742  32.119  1.00  0.00     0.167 HD
ATOM     67  C   UNL A   1      42.599  26.799  28.901  1.00  0.00     0.037 A 
ATOM     68  C   UNL A   1      40.531  30.677  34.671  1.00  0.00     0.037 A 
ATOM     69  C   UNL A   1      43.248  26.473  30.140  1.00  0.00     0.049 A 
ATOM     70  C   UNL A   1      41.552  29.578  34.731  1.00  0.00     0.074 A 
ATOM     71  C   UNL A   1      44.219  25.532  30.403  1.00  0.00     0.029 A 
ATOM     72  N   UNL A   1      42.953  27.107  31.346  1.00  0.00    -0.354 N 
ATOM     73  N   UNL A   1      41.999  28.818  33.753  1.00  0.00    -0.248 NA
ATOM     74  C   UNL A   1      42.136  29.291  36.038  1.00  0.00     0.031 C 
ATOM     75  C   UNL A   1      44.468  25.558  31.782  1.00  0.00     0.029 A 
ATOM     76  C   UNL A   1      43.702  26.562  32.367  1.00  0.00     0.049 A 
ATOM     77  H   UNL A   1      42.304  27.839  31.453  1.00  0.00     0.167 HD
ATOM     78  C   UNL A   1      42.932  27.965  34.320  1.00  0.00     0.074 A 
ATOM     79  C   UNL A   1      42.989  28.323  35.730  1.00  0.00     0.031 C 
ATOM     80  C   UNL A   1      43.676  26.980  33.751  1.00  0.00     0.037 A 
BRANCH  67  81
ATOM     81  C   UNL A   1      42.907  26.040  27.634  1.00  0.00     0.064 A 
ATOM     82  C   UNL A   1      42.234  24.860  27.273  1.00  0.00     0.173 A 
ATOM     83  C   UNL A   1      43.949  26.467  26.795  1.00  0.00     0.173 A 
ATOM     84  F   UNL A   1      41.249  24.380  28.048  1.00  0.00    -0.203 F 
ATOM     85  C   UNL A   1      42.613  24.125  26.147  1.00  0.00     0.198 A 
ATOM     86  C   UNL A   1      44.306  25.746  25.655  1.00  0.00     0.198 A 
ATOM     87  F   UNL A   1      44.643  27.577  27.090  1.00  0.00    -0.203 F 
ATOM     88  F   UNL A   1      41.996  22.968  25.862  1.00  0.00    -0.200 F 
ATOM     89  C   UNL A   1      43.646  24.570  25.338  1.00  0.00     0.200 A 
ATOM     90  F   UNL A   1      45.304  26.183  24.874  1.00  0.00    -0.200 F 
ATOM     91  F   UNL A   1      44.016  23.859  24.262  1.00  0.00    -0.200 F 
ENDBRANCH  67  81
BRANCH  68  92
ATOM     92  C   UNL A   1      40.009  31.408  35.852  1.00  0.00     0.064 A 
ATOM     93  C   UNL A   1      40.684  32.518  36.373  1.00  0.00     0.173 A 
ATOM     94  C   UNL A   1      38.747  31.100  36.391  1.00  0.00     0.173 A 
ATOM     95  F   UNL A   1      41.888  32.854  35.892  1.00  0.00    -0.203 F 
ATOM     96  C   UNL A   1      40.111  33.299  37.377  1.00  0.00     0.198 A 
ATOM     97  C   UNL A   1      38.165  31.898  37.373  1.00  0.00     0.198 A 
ATOM     98  F   UNL A   1      38.047  30.061  35.911  1.00  0.00    -0.203 F 
ATOM     99  F   UNL A   1      40.775  34.361  37.855  1.00  0.00    -0.200 F 
ATOM    100  C   UNL A   1      38.848  32.998  37.866  1.00  0.00     0.200 A 
ATOM    101  F   UNL A   1      36.929  31.623  37.813  1.00  0.00    -0.200 F 
ATOM    102  F   UNL A   1      38.283  33.777  38.798  1.00  0.00    -0.200 F 
ENDBRANCH  68  92
BRANCH  80 103
ATOM    103  C   UNL A   1      44.613  26.265  34.669  1.00  0.00     0.064 A 
ATOM    104  C   UNL A   1      44.269  25.041  35.254  1.00  0.00     0.173 A 
ATOM    105  C   UNL A   1      45.881  26.803  34.930  1.00  0.00     0.173 A 
ATOM    106  F   UNL A   1      43.059  24.504  35.037  1.00  0.00    -0.203 F 
ATOM    107  C   UNL A   1      45.155  24.393  36.105  1.00  0.00     0.198 A 
ATOM    108  C   UNL A   1      46.776  26.134  35.753  1.00  0.00     0.198 A 
ATOM    109  F   UNL A   1      46.250  27.969  34.378  1.00  0.00    -0.203 F 
ATOM    110  F   UNL A   1      44.788  23.253  36.707  1.00  0.00    -0.200 F 
ATOM    111  C   UNL A   1      46.409  24.936  36.348  1.00  0.00     0.200 A 
ATOM    112  F   UNL A   1      47.993  26.650  35.972  1.00  0.00    -0.200 F 
ATOM    113  F   UNL A   1      47.263  24.307  37.167  1.00  0.00    -0.200 F 
ENDBRANCH  80 103
ENDBRANCH  54  55
ENDBRANCH  47  49
ENDBRANCH  46  47
ENDBRANCH  45  46
ENDBRANCH  44  45
ENDBRANCH  43  44
ENDBRANCH  42  43
ENDBRANCH   1  42
TORSDOF 21
ENDMDL
MODEL 2
REMARK VINA RESULT:      -9.3      4.316     10.342
REMARK SMILES CC1(C)CC[C@@]2(C(=O)OCCOCCOCCOCCOC(=O)c3ccc(-c4c5nc(c(-c6c(F)c(F)c(F)c(F)c6F)c6ccc([nH]6)c(-c6c(F)c(F)c(F)c(F)c6F)c6nc(c(-c7c(F)c(F)c(F)c(F)c7F)c7ccc4[nH]7)C=C6)C=C5)cc3)CC[C@@]3(C)C(=CC[C@H]4[C@@]5(C)CC[C@H](O)C(C)(C)[C@@H]5CC[C@]43C)[C@@H]2C1
REMARK SMILES IDX 16 1 15 2 14 3 13 4 12 5 11 6 10 7 9 8 7 9 8 10 6 11 1 12
REMARK SMILES IDX 2 13 3 14 4 15 110 16 5 17 109 18 91 19 87 20 89 21 92 22
REMARK SMILES IDX 88 23 90 24 107 25 93 26 94 27 106 28 108 29 95 30 105 31
REMARK SMILES IDX 96 32 97 33 104 34 98 35 101 36 99 37 102 38 103 39 100 40
REMARK SMILES IDX 17 42 18 43 19 44 20 45 21 46 22 47 23 48 24 49 25 50 86 51
REMARK SMILES IDX 26 52 85 53 27 54 28 55 29 56 79 57 30 58 84 59 78 60 80 61
REMARK SMILES IDX 31 62 83 63 77 64 76 65 32 67 64 68 44 69 63 70 45 71 48 72
REMARK SMILES IDX 62 73 81 74 46 75 47 76 61 78 82 79 49 80 33 81 34 82 42 83
REMARK SMILES IDX 35 84 36 85 40 86 43 87 37 88 38 89 41 90 39 91 65 92 66 93
REMARK SMILES IDX 74 94 67 95 68 96 72 97 75 98 69 99 70 100 73 101 71 102
REMARK SMILES IDX 50 103 51 104 59 105 52 106 53 107 57 108 60 109 54 110
REMARK SMILES IDX 55 111 58 112 56 113
REMARK H PARENT 100 41 80 66 48 77
REMARK Flexibility Score: inf
ROOT
ATOM      1  C   UNL A   1      47.648  29.771  27.126  1.00  0.00     0.188 C 
ENDROOT
BRANCH   1   2
ATOM      2  O   UNL A   1      48.591  28.545  26.639  1.00  0.00    -0.377 OA
BRANCH   2   3
ATOM      3  C   UNL A   1      48.887  27.417  25.141  1.00  0.00     0.188 C 
BRANCH   3   4
ATOM      4  C   UNL A   1      47.864  26.684  24.243  1.00  0.00     0.188 C 
BRANCH   4   5
ATOM      5  O   UNL A   1      46.520  26.305  24.460  1.00  0.00    -0.376 OA
BRANCH   5   6
ATOM      6  C   UNL A   1      45.378  26.837  25.101  1.00  0.00     0.202 C 
BRANCH   6   7
ATOM      7  C   UNL A   1      44.856  26.033  26.226  1.00  0.00     0.261 C 
BRANCH   7   8
ATOM      8  O   UNL A   1      43.802  26.660  26.943  1.00  0.00    -0.463 OA
BRANCH   8   9
ATOM      9  C   UNL A   1      42.712  26.033  27.451  1.00  0.00     0.312 C 
ATOM     10  O   UNL A   1      42.869  25.451  28.532  1.00  0.00    -0.252 OA
BRANCH   9  11
ATOM     11  C   UNL A   1      41.266  26.287  26.875  1.00  0.00     0.075 C 
ATOM     12  C   UNL A   1      39.754  22.246  26.366  1.00  0.00     0.011 C 
ATOM     13  C   UNL A   1      40.577  23.285  27.174  1.00  0.00    -0.035 C 
ATOM     14  C   UNL A   1      41.222  22.336  28.257  1.00  0.00     0.011 C 
ATOM     15  C   UNL A   1      41.643  23.810  26.185  1.00  0.00     0.007 C 
ATOM     16  C   UNL A   1      39.598  24.458  27.788  1.00  0.00     0.015 C 
ATOM     17  C   UNL A   1      41.378  25.248  25.698  1.00  0.00     0.020 C 
ATOM     18  C   UNL A   1      39.869  26.062  27.570  1.00  0.00     0.033 C 
ATOM     19  C   UNL A   1      39.356  27.290  28.643  1.00  0.00    -0.063 C 
ATOM     20  C   UNL A   1      41.165  27.754  26.299  1.00  0.00     0.020 C 
ATOM     21  C   UNL A   1      39.759  28.832  28.426  1.00  0.00    -0.006 C 
ATOM     22  C   UNL A   1      38.871  27.027  29.883  1.00  0.00    -0.027 C 
ATOM     23  C   UNL A   1      40.739  28.989  27.192  1.00  0.00     0.013 C 
ATOM     24  C   UNL A   1      38.434  29.474  27.853  1.00  0.00     0.017 C 
ATOM     25  C   UNL A   1      40.123  29.701  29.992  1.00  0.00    -0.020 C 
ATOM     26  C   UNL A   1      39.499  27.552  31.203  1.00  0.00     0.032 C 
ATOM     27  C   UNL A   1      40.640  28.665  31.090  1.00  0.00     0.006 C 
ATOM     28  C   UNL A   1      40.984  31.084  30.141  1.00  0.00     0.008 C 
ATOM     29  C   UNL A   1      38.692  30.211  30.534  1.00  0.00     0.012 C 
ATOM     30  C   UNL A   1      42.428  28.537  31.578  1.00  0.00    -0.025 C 
ATOM     31  C   UNL A   1      42.130  31.293  31.297  1.00  0.00     0.005 C 
ATOM     32  C   UNL A   1      42.133  28.692  33.152  1.00  0.00     0.012 C 
ATOM     33  C   UNL A   1      43.657  26.961  31.240  1.00  0.00     0.010 C 
ATOM     34  C   UNL A   1      43.239  30.241  31.169  1.00  0.00     0.003 C 
ATOM     35  C   UNL A   1      45.590  27.181  30.855  1.00  0.00     0.033 C 
ATOM     36  C   UNL A   1      45.157  30.490  31.152  1.00  0.00    -0.006 C 
ATOM     37  C   UNL A   1      46.233  28.972  30.654  1.00  0.00     0.120 C 
ATOM     38  C   UNL A   1      45.712  31.021  32.489  1.00  0.00     0.014 C 
ATOM     39  C   UNL A   1      45.547  31.622  30.170  1.00  0.00     0.014 C 
BRANCH  37  40
ATOM     40  O   UNL A   1      47.597  29.064  31.034  1.00  0.00    -0.393 OA
ATOM     41  H   UNL A   1      47.721  28.643  31.898  1.00  0.00     0.210 HD
ENDBRANCH  37  40
ENDBRANCH   9  11
ENDBRANCH   8   9
ENDBRANCH   7   8
ENDBRANCH   6   7
ENDBRANCH   5   6
ENDBRANCH   4   5
ENDBRANCH   3   4
ENDBRANCH   2   3
ENDBRANCH   1   2
BRANCH   1  42
ATOM     42  C   UNL A   1      48.234  31.072  27.682  1.00  0.00     0.188 C 
BRANCH  42  43
ATOM     43  O   UNL A   1      47.602  32.322  27.428  1.00  0.00    -0.376 OA
BRANCH  43  44
ATOM     44  C   UNL A   1      48.267  33.278  26.618  1.00  0.00     0.202 C 
BRANCH  44  45
ATOM     45  C   UNL A   1      47.581  34.638  26.560  1.00  0.00     0.261 C 
BRANCH  45  46
ATOM     46  O   UNL A   1      46.755  34.766  27.724  1.00  0.00    -0.460 OA
BRANCH  46  47
ATOM     47  C   UNL A   1      46.327  36.034  27.911  1.00  0.00     0.338 C 
ATOM     48  O   UNL A   1      46.973  37.055  27.834  1.00  0.00    -0.246 OA
BRANCH  47  49
ATOM     49  C   UNL A   1      44.864  36.005  28.107  1.00  0.00     0.060 A 
ATOM     50  C   UNL A   1      44.318  36.965  28.972  1.00  0.00     0.016 A 
ATOM     51  C   UNL A   1      44.112  34.918  27.653  1.00  0.00     0.016 A 
ATOM     52  C   UNL A   1      43.077  36.763  29.528  1.00  0.00     0.010 A 
ATOM     53  C   UNL A   1      42.922  34.642  28.301  1.00  0.00     0.010 A 
ATOM     54  C   UNL A   1      42.519  35.502  29.334  1.00  0.00    -0.014 A 
BRANCH  54  55
ATOM     55  C   UNL A   1      41.934  34.902  30.537  1.00  0.00     0.031 A 
ATOM     56  C   UNL A   1      40.459  34.586  30.503  1.00  0.00     0.074 A 
ATOM     57  C   UNL A   1      42.753  34.599  31.545  1.00  0.00     0.049 A 
ATOM     58  N   UNL A   1      39.661  34.223  31.467  1.00  0.00    -0.248 NA
ATOM     59  C   UNL A   1      39.780  34.685  29.197  1.00  0.00     0.031 C 
ATOM     60  C   UNL A   1      44.206  34.768  31.519  1.00  0.00     0.029 A 
ATOM     61  N   UNL A   1      42.479  34.109  32.782  1.00  0.00    -0.354 N 
ATOM     62  C   UNL A   1      38.400  34.090  30.885  1.00  0.00     0.074 A 
ATOM     63  C   UNL A   1      38.527  34.387  29.487  1.00  0.00     0.031 C 
ATOM     64  C   UNL A   1      44.696  34.434  32.721  1.00  0.00     0.029 A 
ATOM     65  C   UNL A   1      43.577  34.114  33.599  1.00  0.00     0.049 A 
ATOM     66  H   UNL A   1      41.592  33.786  33.061  1.00  0.00     0.167 HD
ATOM     67  C   UNL A   1      37.237  33.774  31.498  1.00  0.00     0.037 A 
ATOM     68  C   UNL A   1      43.624  33.966  34.932  1.00  0.00     0.037 A 
ATOM     69  C   UNL A   1      37.195  33.526  32.912  1.00  0.00     0.049 A 
ATOM     70  C   UNL A   1      42.315  33.711  35.623  1.00  0.00     0.074 A 
ATOM     71  C   UNL A   1      36.118  33.248  33.725  1.00  0.00     0.029 A 
ATOM     72  N   UNL A   1      38.328  33.547  33.725  1.00  0.00    -0.354 N 
ATOM     73  N   UNL A   1      41.108  33.654  35.101  1.00  0.00    -0.248 NA
ATOM     74  C   UNL A   1      42.363  33.503  37.067  1.00  0.00     0.031 C 
ATOM     75  C   UNL A   1      36.596  33.159  35.039  1.00  0.00     0.029 A 
ATOM     76  C   UNL A   1      37.979  33.314  35.037  1.00  0.00     0.049 A 
ATOM     77  H   UNL A   1      39.246  33.705  33.406  1.00  0.00     0.167 HD
ATOM     78  C   UNL A   1      40.244  33.389  36.151  1.00  0.00     0.074 A 
ATOM     79  C   UNL A   1      41.082  33.284  37.336  1.00  0.00     0.031 C 
ATOM     80  C   UNL A   1      38.892  33.243  36.156  1.00  0.00     0.037 A 
BRANCH  67  81
ATOM     81  C   UNL A   1      35.975  33.803  30.673  1.00  0.00     0.064 A 
ATOM     82  C   UNL A   1      35.750  32.926  29.598  1.00  0.00     0.173 A 
ATOM     83  C   UNL A   1      34.995  34.778  30.921  1.00  0.00     0.173 A 
ATOM     84  F   UNL A   1      36.661  31.991  29.287  1.00  0.00    -0.203 F 
ATOM     85  C   UNL A   1      34.617  33.046  28.789  1.00  0.00     0.198 A 
ATOM     86  C   UNL A   1      33.850  34.877  30.129  1.00  0.00     0.198 A 
ATOM     87  F   UNL A   1      35.154  35.657  31.922  1.00  0.00    -0.203 F 
ATOM     88  F   UNL A   1      34.460  32.237  27.730  1.00  0.00    -0.200 F 
ATOM     89  C   UNL A   1      33.667  34.019  29.057  1.00  0.00     0.200 A 
ATOM     90  F   UNL A   1      32.933  35.818  30.395  1.00  0.00    -0.200 F 
ATOM     91  F   UNL A   1      32.585  34.140  28.275  1.00  0.00    -0.200 F 
ENDBRANCH  67  81
BRANCH  68  92
ATOM     92  C   UNL A   1      44.927  34.122  35.623  1.00  0.00     0.064 A 
ATOM     93  C   UNL A   1      45.752  33.019  35.869  1.00  0.00     0.173 A 
ATOM     94  C   UNL A   1      45.437  35.398  35.920  1.00  0.00     0.173 A 
ATOM     95  F   UNL A   1      45.312  31.782  35.602  1.00  0.00    -0.203 F 
ATOM     96  C   UNL A   1      47.042  33.187  36.371  1.00  0.00     0.198 A 
ATOM     97  C   UNL A   1      46.736  35.566  36.394  1.00  0.00     0.198 A 
ATOM     98  F   UNL A   1      44.697  36.491  35.681  1.00  0.00    -0.203 F 
ATOM     99  F   UNL A   1      47.816  32.115  36.593  1.00  0.00    -0.200 F 
ATOM    100  C   UNL A   1      47.539  34.458  36.620  1.00  0.00     0.200 A 
ATOM    101  F   UNL A   1      47.222  36.798  36.596  1.00  0.00    -0.200 F 
ATOM    102  F   UNL A   1      48.794  34.618  37.060  1.00  0.00    -0.200 F 
ENDBRANCH  68  92
BRANCH  80 103
ATOM    103  C   UNL A   1      38.280  32.933  37.482  1.00  0.00     0.064 A 
ATOM    104  C   UNL A   1      37.784  31.657  37.777  1.00  0.00     0.173 A 
ATOM    105  C   UNL A   1      38.225  33.921  38.475  1.00  0.00     0.173 A 
ATOM    106  F   UNL A   1      37.806  30.691  36.846  1.00  0.00    -0.203 F 
ATOM    107  C   UNL A   1      37.218  31.390  39.016  1.00  0.00     0.198 A 
ATOM    108  C   UNL A   1      37.692  33.639  39.724  1.00  0.00     0.198 A 
ATOM    109  F   UNL A   1      38.701  35.152  38.233  1.00  0.00    -0.203 F 
ATOM    110  F   UNL A   1      36.691  30.183  39.263  1.00  0.00    -0.200 F 
ATOM    111  C   UNL A   1      37.178  32.379  39.990  1.00  0.00     0.200 A 
ATOM    112  F   UNL A   1      37.670  34.588  40.670  1.00  0.00    -0.200 F 
ATOM    113  F   UNL A   1      36.635  32.117  41.187  1.00  0.00    -0.200 F 
ENDBRANCH  80 103
ENDBRANCH  54  55
ENDBRANCH  47  49
ENDBRANCH  46  47
ENDBRANCH  45  46
ENDBRANCH  44  45
ENDBRANCH  43  44
ENDBRANCH  42  43
ENDBRANCH   1  42
TORSDOF 21
ENDMDL
MODEL 3
REMARK VINA RESULT:      -9.3      3.422      7.238
REMARK SMILES CC1(C)CC[C@@]2(C(=O)OCCOCCOCCOCCOC(=O)c3ccc(-c4c5nc(c(-c6c(F)c(F)c(F)c(F)c6F)c6ccc([nH]6)c(-c6c(F)c(F)c(F)c(F)c6F)c6nc(c(-c7c(F)c(F)c(F)c(F)c7F)c7ccc4[nH]7)C=C6)C=C5)cc3)CC[C@@]3(C)C(=CC[C@H]4[C@@]5(C)CC[C@H](O)C(C)(C)[C@@H]5CC[C@]43C)[C@@H]2C1
REMARK SMILES IDX 16 1 15 2 14 3 13 4 12 5 11 6 10 7 9 8 7 9 8 10 6 11 1 12
REMARK SMILES IDX 2 13 3 14 4 15 110 16 5 17 109 18 91 19 87 20 89 21 92 22
REMARK SMILES IDX 88 23 90 24 107 25 93 26 94 27 106 28 108 29 95 30 105 31
REMARK SMILES IDX 96 32 97 33 104 34 98 35 101 36 99 37 102 38 103 39 100 40
REMARK SMILES IDX 17 42 18 43 19 44 20 45 21 46 22 47 23 48 24 49 25 50 86 51
REMARK SMILES IDX 26 52 85 53 27 54 28 55 29 56 79 57 30 58 84 59 78 60 80 61
REMARK SMILES IDX 31 62 83 63 77 64 76 65 32 67 64 68 44 69 63 70 45 71 48 72
REMARK SMILES IDX 62 73 81 74 46 75 47 76 61 78 82 79 49 80 33 81 34 82 42 83
REMARK SMILES IDX 35 84 36 85 40 86 43 87 37 88 38 89 41 90 39 91 65 92 66 93
REMARK SMILES IDX 74 94 67 95 68 96 72 97 75 98 69 99 70 100 73 101 71 102
REMARK SMILES IDX 50 103 51 104 59 105 52 106 53 107 57 108 60 109 54 110
REMARK SMILES IDX 55 111 58 112 56 113
REMARK H PARENT 100 41 80 66 48 77
REMARK Flexibility Score: inf
ROOT
ATOM      1  C   UNL A   1      37.571  32.851  35.001  1.00  0.00     0.188 C 
ENDROOT
BRANCH   1   2
ATOM      2  O   UNL A   1      38.629  31.644  34.773  1.00  0.00    -0.377 OA
BRANCH   2   3
ATOM      3  C   UNL A   1      39.286  30.496  33.412  1.00  0.00     0.188 C 
BRANCH   3   4
ATOM      4  C   UNL A   1      39.750  29.024  33.504  1.00  0.00     0.188 C 
BRANCH   4   5
ATOM      5  O   UNL A   1      41.011  28.449  33.780  1.00  0.00    -0.376 OA
BRANCH   5   6
ATOM      6  C   UNL A   1      42.320  28.501  33.246  1.00  0.00     0.202 C 
BRANCH   6   7
ATOM      7  C   UNL A   1      43.407  28.468  34.246  1.00  0.00     0.261 C 
BRANCH   7   8
ATOM      8  O   UNL A   1      43.598  29.698  34.931  1.00  0.00    -0.463 OA
BRANCH   8   9
ATOM      9  C   UNL A   1      44.141  29.836  36.166  1.00  0.00     0.312 C 
ATOM     10  O   UNL A   1      43.760  29.032  37.026  1.00  0.00    -0.252 OA
BRANCH   9  11
ATOM     11  C   UNL A   1      45.402  30.749  36.420  1.00  0.00     0.075 C 
ATOM     12  C   UNL A   1      43.712  34.044  38.691  1.00  0.00     0.011 C 
ATOM     13  C   UNL A   1      43.772  32.530  38.356  1.00  0.00    -0.035 C 
ATOM     14  C   UNL A   1      42.548  32.015  39.208  1.00  0.00     0.011 C 
ATOM     15  C   UNL A   1      43.476  32.442  36.842  1.00  0.00     0.007 C 
ATOM     16  C   UNL A   1      45.225  31.891  38.792  1.00  0.00     0.015 C 
ATOM     17  C   UNL A   1      44.713  32.097  35.990  1.00  0.00     0.020 C 
ATOM     18  C   UNL A   1      46.172  31.023  37.769  1.00  0.00     0.033 C 
ATOM     19  C   UNL A   1      47.288  29.824  38.255  1.00  0.00    -0.063 C 
ATOM     20  C   UNL A   1      46.551  30.376  35.403  1.00  0.00     0.020 C 
ATOM     21  C   UNL A   1      48.095  28.930  37.189  1.00  0.00    -0.006 C 
ATOM     22  C   UNL A   1      47.329  29.328  39.518  1.00  0.00    -0.027 C 
ATOM     23  C   UNL A   1      47.627  29.258  35.712  1.00  0.00     0.013 C 
ATOM     24  C   UNL A   1      49.540  29.569  37.205  1.00  0.00     0.017 C 
ATOM     25  C   UNL A   1      48.290  27.192  37.717  1.00  0.00    -0.020 C 
ATOM     26  C   UNL A   1      47.120  27.833  39.883  1.00  0.00     0.032 C 
ATOM     27  C   UNL A   1      47.094  26.774  38.688  1.00  0.00     0.006 C 
ATOM     28  C   UNL A   1      48.626  25.927  36.737  1.00  0.00     0.008 C 
ATOM     29  C   UNL A   1      49.611  27.177  38.644  1.00  0.00     0.012 C 
ATOM     30  C   UNL A   1      45.687  25.697  38.130  1.00  0.00    -0.025 C 
ATOM     31  C   UNL A   1      47.845  24.487  36.849  1.00  0.00     0.005 C 
ATOM     32  C   UNL A   1      45.852  24.650  39.341  1.00  0.00     0.012 C 
ATOM     33  C   UNL A   1      43.748  26.256  37.938  1.00  0.00     0.010 C 
ATOM     34  C   UNL A   1      46.337  24.662  36.635  1.00  0.00     0.003 C 
ATOM     35  C   UNL A   1      42.564  25.527  36.524  1.00  0.00     0.033 C 
ATOM     36  C   UNL A   1      45.147  23.667  35.479  1.00  0.00    -0.006 C 
ATOM     37  C   UNL A   1      43.373  24.375  35.229  1.00  0.00     0.120 C 
ATOM     38  C   UNL A   1      44.993  22.190  35.893  1.00  0.00     0.014 C 
ATOM     39  C   UNL A   1      45.753  23.541  34.059  1.00  0.00     0.014 C 
BRANCH  37  40
ATOM     40  O   UNL A   1      42.431  23.442  34.724  1.00  0.00    -0.393 OA
ATOM     41  H   UNL A   1      42.706  22.544  34.961  1.00  0.00     0.210 HD
ENDBRANCH  37  40
ENDBRANCH   9  11
ENDBRANCH   8   9
ENDBRANCH   7   8
ENDBRANCH   6   7
ENDBRANCH   5   6
ENDBRANCH   4   5
ENDBRANCH   3   4
ENDBRANCH   2   3
ENDBRANCH   1   2
BRANCH   1  42
ATOM     42  C   UNL A   1      37.688  34.182  34.252  1.00  0.00     0.188 C 
BRANCH  42  43
ATOM     43  O   UNL A   1      36.793  34.501  33.191  1.00  0.00    -0.376 OA
BRANCH  43  44
ATOM     44  C   UNL A   1      36.716  33.633  32.071  1.00  0.00     0.202 C 
BRANCH  44  45
ATOM     45  C   UNL A   1      35.314  33.113  31.776  1.00  0.00     0.261 C 
BRANCH  45  46
ATOM     46  O   UNL A   1      35.437  31.785  31.251  1.00  0.00    -0.460 OA
BRANCH  46  47
ATOM     47  C   UNL A   1      35.404  31.762  29.900  1.00  0.00     0.338 C 
ATOM     48  O   UNL A   1      34.919  32.584  29.156  1.00  0.00    -0.246 OA
BRANCH  47  49
ATOM     49  C   UNL A   1      36.191  30.604  29.437  1.00  0.00     0.060 A 
ATOM     50  C   UNL A   1      36.611  29.687  30.414  1.00  0.00     0.016 A 
ATOM     51  C   UNL A   1      36.699  30.569  28.136  1.00  0.00     0.016 A 
ATOM     52  C   UNL A   1      37.663  28.841  30.154  1.00  0.00     0.010 A 
ATOM     53  C   UNL A   1      37.835  29.814  27.908  1.00  0.00     0.010 A 
ATOM     54  C   UNL A   1      38.371  29.088  28.982  1.00  0.00    -0.014 A 
BRANCH  54  55
ATOM     55  C   UNL A   1      39.830  29.061  29.133  1.00  0.00     0.031 A 
ATOM     56  C   UNL A   1      40.556  27.848  28.606  1.00  0.00     0.074 A 
ATOM     57  C   UNL A   1      40.424  30.139  29.646  1.00  0.00     0.049 A 
ATOM     58  N   UNL A   1      41.799  27.487  28.760  1.00  0.00    -0.248 NA
ATOM     59  C   UNL A   1      39.778  26.905  27.780  1.00  0.00     0.031 C 
ATOM     60  C   UNL A   1      39.734  31.374  30.018  1.00  0.00     0.029 A 
ATOM     61  N   UNL A   1      41.727  30.358  29.958  1.00  0.00    -0.354 N 
ATOM     62  C   UNL A   1      41.927  26.273  28.084  1.00  0.00     0.074 A 
ATOM     63  C   UNL A   1      40.655  25.958  27.499  1.00  0.00     0.031 C 
ATOM     64  C   UNL A   1      40.624  32.212  30.566  1.00  0.00     0.029 A 
ATOM     65  C   UNL A   1      41.908  31.528  30.646  1.00  0.00     0.049 A 
ATOM     66  H   UNL A   1      42.460  29.746  29.716  1.00  0.00     0.167 HD
ATOM     67  C   UNL A   1      43.023  25.486  28.001  1.00  0.00     0.037 A 
ATOM     68  C   UNL A   1      42.986  31.927  31.338  1.00  0.00     0.037 A 
ATOM     69  C   UNL A   1      44.248  25.863  28.649  1.00  0.00     0.049 A 
ATOM     70  C   UNL A   1      44.171  31.005  31.323  1.00  0.00     0.074 A 
ATOM     71  C   UNL A   1      45.445  25.185  28.730  1.00  0.00     0.029 A 
ATOM     72  N   UNL A   1      44.404  27.057  29.353  1.00  0.00    -0.354 N 
ATOM     73  N   UNL A   1      44.286  29.824  30.752  1.00  0.00    -0.248 NA
ATOM     74  C   UNL A   1      45.364  31.453  32.037  1.00  0.00     0.031 C 
ATOM     75  C   UNL A   1      46.305  25.946  29.533  1.00  0.00     0.029 A 
ATOM     76  C   UNL A   1      45.668  27.128  29.897  1.00  0.00     0.049 A 
ATOM     77  H   UNL A   1      43.711  27.749  29.447  1.00  0.00     0.167 HD
ATOM     78  C   UNL A   1      45.572  29.386  31.023  1.00  0.00     0.074 A 
ATOM     79  C   UNL A   1      46.196  30.447  31.801  1.00  0.00     0.031 C 
ATOM     80  C   UNL A   1      46.194  28.228  30.674  1.00  0.00     0.037 A 
BRANCH  67  81
ATOM     81  C   UNL A   1      42.884  24.155  27.306  1.00  0.00     0.064 A 
ATOM     82  C   UNL A   1      42.462  22.991  27.972  1.00  0.00     0.173 A 
ATOM     83  C   UNL A   1      43.247  24.026  25.956  1.00  0.00     0.173 A 
ATOM     84  F   UNL A   1      42.132  23.040  29.271  1.00  0.00    -0.203 F 
ATOM     85  C   UNL A   1      42.444  21.752  27.326  1.00  0.00     0.198 A 
ATOM     86  C   UNL A   1      43.200  22.792  25.305  1.00  0.00     0.198 A 
ATOM     87  F   UNL A   1      43.673  25.094  25.265  1.00  0.00    -0.203 F 
ATOM     88  F   UNL A   1      42.099  20.648  28.004  1.00  0.00    -0.200 F 
ATOM     89  C   UNL A   1      42.808  21.655  25.993  1.00  0.00     0.200 A 
ATOM     90  F   UNL A   1      43.550  22.704  24.014  1.00  0.00    -0.200 F 
ATOM     91  F   UNL A   1      42.800  20.464  25.375  1.00  0.00    -0.200 F 
ENDBRANCH  67  81
BRANCH  68  92
ATOM     92  C   UNL A   1      42.914  33.195  32.105  1.00  0.00     0.064 A 
ATOM     93  C   UNL A   1      43.309  34.410  31.534  1.00  0.00     0.173 A 
ATOM     94  C   UNL A   1      42.309  33.237  33.373  1.00  0.00     0.173 A 
ATOM     95  F   UNL A   1      43.888  34.424  30.326  1.00  0.00    -0.203 F 
ATOM     96  C   UNL A   1      43.089  35.618  32.195  1.00  0.00     0.198 A 
ATOM     97  C   UNL A   1      42.064  34.447  34.020  1.00  0.00     0.198 A 
ATOM     98  F   UNL A   1      41.889  32.103  33.956  1.00  0.00    -0.203 F 
ATOM     99  F   UNL A   1      43.472  36.769  31.624  1.00  0.00    -0.200 F 
ATOM    100  C   UNL A   1      42.455  35.638  33.429  1.00  0.00     0.200 A 
ATOM    101  F   UNL A   1      41.418  34.460  35.193  1.00  0.00    -0.200 F 
ATOM    102  F   UNL A   1      42.206  36.803  34.040  1.00  0.00    -0.200 F 
ENDBRANCH  68  92
BRANCH  80 103
ATOM    103  C   UNL A   1      47.613  28.096  31.120  1.00  0.00     0.064 A 
ATOM    104  C   UNL A   1      47.937  27.545  32.366  1.00  0.00     0.173 A 
ATOM    105  C   UNL A   1      48.653  28.495  30.270  1.00  0.00     0.173 A 
ATOM    106  F   UNL A   1      46.966  27.166  33.212  1.00  0.00    -0.203 F 
ATOM    107  C   UNL A   1      49.263  27.432  32.763  1.00  0.00     0.198 A 
ATOM    108  C   UNL A   1      49.978  28.346  30.657  1.00  0.00     0.198 A 
ATOM    109  F   UNL A   1      48.382  29.017  29.065  1.00  0.00    -0.203 F 
ATOM    110  F   UNL A   1      49.556  26.960  33.983  1.00  0.00    -0.200 F 
ATOM    111  C   UNL A   1      50.282  27.826  31.906  1.00  0.00     0.200 A 
ATOM    112  F   UNL A   1      50.961  28.710  29.821  1.00  0.00    -0.200 F 
ATOM    113  F   UNL A   1      51.560  27.712  32.290  1.00  0.00    -0.200 F 
ENDBRANCH  80 103
ENDBRANCH  54  55
ENDBRANCH  47  49
ENDBRANCH  46  47
ENDBRANCH  45  46
ENDBRANCH  44  45
ENDBRANCH  43  44
ENDBRANCH  42  43
ENDBRANCH   1  42
TORSDOF 21
ENDMDL
