MODEL 1
REMARK VINA RESULT:     -10.0      0.000      0.000
REMARK SMILES CC(C)(C)[C@H](CCC(=O)OCCOCCOCCOCCOC(=O)c1ccc(-c2c3nc(c(-c4c(F)c(F)c(F)c(F)c4F)c4ccc([nH]4)c(-c4c(F)c(F)c(F)c(F)c4F)c4nc(c(-c5c(F)c(F)c(F)c(F)c5F)c5ccc2[nH]5)C=C4)C=C3)cc1)CC[NH+]1CCOCC1
REMARK SMILES IDX 14 1 13 2 12 3 11 4 10 5 8 6 9 7 7 8 6 9 5 10 2 11 1 12 3 13
REMARK SMILES IDX 4 14 88 15 89 16 90 17 91 18 95 19 92 21 94 22 93 23 15 24
REMARK SMILES IDX 16 25 17 26 18 27 19 28 20 29 21 30 22 31 23 32 24 33 25 34
REMARK SMILES IDX 26 35 87 36 27 37 86 38 28 39 29 40 30 41 80 42 31 43 85 44
REMARK SMILES IDX 79 45 81 46 32 47 84 48 78 49 77 50 33 52 65 53 45 54 64 55
REMARK SMILES IDX 46 56 49 57 63 58 82 59 47 60 48 61 62 63 83 64 50 65 34 66
REMARK SMILES IDX 35 67 43 68 36 69 37 70 41 71 44 72 38 73 39 74 42 75 40 76
REMARK SMILES IDX 66 77 67 78 75 79 68 80 69 81 73 82 76 83 70 84 71 85 74 86
REMARK SMILES IDX 72 87 51 88 52 89 60 90 53 91 54 92 58 93 61 94 55 95 56 96
REMARK SMILES IDX 59 97 57 98
REMARK H PARENT 90 20 81 51 49 62
REMARK Flexibility Score: inf
ROOT
ATOM      1  C   UNL A   1      32.424  26.464  24.480  1.00  0.00     0.188 C 
ENDROOT
BRANCH   1   2
ATOM      2  O   UNL A   1      31.957  25.372  23.689  1.00  0.00    -0.376 OA
BRANCH   2   3
ATOM      3  C   UNL A   1      30.781  24.684  24.121  1.00  0.00     0.202 C 
BRANCH   3   4
ATOM      4  C   UNL A   1      30.975  23.322  24.806  1.00  0.00     0.261 C 
BRANCH   4   5
ATOM      5  O   UNL A   1      32.214  23.321  25.554  1.00  0.00    -0.463 OA
BRANCH   5   6
ATOM      6  C   UNL A   1      32.126  23.128  26.889  1.00  0.00     0.305 C 
ATOM      7  O   UNL A   1      31.075  23.175  27.517  1.00  0.00    -0.252 OA
BRANCH   6   8
ATOM      8  C   UNL A   1      33.437  22.669  27.510  1.00  0.00     0.123 C 
BRANCH   8   9
ATOM      9  C   UNL A   1      34.440  21.788  26.733  1.00  0.00     0.016 C 
BRANCH   9  10
ATOM     10  C   UNL A   1      34.744  22.083  25.237  1.00  0.00     0.000 C 
BRANCH  10  11
ATOM     11  C   UNL A   1      36.290  22.237  24.855  1.00  0.00    -0.035 C 
ATOM     12  C   UNL A   1      37.044  23.242  25.759  1.00  0.00     0.011 C 
ATOM     13  C   UNL A   1      36.538  22.689  23.407  1.00  0.00     0.011 C 
ATOM     14  C   UNL A   1      36.972  20.857  25.012  1.00  0.00     0.011 C 
ENDBRANCH  10  11
BRANCH  10  15
ATOM     15  C   UNL A   1      34.087  20.992  24.301  1.00  0.00     0.065 C 
BRANCH  15  16
ATOM     16  C   UNL A   1      33.221  19.847  24.863  1.00  0.00     0.262 C 
BRANCH  16  17
ATOM     17  N   UNL A   1      33.816  18.575  25.244  1.00  0.00    -0.331 N 
ATOM     18  C   UNL A   1      34.700  17.918  24.281  1.00  0.00     0.291 C 
ATOM     19  C   UNL A   1      32.976  17.609  25.930  1.00  0.00     0.291 C 
ATOM     20  H   UNL A   1      34.429  18.960  25.962  1.00  0.00     0.348 HD
ATOM     21  C   UNL A   1      34.055  16.787  23.462  1.00  0.00     0.221 C 
ATOM     22  C   UNL A   1      32.349  16.537  25.038  1.00  0.00     0.221 C 
ATOM     23  O   UNL A   1      33.361  15.851  24.298  1.00  0.00    -0.370 OA
ENDBRANCH  16  17
ENDBRANCH  15  16
ENDBRANCH  10  15
ENDBRANCH   9  10
ENDBRANCH   8   9
ENDBRANCH   6   8
ENDBRANCH   5   6
ENDBRANCH   4   5
ENDBRANCH   3   4
ENDBRANCH   2   3
ENDBRANCH   1   2
BRANCH   1  24
ATOM     24  C   UNL A   1      31.388  27.529  24.850  1.00  0.00     0.188 C 
BRANCH  24  25
ATOM     25  O   UNL A   1      31.654  28.822  24.355  1.00  0.00    -0.377 OA
BRANCH  25  26
ATOM     26  C   UNL A   1      32.785  29.491  24.881  1.00  0.00     0.188 C 
BRANCH  26  27
ATOM     27  C   UNL A   1      32.741  29.539  26.417  1.00  0.00     0.188 C 
BRANCH  27  28
ATOM     28  O   UNL A   1      31.996  30.535  27.119  1.00  0.00    -0.376 OA
BRANCH  28  29
ATOM     29  C   UNL A   1      31.537  31.690  26.435  1.00  0.00     0.202 C 
BRANCH  29  30
ATOM     30  C   UNL A   1      31.761  32.987  27.229  1.00  0.00     0.261 C 
BRANCH  30  31
ATOM     31  O   UNL A   1      33.102  33.508  27.177  1.00  0.00    -0.460 OA
BRANCH  31  32
ATOM     32  C   UNL A   1      33.687  33.674  28.388  1.00  0.00     0.338 C 
ATOM     33  O   UNL A   1      33.293  34.345  29.324  1.00  0.00    -0.246 OA
BRANCH  32  34
ATOM     34  C   UNL A   1      34.937  32.895  28.470  1.00  0.00     0.060 A 
ATOM     35  C   UNL A   1      34.850  31.531  28.769  1.00  0.00     0.016 A 
ATOM     36  C   UNL A   1      36.174  33.544  28.462  1.00  0.00     0.016 A 
ATOM     37  C   UNL A   1      35.998  30.824  29.129  1.00  0.00     0.010 A 
ATOM     38  C   UNL A   1      37.323  32.837  28.836  1.00  0.00     0.010 A 
ATOM     39  C   UNL A   1      37.229  31.489  29.224  1.00  0.00    -0.014 A 
BRANCH  39  40
ATOM     40  C   UNL A   1      38.347  30.830  29.947  1.00  0.00     0.031 A 
ATOM     41  C   UNL A   1      38.563  31.165  31.398  1.00  0.00     0.074 A 
ATOM     42  C   UNL A   1      39.118  29.904  29.351  1.00  0.00     0.049 A 
ATOM     43  N   UNL A   1      39.456  30.702  32.236  1.00  0.00    -0.248 NA
ATOM     44  C   UNL A   1      37.639  32.147  31.987  1.00  0.00     0.031 C 
ATOM     45  C   UNL A   1      38.963  29.443  27.977  1.00  0.00     0.029 A 
ATOM     46  N   UNL A   1      40.181  29.180  29.831  1.00  0.00    -0.354 N 
ATOM     47  C   UNL A   1      39.198  31.330  33.447  1.00  0.00     0.074 A 
ATOM     48  C   UNL A   1      38.089  32.234  33.229  1.00  0.00     0.031 C 
ATOM     49  C   UNL A   1      39.906  28.523  27.713  1.00  0.00     0.029 A 
ATOM     50  C   UNL A   1      40.740  28.342  28.898  1.00  0.00     0.049 A 
ATOM     51  H   UNL A   1      40.511  29.256  30.755  1.00  0.00     0.167 HD
ATOM     52  C   UNL A   1      39.820  31.160  34.637  1.00  0.00     0.037 A 
ATOM     53  C   UNL A   1      41.806  27.526  28.993  1.00  0.00     0.037 A 
ATOM     54  C   UNL A   1      40.923  30.262  34.855  1.00  0.00     0.049 A 
ATOM     55  C   UNL A   1      42.538  27.420  30.306  1.00  0.00     0.074 A 
ATOM     56  C   UNL A   1      41.617  30.012  36.025  1.00  0.00     0.029 A 
ATOM     57  N   UNL A   1      41.498  29.470  33.871  1.00  0.00    -0.354 N 
ATOM     58  N   UNL A   1      42.274  28.001  31.451  1.00  0.00    -0.248 NA
ATOM     59  C   UNL A   1      43.710  26.534  30.340  1.00  0.00     0.031 C 
ATOM     60  C   UNL A   1      42.643  29.104  35.739  1.00  0.00     0.029 A 
ATOM     61  C   UNL A   1      42.557  28.751  34.402  1.00  0.00     0.049 A 
ATOM     62  H   UNL A   1      41.198  29.426  32.935  1.00  0.00     0.167 HD
ATOM     63  C   UNL A   1      43.223  27.529  32.348  1.00  0.00     0.074 A 
ATOM     64  C   UNL A   1      44.065  26.606  31.616  1.00  0.00     0.031 C 
ATOM     65  C   UNL A   1      43.379  27.829  33.660  1.00  0.00     0.037 A 
BRANCH  52  66
ATOM     66  C   UNL A   1      39.336  31.989  35.791  1.00  0.00     0.064 A 
ATOM     67  C   UNL A   1      38.396  31.499  36.709  1.00  0.00     0.173 A 
ATOM     68  C   UNL A   1      39.831  33.287  35.986  1.00  0.00     0.173 A 
ATOM     69  F   UNL A   1      37.880  30.270  36.556  1.00  0.00    -0.203 F 
ATOM     70  C   UNL A   1      37.948  32.289  37.765  1.00  0.00     0.198 A 
ATOM     71  C   UNL A   1      39.401  34.064  37.058  1.00  0.00     0.198 A 
ATOM     72  F   UNL A   1      40.734  33.802  35.137  1.00  0.00    -0.203 F 
ATOM     73  F   UNL A   1      37.013  31.818  38.603  1.00  0.00    -0.200 F 
ATOM     74  C   UNL A   1      38.455  33.568  37.941  1.00  0.00     0.200 A 
ATOM     75  F   UNL A   1      39.899  35.296  37.233  1.00  0.00    -0.200 F 
ATOM     76  F   UNL A   1      38.024  34.326  38.960  1.00  0.00    -0.200 F 
ENDBRANCH  52  66
BRANCH  53  77
ATOM     77  C   UNL A   1      42.248  26.739  27.812  1.00  0.00     0.064 A 
ATOM     78  C   UNL A   1      43.172  27.261  26.898  1.00  0.00     0.173 A 
ATOM     79  C   UNL A   1      41.739  25.455  27.565  1.00  0.00     0.173 A 
ATOM     80  F   UNL A   1      43.668  28.495  27.078  1.00  0.00    -0.203 F 
ATOM     81  C   UNL A   1      43.557  26.538  25.770  1.00  0.00     0.198 A 
ATOM     82  C   UNL A   1      42.142  24.723  26.452  1.00  0.00     0.198 A 
ATOM     83  F   UNL A   1      40.850  24.911  28.410  1.00  0.00    -0.203 F 
ATOM     84  F   UNL A   1      44.406  27.079  24.887  1.00  0.00    -0.200 F 
ATOM     85  C   UNL A   1      43.045  25.267  25.551  1.00  0.00     0.200 A 
ATOM     86  F   UNL A   1      41.650  23.493  26.247  1.00  0.00    -0.200 F 
ATOM     87  F   UNL A   1      43.412  24.573  24.466  1.00  0.00    -0.200 F 
ENDBRANCH  53  77
BRANCH  65  88
ATOM     88  C   UNL A   1      44.478  27.124  34.401  1.00  0.00     0.064 A 
ATOM     89  C   UNL A   1      44.276  25.873  35.000  1.00  0.00     0.173 A 
ATOM     90  C   UNL A   1      45.757  27.694  34.482  1.00  0.00     0.173 A 
ATOM     91  F   UNL A   1      43.067  25.292  34.963  1.00  0.00    -0.203 F 
ATOM     92  C   UNL A   1      45.309  25.229  35.677  1.00  0.00     0.198 A 
ATOM     93  C   UNL A   1      46.796  27.035  35.134  1.00  0.00     0.198 A 
ATOM     94  F   UNL A   1      46.004  28.887  33.919  1.00  0.00    -0.203 F 
ATOM     95  F   UNL A   1      45.082  24.056  36.284  1.00  0.00    -0.200 F 
ATOM     96  C   UNL A   1      46.569  25.807  35.738  1.00  0.00     0.200 A 
ATOM     97  F   UNL A   1      48.014  27.589  35.182  1.00  0.00    -0.200 F 
ATOM     98  F   UNL A   1      47.563  25.184  36.386  1.00  0.00    -0.200 F 
ENDBRANCH  65  88
ENDBRANCH  39  40
ENDBRANCH  32  34
ENDBRANCH  31  32
ENDBRANCH  30  31
ENDBRANCH  29  30
ENDBRANCH  28  29
ENDBRANCH  27  28
ENDBRANCH  26  27
ENDBRANCH  25  26
ENDBRANCH  24  25
ENDBRANCH   1  24
TORSDOF 26
ENDMDL
MODEL 2
REMARK VINA RESULT:      -9.2      3.508      9.123
REMARK SMILES CC(C)(C)[C@H](CCC(=O)OCCOCCOCCOCCOC(=O)c1ccc(-c2c3nc(c(-c4c(F)c(F)c(F)c(F)c4F)c4ccc([nH]4)c(-c4c(F)c(F)c(F)c(F)c4F)c4nc(c(-c5c(F)c(F)c(F)c(F)c5F)c5ccc2[nH]5)C=C4)C=C3)cc1)CC[NH+]1CCOCC1
REMARK SMILES IDX 14 1 13 2 12 3 11 4 10 5 8 6 9 7 7 8 6 9 5 10 2 11 1 12 3 13
REMARK SMILES IDX 4 14 88 15 89 16 90 17 91 18 95 19 92 21 94 22 93 23 15 24
REMARK SMILES IDX 16 25 17 26 18 27 19 28 20 29 21 30 22 31 23 32 24 33 25 34
REMARK SMILES IDX 26 35 87 36 27 37 86 38 28 39 29 40 30 41 80 42 31 43 85 44
REMARK SMILES IDX 79 45 81 46 32 47 84 48 78 49 77 50 33 52 65 53 45 54 64 55
REMARK SMILES IDX 46 56 49 57 63 58 82 59 47 60 48 61 62 63 83 64 50 65 34 66
REMARK SMILES IDX 35 67 43 68 36 69 37 70 41 71 44 72 38 73 39 74 42 75 40 76
REMARK SMILES IDX 66 77 67 78 75 79 68 80 69 81 73 82 76 83 70 84 71 85 74 86
REMARK SMILES IDX 72 87 51 88 52 89 60 90 53 91 54 92 58 93 61 94 55 95 56 96
REMARK SMILES IDX 59 97 57 98
REMARK H PARENT 90 20 81 51 49 62
REMARK Flexibility Score: inf
ROOT
ATOM      1  C   UNL A   1      35.858  22.048  25.078  1.00  0.00     0.188 C 
ENDROOT
BRANCH   1   2
ATOM      2  O   UNL A   1      34.636  21.920  24.352  1.00  0.00    -0.376 OA
BRANCH   2   3
ATOM      3  C   UNL A   1      33.596  21.121  24.921  1.00  0.00     0.202 C 
BRANCH   3   4
ATOM      4  C   UNL A   1      32.705  21.781  25.985  1.00  0.00     0.261 C 
BRANCH   4   5
ATOM      5  O   UNL A   1      32.639  23.208  25.753  1.00  0.00    -0.463 OA
BRANCH   5   6
ATOM      6  C   UNL A   1      31.418  23.736  25.515  1.00  0.00     0.305 C 
ATOM      7  O   UNL A   1      30.749  24.315  26.363  1.00  0.00    -0.252 OA
BRANCH   6   8
ATOM      8  C   UNL A   1      31.030  23.700  24.045  1.00  0.00     0.123 C 
BRANCH   8   9
ATOM      9  C   UNL A   1      30.508  24.955  23.310  1.00  0.00     0.016 C 
BRANCH   9  10
ATOM     10  C   UNL A   1      31.234  26.319  23.479  1.00  0.00     0.000 C 
BRANCH  10  11
ATOM     11  C   UNL A   1      32.689  26.422  22.822  1.00  0.00    -0.035 C 
ATOM     12  C   UNL A   1      33.064  27.860  22.393  1.00  0.00     0.011 C 
ATOM     13  C   UNL A   1      32.882  25.537  21.580  1.00  0.00     0.011 C 
ATOM     14  C   UNL A   1      33.730  25.953  23.866  1.00  0.00     0.011 C 
ENDBRANCH  10  11
BRANCH  10  15
ATOM     15  C   UNL A   1      30.339  27.507  22.944  1.00  0.00     0.065 C 
BRANCH  15  16
ATOM     16  C   UNL A   1      30.096  28.784  23.771  1.00  0.00     0.262 C 
BRANCH  16  17
ATOM     17  N   UNL A   1      29.988  30.085  23.128  1.00  0.00    -0.331 N 
ATOM     18  C   UNL A   1      29.341  31.165  23.874  1.00  0.00     0.291 C 
ATOM     19  C   UNL A   1      29.619  30.121  21.724  1.00  0.00     0.291 C 
ATOM     20  H   UNL A   1      30.986  30.293  23.153  1.00  0.00     0.348 HD
ATOM     21  C   UNL A   1      27.872  31.430  23.503  1.00  0.00     0.221 C 
ATOM     22  C   UNL A   1      28.135  30.359  21.443  1.00  0.00     0.221 C 
ATOM     23  O   UNL A   1      27.693  31.557  22.085  1.00  0.00    -0.370 OA
ENDBRANCH  16  17
ENDBRANCH  15  16
ENDBRANCH  10  15
ENDBRANCH   9  10
ENDBRANCH   8   9
ENDBRANCH   6   8
ENDBRANCH   5   6
ENDBRANCH   4   5
ENDBRANCH   3   4
ENDBRANCH   2   3
ENDBRANCH   1   2
BRANCH   1  24
ATOM     24  C   UNL A   1      36.755  20.808  25.124  1.00  0.00     0.188 C 
BRANCH  24  25
ATOM     25  O   UNL A   1      38.107  21.034  24.795  1.00  0.00    -0.377 OA
BRANCH  25  26
ATOM     26  C   UNL A   1      38.955  21.489  25.833  1.00  0.00     0.188 C 
BRANCH  26  27
ATOM     27  C   UNL A   1      40.027  20.443  26.177  1.00  0.00     0.188 C 
BRANCH  27  28
ATOM     28  O   UNL A   1      41.416  20.685  25.949  1.00  0.00    -0.376 OA
BRANCH  28  29
ATOM     29  C   UNL A   1      42.146  21.515  26.839  1.00  0.00     0.202 C 
BRANCH  29  30
ATOM     30  C   UNL A   1      43.396  22.135  26.193  1.00  0.00     0.261 C 
BRANCH  30  31
ATOM     31  O   UNL A   1      43.729  23.456  26.656  1.00  0.00    -0.460 OA
BRANCH  31  32
ATOM     32  C   UNL A   1      43.342  24.456  25.827  1.00  0.00     0.338 C 
ATOM     33  O   UNL A   1      43.525  24.546  24.627  1.00  0.00    -0.246 OA
BRANCH  32  34
ATOM     34  C   UNL A   1      42.614  25.497  26.577  1.00  0.00     0.060 A 
ATOM     35  C   UNL A   1      43.206  26.757  26.708  1.00  0.00     0.016 A 
ATOM     36  C   UNL A   1      41.472  25.167  27.312  1.00  0.00     0.016 A 
ATOM     37  C   UNL A   1      42.698  27.672  27.630  1.00  0.00     0.010 A 
ATOM     38  C   UNL A   1      40.969  26.082  28.246  1.00  0.00     0.010 A 
ATOM     39  C   UNL A   1      41.615  27.315  28.446  1.00  0.00    -0.014 A 
BRANCH  39  40
ATOM     40  C   UNL A   1      41.322  28.136  29.650  1.00  0.00     0.031 A 
ATOM     41  C   UNL A   1      40.151  29.079  29.609  1.00  0.00     0.074 A 
ATOM     42  C   UNL A   1      42.036  28.003  30.780  1.00  0.00     0.049 A 
ATOM     43  N   UNL A   1      39.691  29.876  30.540  1.00  0.00    -0.248 NA
ATOM     44  C   UNL A   1      39.388  29.123  28.352  1.00  0.00     0.031 C 
ATOM     45  C   UNL A   1      43.144  27.073  30.967  1.00  0.00     0.029 A 
ATOM     46  N   UNL A   1      41.930  28.645  31.988  1.00  0.00    -0.354 N 
ATOM     47  C   UNL A   1      38.586  30.508  29.984  1.00  0.00     0.074 A 
ATOM     48  C   UNL A   1      38.464  30.031  28.624  1.00  0.00     0.031 C 
ATOM     49  C   UNL A   1      43.631  27.213  32.212  1.00  0.00     0.029 A 
ATOM     50  C   UNL A   1      42.875  28.254  32.904  1.00  0.00     0.049 A 
ATOM     51  H   UNL A   1      41.242  29.324  32.179  1.00  0.00     0.167 HD
ATOM     52  C   UNL A   1      37.741  31.396  30.560  1.00  0.00     0.037 A 
ATOM     53  C   UNL A   1      43.103  28.691  34.156  1.00  0.00     0.037 A 
ATOM     54  C   UNL A   1      37.862  31.871  31.912  1.00  0.00     0.049 A 
ATOM     55  C   UNL A   1      42.202  29.745  34.744  1.00  0.00     0.074 A 
ATOM     56  C   UNL A   1      37.052  32.765  32.591  1.00  0.00     0.029 A 
ATOM     57  N   UNL A   1      38.867  31.493  32.791  1.00  0.00    -0.354 N 
ATOM     58  N   UNL A   1      41.148  30.321  34.219  1.00  0.00    -0.248 NA
ATOM     59  C   UNL A   1      42.518  30.202  36.105  1.00  0.00     0.031 C 
ATOM     60  C   UNL A   1      37.594  32.964  33.865  1.00  0.00     0.029 A 
ATOM     61  C   UNL A   1      38.713  32.157  33.998  1.00  0.00     0.049 A 
ATOM     62  H   UNL A   1      39.582  30.849  32.588  1.00  0.00     0.167 HD
ATOM     63  C   UNL A   1      40.656  31.180  35.192  1.00  0.00     0.074 A 
ATOM     64  C   UNL A   1      41.523  31.045  36.344  1.00  0.00     0.031 C 
ATOM     65  C   UNL A   1      39.581  32.003  35.138  1.00  0.00     0.037 A 
BRANCH  52  66
ATOM     66  C   UNL A   1      36.627  31.934  29.710  1.00  0.00     0.064 A 
ATOM     67  C   UNL A   1      35.572  31.118  29.276  1.00  0.00     0.173 A 
ATOM     68  C   UNL A   1      36.610  33.286  29.338  1.00  0.00     0.173 A 
ATOM     69  F   UNL A   1      35.551  29.814  29.591  1.00  0.00    -0.203 F 
ATOM     70  C   UNL A   1      34.553  31.632  28.476  1.00  0.00     0.198 A 
ATOM     71  C   UNL A   1      35.576  33.801  28.562  1.00  0.00     0.198 A 
ATOM     72  F   UNL A   1      37.594  34.108  29.730  1.00  0.00    -0.203 F 
ATOM     73  F   UNL A   1      33.579  30.824  28.032  1.00  0.00    -0.200 F 
ATOM     74  C   UNL A   1      34.554  32.973  28.124  1.00  0.00     0.200 A 
ATOM     75  F   UNL A   1      35.573  35.100  28.230  1.00  0.00    -0.200 F 
ATOM     76  F   UNL A   1      33.572  33.466  27.356  1.00  0.00    -0.200 F 
ENDBRANCH  52  66
BRANCH  53  77
ATOM     77  C   UNL A   1      44.232  28.131  34.945  1.00  0.00     0.064 A 
ATOM     78  C   UNL A   1      45.437  28.833  35.086  1.00  0.00     0.173 A 
ATOM     79  C   UNL A   1      44.134  26.873  35.559  1.00  0.00     0.173 A 
ATOM     80  F   UNL A   1      45.587  30.029  34.496  1.00  0.00    -0.203 F 
ATOM     81  C   UNL A   1      46.508  28.291  35.793  1.00  0.00     0.198 A 
ATOM     82  C   UNL A   1      45.196  26.343  36.286  1.00  0.00     0.198 A 
ATOM     83  F   UNL A   1      43.003  26.160  35.452  1.00  0.00    -0.203 F 
ATOM     84  F   UNL A   1      47.664  28.962  35.872  1.00  0.00    -0.200 F 
ATOM     85  C   UNL A   1      46.385  27.048  36.397  1.00  0.00     0.200 A 
ATOM     86  F   UNL A   1      45.070  25.145  36.874  1.00  0.00    -0.200 F 
ATOM     87  F   UNL A   1      47.415  26.526  37.074  1.00  0.00    -0.200 F 
ENDBRANCH  53  77
BRANCH  65  88
ATOM     88  C   UNL A   1      39.257  32.793  36.373  1.00  0.00     0.064 A 
ATOM     89  C   UNL A   1      39.773  34.080  36.580  1.00  0.00     0.173 A 
ATOM     90  C   UNL A   1      38.392  32.267  37.343  1.00  0.00     0.173 A 
ATOM     91  F   UNL A   1      40.617  34.621  35.689  1.00  0.00    -0.203 F 
ATOM     92  C   UNL A   1      39.457  34.801  37.729  1.00  0.00     0.198 A 
ATOM     93  C   UNL A   1      38.053  33.002  38.476  1.00  0.00     0.198 A 
ATOM     94  F   UNL A   1      37.865  31.042  37.189  1.00  0.00    -0.203 F 
ATOM     95  F   UNL A   1      40.000  36.010  37.931  1.00  0.00    -0.200 F 
ATOM     96  C   UNL A   1      38.592  34.264  38.672  1.00  0.00     0.200 A 
ATOM     97  F   UNL A   1      37.208  32.487  39.380  1.00  0.00    -0.200 F 
ATOM     98  F   UNL A   1      38.284  34.962  39.774  1.00  0.00    -0.200 F 
ENDBRANCH  65  88
ENDBRANCH  39  40
ENDBRANCH  32  34
ENDBRANCH  31  32
ENDBRANCH  30  31
ENDBRANCH  29  30
ENDBRANCH  28  29
ENDBRANCH  27  28
ENDBRANCH  26  27
ENDBRANCH  25  26
ENDBRANCH  24  25
ENDBRANCH   1  24
TORSDOF 26
ENDMDL
MODEL 3
REMARK VINA RESULT:      -9.0      4.735     10.656
REMARK SMILES CC(C)(C)[C@H](CCC(=O)OCCOCCOCCOCCOC(=O)c1ccc(-c2c3nc(c(-c4c(F)c(F)c(F)c(F)c4F)c4ccc([nH]4)c(-c4c(F)c(F)c(F)c(F)c4F)c4nc(c(-c5c(F)c(F)c(F)c(F)c5F)c5ccc2[nH]5)C=C4)C=C3)cc1)CC[NH+]1CCOCC1
REMARK SMILES IDX 14 1 13 2 12 3 11 4 10 5 8 6 9 7 7 8 6 9 5 10 2 11 1 12 3 13
REMARK SMILES IDX 4 14 88 15 89 16 90 17 91 18 95 19 92 21 94 22 93 23 15 24
REMARK SMILES IDX 16 25 17 26 18 27 19 28 20 29 21 30 22 31 23 32 24 33 25 34
REMARK SMILES IDX 26 35 87 36 27 37 86 38 28 39 29 40 30 41 80 42 31 43 85 44
REMARK SMILES IDX 79 45 81 46 32 47 84 48 78 49 77 50 33 52 65 53 45 54 64 55
REMARK SMILES IDX 46 56 49 57 63 58 82 59 47 60 48 61 62 63 83 64 50 65 34 66
REMARK SMILES IDX 35 67 43 68 36 69 37 70 41 71 44 72 38 73 39 74 42 75 40 76
REMARK SMILES IDX 66 77 67 78 75 79 68 80 69 81 73 82 76 83 70 84 71 85 74 86
REMARK SMILES IDX 72 87 51 88 52 89 60 90 53 91 54 92 58 93 61 94 55 95 56 96
REMARK SMILES IDX 59 97 57 98
REMARK H PARENT 90 20 81 51 49 62
REMARK Flexibility Score: inf
ROOT
ATOM      1  C   UNL A   1      34.862  24.840  25.440  1.00  0.00     0.188 C 
ENDROOT
BRANCH   1   2
ATOM      2  O   UNL A   1      33.951  24.870  24.342  1.00  0.00    -0.376 OA
BRANCH   2   3
ATOM      3  C   UNL A   1      34.330  25.602  23.174  1.00  0.00     0.202 C 
BRANCH   3   4
ATOM      4  C   UNL A   1      33.644  26.957  22.940  1.00  0.00     0.261 C 
BRANCH   4   5
ATOM      5  O   UNL A   1      33.473  27.644  24.202  1.00  0.00    -0.463 OA
BRANCH   5   6
ATOM      6  C   UNL A   1      32.561  28.641  24.241  1.00  0.00     0.305 C 
ATOM      7  O   UNL A   1      32.170  29.167  25.276  1.00  0.00    -0.252 OA
BRANCH   6   8
ATOM      8  C   UNL A   1      32.201  29.170  22.861  1.00  0.00     0.123 C 
BRANCH   8   9
ATOM      9  C   UNL A   1      30.768  29.050  22.293  1.00  0.00     0.016 C 
BRANCH   9  10
ATOM     10  C   UNL A   1      29.544  29.062  23.250  1.00  0.00     0.000 C 
BRANCH  10  11
ATOM     11  C   UNL A   1      28.461  30.209  22.985  1.00  0.00    -0.035 C 
ATOM     12  C   UNL A   1      28.763  31.522  23.747  1.00  0.00     0.011 C 
ATOM     13  C   UNL A   1      27.023  29.816  23.360  1.00  0.00     0.011 C 
ATOM     14  C   UNL A   1      28.452  30.532  21.472  1.00  0.00     0.011 C 
ENDBRANCH  10  11
BRANCH  10  15
ATOM     15  C   UNL A   1      28.818  27.658  23.259  1.00  0.00     0.065 C 
BRANCH  15  16
ATOM     16  C   UNL A   1      29.158  26.569  24.295  1.00  0.00     0.262 C 
BRANCH  16  17
ATOM     17  N   UNL A   1      30.466  25.933  24.313  1.00  0.00    -0.331 N 
ATOM     18  C   UNL A   1      30.803  25.030  23.213  1.00  0.00     0.291 C 
ATOM     19  C   UNL A   1      30.957  25.422  25.581  1.00  0.00     0.291 C 
ATOM     20  H   UNL A   1      30.997  26.787  24.141  1.00  0.00     0.348 HD
ATOM     21  C   UNL A   1      30.638  23.531  23.519  1.00  0.00     0.221 C 
ATOM     22  C   UNL A   1      30.726  23.929  25.819  1.00  0.00     0.221 C 
ATOM     23  O   UNL A   1      31.279  23.163  24.748  1.00  0.00    -0.370 OA
ENDBRANCH  16  17
ENDBRANCH  15  16
ENDBRANCH  10  15
ENDBRANCH   9  10
ENDBRANCH   8   9
ENDBRANCH   6   8
ENDBRANCH   5   6
ENDBRANCH   4   5
ENDBRANCH   3   4
ENDBRANCH   2   3
ENDBRANCH   1   2
BRANCH   1  24
ATOM     24  C   UNL A   1      35.198  23.459  26.008  1.00  0.00     0.188 C 
BRANCH  24  25
ATOM     25  O   UNL A   1      34.540  22.378  25.386  1.00  0.00    -0.377 OA
BRANCH  25  26
ATOM     26  C   UNL A   1      35.307  21.213  25.142  1.00  0.00     0.188 C 
BRANCH  26  27
ATOM     27  C   UNL A   1      36.799  21.460  25.413  1.00  0.00     0.188 C 
BRANCH  27  28
ATOM     28  O   UNL A   1      37.820  20.738  24.722  1.00  0.00    -0.376 OA
BRANCH  28  29
ATOM     29  C   UNL A   1      37.945  19.337  24.906  1.00  0.00     0.202 C 
BRANCH  29  30
ATOM     30  C   UNL A   1      39.209  18.944  25.688  1.00  0.00     0.261 C 
BRANCH  30  31
ATOM     31  O   UNL A   1      40.163  20.005  25.873  1.00  0.00    -0.460 OA
BRANCH  31  32
ATOM     32  C   UNL A   1      41.435  19.585  26.086  1.00  0.00     0.338 C 
ATOM     33  O   UNL A   1      41.870  18.451  26.015  1.00  0.00    -0.246 OA
BRANCH  32  34
ATOM     34  C   UNL A   1      42.305  20.725  26.430  1.00  0.00     0.060 A 
ATOM     35  C   UNL A   1      42.401  21.107  27.772  1.00  0.00     0.016 A 
ATOM     36  C   UNL A   1      42.844  21.529  25.422  1.00  0.00     0.016 A 
ATOM     37  C   UNL A   1      42.978  22.331  28.108  1.00  0.00     0.010 A 
ATOM     38  C   UNL A   1      43.412  22.765  25.758  1.00  0.00     0.010 A 
ATOM     39  C   UNL A   1      43.430  23.193  27.098  1.00  0.00    -0.014 A 
BRANCH  39  40
ATOM     40  C   UNL A   1      43.697  24.615  27.433  1.00  0.00     0.031 A 
ATOM     41  C   UNL A   1      45.092  25.148  27.250  1.00  0.00     0.074 A 
ATOM     42  C   UNL A   1      42.713  25.439  27.831  1.00  0.00     0.049 A 
ATOM     43  N   UNL A   1      45.557  26.354  27.455  1.00  0.00    -0.248 NA
ATOM     44  C   UNL A   1      46.098  24.193  26.758  1.00  0.00     0.031 C 
ATOM     45  C   UNL A   1      41.312  25.062  27.976  1.00  0.00     0.029 A 
ATOM     46  N   UNL A   1      42.741  26.767  28.177  1.00  0.00    -0.354 N 
ATOM     47  C   UNL A   1      46.902  26.304  27.113  1.00  0.00     0.074 A 
ATOM     48  C   UNL A   1      47.190  24.941  26.721  1.00  0.00     0.031 C 
ATOM     49  C   UNL A   1      40.610  26.128  28.398  1.00  0.00     0.029 A 
ATOM     50  C   UNL A   1      41.519  27.259  28.564  1.00  0.00     0.049 A 
ATOM     51  H   UNL A   1      43.559  27.314  28.151  1.00  0.00     0.167 HD
ATOM     52  C   UNL A   1      47.813  27.305  27.113  1.00  0.00     0.037 A 
ATOM     53  C   UNL A   1      41.177  28.484  29.006  1.00  0.00     0.037 A 
ATOM     54  C   UNL A   1      47.528  28.661  27.503  1.00  0.00     0.049 A 
ATOM     55  C   UNL A   1      42.229  29.560  29.081  1.00  0.00     0.074 A 
ATOM     56  C   UNL A   1      48.380  29.751  27.529  1.00  0.00     0.029 A 
ATOM     57  N   UNL A   1      46.290  29.108  27.943  1.00  0.00    -0.354 N 
ATOM     58  N   UNL A   1      43.493  29.508  28.736  1.00  0.00    -0.248 NA
ATOM     59  C   UNL A   1      41.802  30.868  29.598  1.00  0.00     0.031 C 
ATOM     60  C   UNL A   1      47.670  30.848  28.030  1.00  0.00     0.029 A 
ATOM     61  C   UNL A   1      46.364  30.453  28.270  1.00  0.00     0.049 A 
ATOM     62  H   UNL A   1      45.481  28.553  28.012  1.00  0.00     0.167 HD
ATOM     63  C   UNL A   1      44.003  30.780  28.961  1.00  0.00     0.074 A 
ATOM     64  C   UNL A   1      42.910  31.585  29.465  1.00  0.00     0.031 C 
ATOM     65  C   UNL A   1      45.262  31.241  28.762  1.00  0.00     0.037 A 
BRANCH  52  66
ATOM     66  C   UNL A   1      49.215  26.960  26.704  1.00  0.00     0.064 A 
ATOM     67  C   UNL A   1      50.179  26.559  27.641  1.00  0.00     0.173 A 
ATOM     68  C   UNL A   1      49.594  27.018  25.355  1.00  0.00     0.173 A 
ATOM     69  F   UNL A   1      49.871  26.503  28.945  1.00  0.00    -0.203 F 
ATOM     70  C   UNL A   1      51.479  26.255  27.244  1.00  0.00     0.198 A 
ATOM     71  C   UNL A   1      50.887  26.688  24.959  1.00  0.00     0.198 A 
ATOM     72  F   UNL A   1      48.708  27.393  24.419  1.00  0.00    -0.203 F 
ATOM     73  F   UNL A   1      52.398  25.921  28.162  1.00  0.00    -0.200 F 
ATOM     74  C   UNL A   1      51.830  26.315  25.904  1.00  0.00     0.200 A 
ATOM     75  F   UNL A   1      51.222  26.737  23.662  1.00  0.00    -0.200 F 
ATOM     76  F   UNL A   1      53.081  26.021  25.524  1.00  0.00    -0.200 F 
ENDBRANCH  52  66
BRANCH  53  77
ATOM     77  C   UNL A   1      39.775  28.764  29.411  1.00  0.00     0.064 A 
ATOM     78  C   UNL A   1      39.331  28.503  30.715  1.00  0.00     0.173 A 
ATOM     79  C   UNL A   1      38.846  29.281  28.496  1.00  0.00     0.173 A 
ATOM     80  F   UNL A   1      40.176  27.985  31.619  1.00  0.00    -0.203 F 
ATOM     81  C   UNL A   1      38.006  28.731  31.083  1.00  0.00     0.198 A 
ATOM     82  C   UNL A   1      37.528  29.531  28.871  1.00  0.00     0.198 A 
ATOM     83  F   UNL A   1      39.221  29.545  27.236  1.00  0.00    -0.203 F 
ATOM     84  F   UNL A   1      37.596  28.428  32.322  1.00  0.00    -0.200 F 
ATOM     85  C   UNL A   1      37.107  29.248  30.162  1.00  0.00     0.200 A 
ATOM     86  F   UNL A   1      36.665  30.037  27.980  1.00  0.00    -0.200 F 
ATOM     87  F   UNL A   1      35.833  29.464  30.515  1.00  0.00    -0.200 F 
ENDBRANCH  53  77
BRANCH  65  88
ATOM     88  C   UNL A   1      45.517  32.691  29.054  1.00  0.00     0.064 A 
ATOM     89  C   UNL A   1      45.300  33.685  28.089  1.00  0.00     0.173 A 
ATOM     90  C   UNL A   1      45.954  33.092  30.325  1.00  0.00     0.173 A 
ATOM     91  F   UNL A   1      44.897  33.351  26.854  1.00  0.00    -0.203 F 
ATOM     92  C   UNL A   1      45.535  35.027  28.379  1.00  0.00     0.198 A 
ATOM     93  C   UNL A   1      46.160  34.437  30.621  1.00  0.00     0.198 A 
ATOM     94  F   UNL A   1      46.171  32.180  31.285  1.00  0.00    -0.203 F 
ATOM     95  F   UNL A   1      45.367  35.956  27.428  1.00  0.00    -0.200 F 
ATOM     96  C   UNL A   1      45.959  35.402  29.646  1.00  0.00     0.200 A 
ATOM     97  F   UNL A   1      46.558  34.798  31.848  1.00  0.00    -0.200 F 
ATOM     98  F   UNL A   1      46.180  36.694  29.925  1.00  0.00    -0.200 F 
ENDBRANCH  65  88
ENDBRANCH  39  40
ENDBRANCH  32  34
ENDBRANCH  31  32
ENDBRANCH  30  31
ENDBRANCH  29  30
ENDBRANCH  28  29
ENDBRANCH  27  28
ENDBRANCH  26  27
ENDBRANCH  25  26
ENDBRANCH  24  25
ENDBRANCH   1  24
TORSDOF 26
ENDMDL
