MODEL 1
REMARK VINA RESULT:     -10.7      0.000      0.000
REMARK SMILES Cc1cc(Br)cc2c1O[C@H](C(F)(F)F)C(C(=O)OCCOCCOCCOCCOC(=O)c1ccc(-c3c4nc(c(-c5c(F)c(F)c(F)c(F)c5F)c5ccc([nH]5)c(-c5c(F)c(F)c(F)c(F)c5F)c5nc(c(-c6c(F)c(F)c(F)c(F)c6F)c6ccc3[nH]6)C=C5)C=C4)cc1)=C2
REMARK SMILES IDX 25 1 24 2 23 3 22 4 21 5 20 6 19 7 18 8 16 9 17 10 15 11
REMARK SMILES IDX 1 12 2 13 3 14 8 15 4 16 7 17 9 18 5 19 6 20 96 21 10 22
REMARK SMILES IDX 11 23 12 24 13 25 14 26 26 27 27 28 28 29 29 30 30 31 31 32
REMARK SMILES IDX 32 33 33 34 34 35 95 36 35 37 94 38 36 39 37 40 38 41 88 42
REMARK SMILES IDX 39 43 93 44 87 45 89 46 40 47 92 48 86 49 85 50 41 52 73 53
REMARK SMILES IDX 53 54 72 55 54 56 57 57 71 58 90 59 55 60 56 61 70 63 91 64
REMARK SMILES IDX 58 65 42 66 43 67 51 68 44 69 45 70 49 71 52 72 46 73 47 74
REMARK SMILES IDX 50 75 48 76 74 77 75 78 83 79 76 80 77 81 81 82 84 83 78 84
REMARK SMILES IDX 79 85 82 86 80 87 59 88 60 89 68 90 61 91 62 92 66 93 69 94
REMARK SMILES IDX 63 95 64 96 67 97 65 98
REMARK H PARENT 89 51 57 62
REMARK Flexibility Score: inf
ROOT
ATOM      1  C   UNL A   1      36.867  23.707  25.255  1.00  0.00     0.188 C 
ENDROOT
BRANCH   1   2
ATOM      2  O   UNL A   1      36.582  23.308  23.912  1.00  0.00    -0.377 OA
BRANCH   2   3
ATOM      3  C   UNL A   1      35.361  22.629  23.661  1.00  0.00     0.188 C 
BRANCH   3   4
ATOM      4  C   UNL A   1      34.977  21.622  24.762  1.00  0.00     0.188 C 
BRANCH   4   5
ATOM      5  O   UNL A   1      33.620  21.216  24.683  1.00  0.00    -0.376 OA
BRANCH   5   6
ATOM      6  C   UNL A   1      32.976  21.131  23.423  1.00  0.00     0.202 C 
BRANCH   6   7
ATOM      7  C   UNL A   1      31.657  21.870  23.137  1.00  0.00     0.261 C 
BRANCH   7   8
ATOM      8  O   UNL A   1      31.611  23.261  23.468  1.00  0.00    -0.460 OA
BRANCH   8   9
ATOM      9  C   UNL A   1      31.070  23.608  24.650  1.00  0.00     0.338 C 
ATOM     10  O   UNL A   1      30.795  22.862  25.572  1.00  0.00    -0.246 OA
BRANCH   9  11
ATOM     11  C   UNL A   1      31.023  25.086  24.707  1.00  0.00     0.087 C 
ATOM     12  C   UNL A   1      32.045  30.081  25.416  1.00  0.00     0.048 C 
ATOM     13  C   UNL A   1      31.029  29.267  24.663  1.00  0.00    -0.007 A 
ATOM     14  C   UNL A   1      30.141  29.936  23.804  1.00  0.00     0.023 A 
ATOM     15  C   UNL A   1      30.972  27.866  24.748  1.00  0.00     0.130 A 
ATOM     16  C   UNL A   1      29.210  29.217  23.056  1.00  0.00     0.019 A 
ATOM     17  C   UNL A   1      30.074  27.148  23.949  1.00  0.00     0.019 A 
ATOM     18  O   UNL A   1      31.835  27.263  25.617  1.00  0.00    -0.475 OA
ATOM     19  Br  UNL A   1      28.028  30.133  21.900  1.00  0.00    -0.051 Br
ATOM     20  C   UNL A   1      29.170  27.827  23.126  1.00  0.00     0.027 A 
ATOM     21  C   UNL A   1      30.134  25.696  23.915  1.00  0.00     0.027 C 
ATOM     22  C   UNL A   1      31.897  25.814  25.694  1.00  0.00     0.316 C 
BRANCH  22  23
ATOM     23  C   UNL A   1      33.374  25.411  25.581  1.00  0.00     0.430 C 
ATOM     24  F   UNL A   1      34.184  26.352  26.126  1.00  0.00    -0.167 F 
ATOM     25  F   UNL A   1      33.640  24.253  26.229  1.00  0.00    -0.167 F 
ATOM     26  F   UNL A   1      33.751  25.250  24.292  1.00  0.00    -0.167 F 
ENDBRANCH  22  23
ENDBRANCH   9  11
ENDBRANCH   8   9
ENDBRANCH   7   8
ENDBRANCH   6   7
ENDBRANCH   5   6
ENDBRANCH   4   5
ENDBRANCH   3   4
ENDBRANCH   2   3
ENDBRANCH   1   2
BRANCH   1  27
ATOM     27  C   UNL A   1      38.031  23.100  26.078  1.00  0.00     0.188 C 
BRANCH  27  28
ATOM     28  O   UNL A   1      38.452  21.815  25.643  1.00  0.00    -0.376 OA
BRANCH  28  29
ATOM     29  C   UNL A   1      39.653  21.293  26.186  1.00  0.00     0.202 C 
BRANCH  29  30
ATOM     30  C   UNL A   1      39.824  19.774  26.066  1.00  0.00     0.261 C 
BRANCH  30  31
ATOM     31  O   UNL A   1      41.007  19.338  25.376  1.00  0.00    -0.460 OA
BRANCH  31  32
ATOM     32  C   UNL A   1      42.115  19.134  26.117  1.00  0.00     0.338 C 
ATOM     33  O   UNL A   1      42.635  18.066  26.396  1.00  0.00    -0.246 OA
BRANCH  32  34
ATOM     34  C   UNL A   1      42.724  20.453  26.378  1.00  0.00     0.060 A 
ATOM     35  C   UNL A   1      42.719  20.960  27.685  1.00  0.00     0.016 A 
ATOM     36  C   UNL A   1      43.302  21.182  25.336  1.00  0.00     0.016 A 
ATOM     37  C   UNL A   1      43.257  22.218  27.947  1.00  0.00     0.010 A 
ATOM     38  C   UNL A   1      43.812  22.456  25.592  1.00  0.00     0.010 A 
ATOM     39  C   UNL A   1      43.753  22.994  26.891  1.00  0.00    -0.014 A 
BRANCH  39  40
ATOM     40  C   UNL A   1      43.949  24.450  27.087  1.00  0.00     0.031 A 
ATOM     41  C   UNL A   1      45.318  25.010  26.812  1.00  0.00     0.074 A 
ATOM     42  C   UNL A   1      42.946  25.262  27.465  1.00  0.00     0.049 A 
ATOM     43  N   UNL A   1      45.770  26.225  26.973  1.00  0.00    -0.248 NA
ATOM     44  C   UNL A   1      46.312  24.062  26.279  1.00  0.00     0.031 C 
ATOM     45  C   UNL A   1      41.564  24.851  27.692  1.00  0.00     0.029 A 
ATOM     46  N   UNL A   1      42.948  26.609  27.727  1.00  0.00    -0.354 N 
ATOM     47  C   UNL A   1      47.097  26.187  26.563  1.00  0.00     0.074 A 
ATOM     48  C   UNL A   1      47.389  24.826  26.177  1.00  0.00     0.031 C 
ATOM     49  C   UNL A   1      40.848  25.927  28.068  1.00  0.00     0.029 A 
ATOM     50  C   UNL A   1      41.732  27.091  28.145  1.00  0.00     0.049 A 
ATOM     51  H   UNL A   1      43.746  27.177  27.624  1.00  0.00     0.167 HD
ATOM     52  C   UNL A   1      47.989  27.201  26.503  1.00  0.00     0.037 A 
ATOM     53  C   UNL A   1      41.387  28.324  28.564  1.00  0.00     0.037 A 
ATOM     54  C   UNL A   1      47.699  28.554  26.893  1.00  0.00     0.049 A 
ATOM     55  C   UNL A   1      42.430  29.414  28.594  1.00  0.00     0.074 A 
ATOM     56  C   UNL A   1      48.537  29.653  26.877  1.00  0.00     0.029 A 
ATOM     57  N   UNL A   1      46.473  28.989  27.375  1.00  0.00    -0.354 N 
ATOM     58  N   UNL A   1      43.683  29.375  28.209  1.00  0.00    -0.248 NA
ATOM     59  C   UNL A   1      42.012  30.721  29.125  1.00  0.00     0.031 C 
ATOM     60  C   UNL A   1      47.835  30.742  27.400  1.00  0.00     0.029 A 
ATOM     61  C   UNL A   1      46.542  30.335  27.688  1.00  0.00     0.049 A 
ATOM     62  H   UNL A   1      45.674  28.424  27.479  1.00  0.00     0.167 HD
ATOM     63  C   UNL A   1      44.195  30.649  28.430  1.00  0.00     0.074 A 
ATOM     64  C   UNL A   1      43.110  31.446  28.962  1.00  0.00     0.031 C 
ATOM     65  C   UNL A   1      45.451  31.115  28.217  1.00  0.00     0.037 A 
BRANCH  52  66
ATOM     66  C   UNL A   1      49.371  26.883  26.017  1.00  0.00     0.064 A 
ATOM     67  C   UNL A   1      49.728  27.033  24.668  1.00  0.00     0.173 A 
ATOM     68  C   UNL A   1      50.363  26.469  26.916  1.00  0.00     0.173 A 
ATOM     69  F   UNL A   1      48.810  27.405  23.764  1.00  0.00    -0.203 F 
ATOM     70  C   UNL A   1      51.025  26.768  24.237  1.00  0.00     0.198 A 
ATOM     71  C   UNL A   1      51.666  26.234  26.488  1.00  0.00     0.198 A 
ATOM     72  F   UNL A   1      50.072  26.307  28.216  1.00  0.00    -0.203 F 
ATOM     73  F   UNL A   1      51.334  26.881  22.938  1.00  0.00    -0.200 F 
ATOM     74  C   UNL A   1      51.995  26.380  25.149  1.00  0.00     0.200 A 
ATOM     75  F   UNL A   1      52.605  25.869  27.372  1.00  0.00    -0.200 F 
ATOM     76  F   UNL A   1      53.247  26.142  24.736  1.00  0.00    -0.200 F 
ENDBRANCH  52  66
BRANCH  53  77
ATOM     77  C   UNL A   1      39.993  28.599  29.004  1.00  0.00     0.064 A 
ATOM     78  C   UNL A   1      39.593  28.362  30.326  1.00  0.00     0.173 A 
ATOM     79  C   UNL A   1      39.028  29.090  28.111  1.00  0.00     0.173 A 
ATOM     80  F   UNL A   1      40.468  27.862  31.210  1.00  0.00    -0.203 F 
ATOM     81  C   UNL A   1      38.281  28.595  30.736  1.00  0.00     0.198 A 
ATOM     82  C   UNL A   1      37.724  29.351  28.529  1.00  0.00     0.198 A 
ATOM     83  F   UNL A   1      39.355  29.326  26.832  1.00  0.00    -0.203 F 
ATOM     84  F   UNL A   1      37.915  28.318  31.995  1.00  0.00    -0.200 F 
ATOM     85  C   UNL A   1      37.350  29.099  29.839  1.00  0.00     0.200 A 
ATOM     86  F   UNL A   1      36.831  29.846  27.661  1.00  0.00    -0.200 F 
ATOM     87  F   UNL A   1      36.091  29.329  30.236  1.00  0.00    -0.200 F 
ENDBRANCH  53  77
BRANCH  65  88
ATOM     88  C   UNL A   1      45.728  32.554  28.548  1.00  0.00     0.064 A 
ATOM     89  C   UNL A   1      46.157  32.943  29.825  1.00  0.00     0.173 A 
ATOM     90  C   UNL A   1      45.634  33.545  27.558  1.00  0.00     0.173 A 
ATOM     91  F   UNL A   1      46.254  32.036  30.809  1.00  0.00    -0.203 F 
ATOM     92  C   UNL A   1      46.464  34.272  30.104  1.00  0.00     0.198 A 
ATOM     93  C   UNL A   1      45.974  34.867  27.830  1.00  0.00     0.198 A 
ATOM     94  F   UNL A   1      45.241  33.226  26.316  1.00  0.00    -0.203 F 
ATOM     95  F   UNL A   1      46.834  34.626  31.343  1.00  0.00    -0.200 F 
ATOM     96  C   UNL A   1      46.383  35.231  29.105  1.00  0.00     0.200 A 
ATOM     97  F   UNL A   1      45.915  35.788  26.859  1.00  0.00    -0.200 F 
ATOM     98  F   UNL A   1      46.695  36.506  29.371  1.00  0.00    -0.200 F 
ENDBRANCH  65  88
ENDBRANCH  39  40
ENDBRANCH  32  34
ENDBRANCH  31  32
ENDBRANCH  30  31
ENDBRANCH  29  30
ENDBRANCH  28  29
ENDBRANCH  27  28
ENDBRANCH   1  27
TORSDOF 21
ENDMDL
MODEL 2
REMARK VINA RESULT:     -10.4      5.511      9.160
REMARK SMILES Cc1cc(Br)cc2c1O[C@H](C(F)(F)F)C(C(=O)OCCOCCOCCOCCOC(=O)c1ccc(-c3c4nc(c(-c5c(F)c(F)c(F)c(F)c5F)c5ccc([nH]5)c(-c5c(F)c(F)c(F)c(F)c5F)c5nc(c(-c6c(F)c(F)c(F)c(F)c6F)c6ccc3[nH]6)C=C5)C=C4)cc1)=C2
REMARK SMILES IDX 25 1 24 2 23 3 22 4 21 5 20 6 19 7 18 8 16 9 17 10 15 11
REMARK SMILES IDX 1 12 2 13 3 14 8 15 4 16 7 17 9 18 5 19 6 20 96 21 10 22
REMARK SMILES IDX 11 23 12 24 13 25 14 26 26 27 27 28 28 29 29 30 30 31 31 32
REMARK SMILES IDX 32 33 33 34 34 35 95 36 35 37 94 38 36 39 37 40 38 41 88 42
REMARK SMILES IDX 39 43 93 44 87 45 89 46 40 47 92 48 86 49 85 50 41 52 73 53
REMARK SMILES IDX 53 54 72 55 54 56 57 57 71 58 90 59 55 60 56 61 70 63 91 64
REMARK SMILES IDX 58 65 42 66 43 67 51 68 44 69 45 70 49 71 52 72 46 73 47 74
REMARK SMILES IDX 50 75 48 76 74 77 75 78 83 79 76 80 77 81 81 82 84 83 78 84
REMARK SMILES IDX 79 85 82 86 80 87 59 88 60 89 68 90 61 91 62 92 66 93 69 94
REMARK SMILES IDX 63 95 64 96 67 97 65 98
REMARK H PARENT 89 51 57 62
REMARK Flexibility Score: inf
ROOT
ATOM      1  C   UNL A   1      43.048  21.343  25.892  1.00  0.00     0.188 C 
ENDROOT
BRANCH   1   2
ATOM      2  O   UNL A   1      41.936  20.458  25.735  1.00  0.00    -0.377 OA
BRANCH   2   3
ATOM      3  C   UNL A   1      40.921  20.476  26.726  1.00  0.00     0.188 C 
BRANCH   3   4
ATOM      4  C   UNL A   1      39.821  21.522  26.463  1.00  0.00     0.188 C 
BRANCH   4   5
ATOM      5  O   UNL A   1      39.973  22.689  27.258  1.00  0.00    -0.376 OA
BRANCH   5   6
ATOM      6  C   UNL A   1      38.968  23.689  27.248  1.00  0.00     0.202 C 
BRANCH   6   7
ATOM      7  C   UNL A   1      39.318  25.187  27.290  1.00  0.00     0.261 C 
BRANCH   7   8
ATOM      8  O   UNL A   1      39.646  25.739  28.568  1.00  0.00    -0.460 OA
BRANCH   8   9
ATOM      9  C   UNL A   1      40.897  26.198  28.752  1.00  0.00     0.338 C 
ATOM     10  O   UNL A   1      41.930  25.656  28.404  1.00  0.00    -0.246 OA
BRANCH   9  11
ATOM     11  C   UNL A   1      40.797  27.567  29.303  1.00  0.00     0.087 C 
ATOM     12  C   UNL A   1      40.449  32.661  29.965  1.00  0.00     0.048 C 
ATOM     13  C   UNL A   1      40.272  31.432  30.813  1.00  0.00    -0.007 A 
ATOM     14  C   UNL A   1      39.777  31.587  32.118  1.00  0.00     0.023 A 
ATOM     15  C   UNL A   1      40.534  30.138  30.331  1.00  0.00     0.130 A 
ATOM     16  C   UNL A   1      39.560  30.471  32.925  1.00  0.00     0.019 A 
ATOM     17  C   UNL A   1      40.258  29.020  31.127  1.00  0.00     0.019 A 
ATOM     18  O   UNL A   1      41.042  30.040  29.067  1.00  0.00    -0.475 OA
ATOM     19  Br  UNL A   1      38.886  30.698  34.676  1.00  0.00    -0.051 Br
ATOM     20  C   UNL A   1      39.799  29.189  32.437  1.00  0.00     0.027 A 
ATOM     21  C   UNL A   1      40.369  27.684  30.566  1.00  0.00     0.027 C 
ATOM     22  C   UNL A   1      41.253  28.734  28.467  1.00  0.00     0.316 C 
BRANCH  22  23
ATOM     23  C   UNL A   1      40.598  28.755  27.079  1.00  0.00     0.430 C 
ATOM     24  F   UNL A   1      40.779  27.578  26.432  1.00  0.00    -0.167 F 
ATOM     25  F   UNL A   1      39.262  28.957  27.145  1.00  0.00    -0.167 F 
ATOM     26  F   UNL A   1      41.116  29.731  26.297  1.00  0.00    -0.167 F 
ENDBRANCH  22  23
ENDBRANCH   9  11
ENDBRANCH   8   9
ENDBRANCH   7   8
ENDBRANCH   6   7
ENDBRANCH   5   6
ENDBRANCH   4   5
ENDBRANCH   3   4
ENDBRANCH   2   3
ENDBRANCH   1   2
BRANCH   1  27
ATOM     27  C   UNL A   1      43.049  22.791  25.339  1.00  0.00     0.188 C 
BRANCH  27  28
ATOM     28  O   UNL A   1      43.669  22.935  24.069  1.00  0.00    -0.376 OA
BRANCH  28  29
ATOM     29  C   UNL A   1      45.029  22.551  23.950  1.00  0.00     0.202 C 
BRANCH  29  30
ATOM     30  C   UNL A   1      46.043  23.524  24.564  1.00  0.00     0.261 C 
BRANCH  30  31
ATOM     31  O   UNL A   1      45.606  24.889  24.666  1.00  0.00    -0.460 OA
BRANCH  31  32
ATOM     32  C   UNL A   1      46.560  25.839  24.747  1.00  0.00     0.338 C 
ATOM     33  O   UNL A   1      47.567  25.941  24.066  1.00  0.00    -0.246 OA
BRANCH  32  34
ATOM     34  C   UNL A   1      46.078  26.872  25.685  1.00  0.00     0.060 A 
ATOM     35  C   UNL A   1      47.000  27.513  26.526  1.00  0.00     0.016 A 
ATOM     36  C   UNL A   1      44.724  27.210  25.729  1.00  0.00     0.016 A 
ATOM     37  C   UNL A   1      46.561  28.466  27.443  1.00  0.00     0.010 A 
ATOM     38  C   UNL A   1      44.280  28.141  26.669  1.00  0.00     0.010 A 
ATOM     39  C   UNL A   1      45.192  28.740  27.557  1.00  0.00    -0.014 A 
BRANCH  39  40
ATOM     40  C   UNL A   1      44.687  29.430  28.768  1.00  0.00     0.031 A 
ATOM     41  C   UNL A   1      44.491  30.919  28.688  1.00  0.00     0.074 A 
ATOM     42  C   UNL A   1      44.378  28.763  29.893  1.00  0.00     0.049 A 
ATOM     43  N   UNL A   1      44.132  31.765  29.618  1.00  0.00    -0.248 NA
ATOM     44  C   UNL A   1      44.734  31.537  27.373  1.00  0.00     0.031 C 
ATOM     45  C   UNL A   1      44.456  27.316  30.069  1.00  0.00     0.029 A 
ATOM     46  N   UNL A   1      43.937  29.230  31.106  1.00  0.00    -0.354 N 
ATOM     47  C   UNL A   1      44.107  33.009  29.001  1.00  0.00     0.074 A 
ATOM     48  C   UNL A   1      44.518  32.818  27.629  1.00  0.00     0.031 C 
ATOM     49  C   UNL A   1      44.082  27.011  31.325  1.00  0.00     0.029 A 
ATOM     50  C   UNL A   1      43.776  28.245  32.050  1.00  0.00     0.049 A 
ATOM     51  H   UNL A   1      43.752  30.181  31.283  1.00  0.00     0.167 HD
ATOM     52  C   UNL A   1      43.761  34.204  29.531  1.00  0.00     0.037 A 
ATOM     53  C   UNL A   1      43.443  28.340  33.352  1.00  0.00     0.037 A 
ATOM     54  C   UNL A   1      43.360  34.394  30.898  1.00  0.00     0.049 A 
ATOM     55  C   UNL A   1      43.170  29.699  33.949  1.00  0.00     0.074 A 
ATOM     56  C   UNL A   1      42.996  35.567  31.533  1.00  0.00     0.029 A 
ATOM     57  N   UNL A   1      43.273  33.381  31.841  1.00  0.00    -0.354 N 
ATOM     58  N   UNL A   1      43.150  30.873  33.366  1.00  0.00    -0.248 NA
ATOM     59  C   UNL A   1      42.880  29.746  35.391  1.00  0.00     0.031 C 
ATOM     60  C   UNL A   1      42.741  35.272  32.875  1.00  0.00     0.029 A 
ATOM     61  C   UNL A   1      42.889  33.907  33.062  1.00  0.00     0.049 A 
ATOM     62  H   UNL A   1      43.456  32.429  31.667  1.00  0.00     0.167 HD
ATOM     63  C   UNL A   1      42.827  31.792  34.358  1.00  0.00     0.074 A 
ATOM     64  C   UNL A   1      42.636  31.036  35.577  1.00  0.00     0.031 C 
ATOM     65  C   UNL A   1      42.704  33.140  34.268  1.00  0.00     0.037 A 
BRANCH  52  66
ATOM     66  C   UNL A   1      43.823  35.405  28.635  1.00  0.00     0.064 A 
ATOM     67  C   UNL A   1      42.668  35.944  28.048  1.00  0.00     0.173 A 
ATOM     68  C   UNL A   1      45.043  36.054  28.399  1.00  0.00     0.173 A 
ATOM     69  F   UNL A   1      41.479  35.347  28.225  1.00  0.00    -0.203 F 
ATOM     70  C   UNL A   1      42.735  37.080  27.247  1.00  0.00     0.198 A 
ATOM     71  C   UNL A   1      45.103  37.207  27.623  1.00  0.00     0.198 A 
ATOM     72  F   UNL A   1      46.177  35.576  28.934  1.00  0.00    -0.203 F 
ATOM     73  F   UNL A   1      41.625  37.555  26.666  1.00  0.00    -0.200 F 
ATOM     74  C   UNL A   1      43.950  37.717  27.045  1.00  0.00     0.200 A 
ATOM     75  F   UNL A   1      46.276  37.827  27.436  1.00  0.00    -0.200 F 
ATOM     76  F   UNL A   1      44.012  38.821  26.288  1.00  0.00    -0.200 F 
ENDBRANCH  52  66
BRANCH  53  77
ATOM     77  C   UNL A   1      43.361  27.115  34.192  1.00  0.00     0.064 A 
ATOM     78  C   UNL A   1      44.521  26.487  34.668  1.00  0.00     0.173 A 
ATOM     79  C   UNL A   1      42.126  26.538  34.525  1.00  0.00     0.173 A 
ATOM     80  F   UNL A   1      45.726  26.980  34.351  1.00  0.00    -0.203 F 
ATOM     81  C   UNL A   1      44.449  25.324  35.435  1.00  0.00     0.198 A 
ATOM     82  C   UNL A   1      42.054  25.393  35.316  1.00  0.00     0.198 A 
ATOM     83  F   UNL A   1      40.986  27.093  34.088  1.00  0.00    -0.203 F 
ATOM     84  F   UNL A   1      45.574  24.721  35.839  1.00  0.00    -0.200 F 
ATOM     85  C   UNL A   1      43.215  24.784  35.766  1.00  0.00     0.200 A 
ATOM     86  F   UNL A   1      40.859  24.879  35.641  1.00  0.00    -0.200 F 
ATOM     87  F   UNL A   1      43.147  23.671  36.509  1.00  0.00    -0.200 F 
ENDBRANCH  53  77
BRANCH  65  88
ATOM     88  C   UNL A   1      42.338  33.893  35.516  1.00  0.00     0.064 A 
ATOM     89  C   UNL A   1      43.313  34.310  36.433  1.00  0.00     0.173 A 
ATOM     90  C   UNL A   1      41.006  34.266  35.761  1.00  0.00     0.173 A 
ATOM     91  F   UNL A   1      44.599  33.971  36.251  1.00  0.00    -0.203 F 
ATOM     92  C   UNL A   1      42.968  35.055  37.557  1.00  0.00     0.198 A 
ATOM     93  C   UNL A   1      40.669  35.039  36.867  1.00  0.00     0.198 A 
ATOM     94  F   UNL A   1      40.035  33.904  34.909  1.00  0.00    -0.203 F 
ATOM     95  F   UNL A   1      43.913  35.408  38.441  1.00  0.00    -0.200 F 
ATOM     96  C   UNL A   1      41.649  35.428  37.768  1.00  0.00     0.200 A 
ATOM     97  F   UNL A   1      39.398  35.417  37.058  1.00  0.00    -0.200 F 
ATOM     98  F   UNL A   1      41.322  36.160  38.842  1.00  0.00    -0.200 F 
ENDBRANCH  65  88
ENDBRANCH  39  40
ENDBRANCH  32  34
ENDBRANCH  31  32
ENDBRANCH  30  31
ENDBRANCH  29  30
ENDBRANCH  28  29
ENDBRANCH  27  28
ENDBRANCH   1  27
TORSDOF 21
ENDMDL
MODEL 3
REMARK VINA RESULT:     -10.3      3.481      8.780
REMARK SMILES Cc1cc(Br)cc2c1O[C@H](C(F)(F)F)C(C(=O)OCCOCCOCCOCCOC(=O)c1ccc(-c3c4nc(c(-c5c(F)c(F)c(F)c(F)c5F)c5ccc([nH]5)c(-c5c(F)c(F)c(F)c(F)c5F)c5nc(c(-c6c(F)c(F)c(F)c(F)c6F)c6ccc3[nH]6)C=C5)C=C4)cc1)=C2
REMARK SMILES IDX 25 1 24 2 23 3 22 4 21 5 20 6 19 7 18 8 16 9 17 10 15 11
REMARK SMILES IDX 1 12 2 13 3 14 8 15 4 16 7 17 9 18 5 19 6 20 96 21 10 22
REMARK SMILES IDX 11 23 12 24 13 25 14 26 26 27 27 28 28 29 29 30 30 31 31 32
REMARK SMILES IDX 32 33 33 34 34 35 95 36 35 37 94 38 36 39 37 40 38 41 88 42
REMARK SMILES IDX 39 43 93 44 87 45 89 46 40 47 92 48 86 49 85 50 41 52 73 53
REMARK SMILES IDX 53 54 72 55 54 56 57 57 71 58 90 59 55 60 56 61 70 63 91 64
REMARK SMILES IDX 58 65 42 66 43 67 51 68 44 69 45 70 49 71 52 72 46 73 47 74
REMARK SMILES IDX 50 75 48 76 74 77 75 78 83 79 76 80 77 81 81 82 84 83 78 84
REMARK SMILES IDX 79 85 82 86 80 87 59 88 60 89 68 90 61 91 62 92 66 93 69 94
REMARK SMILES IDX 63 95 64 96 67 97 65 98
REMARK H PARENT 89 51 57 62
REMARK Flexibility Score: inf
ROOT
ATOM      1  C   UNL A   1      35.162  33.251  29.531  1.00  0.00     0.188 C 
ENDROOT
BRANCH   1   2
ATOM      2  O   UNL A   1      34.474  32.045  29.191  1.00  0.00    -0.377 OA
BRANCH   2   3
ATOM      3  C   UNL A   1      33.929  31.931  27.885  1.00  0.00     0.188 C 
BRANCH   3   4
ATOM      4  C   UNL A   1      33.572  30.485  27.491  1.00  0.00     0.188 C 
BRANCH   4   5
ATOM      5  O   UNL A   1      32.208  30.338  27.127  1.00  0.00    -0.376 OA
BRANCH   5   6
ATOM      6  C   UNL A   1      31.818  30.472  25.770  1.00  0.00     0.202 C 
BRANCH   6   7
ATOM      7  C   UNL A   1      31.257  29.285  24.969  1.00  0.00     0.261 C 
BRANCH   7   8
ATOM      8  O   UNL A   1      31.846  28.004  25.214  1.00  0.00    -0.460 OA
BRANCH   8   9
ATOM      9  C   UNL A   1      32.982  27.700  24.560  1.00  0.00     0.338 C 
ATOM     10  O   UNL A   1      33.946  28.425  24.399  1.00  0.00    -0.246 OA
BRANCH   9  11
ATOM     11  C   UNL A   1      32.930  26.262  24.213  1.00  0.00     0.087 C 
ATOM     12  C   UNL A   1      32.109  21.702  21.969  1.00  0.00     0.048 C 
ATOM     13  C   UNL A   1      32.972  22.237  23.078  1.00  0.00    -0.007 A 
ATOM     14  C   UNL A   1      33.925  21.382  23.654  1.00  0.00     0.023 A 
ATOM     15  C   UNL A   1      32.894  23.569  23.518  1.00  0.00     0.130 A 
ATOM     16  C   UNL A   1      34.774  21.848  24.657  1.00  0.00     0.019 A 
ATOM     17  C   UNL A   1      33.789  24.045  24.484  1.00  0.00     0.019 A 
ATOM     18  O   UNL A   1      31.933  24.355  22.949  1.00  0.00    -0.475 OA
ATOM     19  Br  UNL A   1      36.055  20.685  25.416  1.00  0.00    -0.051 Br
ATOM     20  C   UNL A   1      34.709  23.174  25.076  1.00  0.00     0.027 A 
ATOM     21  C   UNL A   1      33.817  25.461  24.814  1.00  0.00     0.027 C 
ATOM     22  C   UNL A   1      31.850  25.765  23.288  1.00  0.00     0.316 C 
BRANCH  22  23
ATOM     23  C   UNL A   1      31.795  26.551  21.971  1.00  0.00     0.430 C 
ATOM     24  F   UNL A   1      31.134  27.724  22.126  1.00  0.00    -0.167 F 
ATOM     25  F   UNL A   1      33.028  26.862  21.508  1.00  0.00    -0.167 F 
ATOM     26  F   UNL A   1      31.162  25.853  20.999  1.00  0.00    -0.167 F 
ENDBRANCH  22  23
ENDBRANCH   9  11
ENDBRANCH   8   9
ENDBRANCH   7   8
ENDBRANCH   6   7
ENDBRANCH   5   6
ENDBRANCH   4   5
ENDBRANCH   3   4
ENDBRANCH   2   3
ENDBRANCH   1   2
BRANCH   1  27
ATOM     27  C   UNL A   1      34.422  34.540  29.972  1.00  0.00     0.188 C 
BRANCH  27  28
ATOM     28  O   UNL A   1      33.572  34.374  31.098  1.00  0.00    -0.376 OA
BRANCH  28  29
ATOM     29  C   UNL A   1      34.113  34.648  32.380  1.00  0.00     0.202 C 
BRANCH  29  30
ATOM     30  C   UNL A   1      34.269  33.431  33.302  1.00  0.00     0.261 C 
BRANCH  30  31
ATOM     31  O   UNL A   1      35.195  32.430  32.851  1.00  0.00    -0.460 OA
BRANCH  31  32
ATOM     32  C   UNL A   1      36.334  32.277  33.557  1.00  0.00     0.338 C 
ATOM     33  O   UNL A   1      36.538  32.599  34.715  1.00  0.00    -0.246 OA
BRANCH  32  34
ATOM     34  C   UNL A   1      37.255  31.460  32.742  1.00  0.00     0.060 A 
ATOM     35  C   UNL A   1      38.098  30.540  33.383  1.00  0.00     0.016 A 
ATOM     36  C   UNL A   1      37.280  31.597  31.353  1.00  0.00     0.016 A 
ATOM     37  C   UNL A   1      39.000  29.784  32.636  1.00  0.00     0.010 A 
ATOM     38  C   UNL A   1      38.205  30.863  30.609  1.00  0.00     0.010 A 
ATOM     39  C   UNL A   1      39.096  29.986  31.253  1.00  0.00    -0.014 A 
BRANCH  39  40
ATOM     40  C   UNL A   1      40.293  29.498  30.528  1.00  0.00     0.031 A 
ATOM     41  C   UNL A   1      41.490  30.408  30.473  1.00  0.00     0.074 A 
ATOM     42  C   UNL A   1      40.339  28.280  29.964  1.00  0.00     0.049 A 
ATOM     43  N   UNL A   1      42.627  30.254  29.848  1.00  0.00    -0.248 NA
ATOM     44  C   UNL A   1      41.385  31.666  31.233  1.00  0.00     0.031 C 
ATOM     45  C   UNL A   1      39.273  27.283  30.011  1.00  0.00     0.029 A 
ATOM     46  N   UNL A   1      41.334  27.679  29.233  1.00  0.00    -0.354 N 
ATOM     47  C   UNL A   1      43.369  31.391  30.138  1.00  0.00     0.074 A 
ATOM     48  C   UNL A   1      42.547  32.243  30.966  1.00  0.00     0.031 C 
ATOM     49  C   UNL A   1      39.669  26.192  29.329  1.00  0.00     0.029 A 
ATOM     50  C   UNL A   1      40.999  26.432  28.766  1.00  0.00     0.049 A 
ATOM     51  H   UNL A   1      42.206  28.102  29.059  1.00  0.00     0.167 HD
ATOM     52  C   UNL A   1      44.631  31.693  29.756  1.00  0.00     0.037 A 
ATOM     53  C   UNL A   1      41.682  25.597  27.958  1.00  0.00     0.037 A 
ATOM     54  C   UNL A   1      45.446  30.849  28.926  1.00  0.00     0.049 A 
ATOM     55  C   UNL A   1      43.044  26.006  27.453  1.00  0.00     0.074 A 
ATOM     56  C   UNL A   1      46.735  31.068  28.477  1.00  0.00     0.029 A 
ATOM     57  N   UNL A   1      45.046  29.621  28.419  1.00  0.00    -0.354 N 
ATOM     58  N   UNL A   1      43.742  27.082  27.726  1.00  0.00    -0.248 NA
ATOM     59  C   UNL A   1      43.711  25.085  26.520  1.00  0.00     0.031 C 
ATOM     60  C   UNL A   1      47.095  29.999  27.653  1.00  0.00     0.029 A 
ATOM     61  C   UNL A   1      46.053  29.085  27.636  1.00  0.00     0.049 A 
ATOM     62  H   UNL A   1      44.175  29.195  28.590  1.00  0.00     0.167 HD
ATOM     63  C   UNL A   1      44.933  26.960  27.019  1.00  0.00     0.074 A 
ATOM     64  C   UNL A   1      44.873  25.692  26.322  1.00  0.00     0.031 C 
ATOM     65  C   UNL A   1      45.978  27.820  26.948  1.00  0.00     0.037 A 
BRANCH  52  66
ATOM     66  C   UNL A   1      45.201  33.003  30.213  1.00  0.00     0.064 A 
ATOM     67  C   UNL A   1      45.028  34.179  29.468  1.00  0.00     0.173 A 
ATOM     68  C   UNL A   1      45.886  33.092  31.433  1.00  0.00     0.173 A 
ATOM     69  F   UNL A   1      44.400  34.142  28.283  1.00  0.00    -0.203 F 
ATOM     70  C   UNL A   1      45.532  35.394  29.922  1.00  0.00     0.198 A 
ATOM     71  C   UNL A   1      46.362  34.314  31.899  1.00  0.00     0.198 A 
ATOM     72  F   UNL A   1      46.080  31.996  32.181  1.00  0.00    -0.203 F 
ATOM     73  F   UNL A   1      45.390  36.498  29.176  1.00  0.00    -0.200 F 
ATOM     74  C   UNL A   1      46.188  35.462  31.142  1.00  0.00     0.200 A 
ATOM     75  F   UNL A   1      46.987  34.380  33.083  1.00  0.00    -0.200 F 
ATOM     76  F   UNL A   1      46.658  36.636  31.587  1.00  0.00    -0.200 F 
ENDBRANCH  52  66
BRANCH  53  77
ATOM     77  C   UNL A   1      41.088  24.292  27.560  1.00  0.00     0.064 A 
ATOM     78  C   UNL A   1      41.590  23.086  28.067  1.00  0.00     0.173 A 
ATOM     79  C   UNL A   1      40.016  24.222  26.656  1.00  0.00     0.173 A 
ATOM     80  F   UNL A   1      42.634  23.097  28.909  1.00  0.00    -0.203 F 
ATOM     81  C   UNL A   1      41.051  21.860  27.678  1.00  0.00     0.198 A 
ATOM     82  C   UNL A   1      39.460  22.998  26.291  1.00  0.00     0.198 A 
ATOM     83  F   UNL A   1      39.504  25.346  26.134  1.00  0.00    -0.203 F 
ATOM     84  F   UNL A   1      41.580  20.721  28.144  1.00  0.00    -0.200 F 
ATOM     85  C   UNL A   1      39.981  21.818  26.798  1.00  0.00     0.200 A 
ATOM     86  F   UNL A   1      38.420  22.963  25.447  1.00  0.00    -0.200 F 
ATOM     87  F   UNL A   1      39.460  20.639  26.430  1.00  0.00    -0.200 F 
ENDBRANCH  53  77
BRANCH  65  88
ATOM     88  C   UNL A   1      47.153  27.426  26.099  1.00  0.00     0.064 A 
ATOM     89  C   UNL A   1      48.230  26.701  26.629  1.00  0.00     0.173 A 
ATOM     90  C   UNL A   1      47.168  27.712  24.724  1.00  0.00     0.173 A 
ATOM     91  F   UNL A   1      48.269  26.411  27.938  1.00  0.00    -0.203 F 
ATOM     92  C   UNL A   1      49.287  26.294  25.819  1.00  0.00     0.198 A 
ATOM     93  C   UNL A   1      48.209  27.273  23.911  1.00  0.00     0.198 A 
ATOM     94  F   UNL A   1      46.157  28.391  24.163  1.00  0.00    -0.203 F 
ATOM     95  F   UNL A   1      50.325  25.636  26.356  1.00  0.00    -0.200 F 
ATOM     96  C   UNL A   1      49.271  26.570  24.460  1.00  0.00     0.200 A 
ATOM     97  F   UNL A   1      48.182  27.523  22.595  1.00  0.00    -0.200 F 
ATOM     98  F   UNL A   1      50.281  26.162  23.679  1.00  0.00    -0.200 F 
ENDBRANCH  65  88
ENDBRANCH  39  40
ENDBRANCH  32  34
ENDBRANCH  31  32
ENDBRANCH  30  31
ENDBRANCH  29  30
ENDBRANCH  28  29
ENDBRANCH  27  28
ENDBRANCH   1  27
TORSDOF 21
ENDMDL
