MODEL 1
REMARK VINA RESULT:     -11.3      0.000      0.000
REMARK SMILES O=C(Nc1ccc(Cl)cc1C(=O)OCCOCCOCCOCCOC(=O)c1ccc(-c2c3nc(c(-c4c(F)c(F)c(F)c(F)c4F)c4ccc([nH]4)c(-c4c(F)c(F)c(F)c(F)c4F)c4nc(c(-c5c(F)c(F)c(F)c(F)c5F)c5ccc2[nH]5)C=C4)C=C3)cc1)c1ccc2c(c1)C(=O)N(Cc1ccco1)C2=O
REMARK SMILES IDX 18 1 17 2 16 3 15 4 14 5 13 6 11 7 12 8 10 9 4 10 5 11 6 12
REMARK SMILES IDX 9 13 7 14 8 15 3 16 1 17 2 18 91 20 92 21 96 22 93 23 95 24
REMARK SMILES IDX 94 25 97 26 106 27 98 28 99 29 107 30 100 31 101 32 102 33
REMARK SMILES IDX 105 34 103 35 104 36 19 37 20 38 21 39 22 40 23 41 24 42
REMARK SMILES IDX 25 43 26 44 27 45 28 46 29 47 90 48 30 49 89 50 31 51 32 52
REMARK SMILES IDX 33 53 83 54 34 55 88 56 82 57 84 58 35 59 87 60 81 61 80 62
REMARK SMILES IDX 36 64 68 65 48 66 67 67 49 68 52 69 66 70 85 71 50 72 51 73
REMARK SMILES IDX 65 75 86 76 53 77 37 78 38 79 46 80 39 81 40 82 44 83 47 84
REMARK SMILES IDX 41 85 42 86 45 87 43 88 69 89 70 90 78 91 71 92 72 93 76 94
REMARK SMILES IDX 79 95 73 96 74 97 77 98 75 99 54 100 55 101 63 102 56 103
REMARK SMILES IDX 57 104 61 105 64 106 58 107 59 108 62 109 60 110
REMARK H PARENT 3 19 84 63 52 74
REMARK Flexibility Score: inf
ROOT
ATOM      1  C   UNL A   1      31.393  30.949  25.983  1.00  0.00     0.188 C 
ENDROOT
BRANCH   1   2
ATOM      2  C   UNL A   1      30.988  30.326  24.636  1.00  0.00     0.188 C 
BRANCH   2   3
ATOM      3  O   UNL A   1      29.667  30.673  24.242  1.00  0.00    -0.376 OA
BRANCH   3   4
ATOM      4  C   UNL A   1      29.309  30.536  22.877  1.00  0.00     0.202 C 
BRANCH   4   5
ATOM      5  C   UNL A   1      28.461  29.324  22.474  1.00  0.00     0.261 C 
BRANCH   5   6
ATOM      6  O   UNL A   1      28.768  28.108  23.164  1.00  0.00    -0.460 OA
BRANCH   6   7
ATOM      7  C   UNL A   1      29.900  27.447  22.847  1.00  0.00     0.340 C 
ATOM      8  O   UNL A   1      30.482  27.499  21.779  1.00  0.00    -0.246 OA
BRANCH   7   9
ATOM      9  C   UNL A   1      30.436  26.773  24.070  1.00  0.00     0.085 A 
ATOM     10  C   UNL A   1      31.810  26.540  24.321  1.00  0.00     0.056 A 
ATOM     11  C   UNL A   1      32.161  25.965  25.548  1.00  0.00     0.028 A 
ATOM     12  C   UNL A   1      31.195  25.458  26.417  1.00  0.00     0.023 A 
ATOM     13  C   UNL A   1      29.466  26.241  24.939  1.00  0.00     0.038 A 
ATOM     14  C   UNL A   1      29.853  25.550  26.083  1.00  0.00     0.042 A 
ATOM     15  Cl  UNL A   1      28.676  24.785  27.071  1.00  0.00    -0.084 Cl
BRANCH  10  16
ATOM     16  N   UNL A   1      32.751  26.802  23.297  1.00  0.00    -0.321 N 
ATOM     17  O   UNL A   1      34.318  26.452  21.695  1.00  0.00    -0.269 OA
ATOM     18  C   UNL A   1      33.701  26.035  22.673  1.00  0.00     0.255 C 
ATOM     19  H   UNL A   1      32.717  27.727  22.963  1.00  0.00     0.170 HD
BRANCH  18  20
ATOM     20  C   UNL A   1      34.068  24.720  23.185  1.00  0.00     0.041 A 
ATOM     21  C   UNL A   1      35.193  24.499  24.014  1.00  0.00     0.015 A 
ATOM     22  C   UNL A   1      33.167  23.709  22.888  1.00  0.00     0.028 A 
ATOM     23  C   UNL A   1      35.409  23.228  24.583  1.00  0.00     0.015 A 
ATOM     24  C   UNL A   1      33.437  22.482  23.433  1.00  0.00     0.054 A 
ATOM     25  C   UNL A   1      34.489  22.234  24.287  1.00  0.00     0.053 A 
ATOM     26  C   UNL A   1      32.586  21.325  23.381  1.00  0.00     0.261 C 
ATOM     27  C   UNL A   1      34.240  20.900  24.857  1.00  0.00     0.261 C 
ATOM     28  O   UNL A   1      31.586  21.315  22.684  1.00  0.00    -0.269 OA
ATOM     29  N   UNL A   1      33.087  20.427  24.269  1.00  0.00    -0.267 N 
ATOM     30  O   UNL A   1      34.899  20.424  25.761  1.00  0.00    -0.269 OA
BRANCH  29  31
ATOM     31  C   UNL A   1      32.282  19.350  24.809  1.00  0.00     0.204 C 
BRANCH  31  32
ATOM     32  C   UNL A   1      32.846  17.999  24.536  1.00  0.00     0.123 A 
ATOM     33  C   UNL A   1      32.754  16.766  25.156  1.00  0.00     0.047 A 
ATOM     34  O   UNL A   1      33.730  17.915  23.498  1.00  0.00    -0.467 OA
ATOM     35  C   UNL A   1      33.573  15.875  24.428  1.00  0.00     0.042 A 
ATOM     36  C   UNL A   1      34.167  16.630  23.447  1.00  0.00     0.195 A 
ENDBRANCH  31  32
ENDBRANCH  29  31
ENDBRANCH  18  20
ENDBRANCH  10  16
ENDBRANCH   7   9
ENDBRANCH   6   7
ENDBRANCH   5   6
ENDBRANCH   4   5
ENDBRANCH   3   4
ENDBRANCH   2   3
ENDBRANCH   1   2
BRANCH   1  37
ATOM     37  O   UNL A   1      32.346  30.220  26.740  1.00  0.00    -0.377 OA
BRANCH  37  38
ATOM     38  C   UNL A   1      33.616  30.812  27.021  1.00  0.00     0.188 C 
BRANCH  38  39
ATOM     39  C   UNL A   1      33.798  31.951  28.055  1.00  0.00     0.188 C 
BRANCH  39  40
ATOM     40  O   UNL A   1      34.660  33.002  27.644  1.00  0.00    -0.376 OA
BRANCH  40  41
ATOM     41  C   UNL A   1      34.490  34.264  28.268  1.00  0.00     0.202 C 
BRANCH  41  42
ATOM     42  C   UNL A   1      34.486  34.222  29.801  1.00  0.00     0.261 C 
BRANCH  42  43
ATOM     43  O   UNL A   1      35.699  33.746  30.403  1.00  0.00    -0.460 OA
BRANCH  43  44
ATOM     44  C   UNL A   1      35.612  32.620  31.146  1.00  0.00     0.338 C 
ATOM     45  O   UNL A   1      34.724  32.306  31.915  1.00  0.00    -0.246 OA
BRANCH  44  46
ATOM     46  C   UNL A   1      36.711  31.726  30.735  1.00  0.00     0.060 A 
ATOM     47  C   UNL A   1      37.382  30.977  31.711  1.00  0.00     0.016 A 
ATOM     48  C   UNL A   1      37.076  31.635  29.391  1.00  0.00     0.016 A 
ATOM     49  C   UNL A   1      38.450  30.159  31.346  1.00  0.00     0.010 A 
ATOM     50  C   UNL A   1      38.156  30.829  29.029  1.00  0.00     0.010 A 
ATOM     51  C   UNL A   1      38.869  30.116  30.009  1.00  0.00    -0.014 A 
BRANCH  51  52
ATOM     52  C   UNL A   1      40.166  29.492  29.661  1.00  0.00     0.031 A 
ATOM     53  C   UNL A   1      41.407  30.334  29.747  1.00  0.00     0.074 A 
ATOM     54  C   UNL A   1      40.245  28.206  29.278  1.00  0.00     0.049 A 
ATOM     55  N   UNL A   1      42.643  30.038  29.436  1.00  0.00    -0.248 NA
ATOM     56  C   UNL A   1      41.224  31.706  30.248  1.00  0.00     0.031 C 
ATOM     57  C   UNL A   1      39.120  27.282  29.183  1.00  0.00     0.029 A 
ATOM     58  N   UNL A   1      41.331  27.464  28.883  1.00  0.00    -0.354 N 
ATOM     59  C   UNL A   1      43.382  31.182  29.701  1.00  0.00     0.074 A 
ATOM     60  C   UNL A   1      42.452  32.193  30.161  1.00  0.00     0.031 C 
ATOM     61  C   UNL A   1      39.570  26.096  28.738  1.00  0.00     0.029 A 
ATOM     62  C   UNL A   1      41.008  26.191  28.486  1.00  0.00     0.049 A 
ATOM     63  H   UNL A   1      42.252  27.812  28.884  1.00  0.00     0.167 HD
ATOM     64  C   UNL A   1      44.717  31.372  29.584  1.00  0.00     0.037 A 
ATOM     65  C   UNL A   1      41.783  25.226  27.955  1.00  0.00     0.037 A 
ATOM     66  C   UNL A   1      45.636  30.371  29.112  1.00  0.00     0.049 A 
ATOM     67  C   UNL A   1      43.256  25.482  27.759  1.00  0.00     0.074 A 
ATOM     68  C   UNL A   1      47.008  30.460  28.961  1.00  0.00     0.029 A 
ATOM     69  N   UNL A   1      45.269  29.097  28.699  1.00  0.00    -0.354 N 
ATOM     70  N   UNL A   1      43.956  26.557  28.037  1.00  0.00    -0.248 NA
ATOM     71  C   UNL A   1      44.049  24.388  27.179  1.00  0.00     0.031 C 
ATOM     72  C   UNL A   1      47.464  29.260  28.405  1.00  0.00     0.029 A 
ATOM     73  C   UNL A   1      46.386  28.400  28.268  1.00  0.00     0.049 A 
ATOM     74  H   UNL A   1      44.351  28.743  28.710  1.00  0.00     0.167 HD
ATOM     75  C   UNL A   1      45.270  26.260  27.692  1.00  0.00     0.074 A 
ATOM     76  C   UNL A   1      45.273  24.899  27.197  1.00  0.00     0.031 C 
ATOM     77  C   UNL A   1      46.374  27.043  27.779  1.00  0.00     0.037 A 
BRANCH  64  78
ATOM     78  C   UNL A   1      45.252  32.728  29.944  1.00  0.00     0.064 A 
ATOM     79  C   UNL A   1      45.364  33.754  28.992  1.00  0.00     0.173 A 
ATOM     80  C   UNL A   1      45.656  33.008  31.257  1.00  0.00     0.173 A 
ATOM     81  F   UNL A   1      45.008  33.534  27.717  1.00  0.00    -0.203 F 
ATOM     82  C   UNL A   1      45.895  34.995  29.334  1.00  0.00     0.198 A 
ATOM     83  C   UNL A   1      46.154  34.260  31.604  1.00  0.00     0.198 A 
ATOM     84  F   UNL A   1      45.567  32.065  32.208  1.00  0.00    -0.203 F 
ATOM     85  F   UNL A   1      46.051  35.938  28.394  1.00  0.00    -0.200 F 
ATOM     86  C   UNL A   1      46.284  35.249  30.640  1.00  0.00     0.200 A 
ATOM     87  F   UNL A   1      46.518  34.508  32.870  1.00  0.00    -0.200 F 
ATOM     88  F   UNL A   1      46.794  36.443  30.969  1.00  0.00    -0.200 F 
ENDBRANCH  64  78
BRANCH  65  89
ATOM     89  C   UNL A   1      41.176  23.929  27.554  1.00  0.00     0.064 A 
ATOM     90  C   UNL A   1      41.536  22.732  28.189  1.00  0.00     0.173 A 
ATOM     91  C   UNL A   1      40.228  23.861  26.522  1.00  0.00     0.173 A 
ATOM     92  F   UNL A   1      42.459  22.742  29.161  1.00  0.00    -0.203 F 
ATOM     93  C   UNL A   1      40.978  21.516  27.800  1.00  0.00     0.198 A 
ATOM     94  C   UNL A   1      39.650  22.648  26.154  1.00  0.00     0.198 A 
ATOM     95  F   UNL A   1      39.856  24.975  25.877  1.00  0.00    -0.203 F 
ATOM     96  F   UNL A   1      41.372  20.380  28.393  1.00  0.00    -0.200 F 
ATOM     97  C   UNL A   1      40.030  21.476  26.788  1.00  0.00     0.200 A 
ATOM     98  F   UNL A   1      38.728  22.614  25.182  1.00  0.00    -0.200 F 
ATOM     99  F   UNL A   1      39.491  20.306  26.419  1.00  0.00    -0.200 F 
ENDBRANCH  65  89
BRANCH  77 100
ATOM    100  C   UNL A   1      47.687  26.440  27.366  1.00  0.00     0.064 A 
ATOM    101  C   UNL A   1      48.222  26.639  26.085  1.00  0.00     0.173 A 
ATOM    102  C   UNL A   1      48.443  25.693  28.283  1.00  0.00     0.173 A 
ATOM    103  F   UNL A   1      47.535  27.334  25.166  1.00  0.00    -0.203 F 
ATOM    104  C   UNL A   1      49.452  26.090  25.729  1.00  0.00     0.198 A 
ATOM    105  C   UNL A   1      49.687  25.174  27.934  1.00  0.00     0.198 A 
ATOM    106  F   UNL A   1      47.984  25.480  29.525  1.00  0.00    -0.203 F 
ATOM    107  F   UNL A   1      49.921  26.251  24.483  1.00  0.00    -0.200 F 
ATOM    108  C   UNL A   1      50.187  25.365  26.655  1.00  0.00     0.200 A 
ATOM    109  F   UNL A   1      50.403  24.488  28.837  1.00  0.00    -0.200 F 
ATOM    110  F   UNL A   1      51.375  24.847  26.314  1.00  0.00    -0.200 F 
ENDBRANCH  77 100
ENDBRANCH  51  52
ENDBRANCH  44  46
ENDBRANCH  43  44
ENDBRANCH  42  43
ENDBRANCH  41  42
ENDBRANCH  40  41
ENDBRANCH  39  40
ENDBRANCH  38  39
ENDBRANCH  37  38
ENDBRANCH   1  37
TORSDOF 24
ENDMDL
MODEL 2
REMARK VINA RESULT:     -11.2      4.019      7.144
REMARK SMILES O=C(Nc1ccc(Cl)cc1C(=O)OCCOCCOCCOCCOC(=O)c1ccc(-c2c3nc(c(-c4c(F)c(F)c(F)c(F)c4F)c4ccc([nH]4)c(-c4c(F)c(F)c(F)c(F)c4F)c4nc(c(-c5c(F)c(F)c(F)c(F)c5F)c5ccc2[nH]5)C=C4)C=C3)cc1)c1ccc2c(c1)C(=O)N(Cc1ccco1)C2=O
REMARK SMILES IDX 18 1 17 2 16 3 15 4 14 5 13 6 11 7 12 8 10 9 4 10 5 11 6 12
REMARK SMILES IDX 9 13 7 14 8 15 3 16 1 17 2 18 91 20 92 21 96 22 93 23 95 24
REMARK SMILES IDX 94 25 97 26 106 27 98 28 99 29 107 30 100 31 101 32 102 33
REMARK SMILES IDX 105 34 103 35 104 36 19 37 20 38 21 39 22 40 23 41 24 42
REMARK SMILES IDX 25 43 26 44 27 45 28 46 29 47 90 48 30 49 89 50 31 51 32 52
REMARK SMILES IDX 33 53 83 54 34 55 88 56 82 57 84 58 35 59 87 60 81 61 80 62
REMARK SMILES IDX 36 64 68 65 48 66 67 67 49 68 52 69 66 70 85 71 50 72 51 73
REMARK SMILES IDX 65 75 86 76 53 77 37 78 38 79 46 80 39 81 40 82 44 83 47 84
REMARK SMILES IDX 41 85 42 86 45 87 43 88 69 89 70 90 78 91 71 92 72 93 76 94
REMARK SMILES IDX 79 95 73 96 74 97 77 98 75 99 54 100 55 101 63 102 56 103
REMARK SMILES IDX 57 104 61 105 64 106 58 107 59 108 62 109 60 110
REMARK H PARENT 3 19 84 63 52 74
REMARK Flexibility Score: inf
ROOT
ATOM      1  C   UNL A   1      33.973  27.246  24.792  1.00  0.00     0.188 C 
ENDROOT
BRANCH   1   2
ATOM      2  C   UNL A   1      33.854  25.738  25.071  1.00  0.00     0.188 C 
BRANCH   2   3
ATOM      3  O   UNL A   1      33.727  25.440  26.455  1.00  0.00    -0.376 OA
BRANCH   3   4
ATOM      4  C   UNL A   1      32.780  24.463  26.853  1.00  0.00     0.202 C 
BRANCH   4   5
ATOM      5  C   UNL A   1      33.307  23.142  27.427  1.00  0.00     0.261 C 
BRANCH   5   6
ATOM      6  O   UNL A   1      32.827  21.960  26.777  1.00  0.00    -0.460 OA
BRANCH   6   7
ATOM      7  C   UNL A   1      33.714  21.136  26.185  1.00  0.00     0.340 C 
ATOM      8  O   UNL A   1      33.669  19.918  26.188  1.00  0.00    -0.246 OA
BRANCH   7   9
ATOM      9  C   UNL A   1      34.672  21.944  25.370  1.00  0.00     0.085 A 
ATOM     10  C   UNL A   1      34.591  22.109  23.966  1.00  0.00     0.056 A 
ATOM     11  C   UNL A   1      35.519  22.960  23.354  1.00  0.00     0.028 A 
ATOM     12  C   UNL A   1      36.606  23.479  24.058  1.00  0.00     0.023 A 
ATOM     13  C   UNL A   1      35.781  22.452  26.071  1.00  0.00     0.038 A 
ATOM     14  C   UNL A   1      36.761  23.178  25.402  1.00  0.00     0.042 A 
ATOM     15  Cl  UNL A   1      38.180  23.681  26.228  1.00  0.00    -0.084 Cl
BRANCH  10  16
ATOM     16  N   UNL A   1      33.653  21.341  23.235  1.00  0.00    -0.321 N 
ATOM     17  O   UNL A   1      31.820  20.808  22.011  1.00  0.00    -0.269 OA
ATOM     18  C   UNL A   1      32.397  21.601  22.752  1.00  0.00     0.255 C 
ATOM     19  H   UNL A   1      33.967  20.431  23.032  1.00  0.00     0.170 HD
BRANCH  18  20
ATOM     20  C   UNL A   1      31.664  22.797  23.151  1.00  0.00     0.041 A 
ATOM     21  C   UNL A   1      30.954  22.899  24.371  1.00  0.00     0.015 A 
ATOM     22  C   UNL A   1      31.803  23.877  22.292  1.00  0.00     0.028 A 
ATOM     23  C   UNL A   1      30.384  24.130  24.753  1.00  0.00     0.015 A 
ATOM     24  C   UNL A   1      31.203  25.042  22.688  1.00  0.00     0.054 A 
ATOM     25  C   UNL A   1      30.547  25.202  23.889  1.00  0.00     0.053 A 
ATOM     26  C   UNL A   1      31.321  26.319  22.040  1.00  0.00     0.261 C 
ATOM     27  C   UNL A   1      30.322  26.649  24.037  1.00  0.00     0.261 C 
ATOM     28  O   UNL A   1      31.868  26.423  20.956  1.00  0.00    -0.269 OA
ATOM     29  N   UNL A   1      30.814  27.244  22.896  1.00  0.00    -0.267 N 
ATOM     30  O   UNL A   1      29.893  27.159  25.054  1.00  0.00    -0.269 OA
BRANCH  29  31
ATOM     31  C   UNL A   1      31.146  28.651  22.792  1.00  0.00     0.204 C 
BRANCH  31  32
ATOM     32  C   UNL A   1      29.950  29.539  22.762  1.00  0.00     0.123 A 
ATOM     33  C   UNL A   1      29.550  30.651  23.481  1.00  0.00     0.047 A 
ATOM     34  O   UNL A   1      28.949  29.170  21.910  1.00  0.00    -0.467 OA
ATOM     35  C   UNL A   1      28.271  31.013  23.003  1.00  0.00     0.042 A 
ATOM     36  C   UNL A   1      27.938  30.062  22.069  1.00  0.00     0.195 A 
ENDBRANCH  31  32
ENDBRANCH  29  31
ENDBRANCH  18  20
ENDBRANCH  10  16
ENDBRANCH   7   9
ENDBRANCH   6   7
ENDBRANCH   5   6
ENDBRANCH   4   5
ENDBRANCH   3   4
ENDBRANCH   2   3
ENDBRANCH   1   2
BRANCH   1  37
ATOM     37  O   UNL A   1      33.628  28.103  25.868  1.00  0.00    -0.377 OA
BRANCH  37  38
ATOM     38  C   UNL A   1      33.119  29.408  25.586  1.00  0.00     0.188 C 
BRANCH  38  39
ATOM     39  C   UNL A   1      31.878  29.996  26.304  1.00  0.00     0.188 C 
BRANCH  39  40
ATOM     40  O   UNL A   1      32.129  31.162  27.074  1.00  0.00    -0.376 OA
BRANCH  40  41
ATOM     41  C   UNL A   1      31.439  32.346  26.704  1.00  0.00     0.202 C 
BRANCH  41  42
ATOM     42  C   UNL A   1      32.125  33.646  27.138  1.00  0.00     0.261 C 
BRANCH  42  43
ATOM     43  O   UNL A   1      33.087  33.507  28.195  1.00  0.00    -0.460 OA
BRANCH  43  44
ATOM     44  C   UNL A   1      34.242  34.198  28.066  1.00  0.00     0.338 C 
ATOM     45  O   UNL A   1      34.374  35.378  27.808  1.00  0.00    -0.246 OA
BRANCH  44  46
ATOM     46  C   UNL A   1      35.344  33.306  28.474  1.00  0.00     0.060 A 
ATOM     47  C   UNL A   1      35.048  32.002  28.891  1.00  0.00     0.016 A 
ATOM     48  C   UNL A   1      36.663  33.763  28.445  1.00  0.00     0.016 A 
ATOM     49  C   UNL A   1      36.074  31.160  29.318  1.00  0.00     0.010 A 
ATOM     50  C   UNL A   1      37.686  32.926  28.889  1.00  0.00     0.010 A 
ATOM     51  C   UNL A   1      37.392  31.634  29.360  1.00  0.00    -0.014 A 
BRANCH  51  52
ATOM     52  C   UNL A   1      38.432  30.863  30.080  1.00  0.00     0.031 A 
ATOM     53  C   UNL A   1      38.673  31.174  31.530  1.00  0.00     0.074 A 
ATOM     54  C   UNL A   1      39.147  29.906  29.465  1.00  0.00     0.049 A 
ATOM     55  N   UNL A   1      39.564  30.685  32.354  1.00  0.00    -0.248 NA
ATOM     56  C   UNL A   1      37.788  32.185  32.131  1.00  0.00     0.031 C 
ATOM     57  C   UNL A   1      38.987  29.495  28.073  1.00  0.00     0.029 A 
ATOM     58  N   UNL A   1      40.167  29.118  29.939  1.00  0.00    -0.354 N 
ATOM     59  C   UNL A   1      39.348  31.327  33.565  1.00  0.00     0.074 A 
ATOM     60  C   UNL A   1      38.269  32.270  33.361  1.00  0.00     0.031 C 
ATOM     61  C   UNL A   1      39.892  28.539  27.798  1.00  0.00     0.029 A 
ATOM     62  C   UNL A   1      40.713  28.298  28.984  1.00  0.00     0.049 A 
ATOM     63  H   UNL A   1      40.475  29.139  30.873  1.00  0.00     0.167 HD
ATOM     64  C   UNL A   1      39.984  31.140  34.745  1.00  0.00     0.037 A 
ATOM     65  C   UNL A   1      41.774  27.470  29.056  1.00  0.00     0.037 A 
ATOM     66  C   UNL A   1      41.067  30.214  34.941  1.00  0.00     0.049 A 
ATOM     67  C   UNL A   1      42.519  27.333  30.360  1.00  0.00     0.074 A 
ATOM     68  C   UNL A   1      41.775  29.944  36.098  1.00  0.00     0.029 A 
ATOM     69  N   UNL A   1      41.608  29.413  33.944  1.00  0.00    -0.354 N 
ATOM     70  N   UNL A   1      42.294  27.921  31.511  1.00  0.00    -0.248 NA
ATOM     71  C   UNL A   1      43.664  26.411  30.376  1.00  0.00     0.031 C 
ATOM     72  C   UNL A   1      42.781  29.022  35.789  1.00  0.00     0.029 A 
ATOM     73  C   UNL A   1      42.659  28.669  34.454  1.00  0.00     0.049 A 
ATOM     74  H   UNL A   1      41.292  29.381  33.012  1.00  0.00     0.167 HD
ATOM     75  C   UNL A   1      43.249  27.424  32.390  1.00  0.00     0.074 A 
ATOM     76  C   UNL A   1      44.047  26.474  31.644  1.00  0.00     0.031 C 
ATOM     77  C   UNL A   1      43.444  27.725  33.698  1.00  0.00     0.037 A 
BRANCH  64  78
ATOM     78  C   UNL A   1      39.539  31.983  35.906  1.00  0.00     0.064 A 
ATOM     79  C   UNL A   1      38.485  31.588  36.744  1.00  0.00     0.173 A 
ATOM     80  C   UNL A   1      40.175  33.202  36.185  1.00  0.00     0.173 A 
ATOM     81  F   UNL A   1      37.830  30.440  36.511  1.00  0.00    -0.203 F 
ATOM     82  C   UNL A   1      38.061  32.399  37.794  1.00  0.00     0.198 A 
ATOM     83  C   UNL A   1      39.772  33.994  37.256  1.00  0.00     0.198 A 
ATOM     84  F   UNL A   1      41.191  33.626  35.418  1.00  0.00    -0.203 F 
ATOM     85  F   UNL A   1      37.012  32.030  38.542  1.00  0.00    -0.200 F 
ATOM     86  C   UNL A   1      38.708  33.597  38.053  1.00  0.00     0.200 A 
ATOM     87  F   UNL A   1      40.407  35.145  37.512  1.00  0.00    -0.200 F 
ATOM     88  F   UNL A   1      38.301  34.376  39.064  1.00  0.00    -0.200 F 
ENDBRANCH  64  78
BRANCH  65  89
ATOM     89  C   UNL A   1      42.205  26.717  27.849  1.00  0.00     0.064 A 
ATOM     90  C   UNL A   1      43.157  27.244  26.966  1.00  0.00     0.173 A 
ATOM     91  C   UNL A   1      41.669  25.454  27.554  1.00  0.00     0.173 A 
ATOM     92  F   UNL A   1      43.677  28.460  27.190  1.00  0.00    -0.203 F 
ATOM     93  C   UNL A   1      43.547  26.543  25.827  1.00  0.00     0.198 A 
ATOM     94  C   UNL A   1      42.082  24.742  26.430  1.00  0.00     0.198 A 
ATOM     95  F   UNL A   1      40.750  24.908  28.362  1.00  0.00    -0.203 F 
ATOM     96  F   UNL A   1      44.425  27.090  24.974  1.00  0.00    -0.200 F 
ATOM     97  C   UNL A   1      43.015  25.290  25.564  1.00  0.00     0.200 A 
ATOM     98  F   UNL A   1      41.572  23.527  26.183  1.00  0.00    -0.200 F 
ATOM     99  F   UNL A   1      43.395  24.614  24.470  1.00  0.00    -0.200 F 
ENDBRANCH  65  89
BRANCH  77 100
ATOM    100  C   UNL A   1      44.542  26.995  34.422  1.00  0.00     0.064 A 
ATOM    101  C   UNL A   1      44.326  25.750  35.031  1.00  0.00     0.173 A 
ATOM    102  C   UNL A   1      45.840  27.527  34.461  1.00  0.00     0.173 A 
ATOM    103  F   UNL A   1      43.102  25.202  35.033  1.00  0.00    -0.203 F 
ATOM    104  C   UNL A   1      45.363  25.079  35.677  1.00  0.00     0.198 A 
ATOM    105  C   UNL A   1      46.881  26.838  35.079  1.00  0.00     0.198 A 
ATOM    106  F   UNL A   1      46.105  28.710  33.886  1.00  0.00    -0.203 F 
ATOM    107  F   UNL A   1      45.122  23.915  36.296  1.00  0.00    -0.200 F 
ATOM    108  C   UNL A   1      46.640  25.620  35.693  1.00  0.00     0.200 A 
ATOM    109  F   UNL A   1      48.118  27.355  35.078  1.00  0.00    -0.200 F 
ATOM    110  F   UNL A   1      47.638  24.967  36.306  1.00  0.00    -0.200 F 
ENDBRANCH  77 100
ENDBRANCH  51  52
ENDBRANCH  44  46
ENDBRANCH  43  44
ENDBRANCH  42  43
ENDBRANCH  41  42
ENDBRANCH  40  41
ENDBRANCH  39  40
ENDBRANCH  38  39
ENDBRANCH  37  38
ENDBRANCH   1  37
TORSDOF 24
ENDMDL
MODEL 3
REMARK VINA RESULT:     -11.0      4.222      8.950
REMARK SMILES O=C(Nc1ccc(Cl)cc1C(=O)OCCOCCOCCOCCOC(=O)c1ccc(-c2c3nc(c(-c4c(F)c(F)c(F)c(F)c4F)c4ccc([nH]4)c(-c4c(F)c(F)c(F)c(F)c4F)c4nc(c(-c5c(F)c(F)c(F)c(F)c5F)c5ccc2[nH]5)C=C4)C=C3)cc1)c1ccc2c(c1)C(=O)N(Cc1ccco1)C2=O
REMARK SMILES IDX 18 1 17 2 16 3 15 4 14 5 13 6 11 7 12 8 10 9 4 10 5 11 6 12
REMARK SMILES IDX 9 13 7 14 8 15 3 16 1 17 2 18 91 20 92 21 96 22 93 23 95 24
REMARK SMILES IDX 94 25 97 26 106 27 98 28 99 29 107 30 100 31 101 32 102 33
REMARK SMILES IDX 105 34 103 35 104 36 19 37 20 38 21 39 22 40 23 41 24 42
REMARK SMILES IDX 25 43 26 44 27 45 28 46 29 47 90 48 30 49 89 50 31 51 32 52
REMARK SMILES IDX 33 53 83 54 34 55 88 56 82 57 84 58 35 59 87 60 81 61 80 62
REMARK SMILES IDX 36 64 68 65 48 66 67 67 49 68 52 69 66 70 85 71 50 72 51 73
REMARK SMILES IDX 65 75 86 76 53 77 37 78 38 79 46 80 39 81 40 82 44 83 47 84
REMARK SMILES IDX 41 85 42 86 45 87 43 88 69 89 70 90 78 91 71 92 72 93 76 94
REMARK SMILES IDX 79 95 73 96 74 97 77 98 75 99 54 100 55 101 63 102 56 103
REMARK SMILES IDX 57 104 61 105 64 106 58 107 59 108 62 109 60 110
REMARK H PARENT 3 19 84 63 52 74
REMARK Flexibility Score: inf
ROOT
ATOM      1  C   UNL A   1      34.028  27.396  24.368  1.00  0.00     0.188 C 
ENDROOT
BRANCH   1   2
ATOM      2  C   UNL A   1      33.933  25.930  24.827  1.00  0.00     0.188 C 
BRANCH   2   3
ATOM      3  O   UNL A   1      33.592  25.803  26.201  1.00  0.00    -0.376 OA
BRANCH   3   4
ATOM      4  C   UNL A   1      32.491  24.981  26.551  1.00  0.00     0.202 C 
BRANCH   4   5
ATOM      5  C   UNL A   1      32.772  23.711  27.365  1.00  0.00     0.261 C 
BRANCH   5   6
ATOM      6  O   UNL A   1      32.526  22.480  26.677  1.00  0.00    -0.460 OA
BRANCH   6   7
ATOM      7  C   UNL A   1      33.551  21.627  26.481  1.00  0.00     0.340 C 
ATOM      8  O   UNL A   1      33.581  20.457  26.818  1.00  0.00    -0.246 OA
BRANCH   7   9
ATOM      9  C   UNL A   1      34.584  22.287  25.625  1.00  0.00     0.085 A 
ATOM     10  C   UNL A   1      34.616  22.222  24.211  1.00  0.00     0.056 A 
ATOM     11  C   UNL A   1      35.605  22.957  23.546  1.00  0.00     0.028 A 
ATOM     12  C   UNL A   1      36.643  23.577  24.242  1.00  0.00     0.023 A 
ATOM     13  C   UNL A   1      35.644  22.896  26.322  1.00  0.00     0.038 A 
ATOM     14  C   UNL A   1      36.687  23.498  25.625  1.00  0.00     0.042 A 
ATOM     15  Cl  UNL A   1      38.046  24.121  26.469  1.00  0.00    -0.084 Cl
BRANCH  10  16
ATOM     16  N   UNL A   1      33.724  21.351  23.541  1.00  0.00    -0.321 N 
ATOM     17  O   UNL A   1      31.964  20.633  22.305  1.00  0.00    -0.269 OA
ATOM     18  C   UNL A   1      32.494  21.526  22.962  1.00  0.00     0.255 C 
ATOM     19  H   UNL A   1      34.055  20.426  23.479  1.00  0.00     0.170 HD
BRANCH  18  20
ATOM     20  C   UNL A   1      31.733  22.755  23.159  1.00  0.00     0.041 A 
ATOM     21  C   UNL A   1      30.847  22.951  24.244  1.00  0.00     0.015 A 
ATOM     22  C   UNL A   1      32.024  23.768  22.258  1.00  0.00     0.028 A 
ATOM     23  C   UNL A   1      30.250  24.211  24.447  1.00  0.00     0.015 A 
ATOM     24  C   UNL A   1      31.393  24.964  22.473  1.00  0.00     0.054 A 
ATOM     25  C   UNL A   1      30.564  25.216  23.545  1.00  0.00     0.053 A 
ATOM     26  C   UNL A   1      31.634  26.190  21.764  1.00  0.00     0.261 C 
ATOM     27  C   UNL A   1      30.348  26.672  23.555  1.00  0.00     0.261 C 
ATOM     28  O   UNL A   1      32.344  26.210  20.772  1.00  0.00    -0.269 OA
ATOM     29  N   UNL A   1      31.021  27.179  22.464  1.00  0.00    -0.267 N 
ATOM     30  O   UNL A   1      29.779  27.259  24.455  1.00  0.00    -0.269 OA
BRANCH  29  31
ATOM     31  C   UNL A   1      31.393  28.571  22.314  1.00  0.00     0.204 C 
BRANCH  31  32
ATOM     32  C   UNL A   1      30.235  29.504  22.409  1.00  0.00     0.123 A 
ATOM     33  C   UNL A   1      29.634  30.201  23.442  1.00  0.00     0.047 A 
ATOM     34  O   UNL A   1      29.513  29.685  21.264  1.00  0.00    -0.467 OA
ATOM     35  C   UNL A   1      28.530  30.886  22.889  1.00  0.00     0.042 A 
ATOM     36  C   UNL A   1      28.482  30.514  21.568  1.00  0.00     0.195 A 
ENDBRANCH  31  32
ENDBRANCH  29  31
ENDBRANCH  18  20
ENDBRANCH  10  16
ENDBRANCH   7   9
ENDBRANCH   6   7
ENDBRANCH   5   6
ENDBRANCH   4   5
ENDBRANCH   3   4
ENDBRANCH   2   3
ENDBRANCH   1   2
BRANCH   1  37
ATOM     37  O   UNL A   1      33.974  28.371  25.396  1.00  0.00    -0.377 OA
BRANCH  37  38
ATOM     38  C   UNL A   1      32.880  29.290  25.430  1.00  0.00     0.188 C 
BRANCH  38  39
ATOM     39  C   UNL A   1      32.084  29.595  26.724  1.00  0.00     0.188 C 
BRANCH  39  40
ATOM     40  O   UNL A   1      32.277  30.899  27.252  1.00  0.00    -0.376 OA
BRANCH  40  41
ATOM     41  C   UNL A   1      31.478  31.942  26.716  1.00  0.00     0.202 C 
BRANCH  41  42
ATOM     42  C   UNL A   1      32.055  33.349  26.908  1.00  0.00     0.261 C 
BRANCH  42  43
ATOM     43  O   UNL A   1      32.443  33.673  28.252  1.00  0.00    -0.460 OA
BRANCH  43  44
ATOM     44  C   UNL A   1      33.473  34.535  28.401  1.00  0.00     0.338 C 
ATOM     45  O   UNL A   1      33.447  35.747  28.301  1.00  0.00    -0.246 OA
BRANCH  44  46
ATOM     46  C   UNL A   1      34.633  33.766  28.891  1.00  0.00     0.060 A 
ATOM     47  C   UNL A   1      34.413  32.578  29.600  1.00  0.00     0.016 A 
ATOM     48  C   UNL A   1      35.930  34.223  28.650  1.00  0.00     0.016 A 
ATOM     49  C   UNL A   1      35.496  31.861  30.105  1.00  0.00     0.010 A 
ATOM     50  C   UNL A   1      37.012  33.513  29.171  1.00  0.00     0.010 A 
ATOM     51  C   UNL A   1      36.798  32.349  29.930  1.00  0.00    -0.014 A 
BRANCH  51  52
ATOM     52  C   UNL A   1      37.917  31.764  30.704  1.00  0.00     0.031 A 
ATOM     53  C   UNL A   1      38.767  30.715  30.044  1.00  0.00     0.074 A 
ATOM     54  C   UNL A   1      38.178  32.153  31.963  1.00  0.00     0.049 A 
ATOM     55  N   UNL A   1      39.758  30.013  30.531  1.00  0.00    -0.248 NA
ATOM     56  C   UNL A   1      38.447  30.412  28.639  1.00  0.00     0.031 C 
ATOM     57  C   UNL A   1      37.445  33.178  32.699  1.00  0.00     0.029 A 
ATOM     58  N   UNL A   1      39.130  31.711  32.848  1.00  0.00    -0.354 N 
ATOM     59  C   UNL A   1      40.177  29.187  29.497  1.00  0.00     0.074 A 
ATOM     60  C   UNL A   1      39.309  29.445  28.367  1.00  0.00     0.031 C 
ATOM     61  C   UNL A   1      37.963  33.276  33.936  1.00  0.00     0.029 A 
ATOM     62  C   UNL A   1      39.041  32.298  34.086  1.00  0.00     0.049 A 
ATOM     63  H   UNL A   1      39.811  31.039  32.618  1.00  0.00     0.167 HD
ATOM     64  C   UNL A   1      41.200  28.301  29.485  1.00  0.00     0.037 A 
ATOM     65  C   UNL A   1      39.732  32.050  35.214  1.00  0.00     0.037 A 
ATOM     66  C   UNL A   1      42.050  28.035  30.614  1.00  0.00     0.049 A 
ATOM     67  C   UNL A   1      40.818  31.003  35.203  1.00  0.00     0.074 A 
ATOM     68  C   UNL A   1      43.119  27.161  30.704  1.00  0.00     0.029 A 
ATOM     69  N   UNL A   1      41.917  28.634  31.859  1.00  0.00    -0.354 N 
ATOM     70  N   UNL A   1      41.230  30.244  34.216  1.00  0.00    -0.248 NA
ATOM     71  C   UNL A   1      41.540  30.783  36.466  1.00  0.00     0.031 C 
ATOM     72  C   UNL A   1      43.596  27.190  32.019  1.00  0.00     0.029 A 
ATOM     73  C   UNL A   1      42.867  28.129  32.732  1.00  0.00     0.049 A 
ATOM     74  H   UNL A   1      41.245  29.317  32.088  1.00  0.00     0.167 HD
ATOM     75  C   UNL A   1      42.271  29.478  34.727  1.00  0.00     0.074 A 
ATOM     76  C   UNL A   1      42.438  29.874  36.110  1.00  0.00     0.031 C 
ATOM     77  C   UNL A   1      43.022  28.535  34.107  1.00  0.00     0.037 A 
BRANCH  64  78
ATOM     78  C   UNL A   1      41.429  27.534  28.214  1.00  0.00     0.064 A 
ATOM     79  C   UNL A   1      41.007  26.203  28.070  1.00  0.00     0.173 A 
ATOM     80  C   UNL A   1      42.077  28.137  27.126  1.00  0.00     0.173 A 
ATOM     81  F   UNL A   1      40.398  25.573  29.086  1.00  0.00    -0.203 F 
ATOM     82  C   UNL A   1      41.258  25.494  26.897  1.00  0.00     0.198 A 
ATOM     83  C   UNL A   1      42.296  27.436  25.943  1.00  0.00     0.198 A 
ATOM     84  F   UNL A   1      42.499  29.408  27.209  1.00  0.00    -0.203 F 
ATOM     85  F   UNL A   1      40.901  24.206  26.805  1.00  0.00    -0.200 F 
ATOM     86  C   UNL A   1      41.897  26.113  25.834  1.00  0.00     0.200 A 
ATOM     87  F   UNL A   1      42.903  28.040  24.913  1.00  0.00    -0.200 F 
ATOM     88  F   UNL A   1      42.138  25.431  24.706  1.00  0.00    -0.200 F 
ENDBRANCH  64  78
BRANCH  65  89
ATOM     89  C   UNL A   1      39.407  32.797  36.459  1.00  0.00     0.064 A 
ATOM     90  C   UNL A   1      38.430  32.333  37.349  1.00  0.00     0.173 A 
ATOM     91  C   UNL A   1      40.066  33.994  36.777  1.00  0.00     0.173 A 
ATOM     92  F   UNL A   1      37.753  31.209  37.073  1.00  0.00    -0.203 F 
ATOM     93  C   UNL A   1      38.116  33.044  38.505  1.00  0.00     0.198 A 
ATOM     94  C   UNL A   1      39.770  34.688  37.949  1.00  0.00     0.198 A 
ATOM     95  F   UNL A   1      41.003  34.485  35.955  1.00  0.00    -0.203 F 
ATOM     96  F   UNL A   1      37.145  32.602  39.318  1.00  0.00    -0.200 F 
ATOM     97  C   UNL A   1      38.791  34.216  38.808  1.00  0.00     0.200 A 
ATOM     98  F   UNL A   1      40.432  35.816  38.242  1.00  0.00    -0.200 F 
ATOM     99  F   UNL A   1      38.491  34.896  39.923  1.00  0.00    -0.200 F 
ENDBRANCH  65  89
BRANCH  77 100
ATOM    100  C   UNL A   1      44.119  27.886  34.904  1.00  0.00     0.064 A 
ATOM    101  C   UNL A   1      43.924  26.676  35.584  1.00  0.00     0.173 A 
ATOM    102  C   UNL A   1      45.399  28.462  34.946  1.00  0.00     0.173 A 
ATOM    103  F   UNL A   1      42.718  26.089  35.587  1.00  0.00    -0.203 F 
ATOM    104  C   UNL A   1      44.961  26.079  36.299  1.00  0.00     0.198 A 
ATOM    105  C   UNL A   1      46.442  27.847  35.634  1.00  0.00     0.198 A 
ATOM    106  F   UNL A   1      45.645  29.615  34.305  1.00  0.00    -0.203 F 
ATOM    107  F   UNL A   1      44.738  24.948  36.982  1.00  0.00    -0.200 F 
ATOM    108  C   UNL A   1      46.220  26.661  36.317  1.00  0.00     0.200 A 
ATOM    109  F   UNL A   1      47.662  28.402  35.635  1.00  0.00    -0.200 F 
ATOM    110  F   UNL A   1      47.219  26.080  36.996  1.00  0.00    -0.200 F 
ENDBRANCH  77 100
ENDBRANCH  51  52
ENDBRANCH  44  46
ENDBRANCH  43  44
ENDBRANCH  42  43
ENDBRANCH  41  42
ENDBRANCH  40  41
ENDBRANCH  39  40
ENDBRANCH  38  39
ENDBRANCH  37  38
ENDBRANCH   1  37
TORSDOF 24
ENDMDL
