MODEL 1
REMARK VINA RESULT:     -11.3      0.000      0.000
REMARK SMILES C[C@H]1CCCCN1C(=O)N1Cc2nc[nH]c2C[C@H]1C(=O)OCCOCCOCCOCCOC(=O)c1ccc(-c2c3nc(c(-c4c(F)c(F)c(F)c(F)c4F)c4ccc([nH]4)c(-c4c(F)c(F)c(F)c(F)c4F)c4nc(c(-c5c(F)c(F)c(F)c(F)c5F)c5ccc2[nH]5)C=C4)C=C3)cc1
REMARK SMILES IDX 27 1 26 2 25 3 24 4 23 5 22 6 21 7 19 8 20 9 18 10 10 11
REMARK SMILES IDX 11 12 12 13 17 14 13 15 16 16 14 17 15 18 8 20 9 21 7 22
REMARK SMILES IDX 1 23 2 24 3 25 4 26 6 27 5 28 28 29 29 30 30 31 31 32 32 33
REMARK SMILES IDX 33 34 34 35 35 36 36 37 37 38 98 39 38 40 97 41 39 42 40 43
REMARK SMILES IDX 41 44 91 45 42 46 96 47 90 48 92 49 43 50 95 51 89 52 88 53
REMARK SMILES IDX 44 55 76 56 56 57 75 58 57 59 60 60 74 61 93 62 58 63 59 64
REMARK SMILES IDX 73 66 94 67 61 68 45 69 46 70 54 71 47 72 48 73 52 74 55 75
REMARK SMILES IDX 49 76 50 77 53 78 51 79 77 80 78 81 86 82 79 83 80 84 84 85
REMARK SMILES IDX 87 86 81 87 82 88 85 89 83 90 62 91 63 92 71 93 64 94 65 95
REMARK SMILES IDX 69 96 72 97 66 98 67 99 70 100 68 101
REMARK H PARENT 15 19 92 54 60 65
REMARK Flexibility Score: inf
ROOT
ATOM      1  O   UNL A   1      38.901  22.780  26.212  1.00  0.00    -0.377 OA
ENDROOT
BRANCH   1   2
ATOM      2  C   UNL A   1      37.594  22.647  25.692  1.00  0.00     0.188 C 
BRANCH   2   3
ATOM      3  C   UNL A   1      37.399  21.432  24.762  1.00  0.00     0.188 C 
BRANCH   3   4
ATOM      4  O   UNL A   1      36.321  20.548  25.014  1.00  0.00    -0.376 OA
BRANCH   4   5
ATOM      5  C   UNL A   1      35.000  21.054  24.873  1.00  0.00     0.202 C 
BRANCH   5   6
ATOM      6  C   UNL A   1      33.932  20.871  25.976  1.00  0.00     0.261 C 
BRANCH   6   7
ATOM      7  O   UNL A   1      32.930  21.900  26.120  1.00  0.00    -0.462 OA
BRANCH   7   8
ATOM      8  C   UNL A   1      33.354  23.174  26.346  1.00  0.00     0.329 C 
ATOM      9  O   UNL A   1      34.401  23.449  26.928  1.00  0.00    -0.250 OA
BRANCH   8  10
ATOM     10  C   UNL A   1      32.335  24.282  25.929  1.00  0.00     0.203 C 
ATOM     11  N   UNL A   1      32.825  25.625  25.444  1.00  0.00    -0.304 N 
ATOM     12  C   UNL A   1      33.601  25.611  24.150  1.00  0.00     0.180 C 
ATOM     13  C   UNL A   1      33.179  24.483  23.265  1.00  0.00     0.081 A 
ATOM     14  C   UNL A   1      31.442  23.582  24.853  1.00  0.00     0.093 C 
ATOM     15  N   UNL A   1      33.794  24.130  22.093  1.00  0.00    -0.240 NA
ATOM     16  C   UNL A   1      32.211  23.563  23.590  1.00  0.00     0.042 A 
ATOM     17  C   UNL A   1      33.217  23.005  21.727  1.00  0.00     0.197 A 
ATOM     18  N   UNL A   1      32.249  22.612  22.615  1.00  0.00    -0.348 N 
ATOM     19  H   UNL A   1      31.691  21.804  22.560  1.00  0.00     0.167 HD
BRANCH  11  20
ATOM     20  C   UNL A   1      32.221  26.836  25.737  1.00  0.00     0.321 C 
ATOM     21  O   UNL A   1      31.113  26.804  26.290  1.00  0.00    -0.248 OA
BRANCH  20  22
ATOM     22  N   UNL A   1      32.759  28.082  25.405  1.00  0.00    -0.322 N 
ATOM     23  C   UNL A   1      31.315  29.222  23.564  1.00  0.00     0.031 C 
ATOM     24  C   UNL A   1      32.213  29.309  24.767  1.00  0.00     0.083 C 
ATOM     25  C   UNL A   1      31.604  30.209  25.855  1.00  0.00     0.025 C 
ATOM     26  C   UNL A   1      32.674  30.624  26.867  1.00  0.00     0.004 C 
ATOM     27  C   UNL A   1      33.900  28.479  26.269  1.00  0.00     0.121 C 
ATOM     28  C   UNL A   1      33.422  29.403  27.404  1.00  0.00     0.022 C 
ENDBRANCH  20  22
ENDBRANCH  11  20
ENDBRANCH   8  10
ENDBRANCH   7   8
ENDBRANCH   6   7
ENDBRANCH   5   6
ENDBRANCH   4   5
ENDBRANCH   3   4
ENDBRANCH   2   3
ENDBRANCH   1   2
BRANCH   1  29
ATOM     29  C   UNL A   1      39.731  21.628  26.140  1.00  0.00     0.188 C 
BRANCH  29  30
ATOM     30  C   UNL A   1      40.740  21.314  27.273  1.00  0.00     0.188 C 
BRANCH  30  31
ATOM     31  O   UNL A   1      41.203  19.965  27.348  1.00  0.00    -0.376 OA
BRANCH  31  32
ATOM     32  C   UNL A   1      41.514  19.244  26.166  1.00  0.00     0.202 C 
BRANCH  32  33
ATOM     33  C   UNL A   1      42.990  19.231  25.771  1.00  0.00     0.261 C 
BRANCH  33  34
ATOM     34  O   UNL A   1      43.351  20.267  24.876  1.00  0.00    -0.460 OA
BRANCH  34  35
ATOM     35  C   UNL A   1      44.658  20.516  24.836  1.00  0.00     0.338 C 
ATOM     36  O   UNL A   1      45.580  19.681  24.848  1.00  0.00    -0.246 OA
BRANCH  35  37
ATOM     37  C   UNL A   1      44.886  21.944  24.937  1.00  0.00     0.060 A 
ATOM     38  C   UNL A   1      45.720  22.341  25.978  1.00  0.00     0.016 A 
ATOM     39  C   UNL A   1      44.015  22.829  24.276  1.00  0.00     0.016 A 
ATOM     40  C   UNL A   1      45.473  23.557  26.550  1.00  0.00     0.010 A 
ATOM     41  C   UNL A   1      43.772  24.050  24.850  1.00  0.00     0.010 A 
ATOM     42  C   UNL A   1      44.432  24.344  26.036  1.00  0.00    -0.014 A 
BRANCH  42  43
ATOM     43  C   UNL A   1      44.112  25.529  26.789  1.00  0.00     0.031 A 
ATOM     44  C   UNL A   1      45.120  26.589  26.626  1.00  0.00     0.074 A 
ATOM     45  C   UNL A   1      43.023  25.627  27.569  1.00  0.00     0.049 A 
ATOM     46  N   UNL A   1      45.941  27.034  27.516  1.00  0.00    -0.248 NA
ATOM     47  C   UNL A   1      45.355  27.087  25.263  1.00  0.00     0.031 C 
ATOM     48  C   UNL A   1      41.848  24.756  27.614  1.00  0.00     0.029 A 
ATOM     49  N   UNL A   1      42.716  26.616  28.447  1.00  0.00    -0.354 N 
ATOM     50  C   UNL A   1      46.683  28.009  26.867  1.00  0.00     0.074 A 
ATOM     51  C   UNL A   1      46.396  27.893  25.459  1.00  0.00     0.031 C 
ATOM     52  C   UNL A   1      40.870  25.377  28.313  1.00  0.00     0.029 A 
ATOM     53  C   UNL A   1      41.398  26.615  28.865  1.00  0.00     0.049 A 
ATOM     54  H   UNL A   1      43.376  27.277  28.759  1.00  0.00     0.167 HD
ATOM     55  C   UNL A   1      47.268  29.013  27.565  1.00  0.00     0.037 A 
ATOM     56  C   UNL A   1      40.785  27.615  29.541  1.00  0.00     0.037 A 
ATOM     57  C   UNL A   1      47.479  28.660  28.944  1.00  0.00     0.049 A 
ATOM     58  C   UNL A   1      41.843  28.446  30.172  1.00  0.00     0.074 A 
ATOM     59  C   UNL A   1      48.196  27.669  29.585  1.00  0.00     0.029 A 
ATOM     60  N   UNL A   1      46.606  29.153  29.881  1.00  0.00    -0.354 N 
ATOM     61  N   UNL A   1      42.588  28.051  31.166  1.00  0.00    -0.248 NA
ATOM     62  C   UNL A   1      42.359  29.583  29.424  1.00  0.00     0.031 C 
ATOM     63  C   UNL A   1      47.410  27.309  30.720  1.00  0.00     0.029 A 
ATOM     64  C   UNL A   1      46.277  28.124  30.727  1.00  0.00     0.049 A 
ATOM     65  H   UNL A   1      46.274  30.078  29.936  1.00  0.00     0.167 HD
ATOM     66  C   UNL A   1      43.840  28.592  30.906  1.00  0.00     0.074 A 
ATOM     67  C   UNL A   1      43.609  29.615  29.893  1.00  0.00     0.031 C 
ATOM     68  C   UNL A   1      44.975  27.966  31.332  1.00  0.00     0.037 A 
BRANCH  55  69
ATOM     69  C   UNL A   1      47.268  30.425  27.060  1.00  0.00     0.064 A 
ATOM     70  C   UNL A   1      48.467  31.153  27.024  1.00  0.00     0.173 A 
ATOM     71  C   UNL A   1      46.083  31.176  26.874  1.00  0.00     0.173 A 
ATOM     72  F   UNL A   1      49.640  30.540  27.241  1.00  0.00    -0.203 F 
ATOM     73  C   UNL A   1      48.475  32.539  26.851  1.00  0.00     0.198 A 
ATOM     74  C   UNL A   1      46.098  32.546  26.642  1.00  0.00     0.198 A 
ATOM     75  F   UNL A   1      44.867  30.636  27.029  1.00  0.00    -0.203 F 
ATOM     76  F   UNL A   1      49.629  33.212  26.937  1.00  0.00    -0.200 F 
ATOM     77  C   UNL A   1      47.291  33.233  26.656  1.00  0.00     0.200 A 
ATOM     78  F   UNL A   1      44.938  33.201  26.486  1.00  0.00    -0.200 F 
ATOM     79  F   UNL A   1      47.296  34.567  26.541  1.00  0.00    -0.200 F 
ENDBRANCH  55  69
BRANCH  56  80
ATOM     80  C   UNL A   1      39.386  28.079  29.411  1.00  0.00     0.064 A 
ATOM     81  C   UNL A   1      38.571  28.232  30.543  1.00  0.00     0.173 A 
ATOM     82  C   UNL A   1      38.909  28.647  28.214  1.00  0.00     0.173 A 
ATOM     83  F   UNL A   1      38.974  27.758  31.732  1.00  0.00    -0.203 F 
ATOM     84  C   UNL A   1      37.367  28.939  30.489  1.00  0.00     0.198 A 
ATOM     85  C   UNL A   1      37.701  29.343  28.157  1.00  0.00     0.198 A 
ATOM     86  F   UNL A   1      39.647  28.626  27.095  1.00  0.00    -0.203 F 
ATOM     87  F   UNL A   1      36.650  29.125  31.607  1.00  0.00    -0.200 F 
ATOM     88  C   UNL A   1      36.939  29.503  29.298  1.00  0.00     0.200 A 
ATOM     89  F   UNL A   1      37.315  29.912  27.007  1.00  0.00    -0.200 F 
ATOM     90  F   UNL A   1      35.816  30.234  29.259  1.00  0.00    -0.200 F 
ENDBRANCH  56  80
BRANCH  68  91
ATOM     91  C   UNL A   1      44.815  26.860  32.339  1.00  0.00     0.064 A 
ATOM     92  C   UNL A   1      44.701  27.068  33.726  1.00  0.00     0.173 A 
ATOM     93  C   UNL A   1      44.665  25.549  31.871  1.00  0.00     0.173 A 
ATOM     94  F   UNL A   1      44.727  28.303  34.244  1.00  0.00    -0.203 F 
ATOM     95  C   UNL A   1      44.508  26.001  34.603  1.00  0.00     0.198 A 
ATOM     96  C   UNL A   1      44.431  24.490  32.746  1.00  0.00     0.198 A 
ATOM     97  F   UNL A   1      44.706  25.296  30.553  1.00  0.00    -0.203 F 
ATOM     98  F   UNL A   1      44.430  26.222  35.924  1.00  0.00    -0.200 F 
ATOM     99  C   UNL A   1      44.369  24.715  34.111  1.00  0.00     0.200 A 
ATOM    100  F   UNL A   1      44.247  23.254  32.261  1.00  0.00    -0.200 F 
ATOM    101  F   UNL A   1      44.149  23.693  34.950  1.00  0.00    -0.200 F 
ENDBRANCH  68  91
ENDBRANCH  42  43
ENDBRANCH  35  37
ENDBRANCH  34  35
ENDBRANCH  33  34
ENDBRANCH  32  33
ENDBRANCH  31  32
ENDBRANCH  30  31
ENDBRANCH  29  30
ENDBRANCH   1  29
TORSDOF 22
ENDMDL
MODEL 2
REMARK VINA RESULT:     -11.2      1.260      2.500
REMARK SMILES C[C@H]1CCCCN1C(=O)N1Cc2nc[nH]c2C[C@H]1C(=O)OCCOCCOCCOCCOC(=O)c1ccc(-c2c3nc(c(-c4c(F)c(F)c(F)c(F)c4F)c4ccc([nH]4)c(-c4c(F)c(F)c(F)c(F)c4F)c4nc(c(-c5c(F)c(F)c(F)c(F)c5F)c5ccc2[nH]5)C=C4)C=C3)cc1
REMARK SMILES IDX 27 1 26 2 25 3 24 4 23 5 22 6 21 7 19 8 20 9 18 10 10 11
REMARK SMILES IDX 11 12 12 13 17 14 13 15 16 16 14 17 15 18 8 20 9 21 7 22
REMARK SMILES IDX 1 23 2 24 3 25 4 26 6 27 5 28 28 29 29 30 30 31 31 32 32 33
REMARK SMILES IDX 33 34 34 35 35 36 36 37 37 38 98 39 38 40 97 41 39 42 40 43
REMARK SMILES IDX 41 44 91 45 42 46 96 47 90 48 92 49 43 50 95 51 89 52 88 53
REMARK SMILES IDX 44 55 76 56 56 57 75 58 57 59 60 60 74 61 93 62 58 63 59 64
REMARK SMILES IDX 73 66 94 67 61 68 45 69 46 70 54 71 47 72 48 73 52 74 55 75
REMARK SMILES IDX 49 76 50 77 53 78 51 79 77 80 78 81 86 82 79 83 80 84 84 85
REMARK SMILES IDX 87 86 81 87 82 88 85 89 83 90 62 91 63 92 71 93 64 94 65 95
REMARK SMILES IDX 69 96 72 97 66 98 67 99 70 100 68 101
REMARK H PARENT 15 19 92 54 60 65
REMARK Flexibility Score: inf
ROOT
ATOM      1  O   UNL A   1      39.354  22.844  26.513  1.00  0.00    -0.377 OA
ENDROOT
BRANCH   1   2
ATOM      2  C   UNL A   1      38.014  22.869  26.064  1.00  0.00     0.188 C 
BRANCH   2   3
ATOM      3  C   UNL A   1      37.537  21.559  25.406  1.00  0.00     0.188 C 
BRANCH   3   4
ATOM      4  O   UNL A   1      37.228  21.566  24.023  1.00  0.00    -0.376 OA
BRANCH   4   5
ATOM      5  C   UNL A   1      36.780  22.786  23.448  1.00  0.00     0.202 C 
BRANCH   5   6
ATOM      6  C   UNL A   1      35.318  22.983  22.986  1.00  0.00     0.261 C 
BRANCH   6   7
ATOM      7  O   UNL A   1      34.722  24.285  23.175  1.00  0.00    -0.462 OA
BRANCH   7   8
ATOM      8  C   UNL A   1      33.477  24.494  22.667  1.00  0.00     0.329 C 
ATOM      9  O   UNL A   1      33.218  24.465  21.466  1.00  0.00    -0.250 OA
BRANCH   8  10
ATOM     10  C   UNL A   1      32.407  24.916  23.725  1.00  0.00     0.203 C 
ATOM     11  N   UNL A   1      32.829  25.337  25.112  1.00  0.00    -0.304 N 
ATOM     12  C   UNL A   1      33.654  26.598  25.191  1.00  0.00     0.180 C 
ATOM     13  C   UNL A   1      33.338  27.536  24.072  1.00  0.00     0.081 A 
ATOM     14  C   UNL A   1      31.602  26.050  23.009  1.00  0.00     0.093 C 
ATOM     15  N   UNL A   1      34.019  28.693  23.799  1.00  0.00    -0.240 NA
ATOM     16  C   UNL A   1      32.418  27.280  23.082  1.00  0.00     0.042 A 
ATOM     17  C   UNL A   1      33.528  29.119  22.653  1.00  0.00     0.197 A 
ATOM     18  N   UNL A   1      32.554  28.284  22.171  1.00  0.00    -0.348 N 
ATOM     19  H   UNL A   1      32.050  28.388  21.332  1.00  0.00     0.167 HD
BRANCH  11  20
ATOM     20  C   UNL A   1      32.140  25.029  26.272  1.00  0.00     0.321 C 
ATOM     21  O   UNL A   1      31.557  25.954  26.855  1.00  0.00    -0.248 OA
BRANCH  20  22
ATOM     22  N   UNL A   1      32.103  23.757  26.849  1.00  0.00    -0.322 N 
ATOM     23  C   UNL A   1      29.657  22.872  26.922  1.00  0.00     0.031 C 
ATOM     24  C   UNL A   1      31.137  22.628  26.809  1.00  0.00     0.083 C 
ATOM     25  C   UNL A   1      31.464  21.732  25.603  1.00  0.00     0.025 C 
ATOM     26  C   UNL A   1      32.875  21.156  25.732  1.00  0.00     0.004 C 
ATOM     27  C   UNL A   1      33.452  23.200  27.130  1.00  0.00     0.121 C 
ATOM     28  C   UNL A   1      33.898  22.264  25.991  1.00  0.00     0.022 C 
ENDBRANCH  20  22
ENDBRANCH  11  20
ENDBRANCH   8  10
ENDBRANCH   7   8
ENDBRANCH   6   7
ENDBRANCH   5   6
ENDBRANCH   4   5
ENDBRANCH   3   4
ENDBRANCH   2   3
ENDBRANCH   1   2
BRANCH   1  29
ATOM     29  C   UNL A   1      40.001  21.578  26.497  1.00  0.00     0.188 C 
BRANCH  29  30
ATOM     30  C   UNL A   1      41.143  21.266  27.497  1.00  0.00     0.188 C 
BRANCH  30  31
ATOM     31  O   UNL A   1      41.752  19.980  27.377  1.00  0.00    -0.376 OA
BRANCH  31  32
ATOM     32  C   UNL A   1      41.829  19.335  26.116  1.00  0.00     0.202 C 
BRANCH  32  33
ATOM     33  C   UNL A   1      43.228  19.232  25.512  1.00  0.00     0.261 C 
BRANCH  33  34
ATOM     34  O   UNL A   1      43.618  20.378  24.777  1.00  0.00    -0.460 OA
BRANCH  34  35
ATOM     35  C   UNL A   1      44.883  20.744  24.975  1.00  0.00     0.338 C 
ATOM     36  O   UNL A   1      45.843  20.001  25.246  1.00  0.00    -0.246 OA
BRANCH  35  37
ATOM     37  C   UNL A   1      44.976  22.190  24.990  1.00  0.00     0.060 A 
ATOM     38  C   UNL A   1      45.880  22.719  25.907  1.00  0.00     0.016 A 
ATOM     39  C   UNL A   1      43.951  22.952  24.401  1.00  0.00     0.016 A 
ATOM     40  C   UNL A   1      45.578  23.934  26.453  1.00  0.00     0.010 A 
ATOM     41  C   UNL A   1      43.654  24.173  24.949  1.00  0.00     0.010 A 
ATOM     42  C   UNL A   1      44.412  24.590  26.036  1.00  0.00    -0.014 A 
BRANCH  42  43
ATOM     43  C   UNL A   1      44.062  25.778  26.772  1.00  0.00     0.031 A 
ATOM     44  C   UNL A   1      45.036  26.865  26.582  1.00  0.00     0.074 A 
ATOM     45  C   UNL A   1      42.978  25.856  27.559  1.00  0.00     0.049 A 
ATOM     46  N   UNL A   1      45.851  27.350  27.457  1.00  0.00    -0.248 NA
ATOM     47  C   UNL A   1      45.244  27.346  25.209  1.00  0.00     0.031 C 
ATOM     48  C   UNL A   1      41.830  24.950  27.629  1.00  0.00     0.029 A 
ATOM     49  N   UNL A   1      42.649  26.849  28.424  1.00  0.00    -0.354 N 
ATOM     50  C   UNL A   1      46.557  28.335  26.785  1.00  0.00     0.074 A 
ATOM     51  C   UNL A   1      46.262  28.187  25.383  1.00  0.00     0.031 C 
ATOM     52  C   UNL A   1      40.839  25.552  28.327  1.00  0.00     0.029 A 
ATOM     53  C   UNL A   1      41.335  26.815  28.854  1.00  0.00     0.049 A 
ATOM     54  H   UNL A   1      43.291  27.535  28.720  1.00  0.00     0.167 HD
ATOM     55  C   UNL A   1      47.118  29.368  27.462  1.00  0.00     0.037 A 
ATOM     56  C   UNL A   1      40.697  27.807  29.519  1.00  0.00     0.037 A 
ATOM     57  C   UNL A   1      47.351  29.044  28.844  1.00  0.00     0.049 A 
ATOM     58  C   UNL A   1      41.735  28.681  30.127  1.00  0.00     0.074 A 
ATOM     59  C   UNL A   1      48.103  28.086  29.495  1.00  0.00     0.029 A 
ATOM     60  N   UNL A   1      46.472  29.526  29.781  1.00  0.00    -0.354 N 
ATOM     61  N   UNL A   1      42.500  28.325  31.120  1.00  0.00    -0.248 NA
ATOM     62  C   UNL A   1      42.210  29.820  29.356  1.00  0.00     0.031 C 
ATOM     63  C   UNL A   1      47.338  27.722  30.643  1.00  0.00     0.029 A 
ATOM     64  C   UNL A   1      46.181  28.502  30.647  1.00  0.00     0.049 A 
ATOM     65  H   UNL A   1      46.112  30.442  29.824  1.00  0.00     0.167 HD
ATOM     66  C   UNL A   1      43.733  28.899  30.840  1.00  0.00     0.074 A 
ATOM     67  C   UNL A   1      43.462  29.898  29.813  1.00  0.00     0.031 C 
ATOM     68  C   UNL A   1      44.890  28.315  31.267  1.00  0.00     0.037 A 
BRANCH  55  69
ATOM     69  C   UNL A   1      47.070  30.771  26.933  1.00  0.00     0.064 A 
ATOM     70  C   UNL A   1      48.235  31.553  26.926  1.00  0.00     0.173 A 
ATOM     71  C   UNL A   1      45.859  31.463  26.696  1.00  0.00     0.173 A 
ATOM     72  F   UNL A   1      49.427  30.999  27.194  1.00  0.00    -0.203 F 
ATOM     73  C   UNL A   1      48.185  32.935  26.731  1.00  0.00     0.198 A 
ATOM     74  C   UNL A   1      45.819  32.829  26.441  1.00  0.00     0.198 A 
ATOM     75  F   UNL A   1      44.665  30.870  26.818  1.00  0.00    -0.203 F 
ATOM     76  F   UNL A   1      49.304  33.662  26.845  1.00  0.00    -0.200 F 
ATOM     77  C   UNL A   1      46.979  33.570  26.485  1.00  0.00     0.200 A 
ATOM     78  F   UNL A   1      44.637  33.426  26.235  1.00  0.00    -0.200 F 
ATOM     79  F   UNL A   1      46.926  34.901  26.347  1.00  0.00    -0.200 F 
ENDBRANCH  55  69
BRANCH  56  80
ATOM     80  C   UNL A   1      39.284  28.227  29.394  1.00  0.00     0.064 A 
ATOM     81  C   UNL A   1      38.468  28.349  30.529  1.00  0.00     0.173 A 
ATOM     82  C   UNL A   1      38.785  28.784  28.200  1.00  0.00     0.173 A 
ATOM     83  F   UNL A   1      38.888  27.884  31.715  1.00  0.00    -0.203 F 
ATOM     84  C   UNL A   1      37.241  29.018  30.480  1.00  0.00     0.198 A 
ATOM     85  C   UNL A   1      37.556  29.440  28.150  1.00  0.00     0.198 A 
ATOM     86  F   UNL A   1      39.522  28.790  27.080  1.00  0.00    -0.203 F 
ATOM     87  F   UNL A   1      36.522  29.176  31.601  1.00  0.00    -0.200 F 
ATOM     88  C   UNL A   1      36.792  29.571  29.293  1.00  0.00     0.200 A 
ATOM     89  F   UNL A   1      37.149  30.001  27.003  1.00  0.00    -0.200 F 
ATOM     90  F   UNL A   1      35.646  30.266  29.259  1.00  0.00    -0.200 F 
ENDBRANCH  56  80
BRANCH  68  91
ATOM     91  C   UNL A   1      44.772  27.222  32.293  1.00  0.00     0.064 A 
ATOM     92  C   UNL A   1      44.714  27.447  33.680  1.00  0.00     0.173 A 
ATOM     93  C   UNL A   1      44.605  25.904  31.848  1.00  0.00     0.173 A 
ATOM     94  F   UNL A   1      44.759  28.688  34.181  1.00  0.00    -0.203 F 
ATOM     95  C   UNL A   1      44.558  26.391  34.577  1.00  0.00     0.198 A 
ATOM     96  C   UNL A   1      44.409  24.857  32.744  1.00  0.00     0.198 A 
ATOM     97  F   UNL A   1      44.594  25.635  30.532  1.00  0.00    -0.203 F 
ATOM     98  F   UNL A   1      44.532  26.628  35.897  1.00  0.00    -0.200 F 
ATOM     99  C   UNL A   1      44.401  25.098  34.108  1.00  0.00     0.200 A 
ATOM    100  F   UNL A   1      44.207  23.614  32.283  1.00  0.00    -0.200 F 
ATOM    101  F   UNL A   1      44.216  24.086  34.968  1.00  0.00    -0.200 F 
ENDBRANCH  68  91
ENDBRANCH  42  43
ENDBRANCH  35  37
ENDBRANCH  34  35
ENDBRANCH  33  34
ENDBRANCH  32  33
ENDBRANCH  31  32
ENDBRANCH  30  31
ENDBRANCH  29  30
ENDBRANCH   1  29
TORSDOF 22
ENDMDL
MODEL 3
REMARK VINA RESULT:     -11.1      1.555      2.774
REMARK SMILES C[C@H]1CCCCN1C(=O)N1Cc2nc[nH]c2C[C@H]1C(=O)OCCOCCOCCOCCOC(=O)c1ccc(-c2c3nc(c(-c4c(F)c(F)c(F)c(F)c4F)c4ccc([nH]4)c(-c4c(F)c(F)c(F)c(F)c4F)c4nc(c(-c5c(F)c(F)c(F)c(F)c5F)c5ccc2[nH]5)C=C4)C=C3)cc1
REMARK SMILES IDX 27 1 26 2 25 3 24 4 23 5 22 6 21 7 19 8 20 9 18 10 10 11
REMARK SMILES IDX 11 12 12 13 17 14 13 15 16 16 14 17 15 18 8 20 9 21 7 22
REMARK SMILES IDX 1 23 2 24 3 25 4 26 6 27 5 28 28 29 29 30 30 31 31 32 32 33
REMARK SMILES IDX 33 34 34 35 35 36 36 37 37 38 98 39 38 40 97 41 39 42 40 43
REMARK SMILES IDX 41 44 91 45 42 46 96 47 90 48 92 49 43 50 95 51 89 52 88 53
REMARK SMILES IDX 44 55 76 56 56 57 75 58 57 59 60 60 74 61 93 62 58 63 59 64
REMARK SMILES IDX 73 66 94 67 61 68 45 69 46 70 54 71 47 72 48 73 52 74 55 75
REMARK SMILES IDX 49 76 50 77 53 78 51 79 77 80 78 81 86 82 79 83 80 84 84 85
REMARK SMILES IDX 87 86 81 87 82 88 85 89 83 90 62 91 63 92 71 93 64 94 65 95
REMARK SMILES IDX 69 96 72 97 66 98 67 99 70 100 68 101
REMARK H PARENT 15 19 92 54 60 65
REMARK Flexibility Score: inf
ROOT
ATOM      1  O   UNL A   1      42.149  21.350  27.047  1.00  0.00    -0.377 OA
ENDROOT
BRANCH   1   2
ATOM      2  C   UNL A   1      41.208  21.882  26.137  1.00  0.00     0.188 C 
BRANCH   2   3
ATOM      3  C   UNL A   1      39.817  22.156  26.746  1.00  0.00     0.188 C 
BRANCH   3   4
ATOM      4  O   UNL A   1      38.673  22.004  25.924  1.00  0.00    -0.376 OA
BRANCH   4   5
ATOM      5  C   UNL A   1      37.791  23.112  25.799  1.00  0.00     0.202 C 
BRANCH   5   6
ATOM      6  C   UNL A   1      36.917  23.323  24.542  1.00  0.00     0.261 C 
BRANCH   6   7
ATOM      7  O   UNL A   1      36.201  22.183  24.020  1.00  0.00    -0.462 OA
BRANCH   7   8
ATOM      8  C   UNL A   1      35.449  21.453  24.888  1.00  0.00     0.329 C 
ATOM      9  O   UNL A   1      35.748  20.321  25.262  1.00  0.00    -0.250 OA
BRANCH   8  10
ATOM     10  C   UNL A   1      34.085  22.109  25.277  1.00  0.00     0.203 C 
ATOM     11  N   UNL A   1      33.010  22.308  24.236  1.00  0.00    -0.304 N 
ATOM     12  C   UNL A   1      32.429  21.047  23.645  1.00  0.00     0.180 C 
ATOM     13  C   UNL A   1      32.487  19.907  24.609  1.00  0.00     0.081 A 
ATOM     14  C   UNL A   1      33.571  21.227  26.462  1.00  0.00     0.093 C 
ATOM     15  N   UNL A   1      32.165  18.609  24.313  1.00  0.00    -0.240 NA
ATOM     16  C   UNL A   1      33.013  19.990  25.877  1.00  0.00     0.042 A 
ATOM     17  C   UNL A   1      32.509  17.918  25.380  1.00  0.00     0.197 A 
ATOM     18  N   UNL A   1      33.040  18.716  26.359  1.00  0.00    -0.348 N 
ATOM     19  H   UNL A   1      33.375  18.428  27.239  1.00  0.00     0.167 HD
BRANCH  11  20
ATOM     20  C   UNL A   1      32.175  23.410  24.167  1.00  0.00     0.321 C 
ATOM     21  O   UNL A   1      31.007  23.222  23.799  1.00  0.00    -0.248 OA
BRANCH  20  22
ATOM     22  N   UNL A   1      32.581  24.719  24.438  1.00  0.00    -0.322 N 
ATOM     23  C   UNL A   1      33.227  25.935  22.229  1.00  0.00     0.031 C 
ATOM     24  C   UNL A   1      32.676  25.963  23.629  1.00  0.00     0.083 C 
ATOM     25  C   UNL A   1      31.327  26.700  23.683  1.00  0.00     0.025 C 
ATOM     26  C   UNL A   1      30.986  27.084  25.124  1.00  0.00     0.004 C 
ATOM     27  C   UNL A   1      32.404  25.107  25.861  1.00  0.00     0.121 C 
ATOM     28  C   UNL A   1      31.081  25.872  26.052  1.00  0.00     0.022 C 
ENDBRANCH  20  22
ENDBRANCH  11  20
ENDBRANCH   8  10
ENDBRANCH   7   8
ENDBRANCH   6   7
ENDBRANCH   5   6
ENDBRANCH   4   5
ENDBRANCH   3   4
ENDBRANCH   2   3
ENDBRANCH   1   2
BRANCH   1  29
ATOM     29  C   UNL A   1      42.132  19.940  27.220  1.00  0.00     0.188 C 
BRANCH  29  30
ATOM     30  C   UNL A   1      42.004  18.998  25.996  1.00  0.00     0.188 C 
BRANCH  30  31
ATOM     31  O   UNL A   1      43.003  19.140  24.986  1.00  0.00    -0.376 OA
BRANCH  31  32
ATOM     32  C   UNL A   1      44.380  19.073  25.320  1.00  0.00     0.202 C 
BRANCH  32  33
ATOM     33  C   UNL A   1      45.320  19.849  24.399  1.00  0.00     0.261 C 
BRANCH  33  34
ATOM     34  O   UNL A   1      46.182  20.741  25.083  1.00  0.00    -0.460 OA
BRANCH  34  35
ATOM     35  C   UNL A   1      46.066  22.009  24.695  1.00  0.00     0.338 C 
ATOM     36  O   UNL A   1      46.784  22.611  23.877  1.00  0.00    -0.246 OA
BRANCH  35  37
ATOM     37  C   UNL A   1      45.054  22.673  25.492  1.00  0.00     0.060 A 
ATOM     38  C   UNL A   1      44.193  23.509  24.786  1.00  0.00     0.016 A 
ATOM     39  C   UNL A   1      45.215  22.746  26.888  1.00  0.00     0.016 A 
ATOM     40  C   UNL A   1      43.712  24.608  25.439  1.00  0.00     0.010 A 
ATOM     41  C   UNL A   1      44.727  23.849  27.540  1.00  0.00     0.010 A 
ATOM     42  C   UNL A   1      44.075  24.809  26.778  1.00  0.00    -0.014 A 
BRANCH  42  43
ATOM     43  C   UNL A   1      43.679  26.069  27.353  1.00  0.00     0.031 A 
ATOM     44  C   UNL A   1      44.643  27.145  27.071  1.00  0.00     0.074 A 
ATOM     45  C   UNL A   1      42.564  26.219  28.086  1.00  0.00     0.049 A 
ATOM     46  N   UNL A   1      45.415  27.746  27.910  1.00  0.00    -0.248 NA
ATOM     47  C   UNL A   1      44.896  27.463  25.658  1.00  0.00     0.031 C 
ATOM     48  C   UNL A   1      41.428  25.305  28.222  1.00  0.00     0.029 A 
ATOM     49  N   UNL A   1      42.186  27.301  28.813  1.00  0.00    -0.354 N 
ATOM     50  C   UNL A   1      46.132  28.658  27.151  1.00  0.00     0.074 A 
ATOM     51  C   UNL A   1      45.893  28.338  25.766  1.00  0.00     0.031 C 
ATOM     52  C   UNL A   1      40.402  25.967  28.806  1.00  0.00     0.029 A 
ATOM     53  C   UNL A   1      40.858  27.293  29.196  1.00  0.00     0.049 A 
ATOM     54  H   UNL A   1      42.806  28.030  29.047  1.00  0.00     0.167 HD
ATOM     55  C   UNL A   1      46.650  29.775  27.719  1.00  0.00     0.037 A 
ATOM     56  C   UNL A   1      40.180  28.345  29.714  1.00  0.00     0.037 A 
ATOM     57  C   UNL A   1      46.835  29.623  29.138  1.00  0.00     0.049 A 
ATOM     58  C   UNL A   1      41.180  29.305  30.250  1.00  0.00     0.074 A 
ATOM     59  C   UNL A   1      47.576  28.765  29.926  1.00  0.00     0.029 A 
ATOM     60  N   UNL A   1      45.913  30.196  29.978  1.00  0.00    -0.354 N 
ATOM     61  N   UNL A   1      41.912  29.085  31.306  1.00  0.00    -0.248 NA
ATOM     62  C   UNL A   1      41.667  30.353  29.365  1.00  0.00     0.031 C 
ATOM     63  C   UNL A   1      46.773  28.524  31.080  1.00  0.00     0.029 A 
ATOM     64  C   UNL A   1      45.606  29.276  30.948  1.00  0.00     0.049 A 
ATOM     65  H   UNL A   1      45.539  31.103  29.897  1.00  0.00     0.167 HD
ATOM     66  C   UNL A   1      43.145  29.646  31.004  1.00  0.00     0.074 A 
ATOM     67  C   UNL A   1      42.899  30.509  29.855  1.00  0.00     0.031 C 
ATOM     68  C   UNL A   1      44.294  29.140  31.539  1.00  0.00     0.037 A 
BRANCH  55  69
ATOM     69  C   UNL A   1      46.602  31.104  27.025  1.00  0.00     0.064 A 
ATOM     70  C   UNL A   1      47.753  31.904  26.969  1.00  0.00     0.173 A 
ATOM     71  C   UNL A   1      45.390  31.738  26.660  1.00  0.00     0.173 A 
ATOM     72  F   UNL A   1      48.942  31.410  27.346  1.00  0.00    -0.203 F 
ATOM     73  C   UNL A   1      47.689  33.251  26.608  1.00  0.00     0.198 A 
ATOM     74  C   UNL A   1      45.339  33.062  26.242  1.00  0.00     0.198 A 
ATOM     75  F   UNL A   1      44.202  31.139  26.806  1.00  0.00    -0.203 F 
ATOM     76  F   UNL A   1      48.791  34.010  26.677  1.00  0.00    -0.200 F 
ATOM     77  C   UNL A   1      46.484  33.827  26.241  1.00  0.00     0.200 A 
ATOM     78  F   UNL A   1      44.157  33.606  25.921  1.00  0.00    -0.200 F 
ATOM     79  F   UNL A   1      46.415  35.131  25.943  1.00  0.00    -0.200 F 
ENDBRANCH  55  69
BRANCH  56  80
ATOM     80  C   UNL A   1      38.766  28.718  29.488  1.00  0.00     0.064 A 
ATOM     81  C   UNL A   1      37.910  28.978  30.569  1.00  0.00     0.173 A 
ATOM     82  C   UNL A   1      38.301  29.101  28.214  1.00  0.00     0.173 A 
ATOM     83  F   UNL A   1      38.296  28.684  31.820  1.00  0.00    -0.203 F 
ATOM     84  C   UNL A   1      36.677  29.612  30.391  1.00  0.00     0.198 A 
ATOM     85  C   UNL A   1      37.066  29.722  28.036  1.00  0.00     0.198 A 
ATOM     86  F   UNL A   1      39.075  28.969  27.128  1.00  0.00    -0.203 F 
ATOM     87  F   UNL A   1      35.918  29.907  31.456  1.00  0.00    -0.200 F 
ATOM     88  C   UNL A   1      36.262  29.993  29.126  1.00  0.00     0.200 A 
ATOM     89  F   UNL A   1      36.691  30.116  26.812  1.00  0.00    -0.200 F 
ATOM     90  F   UNL A   1      35.108  30.656  28.963  1.00  0.00    -0.200 F 
ENDBRANCH  56  80
BRANCH  68  91
ATOM     91  C   UNL A   1      44.154  28.174  32.684  1.00  0.00     0.064 A 
ATOM     92  C   UNL A   1      44.010  26.784  32.528  1.00  0.00     0.173 A 
ATOM     93  C   UNL A   1      44.276  28.666  33.990  1.00  0.00     0.173 A 
ATOM     94  F   UNL A   1      43.991  26.223  31.312  1.00  0.00    -0.203 F 
ATOM     95  C   UNL A   1      43.929  25.937  33.633  1.00  0.00     0.198 A 
ATOM     96  C   UNL A   1      44.238  27.813  35.091  1.00  0.00     0.198 A 
ATOM     97  F   UNL A   1      44.475  29.977  34.199  1.00  0.00    -0.203 F 
ATOM     98  F   UNL A   1      43.765  24.617  33.459  1.00  0.00    -0.200 F 
ATOM     99  C   UNL A   1      44.049  26.453  34.913  1.00  0.00     0.200 A 
ATOM    100  F   UNL A   1      44.404  28.311  36.324  1.00  0.00    -0.200 F 
ATOM    101  F   UNL A   1      44.007  25.636  35.975  1.00  0.00    -0.200 F 
ENDBRANCH  68  91
ENDBRANCH  42  43
ENDBRANCH  35  37
ENDBRANCH  34  35
ENDBRANCH  33  34
ENDBRANCH  32  33
ENDBRANCH  31  32
ENDBRANCH  30  31
ENDBRANCH  29  30
ENDBRANCH   1  29
TORSDOF 22
ENDMDL
