MODEL 1
REMARK VINA RESULT:      -9.5      0.000      0.000
REMARK SMILES O=CN1CCC[C@@H](C(=O)OCCOCCOCCOCCOC(=O)c2ccc(-c3c4nc(c(-c5c(F)c(F)c(F)c(F)c5F)c5ccc([nH]5)c(-c5c(F)c(F)c(F)c(F)c5F)c5nc(c(-c6c(F)c(F)c(F)c(F)c6F)c6ccc3[nH]6)C=C5)C=C4)cc2)C1
REMARK SMILES IDX 17 1 16 2 15 3 14 4 13 5 12 6 11 7 10 8 8 9 9 10 7 11 3 12
REMARK SMILES IDX 4 13 88 14 5 15 6 16 2 17 1 18 18 19 19 20 20 21 21 22 22 23
REMARK SMILES IDX 23 24 24 25 25 26 26 27 87 28 27 29 86 30 28 31 29 32 30 33
REMARK SMILES IDX 80 34 31 35 85 36 79 37 81 38 32 39 84 40 78 41 77 42 33 44
REMARK SMILES IDX 65 45 45 46 64 47 46 48 49 49 63 50 82 51 47 52 48 53 62 55
REMARK SMILES IDX 83 56 50 57 34 58 35 59 43 60 36 61 37 62 41 63 44 64 38 65
REMARK SMILES IDX 39 66 42 67 40 68 66 69 67 70 75 71 68 72 69 73 73 74 76 75
REMARK SMILES IDX 70 76 71 77 74 78 72 79 51 80 52 81 60 82 53 83 54 84 58 85
REMARK SMILES IDX 61 86 55 87 56 88 59 89 57 90
REMARK H PARENT 81 43 49 54
REMARK Flexibility Score: inf
ROOT
ATOM      1  C   UNL A   1      34.378  35.564  28.295  1.00  0.00     0.188 C 
ENDROOT
BRANCH   1   2
ATOM      2  O   UNL A   1      34.486  34.302  27.662  1.00  0.00    -0.377 OA
BRANCH   2   3
ATOM      3  C   UNL A   1      33.725  33.275  28.273  1.00  0.00     0.188 C 
BRANCH   3   4
ATOM      4  C   UNL A   1      34.401  31.885  28.293  1.00  0.00     0.188 C 
BRANCH   4   5
ATOM      5  O   UNL A   1      33.732  30.730  27.804  1.00  0.00    -0.376 OA
BRANCH   5   6
ATOM      6  C   UNL A   1      32.933  30.813  26.640  1.00  0.00     0.202 C 
BRANCH   6   7
ATOM      7  C   UNL A   1      32.563  29.534  25.865  1.00  0.00     0.261 C 
BRANCH   7   8
ATOM      8  O   UNL A   1      33.637  28.650  25.492  1.00  0.00    -0.463 OA
BRANCH   8   9
ATOM      9  C   UNL A   1      33.509  28.024  24.293  1.00  0.00     0.310 C 
ATOM     10  O   UNL A   1      33.514  28.593  23.209  1.00  0.00    -0.252 OA
BRANCH   9  11
ATOM     11  C   UNL A   1      33.370  26.514  24.427  1.00  0.00     0.119 C 
ATOM     12  N   UNL A   1      31.820  24.665  25.091  1.00  0.00    -0.344 N 
ATOM     13  C   UNL A   1      32.230  23.846  23.960  1.00  0.00     0.119 C 
ATOM     14  C   UNL A   1      32.021  26.105  25.007  1.00  0.00     0.134 C 
ATOM     15  C   UNL A   1      33.581  24.259  23.384  1.00  0.00     0.022 C 
ATOM     16  C   UNL A   1      33.643  25.764  23.122  1.00  0.00     0.019 C 
BRANCH  12  17
ATOM     17  C   UNL A   1      30.827  24.200  25.940  1.00  0.00     0.339 C 
ATOM     18  O   UNL A   1      30.956  23.994  27.140  1.00  0.00    -0.279 OA
ENDBRANCH  12  17
ENDBRANCH   9  11
ENDBRANCH   8   9
ENDBRANCH   7   8
ENDBRANCH   6   7
ENDBRANCH   5   6
ENDBRANCH   4   5
ENDBRANCH   3   4
ENDBRANCH   2   3
ENDBRANCH   1   2
BRANCH   1  19
ATOM     19  C   UNL A   1      33.214  35.704  29.290  1.00  0.00     0.188 C 
BRANCH  19  20
ATOM     20  O   UNL A   1      33.636  36.061  30.604  1.00  0.00    -0.376 OA
BRANCH  20  21
ATOM     21  C   UNL A   1      33.624  35.049  31.604  1.00  0.00     0.202 C 
BRANCH  21  22
ATOM     22  C   UNL A   1      35.007  34.604  32.107  1.00  0.00     0.261 C 
BRANCH  22  23
ATOM     23  O   UNL A   1      35.400  33.270  31.739  1.00  0.00    -0.460 OA
BRANCH  23  24
ATOM     24  C   UNL A   1      36.117  32.565  32.639  1.00  0.00     0.338 C 
ATOM     25  O   UNL A   1      35.864  32.403  33.821  1.00  0.00    -0.246 OA
BRANCH  24  26
ATOM     26  C   UNL A   1      37.157  31.813  31.904  1.00  0.00     0.060 A 
ATOM     27  C   UNL A   1      38.160  31.170  32.642  1.00  0.00     0.016 A 
ATOM     28  C   UNL A   1      37.125  31.705  30.512  1.00  0.00     0.016 A 
ATOM     29  C   UNL A   1      39.145  30.430  31.990  1.00  0.00     0.010 A 
ATOM     30  C   UNL A   1      38.135  30.995  29.856  1.00  0.00     0.010 A 
ATOM     31  C   UNL A   1      39.163  30.377  30.591  1.00  0.00    -0.014 A 
BRANCH  31  32
ATOM     32  C   UNL A   1      40.373  29.869  29.901  1.00  0.00     0.031 A 
ATOM     33  C   UNL A   1      41.516  30.824  29.691  1.00  0.00     0.074 A 
ATOM     34  C   UNL A   1      40.476  28.589  29.501  1.00  0.00     0.049 A 
ATOM     35  N   UNL A   1      42.655  30.639  29.076  1.00  0.00    -0.248 NA
ATOM     36  C   UNL A   1      41.344  32.173  30.252  1.00  0.00     0.031 C 
ATOM     37  C   UNL A   1      39.463  27.557  29.702  1.00  0.00     0.029 A 
ATOM     38  N   UNL A   1      41.490  27.946  28.834  1.00  0.00    -0.354 N 
ATOM     39  C   UNL A   1      43.333  31.846  29.175  1.00  0.00     0.074 A 
ATOM     40  C   UNL A   1      42.468  32.766  29.879  1.00  0.00     0.031 C 
ATOM     41  C   UNL A   1      39.901  26.409  29.153  1.00  0.00     0.029 A 
ATOM     42  C   UNL A   1      41.206  26.637  28.533  1.00  0.00     0.049 A 
ATOM     43  H   UNL A   1      42.339  28.383  28.594  1.00  0.00     0.167 HD
ATOM     44  C   UNL A   1      44.570  32.159  28.722  1.00  0.00     0.037 A 
ATOM     45  C   UNL A   1      41.910  25.741  27.813  1.00  0.00     0.037 A 
ATOM     46  C   UNL A   1      45.424  31.244  28.013  1.00  0.00     0.049 A 
ATOM     47  C   UNL A   1      43.245  26.143  27.235  1.00  0.00     0.074 A 
ATOM     48  C   UNL A   1      46.698  31.461  27.519  1.00  0.00     0.029 A 
ATOM     49  N   UNL A   1      45.083  29.941  27.684  1.00  0.00    -0.354 N 
ATOM     50  N   UNL A   1      43.890  27.280  27.346  1.00  0.00    -0.248 NA
ATOM     51  C   UNL A   1      43.950  25.136  26.430  1.00  0.00     0.031 C 
ATOM     52  C   UNL A   1      47.103  30.310  26.836  1.00  0.00     0.029 A 
ATOM     53  C   UNL A   1      46.109  29.351  26.964  1.00  0.00     0.049 A 
ATOM     54  H   UNL A   1      44.237  29.500  27.927  1.00  0.00     0.167 HD
ATOM     55  C   UNL A   1      45.086  27.114  26.655  1.00  0.00     0.074 A 
ATOM     56  C   UNL A   1      45.083  25.760  26.140  1.00  0.00     0.031 C 
ATOM     57  C   UNL A   1      46.094  28.000  26.463  1.00  0.00     0.037 A 
BRANCH  44  58
ATOM     58  C   UNL A   1      45.054  33.562  28.947  1.00  0.00     0.064 A 
ATOM     59  C   UNL A   1      45.790  33.918  30.087  1.00  0.00     0.173 A 
ATOM     60  C   UNL A   1      44.796  34.560  27.994  1.00  0.00     0.173 A 
ATOM     61  F   UNL A   1      46.049  33.007  31.037  1.00  0.00    -0.203 F 
ATOM     62  C   UNL A   1      46.226  35.228  30.278  1.00  0.00     0.198 A 
ATOM     63  C   UNL A   1      45.260  35.859  28.173  1.00  0.00     0.198 A 
ATOM     64  F   UNL A   1      44.095  34.272  26.887  1.00  0.00    -0.203 F 
ATOM     65  F   UNL A   1      46.881  35.557  31.399  1.00  0.00    -0.200 F 
ATOM     66  C   UNL A   1      45.967  36.195  29.317  1.00  0.00     0.200 A 
ATOM     67  F   UNL A   1      45.020  36.789  27.238  1.00  0.00    -0.200 F 
ATOM     68  F   UNL A   1      46.393  37.452  29.500  1.00  0.00    -0.200 F 
ENDBRANCH  44  58
BRANCH  45  69
ATOM     69  C   UNL A   1      41.362  24.379  27.571  1.00  0.00     0.064 A 
ATOM     70  C   UNL A   1      41.926  23.249  28.180  1.00  0.00     0.173 A 
ATOM     71  C   UNL A   1      40.284  24.175  26.695  1.00  0.00     0.173 A 
ATOM     72  F   UNL A   1      42.977  23.387  29.001  1.00  0.00    -0.203 F 
ATOM     73  C   UNL A   1      41.449  21.968  27.906  1.00  0.00     0.198 A 
ATOM     74  C   UNL A   1      39.787  22.898  26.448  1.00  0.00     0.198 A 
ATOM     75  F   UNL A   1      39.711  25.220  26.080  1.00  0.00    -0.203 F 
ATOM     76  F   UNL A   1      42.044  20.902  28.458  1.00  0.00    -0.200 F 
ATOM     77  C   UNL A   1      40.376  21.794  27.045  1.00  0.00     0.200 A 
ATOM     78  F   UNL A   1      38.742  22.735  25.624  1.00  0.00    -0.200 F 
ATOM     79  F   UNL A   1      39.916  20.562  26.783  1.00  0.00    -0.200 F 
ENDBRANCH  45  69
BRANCH  57  80
ATOM     80  C   UNL A   1      47.299  27.527  25.698  1.00  0.00     0.064 A 
ATOM     81  C   UNL A   1      47.399  27.677  24.308  1.00  0.00     0.173 A 
ATOM     82  C   UNL A   1      48.390  26.956  26.375  1.00  0.00     0.173 A 
ATOM     83  F   UNL A   1      46.381  28.204  23.610  1.00  0.00    -0.203 F 
ATOM     84  C   UNL A   1      48.532  27.247  23.620  1.00  0.00     0.198 A 
ATOM     85  C   UNL A   1      49.535  26.562  25.688  1.00  0.00     0.198 A 
ATOM     86  F   UNL A   1      48.352  26.799  27.706  1.00  0.00    -0.203 F 
ATOM     87  F   UNL A   1      48.581  27.353  22.284  1.00  0.00    -0.200 F 
ATOM     88  C   UNL A   1      49.601  26.699  24.310  1.00  0.00     0.200 A 
ATOM     89  F   UNL A   1      50.574  26.049  26.361  1.00  0.00    -0.200 F 
ATOM     90  F   UNL A   1      50.693  26.296  23.648  1.00  0.00    -0.200 F 
ENDBRANCH  57  80
ENDBRANCH  31  32
ENDBRANCH  24  26
ENDBRANCH  23  24
ENDBRANCH  22  23
ENDBRANCH  21  22
ENDBRANCH  20  21
ENDBRANCH  19  20
ENDBRANCH   1  19
TORSDOF 21
ENDMDL
MODEL 2
REMARK VINA RESULT:      -9.2      1.104      7.452
REMARK SMILES O=CN1CCC[C@@H](C(=O)OCCOCCOCCOCCOC(=O)c2ccc(-c3c4nc(c(-c5c(F)c(F)c(F)c(F)c5F)c5ccc([nH]5)c(-c5c(F)c(F)c(F)c(F)c5F)c5nc(c(-c6c(F)c(F)c(F)c(F)c6F)c6ccc3[nH]6)C=C5)C=C4)cc2)C1
REMARK SMILES IDX 17 1 16 2 15 3 14 4 13 5 12 6 11 7 10 8 8 9 9 10 7 11 3 12
REMARK SMILES IDX 4 13 88 14 5 15 6 16 2 17 1 18 18 19 19 20 20 21 21 22 22 23
REMARK SMILES IDX 23 24 24 25 25 26 26 27 87 28 27 29 86 30 28 31 29 32 30 33
REMARK SMILES IDX 80 34 31 35 85 36 79 37 81 38 32 39 84 40 78 41 77 42 33 44
REMARK SMILES IDX 65 45 45 46 64 47 46 48 49 49 63 50 82 51 47 52 48 53 62 55
REMARK SMILES IDX 83 56 50 57 34 58 35 59 43 60 36 61 37 62 41 63 44 64 38 65
REMARK SMILES IDX 39 66 42 67 40 68 66 69 67 70 75 71 68 72 69 73 73 74 76 75
REMARK SMILES IDX 70 76 71 77 74 78 72 79 51 80 52 81 60 82 53 83 54 84 58 85
REMARK SMILES IDX 61 86 55 87 56 88 59 89 57 90
REMARK H PARENT 81 43 49 54
REMARK Flexibility Score: inf
ROOT
ATOM      1  C   UNL A   1      34.133  35.008  28.433  1.00  0.00     0.188 C 
ENDROOT
BRANCH   1   2
ATOM      2  O   UNL A   1      34.587  33.941  27.619  1.00  0.00    -0.377 OA
BRANCH   2   3
ATOM      3  C   UNL A   1      34.158  32.660  28.044  1.00  0.00     0.188 C 
BRANCH   3   4
ATOM      4  C   UNL A   1      35.295  31.657  28.344  1.00  0.00     0.188 C 
BRANCH   4   5
ATOM      5  O   UNL A   1      35.199  30.292  27.956  1.00  0.00    -0.376 OA
BRANCH   5   6
ATOM      6  C   UNL A   1      34.336  29.913  26.902  1.00  0.00     0.202 C 
BRANCH   6   7
ATOM      7  C   UNL A   1      33.326  28.768  27.105  1.00  0.00     0.261 C 
BRANCH   7   8
ATOM      8  O   UNL A   1      33.535  27.557  26.355  1.00  0.00    -0.463 OA
BRANCH   8   9
ATOM      9  C   UNL A   1      32.606  26.580  26.522  1.00  0.00     0.310 C 
ATOM     10  O   UNL A   1      31.450  26.774  26.877  1.00  0.00    -0.252 OA
BRANCH   9  11
ATOM     11  C   UNL A   1      33.146  25.192  26.208  1.00  0.00     0.119 C 
ATOM     12  N   UNL A   1      32.530  22.904  25.401  1.00  0.00    -0.344 N 
ATOM     13  C   UNL A   1      33.728  22.816  24.578  1.00  0.00     0.119 C 
ATOM     14  C   UNL A   1      32.048  24.227  25.775  1.00  0.00     0.134 C 
ATOM     15  C   UNL A   1      34.823  23.784  25.014  1.00  0.00     0.022 C 
ATOM     16  C   UNL A   1      34.283  25.205  25.184  1.00  0.00     0.019 C 
BRANCH  12  17
ATOM     17  C   UNL A   1      31.612  21.865  25.375  1.00  0.00     0.339 C 
ATOM     18  O   UNL A   1      31.877  20.689  25.165  1.00  0.00    -0.279 OA
ENDBRANCH  12  17
ENDBRANCH   9  11
ENDBRANCH   8   9
ENDBRANCH   7   8
ENDBRANCH   6   7
ENDBRANCH   5   6
ENDBRANCH   4   5
ENDBRANCH   3   4
ENDBRANCH   2   3
ENDBRANCH   1   2
BRANCH   1  19
ATOM     19  C   UNL A   1      33.605  34.600  29.818  1.00  0.00     0.188 C 
BRANCH  19  20
ATOM     20  O   UNL A   1      34.571  34.748  30.856  1.00  0.00    -0.376 OA
BRANCH  20  21
ATOM     21  C   UNL A   1      34.241  34.249  32.146  1.00  0.00     0.202 C 
BRANCH  21  22
ATOM     22  C   UNL A   1      35.437  33.811  33.008  1.00  0.00     0.261 C 
BRANCH  22  23
ATOM     23  O   UNL A   1      35.894  32.465  32.796  1.00  0.00    -0.460 OA
BRANCH  23  24
ATOM     24  C   UNL A   1      36.948  32.044  33.527  1.00  0.00     0.338 C 
ATOM     25  O   UNL A   1      37.015  31.954  34.741  1.00  0.00    -0.246 OA
BRANCH  24  26
ATOM     26  C   UNL A   1      37.951  31.482  32.598  1.00  0.00     0.060 A 
ATOM     27  C   UNL A   1      39.095  30.880  33.138  1.00  0.00     0.016 A 
ATOM     28  C   UNL A   1      37.753  31.508  31.215  1.00  0.00     0.016 A 
ATOM     29  C   UNL A   1      40.054  30.316  32.299  1.00  0.00     0.010 A 
ATOM     30  C   UNL A   1      38.734  30.976  30.372  1.00  0.00     0.010 A 
ATOM     31  C   UNL A   1      39.899  30.402  30.910  1.00  0.00    -0.014 A 
BRANCH  31  32
ATOM     32  C   UNL A   1      41.054  30.094  30.032  1.00  0.00     0.031 A 
ATOM     33  C   UNL A   1      41.112  28.733  29.397  1.00  0.00     0.074 A 
ATOM     34  C   UNL A   1      42.008  31.006  29.773  1.00  0.00     0.049 A 
ATOM     35  N   UNL A   1      42.035  28.206  28.635  1.00  0.00    -0.248 NA
ATOM     36  C   UNL A   1      39.971  27.844  29.664  1.00  0.00     0.031 C 
ATOM     37  C   UNL A   1      42.030  32.375  30.278  1.00  0.00     0.029 A 
ATOM     38  N   UNL A   1      43.151  30.903  29.017  1.00  0.00    -0.354 N 
ATOM     39  C   UNL A   1      41.587  26.927  28.334  1.00  0.00     0.074 A 
ATOM     40  C   UNL A   1      40.327  26.743  29.019  1.00  0.00     0.031 C 
ATOM     41  C   UNL A   1      43.144  32.984  29.831  1.00  0.00     0.029 A 
ATOM     42  C   UNL A   1      43.928  32.035  29.040  1.00  0.00     0.049 A 
ATOM     43  H   UNL A   1      43.390  30.095  28.509  1.00  0.00     0.167 HD
ATOM     44  C   UNL A   1      42.172  25.990  27.550  1.00  0.00     0.037 A 
ATOM     45  C   UNL A   1      45.144  32.263  28.506  1.00  0.00     0.037 A 
ATOM     46  C   UNL A   1      43.430  26.173  26.878  1.00  0.00     0.049 A 
ATOM     47  C   UNL A   1      45.821  31.168  27.717  1.00  0.00     0.074 A 
ATOM     48  C   UNL A   1      44.104  25.288  26.055  1.00  0.00     0.029 A 
ATOM     49  N   UNL A   1      44.211  27.316  26.964  1.00  0.00    -0.354 N 
ATOM     50  N   UNL A   1      45.385  29.967  27.419  1.00  0.00    -0.248 NA
ATOM     51  C   UNL A   1      47.161  31.462  27.189  1.00  0.00     0.031 C 
ATOM     52  C   UNL A   1      45.322  25.871  25.694  1.00  0.00     0.029 A 
ATOM     53  C   UNL A   1      45.377  27.147  26.235  1.00  0.00     0.049 A 
ATOM     54  H   UNL A   1      43.972  28.127  27.467  1.00  0.00     0.167 HD
ATOM     55  C   UNL A   1      46.380  29.377  26.647  1.00  0.00     0.074 A 
ATOM     56  C   UNL A   1      47.435  30.358  26.509  1.00  0.00     0.031 C 
ATOM     57  C   UNL A   1      46.417  28.136  26.101  1.00  0.00     0.037 A 
BRANCH  44  58
ATOM     58  C   UNL A   1      41.472  24.669  27.414  1.00  0.00     0.064 A 
ATOM     59  C   UNL A   1      41.938  23.514  28.060  1.00  0.00     0.173 A 
ATOM     60  C   UNL A   1      40.305  24.564  26.642  1.00  0.00     0.173 A 
ATOM     61  F   UNL A   1      43.059  23.556  28.795  1.00  0.00    -0.203 F 
ATOM     62  C   UNL A   1      41.275  22.297  27.916  1.00  0.00     0.198 A 
ATOM     63  C   UNL A   1      39.628  23.354  26.527  1.00  0.00     0.198 A 
ATOM     64  F   UNL A   1      39.819  25.638  26.003  1.00  0.00    -0.203 F 
ATOM     65  F   UNL A   1      41.768  21.195  28.499  1.00  0.00    -0.200 F 
ATOM     66  C   UNL A   1      40.117  22.220  27.156  1.00  0.00     0.200 A 
ATOM     67  F   UNL A   1      38.503  23.284  25.803  1.00  0.00    -0.200 F 
ATOM     68  F   UNL A   1      39.478  21.049  27.024  1.00  0.00    -0.200 F 
ENDBRANCH  44  58
BRANCH  45  69
ATOM     69  C   UNL A   1      45.821  33.571  28.716  1.00  0.00     0.064 A 
ATOM     70  C   UNL A   1      46.630  33.799  29.837  1.00  0.00     0.173 A 
ATOM     71  C   UNL A   1      45.641  34.634  27.817  1.00  0.00     0.173 A 
ATOM     72  F   UNL A   1      46.808  32.826  30.742  1.00  0.00    -0.203 F 
ATOM     73  C   UNL A   1      47.216  35.044  30.064  1.00  0.00     0.198 A 
ATOM     74  C   UNL A   1      46.254  35.868  28.026  1.00  0.00     0.198 A 
ATOM     75  F   UNL A   1      44.872  34.474  26.731  1.00  0.00    -0.203 F 
ATOM     76  F   UNL A   1      47.938  35.250  31.173  1.00  0.00    -0.200 F 
ATOM     77  C   UNL A   1      47.033  36.076  29.155  1.00  0.00     0.200 A 
ATOM     78  F   UNL A   1      46.083  36.858  27.140  1.00  0.00    -0.200 F 
ATOM     79  F   UNL A   1      47.596  37.272  29.372  1.00  0.00    -0.200 F 
ENDBRANCH  45  69
BRANCH  57  80
ATOM     80  C   UNL A   1      47.617  27.777  25.270  1.00  0.00     0.064 A 
ATOM     81  C   UNL A   1      48.814  27.334  25.851  1.00  0.00     0.173 A 
ATOM     82  C   UNL A   1      47.552  27.836  23.868  1.00  0.00     0.173 A 
ATOM     83  F   UNL A   1      48.935  27.271  27.186  1.00  0.00    -0.203 F 
ATOM     84  C   UNL A   1      49.909  26.990  25.062  1.00  0.00     0.198 A 
ATOM     85  C   UNL A   1      48.636  27.456  23.082  1.00  0.00     0.198 A 
ATOM     86  F   UNL A   1      46.428  28.243  23.260  1.00  0.00    -0.203 F 
ATOM     87  F   UNL A   1      51.060  26.619  25.642  1.00  0.00    -0.200 F 
ATOM     88  C   UNL A   1      49.817  27.043  23.679  1.00  0.00     0.200 A 
ATOM     89  F   UNL A   1      48.538  27.491  21.746  1.00  0.00    -0.200 F 
ATOM     90  F   UNL A   1      50.869  26.702  22.922  1.00  0.00    -0.200 F 
ENDBRANCH  57  80
ENDBRANCH  31  32
ENDBRANCH  24  26
ENDBRANCH  23  24
ENDBRANCH  22  23
ENDBRANCH  21  22
ENDBRANCH  20  21
ENDBRANCH  19  20
ENDBRANCH   1  19
TORSDOF 21
ENDMDL
MODEL 3
REMARK VINA RESULT:      -9.1      5.710     11.160
REMARK SMILES O=CN1CCC[C@@H](C(=O)OCCOCCOCCOCCOC(=O)c2ccc(-c3c4nc(c(-c5c(F)c(F)c(F)c(F)c5F)c5ccc([nH]5)c(-c5c(F)c(F)c(F)c(F)c5F)c5nc(c(-c6c(F)c(F)c(F)c(F)c6F)c6ccc3[nH]6)C=C5)C=C4)cc2)C1
REMARK SMILES IDX 17 1 16 2 15 3 14 4 13 5 12 6 11 7 10 8 8 9 9 10 7 11 3 12
REMARK SMILES IDX 4 13 88 14 5 15 6 16 2 17 1 18 18 19 19 20 20 21 21 22 22 23
REMARK SMILES IDX 23 24 24 25 25 26 26 27 87 28 27 29 86 30 28 31 29 32 30 33
REMARK SMILES IDX 80 34 31 35 85 36 79 37 81 38 32 39 84 40 78 41 77 42 33 44
REMARK SMILES IDX 65 45 45 46 64 47 46 48 49 49 63 50 82 51 47 52 48 53 62 55
REMARK SMILES IDX 83 56 50 57 34 58 35 59 43 60 36 61 37 62 41 63 44 64 38 65
REMARK SMILES IDX 39 66 42 67 40 68 66 69 67 70 75 71 68 72 69 73 73 74 76 75
REMARK SMILES IDX 70 76 71 77 74 78 72 79 51 80 52 81 60 82 53 83 54 84 58 85
REMARK SMILES IDX 61 86 55 87 56 88 59 89 57 90
REMARK H PARENT 81 43 49 54
REMARK Flexibility Score: inf
ROOT
ATOM      1  C   UNL A   1      41.587  20.372  26.145  1.00  0.00     0.188 C 
ENDROOT
BRANCH   1   2
ATOM      2  O   UNL A   1      41.732  21.637  25.525  1.00  0.00    -0.377 OA
BRANCH   2   3
ATOM      3  C   UNL A   1      40.895  22.648  26.058  1.00  0.00     0.188 C 
BRANCH   3   4
ATOM      4  C   UNL A   1      39.564  22.144  26.660  1.00  0.00     0.188 C 
BRANCH   4   5
ATOM      5  O   UNL A   1      38.327  22.337  25.984  1.00  0.00    -0.376 OA
BRANCH   5   6
ATOM      6  C   UNL A   1      37.829  23.644  25.775  1.00  0.00     0.202 C 
BRANCH   6   7
ATOM      7  C   UNL A   1      36.326  23.865  25.523  1.00  0.00     0.261 C 
BRANCH   7   8
ATOM      8  O   UNL A   1      35.408  22.932  26.121  1.00  0.00    -0.463 OA
BRANCH   8   9
ATOM      9  C   UNL A   1      34.086  23.190  25.937  1.00  0.00     0.310 C 
ATOM     10  O   UNL A   1      33.178  22.454  26.302  1.00  0.00    -0.252 OA
BRANCH   9  11
ATOM     11  C   UNL A   1      33.836  24.516  25.233  1.00  0.00     0.119 C 
ATOM     12  N   UNL A   1      32.676  25.606  23.301  1.00  0.00    -0.344 N 
ATOM     13  C   UNL A   1      32.269  26.739  24.119  1.00  0.00     0.119 C 
ATOM     14  C   UNL A   1      32.995  24.352  23.972  1.00  0.00     0.134 C 
ATOM     15  C   UNL A   1      33.113  26.898  25.380  1.00  0.00     0.022 C 
ATOM     16  C   UNL A   1      33.229  25.581  26.148  1.00  0.00     0.019 C 
BRANCH  12  17
ATOM     17  C   UNL A   1      32.269  25.545  21.977  1.00  0.00     0.339 C 
ATOM     18  O   UNL A   1      31.557  26.366  21.414  1.00  0.00    -0.279 OA
ENDBRANCH  12  17
ENDBRANCH   9  11
ENDBRANCH   8   9
ENDBRANCH   7   8
ENDBRANCH   6   7
ENDBRANCH   5   6
ENDBRANCH   4   5
ENDBRANCH   3   4
ENDBRANCH   2   3
ENDBRANCH   1   2
BRANCH   1  19
ATOM     19  C   UNL A   1      42.769  19.407  25.957  1.00  0.00     0.188 C 
BRANCH  19  20
ATOM     20  O   UNL A   1      43.615  19.758  24.865  1.00  0.00    -0.376 OA
BRANCH  20  21
ATOM     21  C   UNL A   1      44.836  20.427  25.158  1.00  0.00     0.202 C 
BRANCH  21  22
ATOM     22  C   UNL A   1      44.935  21.873  24.644  1.00  0.00     0.261 C 
BRANCH  22  23
ATOM     23  O   UNL A   1      44.390  22.879  25.515  1.00  0.00    -0.460 OA
BRANCH  23  24
ATOM     24  C   UNL A   1      45.244  23.505  26.351  1.00  0.00     0.338 C 
ATOM     25  O   UNL A   1      46.463  23.474  26.321  1.00  0.00    -0.246 OA
BRANCH  24  26
ATOM     26  C   UNL A   1      44.460  24.435  27.191  1.00  0.00     0.060 A 
ATOM     27  C   UNL A   1      44.805  25.793  27.180  1.00  0.00     0.016 A 
ATOM     28  C   UNL A   1      43.374  23.988  27.948  1.00  0.00     0.016 A 
ATOM     29  C   UNL A   1      44.076  26.708  27.937  1.00  0.00     0.010 A 
ATOM     30  C   UNL A   1      42.668  24.901  28.738  1.00  0.00     0.010 A 
ATOM     31  C   UNL A   1      43.032  26.259  28.755  1.00  0.00    -0.014 A 
BRANCH  31  32
ATOM     32  C   UNL A   1      42.478  27.168  29.788  1.00  0.00     0.031 A 
ATOM     33  C   UNL A   1      43.158  27.208  31.128  1.00  0.00     0.074 A 
ATOM     34  C   UNL A   1      41.423  27.963  29.537  1.00  0.00     0.049 A 
ATOM     35  N   UNL A   1      42.840  27.878  32.205  1.00  0.00    -0.248 NA
ATOM     36  C   UNL A   1      44.362  26.374  31.269  1.00  0.00     0.031 C 
ATOM     37  C   UNL A   1      40.719  28.059  28.262  1.00  0.00     0.029 A 
ATOM     38  N   UNL A   1      40.759  28.841  30.359  1.00  0.00    -0.354 N 
ATOM     39  C   UNL A   1      43.802  27.545  33.150  1.00  0.00     0.074 A 
ATOM     40  C   UNL A   1      44.696  26.591  32.532  1.00  0.00     0.031 C 
ATOM     41  C   UNL A   1      39.707  28.936  28.391  1.00  0.00     0.029 A 
ATOM     42  C   UNL A   1      39.672  29.435  29.766  1.00  0.00     0.049 A 
ATOM     43  H   UNL A   1      41.036  29.027  31.286  1.00  0.00     0.167 HD
ATOM     44  C   UNL A   1      43.931  27.998  34.419  1.00  0.00     0.037 A 
ATOM     45  C   UNL A   1      38.744  30.262  30.287  1.00  0.00     0.037 A 
ATOM     46  C   UNL A   1      43.033  28.940  35.033  1.00  0.00     0.049 A 
ATOM     47  C   UNL A   1      38.854  30.678  31.734  1.00  0.00     0.074 A 
ATOM     48  C   UNL A   1      43.081  29.469  36.311  1.00  0.00     0.029 A 
ATOM     49  N   UNL A   1      41.916  29.482  34.417  1.00  0.00    -0.354 N 
ATOM     50  N   UNL A   1      39.775  30.375  32.618  1.00  0.00    -0.248 NA
ATOM     51  C   UNL A   1      37.793  31.551  32.256  1.00  0.00     0.031 C 
ATOM     52  C   UNL A   1      41.958  30.282  36.488  1.00  0.00     0.029 A 
ATOM     53  C   UNL A   1      41.247  30.315  35.299  1.00  0.00     0.049 A 
ATOM     54  H   UNL A   1      41.640  29.303  33.489  1.00  0.00     0.167 HD
ATOM     55  C   UNL A   1      39.423  31.043  33.785  1.00  0.00     0.074 A 
ATOM     56  C   UNL A   1      38.211  31.780  33.492  1.00  0.00     0.031 C 
ATOM     57  C   UNL A   1      40.044  31.048  34.991  1.00  0.00     0.037 A 
BRANCH  44  58
ATOM     58  C   UNL A   1      45.062  27.448  35.238  1.00  0.00     0.064 A 
ATOM     59  C   UNL A   1      46.314  28.078  35.289  1.00  0.00     0.173 A 
ATOM     60  C   UNL A   1      44.881  26.284  36.000  1.00  0.00     0.173 A 
ATOM     61  F   UNL A   1      46.546  29.183  34.565  1.00  0.00    -0.203 F 
ATOM     62  C   UNL A   1      47.352  27.547  36.052  1.00  0.00     0.198 A 
ATOM     63  C   UNL A   1      45.910  25.775  36.786  1.00  0.00     0.198 A 
ATOM     64  F   UNL A   1      43.703  25.642  35.985  1.00  0.00    -0.203 F 
ATOM     65  F   UNL A   1      48.556  28.136  36.044  1.00  0.00    -0.200 F 
ATOM     66  C   UNL A   1      47.147  26.401  36.806  1.00  0.00     0.200 A 
ATOM     67  F   UNL A   1      45.705  24.675  37.523  1.00  0.00    -0.200 F 
ATOM     68  F   UNL A   1      48.144  25.896  37.545  1.00  0.00    -0.200 F 
ENDBRANCH  44  58
BRANCH  45  69
ATOM     69  C   UNL A   1      37.610  30.736  29.449  1.00  0.00     0.064 A 
ATOM     70  C   UNL A   1      37.530  32.069  29.021  1.00  0.00     0.173 A 
ATOM     71  C   UNL A   1      36.562  29.874  29.090  1.00  0.00     0.173 A 
ATOM     72  F   UNL A   1      38.490  32.940  29.364  1.00  0.00    -0.203 F 
ATOM     73  C   UNL A   1      36.436  32.526  28.286  1.00  0.00     0.198 A 
ATOM     74  C   UNL A   1      35.486  30.324  28.327  1.00  0.00     0.198 A 
ATOM     75  F   UNL A   1      36.584  28.591  29.479  1.00  0.00    -0.203 F 
ATOM     76  F   UNL A   1      36.359  33.818  27.939  1.00  0.00    -0.200 F 
ATOM     77  C   UNL A   1      35.419  31.652  27.934  1.00  0.00     0.200 A 
ATOM     78  F   UNL A   1      34.511  29.473  27.981  1.00  0.00    -0.200 F 
ATOM     79  F   UNL A   1      34.369  32.091  27.227  1.00  0.00    -0.200 F 
ENDBRANCH  45  69
BRANCH  57  80
ATOM     80  C   UNL A   1      39.453  31.904  36.075  1.00  0.00     0.064 A 
ATOM     81  C   UNL A   1      38.407  31.449  36.890  1.00  0.00     0.173 A 
ATOM     82  C   UNL A   1      39.974  33.183  36.332  1.00  0.00     0.173 A 
ATOM     83  F   UNL A   1      37.864  30.240  36.681  1.00  0.00    -0.203 F 
ATOM     84  C   UNL A   1      37.884  32.252  37.901  1.00  0.00     0.198 A 
ATOM     85  C   UNL A   1      39.473  33.968  37.367  1.00  0.00     0.198 A 
ATOM     86  F   UNL A   1      40.982  33.664  35.590  1.00  0.00    -0.203 F 
ATOM     87  F   UNL A   1      36.848  31.816  38.633  1.00  0.00    -0.200 F 
ATOM     88  C   UNL A   1      38.423  33.507  38.145  1.00  0.00     0.200 A 
ATOM     89  F   UNL A   1      40.008  35.172  37.611  1.00  0.00    -0.200 F 
ATOM     90  F   UNL A   1      37.925  34.273  39.124  1.00  0.00    -0.200 F 
ENDBRANCH  57  80
ENDBRANCH  31  32
ENDBRANCH  24  26
ENDBRANCH  23  24
ENDBRANCH  22  23
ENDBRANCH  21  22
ENDBRANCH  20  21
ENDBRANCH  19  20
ENDBRANCH   1  19
TORSDOF 21
ENDMDL
