MODEL 1
REMARK VINA RESULT:     -10.3      0.000      0.000
REMARK SMILES COc1ccc(N2C(=O)/C(=C\c3ccc(-c4ccc(Cl)c(C(=O)OCCOCCOCCOCCOC(=O)c5ccc(-c6c7nc(c(-c8c(F)c(F)c(F)c(F)c8F)c8ccc([nH]8)c(-c8c(F)c(F)c(F)c(F)c8F)c8nc(c(-c9c(F)c(F)c(F)c(F)c9F)c9ccc6[nH]9)C=C8)C=C7)cc5)c4)o3)SC2=S)cc1
REMARK SMILES IDX 29 1 28 2 27 3 26 4 25 5 24 6 22 7 23 8 21 9 16 10 17 11
REMARK SMILES IDX 102 12 18 13 19 14 20 15 15 16 12 17 13 18 103 19 14 20
REMARK SMILES IDX 11 21 7 22 8 23 105 24 9 25 10 26 104 27 106 28 6 29 3 30
REMARK SMILES IDX 4 31 108 32 5 33 107 34 2 35 1 36 30 37 31 38 32 39 33 40
REMARK SMILES IDX 34 41 35 42 36 43 37 44 38 45 39 46 40 47 101 48 41 49
REMARK SMILES IDX 100 50 42 51 43 52 44 53 94 54 45 55 99 56 93 57 95 58 46 59
REMARK SMILES IDX 98 60 92 61 91 62 47 64 79 65 59 66 78 67 60 68 63 69 77 70
REMARK SMILES IDX 96 71 61 72 62 73 76 75 97 76 64 77 48 78 49 79 57 80 50 81
REMARK SMILES IDX 51 82 55 83 58 84 52 85 53 86 56 87 54 88 80 89 81 90 89 91
REMARK SMILES IDX 82 92 83 93 87 94 90 95 84 96 85 97 88 98 86 99 65 100
REMARK SMILES IDX 66 101 74 102 67 103 68 104 72 105 75 106 69 107 70 108
REMARK SMILES IDX 73 109 71 110
REMARK H PARENT 95 63 63 74
REMARK Flexibility Score: inf
ROOT
ATOM      1  C   UNL A   1      32.931  27.140  24.310  1.00  0.00     0.188 C 
ENDROOT
BRANCH   1   2
ATOM      2  C   UNL A   1      32.810  26.080  23.201  1.00  0.00     0.188 C 
BRANCH   2   3
ATOM      3  O   UNL A   1      33.011  24.741  23.651  1.00  0.00    -0.376 OA
BRANCH   3   4
ATOM      4  C   UNL A   1      33.743  23.903  22.764  1.00  0.00     0.202 C 
BRANCH   4   5
ATOM      5  C   UNL A   1      34.093  22.542  23.369  1.00  0.00     0.261 C 
BRANCH   5   6
ATOM      6  O   UNL A   1      35.494  22.379  23.627  1.00  0.00    -0.460 OA
BRANCH   6   7
ATOM      7  C   UNL A   1      35.857  21.585  24.662  1.00  0.00     0.339 C 
ATOM      8  O   UNL A   1      35.433  20.471  24.908  1.00  0.00    -0.246 OA
BRANCH   7   9
ATOM      9  C   UNL A   1      36.943  22.296  25.374  1.00  0.00     0.079 A 
ATOM     10  C   UNL A   1      39.201  22.181  26.300  1.00  0.00     0.018 A 
ATOM     11  C   UNL A   1      38.991  23.419  26.916  1.00  0.00     0.013 A 
ATOM     12  C   UNL A   1      38.166  21.627  25.538  1.00  0.00     0.029 A 
ATOM     13  C   UNL A   1      37.780  24.102  26.743  1.00  0.00     0.022 A 
ATOM     14  C   UNL A   1      36.756  23.549  25.964  1.00  0.00     0.055 A 
ATOM     15  Cl  UNL A   1      35.282  24.440  25.848  1.00  0.00    -0.083 Cl
BRANCH  10  16
ATOM     16  C   UNL A   1      40.472  21.480  26.390  1.00  0.00     0.134 A 
ATOM     17  C   UNL A   1      42.550  21.039  25.752  1.00  0.00     0.128 A 
ATOM     18  C   UNL A   1      42.234  20.183  26.802  1.00  0.00     0.051 A 
ATOM     19  O   UNL A   1      41.463  21.854  25.531  1.00  0.00    -0.457 OA
ATOM     20  C   UNL A   1      40.914  20.460  27.201  1.00  0.00     0.051 A 
BRANCH  17  21
ATOM     21  C   UNL A   1      43.766  21.119  25.025  1.00  0.00     0.068 C 
ATOM     22  N   UNL A   1      45.724  23.945  26.256  1.00  0.00    -0.261 N 
ATOM     23  C   UNL A   1      44.747  22.975  26.456  1.00  0.00     0.270 C 
ATOM     24  C   UNL A   1      46.526  23.794  25.135  1.00  0.00     0.152 C 
ATOM     25  O   UNL A   1      44.000  22.881  27.422  1.00  0.00    -0.268 OA
ATOM     26  C   UNL A   1      44.708  22.034  25.298  1.00  0.00     0.084 C 
ATOM     27  S   UNL A   1      46.046  22.337  24.257  1.00  0.00    -0.054 SA
ATOM     28  S   UNL A   1      47.835  24.699  24.622  1.00  0.00    -0.051 S 
BRANCH  22  29
ATOM     29  C   UNL A   1      45.853  24.998  27.211  1.00  0.00     0.051 A 
ATOM     30  C   UNL A   1      46.208  27.138  29.008  1.00  0.00     0.119 A 
ATOM     31  C   UNL A   1      45.445  27.306  27.854  1.00  0.00     0.048 A 
ATOM     32  C   UNL A   1      46.780  25.894  29.275  1.00  0.00     0.048 A 
ATOM     33  C   UNL A   1      45.286  26.252  26.951  1.00  0.00     0.030 A 
ATOM     34  C   UNL A   1      46.598  24.828  28.384  1.00  0.00     0.030 A 
BRANCH  30  35
ATOM     35  O   UNL A   1      46.296  28.241  29.809  1.00  0.00    -0.497 OA
ATOM     36  C   UNL A   1      47.267  29.209  29.427  1.00  0.00     0.278 C 
ENDBRANCH  30  35
ENDBRANCH  22  29
ENDBRANCH  17  21
ENDBRANCH  10  16
ENDBRANCH   7   9
ENDBRANCH   6   7
ENDBRANCH   5   6
ENDBRANCH   4   5
ENDBRANCH   3   4
ENDBRANCH   2   3
ENDBRANCH   1   2
BRANCH   1  37
ATOM     37  O   UNL A   1      31.739  27.541  24.963  1.00  0.00    -0.377 OA
BRANCH  37  38
ATOM     38  C   UNL A   1      31.802  28.512  26.001  1.00  0.00     0.188 C 
BRANCH  38  39
ATOM     39  C   UNL A   1      31.848  30.028  25.708  1.00  0.00     0.188 C 
BRANCH  39  40
ATOM     40  O   UNL A   1      32.441  30.819  26.729  1.00  0.00    -0.376 OA
BRANCH  40  41
ATOM     41  C   UNL A   1      31.896  32.117  26.921  1.00  0.00     0.202 C 
BRANCH  41  42
ATOM     42  C   UNL A   1      32.939  33.151  27.352  1.00  0.00     0.261 C 
BRANCH  42  43
ATOM     43  O   UNL A   1      32.422  34.210  28.174  1.00  0.00    -0.460 OA
BRANCH  43  44
ATOM     44  C   UNL A   1      33.323  34.925  28.881  1.00  0.00     0.338 C 
ATOM     45  O   UNL A   1      33.211  36.065  29.293  1.00  0.00    -0.246 OA
BRANCH  44  46
ATOM     46  C   UNL A   1      34.433  34.024  29.233  1.00  0.00     0.060 A 
ATOM     47  C   UNL A   1      34.162  32.884  29.999  1.00  0.00     0.016 A 
ATOM     48  C   UNL A   1      35.735  34.310  28.812  1.00  0.00     0.016 A 
ATOM     49  C   UNL A   1      35.206  32.042  30.381  1.00  0.00     0.010 A 
ATOM     50  C   UNL A   1      36.780  33.476  29.210  1.00  0.00     0.010 A 
ATOM     51  C   UNL A   1      36.524  32.359  30.023  1.00  0.00    -0.014 A 
BRANCH  51  52
ATOM     52  C   UNL A   1      37.652  31.642  30.659  1.00  0.00     0.031 A 
ATOM     53  C   UNL A   1      37.980  31.961  32.091  1.00  0.00     0.074 A 
ATOM     54  C   UNL A   1      38.369  30.729  29.983  1.00  0.00     0.049 A 
ATOM     55  N   UNL A   1      38.939  31.496  32.848  1.00  0.00    -0.248 NA
ATOM     56  C   UNL A   1      37.109  32.943  32.758  1.00  0.00     0.031 C 
ATOM     57  C   UNL A   1      38.135  30.322  28.600  1.00  0.00     0.029 A 
ATOM     58  N   UNL A   1      39.456  29.987  30.375  1.00  0.00    -0.354 N 
ATOM     59  C   UNL A   1      38.789  32.129  34.075  1.00  0.00     0.074 A 
ATOM     60  C   UNL A   1      37.665  33.030  33.956  1.00  0.00     0.031 C 
ATOM     61  C   UNL A   1      39.064  29.415  28.251  1.00  0.00     0.029 A 
ATOM     62  C   UNL A   1      39.970  29.196  29.377  1.00  0.00     0.049 A 
ATOM     63  H   UNL A   1      39.830  30.018  31.285  1.00  0.00     0.167 HD
ATOM     64  C   UNL A   1      39.520  31.965  35.203  1.00  0.00     0.037 A 
ATOM     65  C   UNL A   1      41.062  28.406  29.375  1.00  0.00     0.037 A 
ATOM     66  C   UNL A   1      40.636  31.068  35.321  1.00  0.00     0.049 A 
ATOM     67  C   UNL A   1      41.888  28.281  30.631  1.00  0.00     0.074 A 
ATOM     68  C   UNL A   1      41.419  30.808  36.432  1.00  0.00     0.029 A 
ATOM     69  N   UNL A   1      41.133  30.290  34.287  1.00  0.00    -0.354 N 
ATOM     70  N   UNL A   1      41.710  28.844  31.801  1.00  0.00    -0.248 NA
ATOM     71  C   UNL A   1      43.066  27.403  30.566  1.00  0.00     0.031 C 
ATOM     72  C   UNL A   1      42.422  29.908  36.056  1.00  0.00     0.029 A 
ATOM     73  C   UNL A   1      42.232  29.569  34.726  1.00  0.00     0.049 A 
ATOM     74  H   UNL A   1      40.762  30.254  33.376  1.00  0.00     0.167 HD
ATOM     75  C   UNL A   1      42.731  28.369  32.616  1.00  0.00     0.074 A 
ATOM     76  C   UNL A   1      43.518  27.460  31.810  1.00  0.00     0.031 C 
ATOM     77  C   UNL A   1      42.995  28.659  33.913  1.00  0.00     0.037 A 
BRANCH  64  78
ATOM     78  C   UNL A   1      39.146  32.791  36.396  1.00  0.00     0.064 A 
ATOM     79  C   UNL A   1      38.266  32.311  37.377  1.00  0.00     0.173 A 
ATOM     80  C   UNL A   1      39.713  34.060  36.583  1.00  0.00     0.173 A 
ATOM     81  F   UNL A   1      37.685  31.111  37.233  1.00  0.00    -0.203 F 
ATOM     82  C   UNL A   1      37.957  33.078  38.497  1.00  0.00     0.198 A 
ATOM     83  C   UNL A   1      39.422  34.814  37.716  1.00  0.00     0.198 A 
ATOM     84  F   UNL A   1      40.561  34.563  35.673  1.00  0.00    -0.203 F 
ATOM     85  F   UNL A   1      37.087  32.615  39.405  1.00  0.00    -0.200 F 
ATOM     86  C   UNL A   1      38.540  34.325  38.669  1.00  0.00     0.200 A 
ATOM     87  F   UNL A   1      39.994  36.014  37.887  1.00  0.00    -0.200 F 
ATOM     88  F   UNL A   1      38.251  35.058  39.753  1.00  0.00    -0.200 F 
ENDBRANCH  64  78
BRANCH  65  89
ATOM     89  C   UNL A   1      41.456  27.680  28.140  1.00  0.00     0.064 A 
ATOM     90  C   UNL A   1      41.931  28.367  27.014  1.00  0.00     0.173 A 
ATOM     91  C   UNL A   1      41.323  26.287  28.045  1.00  0.00     0.173 A 
ATOM     92  F   UNL A   1      42.049  29.702  27.044  1.00  0.00    -0.203 F 
ATOM     93  C   UNL A   1      42.232  27.691  25.832  1.00  0.00     0.198 A 
ATOM     94  C   UNL A   1      41.652  25.609  26.873  1.00  0.00     0.198 A 
ATOM     95  F   UNL A   1      40.869  25.582  29.092  1.00  0.00    -0.203 F 
ATOM     96  F   UNL A   1      42.628  28.379  24.752  1.00  0.00    -0.200 F 
ATOM     97  C   UNL A   1      42.096  26.313  25.764  1.00  0.00     0.200 A 
ATOM     98  F   UNL A   1      41.527  24.276  26.814  1.00  0.00    -0.200 F 
ATOM     99  F   UNL A   1      42.380  25.664  24.626  1.00  0.00    -0.200 F 
ENDBRANCH  65  89
BRANCH  77 100
ATOM    100  C   UNL A   1      44.159  27.962  34.555  1.00  0.00     0.064 A 
ATOM    101  C   UNL A   1      45.444  28.525  34.559  1.00  0.00     0.173 A 
ATOM    102  C   UNL A   1      43.977  26.736  35.215  1.00  0.00     0.173 A 
ATOM    103  F   UNL A   1      45.673  29.688  33.931  1.00  0.00    -0.203 F 
ATOM    104  C   UNL A   1      46.508  27.874  35.178  1.00  0.00     0.198 A 
ATOM    105  C   UNL A   1      45.036  26.103  35.858  1.00  0.00     0.198 A 
ATOM    106  F   UNL A   1      42.765  26.161  35.248  1.00  0.00    -0.203 F 
ATOM    107  F   UNL A   1      47.737  28.407  35.130  1.00  0.00    -0.200 F 
ATOM    108  C   UNL A   1      46.301  26.668  35.833  1.00  0.00     0.200 A 
ATOM    109  F   UNL A   1      44.831  24.946  36.503  1.00  0.00    -0.200 F 
ATOM    110  F   UNL A   1      47.326  26.047  36.435  1.00  0.00    -0.200 F 
ENDBRANCH  77 100
ENDBRANCH  51  52
ENDBRANCH  44  46
ENDBRANCH  43  44
ENDBRANCH  42  43
ENDBRANCH  41  42
ENDBRANCH  40  41
ENDBRANCH  39  40
ENDBRANCH  38  39
ENDBRANCH  37  38
ENDBRANCH   1  37
TORSDOF 24
ENDMDL
MODEL 2
REMARK VINA RESULT:      -9.8      6.411     12.261
REMARK SMILES COc1ccc(N2C(=O)/C(=C\c3ccc(-c4ccc(Cl)c(C(=O)OCCOCCOCCOCCOC(=O)c5ccc(-c6c7nc(c(-c8c(F)c(F)c(F)c(F)c8F)c8ccc([nH]8)c(-c8c(F)c(F)c(F)c(F)c8F)c8nc(c(-c9c(F)c(F)c(F)c(F)c9F)c9ccc6[nH]9)C=C8)C=C7)cc5)c4)o3)SC2=S)cc1
REMARK SMILES IDX 29 1 28 2 27 3 26 4 25 5 24 6 22 7 23 8 21 9 16 10 17 11
REMARK SMILES IDX 102 12 18 13 19 14 20 15 15 16 12 17 13 18 103 19 14 20
REMARK SMILES IDX 11 21 7 22 8 23 105 24 9 25 10 26 104 27 106 28 6 29 3 30
REMARK SMILES IDX 4 31 108 32 5 33 107 34 2 35 1 36 30 37 31 38 32 39 33 40
REMARK SMILES IDX 34 41 35 42 36 43 37 44 38 45 39 46 40 47 101 48 41 49
REMARK SMILES IDX 100 50 42 51 43 52 44 53 94 54 45 55 99 56 93 57 95 58 46 59
REMARK SMILES IDX 98 60 92 61 91 62 47 64 79 65 59 66 78 67 60 68 63 69 77 70
REMARK SMILES IDX 96 71 61 72 62 73 76 75 97 76 64 77 48 78 49 79 57 80 50 81
REMARK SMILES IDX 51 82 55 83 58 84 52 85 53 86 56 87 54 88 80 89 81 90 89 91
REMARK SMILES IDX 82 92 83 93 87 94 90 95 84 96 85 97 88 98 86 99 65 100
REMARK SMILES IDX 66 101 74 102 67 103 68 104 72 105 75 106 69 107 70 108
REMARK SMILES IDX 73 109 71 110
REMARK H PARENT 95 63 63 74
REMARK Flexibility Score: inf
ROOT
ATOM      1  C   UNL A   1      41.848  26.594  28.843  1.00  0.00     0.188 C 
ENDROOT
BRANCH   1   2
ATOM      2  C   UNL A   1      42.027  28.122  28.847  1.00  0.00     0.188 C 
BRANCH   2   3
ATOM      3  O   UNL A   1      40.829  28.848  29.115  1.00  0.00    -0.376 OA
BRANCH   3   4
ATOM      4  C   UNL A   1      39.975  28.274  30.098  1.00  0.00     0.202 C 
BRANCH   4   5
ATOM      5  C   UNL A   1      38.490  28.379  29.745  1.00  0.00     0.261 C 
BRANCH   5   6
ATOM      6  O   UNL A   1      38.090  29.703  29.363  1.00  0.00    -0.460 OA
BRANCH   6   7
ATOM      7  C   UNL A   1      37.811  29.925  28.057  1.00  0.00     0.339 C 
ATOM      8  O   UNL A   1      38.529  29.674  27.107  1.00  0.00    -0.246 OA
BRANCH   7   9
ATOM      9  C   UNL A   1      36.423  30.436  28.006  1.00  0.00     0.079 A 
ATOM     10  C   UNL A   1      34.090  29.973  27.444  1.00  0.00     0.018 A 
ATOM     11  C   UNL A   1      33.797  31.328  27.626  1.00  0.00     0.013 A 
ATOM     12  C   UNL A   1      35.409  29.541  27.630  1.00  0.00     0.029 A 
ATOM     13  C   UNL A   1      34.799  32.225  28.019  1.00  0.00     0.022 A 
ATOM     14  C   UNL A   1      36.112  31.782  28.221  1.00  0.00     0.055 A 
ATOM     15  Cl  UNL A   1      37.288  32.966  28.657  1.00  0.00    -0.083 Cl
BRANCH  10  16
ATOM     16  C   UNL A   1      33.062  28.998  27.115  1.00  0.00     0.134 A 
ATOM     17  C   UNL A   1      31.883  27.747  25.714  1.00  0.00     0.128 A 
ATOM     18  C   UNL A   1      31.392  27.531  26.996  1.00  0.00     0.051 A 
ATOM     19  O   UNL A   1      32.935  28.630  25.808  1.00  0.00    -0.457 OA
ATOM     20  C   UNL A   1      32.136  28.330  27.883  1.00  0.00     0.051 A 
BRANCH  17  21
ATOM     21  C   UNL A   1      31.438  27.165  24.499  1.00  0.00     0.068 C 
ATOM     22  N   UNL A   1      33.526  24.274  23.708  1.00  0.00    -0.261 N 
ATOM     23  C   UNL A   1      32.995  25.162  24.639  1.00  0.00     0.270 C 
ATOM     24  C   UNL A   1      32.963  24.296  22.441  1.00  0.00     0.152 C 
ATOM     25  O   UNL A   1      33.292  25.239  25.825  1.00  0.00    -0.268 OA
ATOM     26  C   UNL A   1      31.990  26.054  23.989  1.00  0.00     0.084 C 
ATOM     27  S   UNL A   1      31.670  25.500  22.390  1.00  0.00    -0.054 SA
ATOM     28  S   UNL A   1      33.277  23.334  21.110  1.00  0.00    -0.051 S 
BRANCH  22  29
ATOM     29  C   UNL A   1      34.577  23.399  24.115  1.00  0.00     0.051 A 
ATOM     30  C   UNL A   1      36.680  21.645  24.776  1.00  0.00     0.119 A 
ATOM     31  C   UNL A   1      36.953  22.940  24.342  1.00  0.00     0.048 A 
ATOM     32  C   UNL A   1      35.354  21.229  24.897  1.00  0.00     0.048 A 
ATOM     33  C   UNL A   1      35.912  23.804  23.993  1.00  0.00     0.030 A 
ATOM     34  C   UNL A   1      34.308  22.104  24.575  1.00  0.00     0.030 A 
BRANCH  30  35
ATOM     35  O   UNL A   1      37.779  20.892  25.081  1.00  0.00    -0.497 OA
ATOM     36  C   UNL A   1      37.607  19.483  25.001  1.00  0.00     0.278 C 
ENDBRANCH  30  35
ENDBRANCH  22  29
ENDBRANCH  17  21
ENDBRANCH  10  16
ENDBRANCH   7   9
ENDBRANCH   6   7
ENDBRANCH   5   6
ENDBRANCH   4   5
ENDBRANCH   3   4
ENDBRANCH   2   3
ENDBRANCH   1   2
BRANCH   1  37
ATOM     37  O   UNL A   1      41.100  26.027  27.780  1.00  0.00    -0.377 OA
BRANCH  37  38
ATOM     38  C   UNL A   1      39.961  25.227  28.074  1.00  0.00     0.188 C 
BRANCH  38  39
ATOM     39  C   UNL A   1      39.208  24.437  26.982  1.00  0.00     0.188 C 
BRANCH  39  40
ATOM     40  O   UNL A   1      39.866  23.261  26.529  1.00  0.00    -0.376 OA
BRANCH  40  41
ATOM     41  C   UNL A   1      40.470  22.449  27.526  1.00  0.00     0.202 C 
BRANCH  41  42
ATOM     42  C   UNL A   1      41.959  22.195  27.276  1.00  0.00     0.261 C 
BRANCH  42  43
ATOM     43  O   UNL A   1      42.681  23.333  26.777  1.00  0.00    -0.460 OA
BRANCH  43  44
ATOM     44  C   UNL A   1      43.983  23.143  26.478  1.00  0.00     0.338 C 
ATOM     45  O   UNL A   1      44.521  22.116  26.109  1.00  0.00    -0.246 OA
BRANCH  44  46
ATOM     46  C   UNL A   1      44.646  24.457  26.508  1.00  0.00     0.060 A 
ATOM     47  C   UNL A   1      44.802  25.164  25.309  1.00  0.00     0.016 A 
ATOM     48  C   UNL A   1      45.116  24.984  27.714  1.00  0.00     0.016 A 
ATOM     49  C   UNL A   1      45.467  26.389  25.308  1.00  0.00     0.010 A 
ATOM     50  C   UNL A   1      45.796  26.202  27.709  1.00  0.00     0.010 A 
ATOM     51  C   UNL A   1      46.004  26.892  26.502  1.00  0.00    -0.014 A 
BRANCH  51  52
ATOM     52  C   UNL A   1      46.948  28.031  26.462  1.00  0.00     0.031 A 
ATOM     53  C   UNL A   1      46.395  29.418  26.631  1.00  0.00     0.074 A 
ATOM     54  C   UNL A   1      48.266  27.840  26.279  1.00  0.00     0.049 A 
ATOM     55  N   UNL A   1      47.013  30.571  26.595  1.00  0.00    -0.248 NA
ATOM     56  C   UNL A   1      44.945  29.519  26.868  1.00  0.00     0.031 C 
ATOM     57  C   UNL A   1      48.920  26.544  26.123  1.00  0.00     0.029 A 
ATOM     58  N   UNL A   1      49.288  28.751  26.182  1.00  0.00    -0.354 N 
ATOM     59  C   UNL A   1      46.030  31.530  26.801  1.00  0.00     0.074 A 
ATOM     60  C   UNL A   1      44.771  30.830  26.935  1.00  0.00     0.031 C 
ATOM     61  C   UNL A   1      50.236  26.743  25.930  1.00  0.00     0.029 A 
ATOM     62  C   UNL A   1      50.510  28.180  25.926  1.00  0.00     0.049 A 
ATOM     63  H   UNL A   1      49.158  29.721  26.286  1.00  0.00     0.167 HD
ATOM     64  C   UNL A   1      46.168  32.874  26.880  1.00  0.00     0.037 A 
ATOM     65  C   UNL A   1      51.705  28.758  25.694  1.00  0.00     0.037 A 
ATOM     66  C   UNL A   1      47.419  33.569  26.748  1.00  0.00     0.049 A 
ATOM     67  C   UNL A   1      51.821  30.262  25.738  1.00  0.00     0.074 A 
ATOM     68  C   UNL A   1      47.665  34.926  26.846  1.00  0.00     0.029 A 
ATOM     69  N   UNL A   1      48.634  32.957  26.480  1.00  0.00    -0.354 N 
ATOM     70  N   UNL A   1      50.896  31.159  25.983  1.00  0.00    -0.248 NA
ATOM     71  C   UNL A   1      53.150  30.833  25.478  1.00  0.00     0.031 C 
ATOM     72  C   UNL A   1      49.023  35.142  26.587  1.00  0.00     0.029 A 
ATOM     73  C   UNL A   1      49.631  33.914  26.381  1.00  0.00     0.049 A 
ATOM     74  H   UNL A   1      48.769  31.987  26.376  1.00  0.00     0.167 HD
ATOM     75  C   UNL A   1      51.535  32.392  25.936  1.00  0.00     0.074 A 
ATOM     76  C   UNL A   1      52.930  32.128  25.652  1.00  0.00     0.031 C 
ATOM     77  C   UNL A   1      51.016  33.631  26.110  1.00  0.00     0.037 A 
BRANCH  64  78
ATOM     78  C   UNL A   1      44.927  33.685  27.100  1.00  0.00     0.064 A 
ATOM     79  C   UNL A   1      44.531  34.090  28.383  1.00  0.00     0.173 A 
ATOM     80  C   UNL A   1      44.152  34.103  26.008  1.00  0.00     0.173 A 
ATOM     81  F   UNL A   1      45.230  33.702  29.460  1.00  0.00    -0.203 F 
ATOM     82  C   UNL A   1      43.394  34.873  28.566  1.00  0.00     0.198 A 
ATOM     83  C   UNL A   1      43.031  34.907  26.192  1.00  0.00     0.198 A 
ATOM     84  F   UNL A   1      44.490  33.742  24.761  1.00  0.00    -0.203 F 
ATOM     85  F   UNL A   1      43.014  35.220  29.803  1.00  0.00    -0.200 F 
ATOM     86  C   UNL A   1      42.650  35.287  27.471  1.00  0.00     0.200 A 
ATOM     87  F   UNL A   1      42.318  35.314  25.132  1.00  0.00    -0.200 F 
ATOM     88  F   UNL A   1      41.563  36.051  27.647  1.00  0.00    -0.200 F 
ENDBRANCH  64  78
BRANCH  65  89
ATOM     89  C   UNL A   1      52.893  27.921  25.381  1.00  0.00     0.064 A 
ATOM     90  C   UNL A   1      53.687  27.378  26.400  1.00  0.00     0.173 A 
ATOM     91  C   UNL A   1      53.283  27.686  24.054  1.00  0.00     0.173 A 
ATOM     92  F   UNL A   1      53.372  27.598  27.685  1.00  0.00    -0.203 F 
ATOM     93  C   UNL A   1      54.842  26.654  26.104  1.00  0.00     0.198 A 
ATOM     94  C   UNL A   1      54.421  26.938  23.759  1.00  0.00     0.198 A 
ATOM     95  F   UNL A   1      52.560  28.187  23.042  1.00  0.00    -0.203 F 
ATOM     96  F   UNL A   1      55.615  26.196  27.098  1.00  0.00    -0.200 F 
ATOM     97  C   UNL A   1      55.205  26.432  24.784  1.00  0.00     0.200 A 
ATOM     98  F   UNL A   1      54.764  26.718  22.483  1.00  0.00    -0.200 F 
ATOM     99  F   UNL A   1      56.318  25.741  24.501  1.00  0.00    -0.200 F 
ENDBRANCH  65  89
BRANCH  77 100
ATOM    100  C   UNL A   1      51.961  34.795  26.036  1.00  0.00     0.064 A 
ATOM    101  C   UNL A   1      52.624  35.281  27.172  1.00  0.00     0.173 A 
ATOM    102  C   UNL A   1      52.242  35.403  24.801  1.00  0.00     0.173 A 
ATOM    103  F   UNL A   1      52.380  34.742  28.376  1.00  0.00    -0.203 F 
ATOM    104  C   UNL A   1      53.513  36.347  27.080  1.00  0.00     0.198 A 
ATOM    105  C   UNL A   1      53.154  36.450  24.709  1.00  0.00     0.198 A 
ATOM    106  F   UNL A   1      51.641  34.970  23.682  1.00  0.00    -0.203 F 
ATOM    107  F   UNL A   1      54.100  36.825  28.187  1.00  0.00    -0.200 F 
ATOM    108  C   UNL A   1      53.783  36.926  25.849  1.00  0.00     0.200 A 
ATOM    109  F   UNL A   1      53.425  36.997  23.516  1.00  0.00    -0.200 F 
ATOM    110  F   UNL A   1      54.646  37.948  25.762  1.00  0.00    -0.200 F 
ENDBRANCH  77 100
ENDBRANCH  51  52
ENDBRANCH  44  46
ENDBRANCH  43  44
ENDBRANCH  42  43
ENDBRANCH  41  42
ENDBRANCH  40  41
ENDBRANCH  39  40
ENDBRANCH  38  39
ENDBRANCH  37  38
ENDBRANCH   1  37
TORSDOF 24
ENDMDL
MODEL 3
REMARK VINA RESULT:      -9.6      5.566     11.390
REMARK SMILES COc1ccc(N2C(=O)/C(=C\c3ccc(-c4ccc(Cl)c(C(=O)OCCOCCOCCOCCOC(=O)c5ccc(-c6c7nc(c(-c8c(F)c(F)c(F)c(F)c8F)c8ccc([nH]8)c(-c8c(F)c(F)c(F)c(F)c8F)c8nc(c(-c9c(F)c(F)c(F)c(F)c9F)c9ccc6[nH]9)C=C8)C=C7)cc5)c4)o3)SC2=S)cc1
REMARK SMILES IDX 29 1 28 2 27 3 26 4 25 5 24 6 22 7 23 8 21 9 16 10 17 11
REMARK SMILES IDX 102 12 18 13 19 14 20 15 15 16 12 17 13 18 103 19 14 20
REMARK SMILES IDX 11 21 7 22 8 23 105 24 9 25 10 26 104 27 106 28 6 29 3 30
REMARK SMILES IDX 4 31 108 32 5 33 107 34 2 35 1 36 30 37 31 38 32 39 33 40
REMARK SMILES IDX 34 41 35 42 36 43 37 44 38 45 39 46 40 47 101 48 41 49
REMARK SMILES IDX 100 50 42 51 43 52 44 53 94 54 45 55 99 56 93 57 95 58 46 59
REMARK SMILES IDX 98 60 92 61 91 62 47 64 79 65 59 66 78 67 60 68 63 69 77 70
REMARK SMILES IDX 96 71 61 72 62 73 76 75 97 76 64 77 48 78 49 79 57 80 50 81
REMARK SMILES IDX 51 82 55 83 58 84 52 85 53 86 56 87 54 88 80 89 81 90 89 91
REMARK SMILES IDX 82 92 83 93 87 94 90 95 84 96 85 97 88 98 86 99 65 100
REMARK SMILES IDX 66 101 74 102 67 103 68 104 72 105 75 106 69 107 70 108
REMARK SMILES IDX 73 109 71 110
REMARK H PARENT 95 63 63 74
REMARK Flexibility Score: inf
ROOT
ATOM      1  C   UNL A   1      46.053  18.792  25.399  1.00  0.00     0.188 C 
ENDROOT
BRANCH   1   2
ATOM      2  C   UNL A   1      46.727  19.919  24.596  1.00  0.00     0.188 C 
BRANCH   2   3
ATOM      3  O   UNL A   1      45.849  20.988  24.244  1.00  0.00    -0.376 OA
BRANCH   3   4
ATOM      4  C   UNL A   1      45.863  22.104  25.126  1.00  0.00     0.202 C 
BRANCH   4   5
ATOM      5  C   UNL A   1      45.601  23.435  24.420  1.00  0.00     0.261 C 
BRANCH   5   6
ATOM      6  O   UNL A   1      46.778  24.241  24.272  1.00  0.00    -0.460 OA
BRANCH   6   7
ATOM      7  C   UNL A   1      46.765  25.482  24.812  1.00  0.00     0.339 C 
ATOM      8  O   UNL A   1      45.826  26.255  24.836  1.00  0.00    -0.246 OA
BRANCH   7   9
ATOM      9  C   UNL A   1      48.085  25.672  25.457  1.00  0.00     0.079 A 
ATOM     10  C   UNL A   1      50.417  26.347  25.185  1.00  0.00     0.018 A 
ATOM     11  C   UNL A   1      50.689  25.854  26.465  1.00  0.00     0.013 A 
ATOM     12  C   UNL A   1      49.112  26.243  24.689  1.00  0.00     0.029 A 
ATOM     13  C   UNL A   1      49.666  25.300  27.245  1.00  0.00     0.022 A 
ATOM     14  C   UNL A   1      48.359  25.215  26.749  1.00  0.00     0.055 A 
ATOM     15  Cl  UNL A   1      47.175  24.473  27.762  1.00  0.00    -0.083 Cl
BRANCH  10  16
ATOM     16  C   UNL A   1      51.434  27.002  24.378  1.00  0.00     0.134 A 
ATOM     17  C   UNL A   1      52.124  28.308  22.723  1.00  0.00     0.128 A 
ATOM     18  C   UNL A   1      53.249  27.788  23.354  1.00  0.00     0.051 A 
ATOM     19  O   UNL A   1      51.013  27.839  23.386  1.00  0.00    -0.457 OA
ATOM     20  C   UNL A   1      52.809  26.955  24.400  1.00  0.00     0.051 A 
BRANCH  17  21
ATOM     21  C   UNL A   1      52.075  29.189  21.612  1.00  0.00     0.068 C 
ATOM     22  N   UNL A   1      51.809  27.239  18.535  1.00  0.00    -0.261 N 
ATOM     23  C   UNL A   1      51.622  27.359  19.909  1.00  0.00     0.270 C 
ATOM     24  C   UNL A   1      52.107  28.406  17.847  1.00  0.00     0.152 C 
ATOM     25  O   UNL A   1      51.270  26.472  20.676  1.00  0.00    -0.268 OA
ATOM     26  C   UNL A   1      51.926  28.751  20.353  1.00  0.00     0.084 C 
ATOM     27  S   UNL A   1      52.154  29.763  18.978  1.00  0.00    -0.054 SA
ATOM     28  S   UNL A   1      52.313  28.663  16.208  1.00  0.00    -0.051 S 
BRANCH  22  29
ATOM     29  C   UNL A   1      51.661  25.956  17.931  1.00  0.00     0.051 A 
ATOM     30  C   UNL A   1      51.462  23.366  16.837  1.00  0.00     0.119 A 
ATOM     31  C   UNL A   1      50.779  23.692  18.008  1.00  0.00     0.048 A 
ATOM     32  C   UNL A   1      52.233  24.340  16.202  1.00  0.00     0.048 A 
ATOM     33  C   UNL A   1      50.894  24.968  18.563  1.00  0.00     0.030 A 
ATOM     34  C   UNL A   1      52.326  25.630  16.742  1.00  0.00     0.030 A 
BRANCH  30  35
ATOM     35  O   UNL A   1      51.278  22.087  16.396  1.00  0.00    -0.497 OA
ATOM     36  C   UNL A   1      52.420  21.455  15.831  1.00  0.00     0.278 C 
ENDBRANCH  30  35
ENDBRANCH  22  29
ENDBRANCH  17  21
ENDBRANCH  10  16
ENDBRANCH   7   9
ENDBRANCH   6   7
ENDBRANCH   5   6
ENDBRANCH   4   5
ENDBRANCH   3   4
ENDBRANCH   2   3
ENDBRANCH   1   2
BRANCH   1  37
ATOM     37  O   UNL A   1      44.787  18.339  24.952  1.00  0.00    -0.377 OA
BRANCH  37  38
ATOM     38  C   UNL A   1      43.616  19.058  25.320  1.00  0.00     0.188 C 
BRANCH  38  39
ATOM     39  C   UNL A   1      42.468  18.403  26.120  1.00  0.00     0.188 C 
BRANCH  39  40
ATOM     40  O   UNL A   1      41.341  19.240  26.345  1.00  0.00    -0.376 OA
BRANCH  40  41
ATOM     41  C   UNL A   1      41.465  20.204  27.381  1.00  0.00     0.202 C 
BRANCH  41  42
ATOM     42  C   UNL A   1      40.404  21.306  27.308  1.00  0.00     0.261 C 
BRANCH  42  43
ATOM     43  O   UNL A   1      40.476  22.124  26.129  1.00  0.00    -0.460 OA
BRANCH  43  44
ATOM     44  C   UNL A   1      41.659  22.725  25.877  1.00  0.00     0.338 C 
ATOM     45  O   UNL A   1      42.548  22.342  25.140  1.00  0.00    -0.246 OA
BRANCH  44  46
ATOM     46  C   UNL A   1      41.637  24.046  26.528  1.00  0.00     0.060 A 
ATOM     47  C   UNL A   1      41.370  25.179  25.750  1.00  0.00     0.016 A 
ATOM     48  C   UNL A   1      41.886  24.162  27.898  1.00  0.00     0.016 A 
ATOM     49  C   UNL A   1      41.390  26.443  26.337  1.00  0.00     0.010 A 
ATOM     50  C   UNL A   1      41.922  25.429  28.481  1.00  0.00     0.010 A 
ATOM     51  C   UNL A   1      41.708  26.575  27.696  1.00  0.00    -0.014 A 
BRANCH  51  52
ATOM     52  C   UNL A   1      42.012  27.913  28.254  1.00  0.00     0.031 A 
ATOM     53  C   UNL A   1      43.453  28.328  28.358  1.00  0.00     0.074 A 
ATOM     54  C   UNL A   1      41.033  28.739  28.659  1.00  0.00     0.049 A 
ATOM     55  N   UNL A   1      43.969  29.427  28.844  1.00  0.00    -0.248 NA
ATOM     56  C   UNL A   1      44.448  27.370  27.847  1.00  0.00     0.031 C 
ATOM     57  C   UNL A   1      39.602  28.455  28.591  1.00  0.00     0.029 A 
ATOM     58  N   UNL A   1      41.105  29.988  29.225  1.00  0.00    -0.354 N 
ATOM     59  C   UNL A   1      45.343  29.292  28.701  1.00  0.00     0.074 A 
ATOM     60  C   UNL A   1      45.585  27.995  28.108  1.00  0.00     0.031 C 
ATOM     61  C   UNL A   1      38.928  29.495  29.114  1.00  0.00     0.029 A 
ATOM     62  C   UNL A   1      39.881  30.504  29.573  1.00  0.00     0.049 A 
ATOM     63  H   UNL A   1      41.952  30.468  29.366  1.00  0.00     0.167 HD
ATOM     64  C   UNL A   1      46.315  30.175  29.028  1.00  0.00     0.037 A 
ATOM     65  C   UNL A   1      39.575  31.651  30.211  1.00  0.00     0.037 A 
ATOM     66  C   UNL A   1      46.074  31.464  29.617  1.00  0.00     0.049 A 
ATOM     67  C   UNL A   1      40.683  32.595  30.610  1.00  0.00     0.074 A 
ATOM     68  C   UNL A   1      46.992  32.443  29.953  1.00  0.00     0.029 A 
ATOM     69  N   UNL A   1      44.822  31.948  29.963  1.00  0.00    -0.354 N 
ATOM     70  N   UNL A   1      41.976  32.482  30.426  1.00  0.00    -0.248 NA
ATOM     71  C   UNL A   1      40.286  33.831  31.301  1.00  0.00     0.031 C 
ATOM     72  C   UNL A   1      46.299  33.501  30.550  1.00  0.00     0.029 A 
ATOM     73  C   UNL A   1      44.946  33.203  30.537  1.00  0.00     0.049 A 
ATOM     74  H   UNL A   1      43.972  31.472  29.822  1.00  0.00     0.167 HD
ATOM     75  C   UNL A   1      42.541  33.639  30.950  1.00  0.00     0.074 A 
ATOM     76  C   UNL A   1      41.449  34.448  31.447  1.00  0.00     0.031 C 
ATOM     77  C   UNL A   1      43.846  33.999  31.015  1.00  0.00     0.037 A 
BRANCH  64  78
ATOM     78  C   UNL A   1      47.735  29.766  28.775  1.00  0.00     0.064 A 
ATOM     79  C   UNL A   1      48.481  29.066  29.734  1.00  0.00     0.173 A 
ATOM     80  C   UNL A   1      48.339  30.037  27.538  1.00  0.00     0.173 A 
ATOM     81  F   UNL A   1      47.953  28.800  30.938  1.00  0.00    -0.203 F 
ATOM     82  C   UNL A   1      49.787  28.664  29.469  1.00  0.00     0.198 A 
ATOM     83  C   UNL A   1      49.636  29.611  27.268  1.00  0.00     0.198 A 
ATOM     84  F   UNL A   1      47.666  30.703  26.588  1.00  0.00    -0.203 F 
ATOM     85  F   UNL A   1      50.495  28.028  30.413  1.00  0.00    -0.200 F 
ATOM     86  C   UNL A   1      50.361  28.930  28.235  1.00  0.00     0.200 A 
ATOM     87  F   UNL A   1      50.186  29.860  26.071  1.00  0.00    -0.200 F 
ATOM     88  F   UNL A   1      51.614  28.532  27.976  1.00  0.00    -0.200 F 
ENDBRANCH  64  78
BRANCH  65  89
ATOM     89  C   UNL A   1      38.160  31.974  30.532  1.00  0.00     0.064 A 
ATOM     90  C   UNL A   1      37.615  31.671  31.788  1.00  0.00     0.173 A 
ATOM     91  C   UNL A   1      37.313  32.550  29.575  1.00  0.00     0.173 A 
ATOM     92  F   UNL A   1      38.376  31.092  32.728  1.00  0.00    -0.203 F 
ATOM     93  C   UNL A   1      36.268  31.908  32.063  1.00  0.00     0.198 A 
ATOM     94  C   UNL A   1      35.975  32.814  29.861  1.00  0.00     0.198 A 
ATOM     95  F   UNL A   1      37.785  32.856  28.357  1.00  0.00    -0.203 F 
ATOM     96  F   UNL A   1      35.759  31.555  33.251  1.00  0.00    -0.200 F 
ATOM     97  C   UNL A   1      35.451  32.482  31.102  1.00  0.00     0.200 A 
ATOM     98  F   UNL A   1      35.191  33.377  28.932  1.00  0.00    -0.200 F 
ATOM     99  F   UNL A   1      34.156  32.705  31.365  1.00  0.00    -0.200 F 
ENDBRANCH  65  89
BRANCH  77 100
ATOM    100  C   UNL A   1      44.165  35.339  31.612  1.00  0.00     0.064 A 
ATOM    101  C   UNL A   1      44.114  36.516  30.851  1.00  0.00     0.173 A 
ATOM    102  C   UNL A   1      44.482  35.451  32.976  1.00  0.00     0.173 A 
ATOM    103  F   UNL A   1      43.830  36.460  29.541  1.00  0.00    -0.203 F 
ATOM    104  C   UNL A   1      44.393  37.752  31.427  1.00  0.00     0.198 A 
ATOM    105  C   UNL A   1      44.731  36.692  33.554  1.00  0.00     0.198 A 
ATOM    106  F   UNL A   1      44.534  34.356  33.749  1.00  0.00    -0.203 F 
ATOM    107  F   UNL A   1      44.384  38.859  30.671  1.00  0.00    -0.200 F 
ATOM    108  C   UNL A   1      44.693  37.840  32.779  1.00  0.00     0.200 A 
ATOM    109  F   UNL A   1      45.005  36.776  34.863  1.00  0.00    -0.200 F 
ATOM    110  F   UNL A   1      44.954  39.033  33.332  1.00  0.00    -0.200 F 
ENDBRANCH  77 100
ENDBRANCH  51  52
ENDBRANCH  44  46
ENDBRANCH  43  44
ENDBRANCH  42  43
ENDBRANCH  41  42
ENDBRANCH  40  41
ENDBRANCH  39  40
ENDBRANCH  38  39
ENDBRANCH  37  38
ENDBRANCH   1  37
TORSDOF 24
ENDMDL
