MODEL 1
REMARK VINA RESULT:     -11.3      0.000      0.000
REMARK SMILES Cc1ccc(S(=O)(=O)N(C)c2cccc(C)c2C)cc1C(=O)OCCOCCOCCOCCOC(=O)c1ccc(-c2c3nc(c(-c4c(F)c(F)c(F)c(F)c4F)c4ccc([nH]4)c(-c4c(F)c(F)c(F)c(F)c4F)c4nc(c(-c5c(F)c(F)c(F)c(F)c5F)c5ccc2[nH]5)C=C4)C=C3)cc1
REMARK SMILES IDX 28 1 27 2 26 3 25 4 24 5 23 6 21 7 22 8 20 9 1 10 2 11 3 12
REMARK SMILES IDX 4 13 19 14 5 15 6 16 7 17 8 18 9 19 10 20 11 21 12 22 17 23
REMARK SMILES IDX 13 24 15 25 18 26 14 27 16 28 29 29 30 30 31 31 32 32 33 33
REMARK SMILES IDX 34 34 35 35 36 36 37 37 38 38 39 39 100 40 40 41 99 42 41 43
REMARK SMILES IDX 42 44 43 45 93 46 44 47 98 48 92 49 94 50 45 51 97 52 91 53
REMARK SMILES IDX 90 54 46 56 78 57 58 58 77 59 59 60 62 61 76 62 95 63 60 64
REMARK SMILES IDX 61 65 75 67 96 68 63 69 47 70 48 71 56 72 49 73 50 74 54 75
REMARK SMILES IDX 57 76 51 77 52 78 55 79 53 80 79 81 80 82 88 83 81 84 82 85
REMARK SMILES IDX 86 86 89 87 83 88 84 89 87 90 85 91 64 92 65 93 73 94 66 95
REMARK SMILES IDX 67 96 71 97 74 98 68 99 69 100 72 101 70 102
REMARK H PARENT 94 55 62 66
REMARK Flexibility Score: inf
ROOT
ATOM      1  C   UNL A   1      39.329  22.294  26.468  1.00  0.00     0.188 C 
ENDROOT
BRANCH   1   2
ATOM      2  C   UNL A   1      38.571  23.631  26.489  1.00  0.00     0.188 C 
BRANCH   2   3
ATOM      3  O   UNL A   1      37.242  23.730  26.003  1.00  0.00    -0.376 OA
BRANCH   3   4
ATOM      4  C   UNL A   1      36.667  22.534  25.484  1.00  0.00     0.202 C 
BRANCH   4   5
ATOM      5  C   UNL A   1      35.169  22.332  25.657  1.00  0.00     0.261 C 
BRANCH   5   6
ATOM      6  O   UNL A   1      34.575  23.633  25.755  1.00  0.00    -0.460 OA
BRANCH   6   7
ATOM      7  C   UNL A   1      33.266  23.680  25.465  1.00  0.00     0.338 C 
ATOM      8  O   UNL A   1      32.323  23.696  26.239  1.00  0.00    -0.246 OA
BRANCH   7   9
ATOM      9  C   UNL A   1      33.200  24.421  24.207  1.00  0.00     0.064 A 
ATOM     10  C   UNL A   1      33.311  22.528  22.566  1.00  0.00     0.045 C 
ATOM     11  C   UNL A   1      33.143  23.975  22.900  1.00  0.00    -0.036 A 
ATOM     12  C   UNL A   1      32.958  24.957  21.907  1.00  0.00     0.006 A 
ATOM     13  C   UNL A   1      33.002  26.340  22.219  1.00  0.00     0.022 A 
ATOM     14  C   UNL A   1      33.326  25.772  24.481  1.00  0.00     0.038 A 
ATOM     15  C   UNL A   1      33.264  26.743  23.528  1.00  0.00     0.088 A 
BRANCH  15  16
ATOM     16  S   UNL A   1      33.314  28.428  24.084  1.00  0.00     0.264 S 
ATOM     17  O   UNL A   1      34.365  28.478  25.088  1.00  0.00    -0.201 OA
ATOM     18  O   UNL A   1      33.405  29.195  22.862  1.00  0.00    -0.201 OA
BRANCH  16  19
ATOM     19  N   UNL A   1      31.797  28.833  24.906  1.00  0.00    -0.269 N 
ATOM     20  C   UNL A   1      31.651  28.610  26.382  1.00  0.00     0.164 C 
BRANCH  19  21
ATOM     21  C   UNL A   1      30.627  28.238  24.263  1.00  0.00     0.055 A 
ATOM     22  C   UNL A   1      30.242  26.942  24.642  1.00  0.00     0.027 A 
ATOM     23  C   UNL A   1      29.695  29.072  23.600  1.00  0.00    -0.024 A 
ATOM     24  C   UNL A   1      29.010  26.420  24.283  1.00  0.00     0.002 A 
ATOM     25  C   UNL A   1      28.436  28.533  23.236  1.00  0.00    -0.046 A 
ATOM     26  C   UNL A   1      29.982  30.544  23.415  1.00  0.00     0.047 C 
ATOM     27  C   UNL A   1      28.120  27.205  23.568  1.00  0.00     0.004 A 
ATOM     28  C   UNL A   1      27.384  29.352  22.540  1.00  0.00     0.044 C 
ENDBRANCH  19  21
ENDBRANCH  16  19
ENDBRANCH  15  16
ENDBRANCH   7   9
ENDBRANCH   6   7
ENDBRANCH   5   6
ENDBRANCH   4   5
ENDBRANCH   3   4
ENDBRANCH   2   3
ENDBRANCH   1   2
BRANCH   1  29
ATOM     29  O   UNL A   1      40.742  22.286  26.599  1.00  0.00    -0.377 OA
BRANCH  29  30
ATOM     30  C   UNL A   1      41.328  21.359  27.509  1.00  0.00     0.188 C 
BRANCH  30  31
ATOM     31  C   UNL A   1      41.474  19.900  27.092  1.00  0.00     0.188 C 
BRANCH  31  32
ATOM     32  O   UNL A   1      42.210  19.870  25.872  1.00  0.00    -0.376 OA
BRANCH  32  33
ATOM     33  C   UNL A   1      43.000  18.706  25.651  1.00  0.00     0.202 C 
BRANCH  33  34
ATOM     34  C   UNL A   1      44.205  18.948  24.735  1.00  0.00     0.261 C 
BRANCH  34  35
ATOM     35  O   UNL A   1      45.249  19.602  25.483  1.00  0.00    -0.460 OA
BRANCH  35  36
ATOM     36  C   UNL A   1      45.755  20.728  24.912  1.00  0.00     0.338 C 
ATOM     37  O   UNL A   1      46.868  20.829  24.423  1.00  0.00    -0.246 OA
BRANCH  36  38
ATOM     38  C   UNL A   1      44.874  21.891  25.221  1.00  0.00     0.060 A 
ATOM     39  C   UNL A   1      44.551  22.823  24.221  1.00  0.00     0.016 A 
ATOM     40  C   UNL A   1      44.655  22.218  26.552  1.00  0.00     0.016 A 
ATOM     41  C   UNL A   1      44.183  24.135  24.567  1.00  0.00     0.010 A 
ATOM     42  C   UNL A   1      44.408  23.534  26.878  1.00  0.00     0.010 A 
ATOM     43  C   UNL A   1      44.210  24.524  25.903  1.00  0.00    -0.014 A 
BRANCH  43  44
ATOM     44  C   UNL A   1      44.217  25.915  26.406  1.00  0.00     0.031 A 
ATOM     45  C   UNL A   1      42.900  26.616  26.587  1.00  0.00     0.074 A 
ATOM     46  C   UNL A   1      45.325  26.361  27.056  1.00  0.00     0.049 A 
ATOM     47  N   UNL A   1      42.723  27.686  27.282  1.00  0.00    -0.248 NA
ATOM     48  C   UNL A   1      41.633  26.124  26.047  1.00  0.00     0.031 C 
ATOM     49  C   UNL A   1      45.372  27.338  28.142  1.00  0.00     0.029 A 
ATOM     50  N   UNL A   1      46.655  25.961  26.965  1.00  0.00    -0.354 N 
ATOM     51  C   UNL A   1      41.377  27.872  27.516  1.00  0.00     0.074 A 
ATOM     52  C   UNL A   1      40.736  26.894  26.679  1.00  0.00     0.031 C 
ATOM     53  C   UNL A   1      46.620  27.511  28.595  1.00  0.00     0.029 A 
ATOM     54  C   UNL A   1      47.476  26.899  27.617  1.00  0.00     0.049 A 
ATOM     55  H   UNL A   1      46.974  25.145  26.514  1.00  0.00     0.167 HD
ATOM     56  C   UNL A   1      41.001  28.781  28.470  1.00  0.00     0.037 A 
ATOM     57  C   UNL A   1      48.335  27.664  26.879  1.00  0.00     0.037 A 
ATOM     58  C   UNL A   1      42.153  29.610  28.880  1.00  0.00     0.049 A 
ATOM     59  C   UNL A   1      47.794  29.093  26.791  1.00  0.00     0.074 A 
ATOM     60  C   UNL A   1      42.735  29.951  30.085  1.00  0.00     0.029 A 
ATOM     61  N   UNL A   1      43.020  30.110  27.898  1.00  0.00    -0.354 N 
ATOM     62  N   UNL A   1      46.507  29.387  26.760  1.00  0.00    -0.248 NA
ATOM     63  C   UNL A   1      48.620  30.266  27.081  1.00  0.00     0.031 C 
ATOM     64  C   UNL A   1      44.043  30.462  29.813  1.00  0.00     0.029 A 
ATOM     65  C   UNL A   1      44.210  30.554  28.437  1.00  0.00     0.049 A 
ATOM     66  H   UNL A   1      42.805  30.140  26.938  1.00  0.00     0.167 HD
ATOM     67  C   UNL A   1      46.332  30.681  27.187  1.00  0.00     0.074 A 
ATOM     68  C   UNL A   1      47.685  31.203  27.322  1.00  0.00     0.031 C 
ATOM     69  C   UNL A   1      45.172  31.272  27.615  1.00  0.00     0.037 A 
BRANCH  56  70
ATOM     70  C   UNL A   1      39.637  28.860  29.164  1.00  0.00     0.064 A 
ATOM     71  C   UNL A   1      38.523  29.442  28.507  1.00  0.00     0.173 A 
ATOM     72  C   UNL A   1      39.375  28.492  30.504  1.00  0.00     0.173 A 
ATOM     73  F   UNL A   1      38.597  29.831  27.228  1.00  0.00    -0.203 F 
ATOM     74  C   UNL A   1      37.285  29.655  29.135  1.00  0.00     0.198 A 
ATOM     75  C   UNL A   1      38.119  28.650  31.112  1.00  0.00     0.198 A 
ATOM     76  F   UNL A   1      40.333  28.016  31.304  1.00  0.00    -0.203 F 
ATOM     77  F   UNL A   1      36.296  30.271  28.472  1.00  0.00    -0.200 F 
ATOM     78  C   UNL A   1      37.078  29.246  30.434  1.00  0.00     0.200 A 
ATOM     79  F   UNL A   1      37.937  28.240  32.376  1.00  0.00    -0.200 F 
ATOM     80  F   UNL A   1      35.894  29.437  31.033  1.00  0.00    -0.200 F 
ENDBRANCH  56  70
BRANCH  57  81
ATOM     81  C   UNL A   1      49.142  26.775  25.979  1.00  0.00     0.064 A 
ATOM     82  C   UNL A   1      48.877  27.026  24.608  1.00  0.00     0.173 A 
ATOM     83  C   UNL A   1      50.467  26.444  26.309  1.00  0.00     0.173 A 
ATOM     84  F   UNL A   1      47.621  27.304  24.217  1.00  0.00    -0.203 F 
ATOM     85  C   UNL A   1      49.911  27.277  23.704  1.00  0.00     0.198 A 
ATOM     86  C   UNL A   1      51.500  26.636  25.375  1.00  0.00     0.198 A 
ATOM     87  F   UNL A   1      50.799  26.162  27.576  1.00  0.00    -0.203 F 
ATOM     88  F   UNL A   1      49.637  27.802  22.500  1.00  0.00    -0.200 F 
ATOM     89  C   UNL A   1      51.225  27.135  24.108  1.00  0.00     0.200 A 
ATOM     90  F   UNL A   1      52.780  26.490  25.751  1.00  0.00    -0.200 F 
ATOM     91  F   UNL A   1      52.221  27.560  23.315  1.00  0.00    -0.200 F 
ENDBRANCH  57  81
BRANCH  69  92
ATOM     92  C   UNL A   1      44.824  32.698  27.242  1.00  0.00     0.064 A 
ATOM     93  C   UNL A   1      44.111  33.015  26.076  1.00  0.00     0.173 A 
ATOM     94  C   UNL A   1      44.986  33.764  28.167  1.00  0.00     0.173 A 
ATOM     95  F   UNL A   1      43.802  32.081  25.166  1.00  0.00    -0.203 F 
ATOM     96  C   UNL A   1      43.632  34.300  25.833  1.00  0.00     0.198 A 
ATOM     97  C   UNL A   1      44.455  35.030  27.946  1.00  0.00     0.198 A 
ATOM     98  F   UNL A   1      45.615  33.610  29.340  1.00  0.00    -0.203 F 
ATOM     99  F   UNL A   1      42.979  34.552  24.692  1.00  0.00    -0.200 F 
ATOM    100  C   UNL A   1      43.790  35.302  26.772  1.00  0.00     0.200 A 
ATOM    101  F   UNL A   1      44.565  35.970  28.895  1.00  0.00    -0.200 F 
ATOM    102  F   UNL A   1      43.283  36.521  26.554  1.00  0.00    -0.200 F 
ENDBRANCH  69  92
ENDBRANCH  43  44
ENDBRANCH  36  38
ENDBRANCH  35  36
ENDBRANCH  34  35
ENDBRANCH  33  34
ENDBRANCH  32  33
ENDBRANCH  31  32
ENDBRANCH  30  31
ENDBRANCH  29  30
ENDBRANCH   1  29
TORSDOF 23
ENDMDL
MODEL 2
REMARK VINA RESULT:     -10.7      1.587      2.254
REMARK SMILES Cc1ccc(S(=O)(=O)N(C)c2cccc(C)c2C)cc1C(=O)OCCOCCOCCOCCOC(=O)c1ccc(-c2c3nc(c(-c4c(F)c(F)c(F)c(F)c4F)c4ccc([nH]4)c(-c4c(F)c(F)c(F)c(F)c4F)c4nc(c(-c5c(F)c(F)c(F)c(F)c5F)c5ccc2[nH]5)C=C4)C=C3)cc1
REMARK SMILES IDX 28 1 27 2 26 3 25 4 24 5 23 6 21 7 22 8 20 9 1 10 2 11 3 12
REMARK SMILES IDX 4 13 19 14 5 15 6 16 7 17 8 18 9 19 10 20 11 21 12 22 17 23
REMARK SMILES IDX 13 24 15 25 18 26 14 27 16 28 29 29 30 30 31 31 32 32 33 33
REMARK SMILES IDX 34 34 35 35 36 36 37 37 38 38 39 39 100 40 40 41 99 42 41 43
REMARK SMILES IDX 42 44 43 45 93 46 44 47 98 48 92 49 94 50 45 51 97 52 91 53
REMARK SMILES IDX 90 54 46 56 78 57 58 58 77 59 59 60 62 61 76 62 95 63 60 64
REMARK SMILES IDX 61 65 75 67 96 68 63 69 47 70 48 71 56 72 49 73 50 74 54 75
REMARK SMILES IDX 57 76 51 77 52 78 55 79 53 80 79 81 80 82 88 83 81 84 82 85
REMARK SMILES IDX 86 86 89 87 83 88 84 89 87 90 85 91 64 92 65 93 73 94 66 95
REMARK SMILES IDX 67 96 71 97 74 98 68 99 69 100 72 101 70 102
REMARK H PARENT 94 55 62 66
REMARK Flexibility Score: inf
ROOT
ATOM      1  C   UNL A   1      40.801  21.316  27.400  1.00  0.00     0.188 C 
ENDROOT
BRANCH   1   2
ATOM      2  C   UNL A   1      40.226  22.427  26.506  1.00  0.00     0.188 C 
BRANCH   2   3
ATOM      3  O   UNL A   1      38.840  22.490  26.213  1.00  0.00    -0.376 OA
BRANCH   3   4
ATOM      4  C   UNL A   1      38.263  21.329  25.621  1.00  0.00     0.202 C 
BRANCH   4   5
ATOM      5  C   UNL A   1      37.046  21.516  24.730  1.00  0.00     0.261 C 
BRANCH   5   6
ATOM      6  O   UNL A   1      36.110  22.325  25.454  1.00  0.00    -0.460 OA
BRANCH   6   7
ATOM      7  C   UNL A   1      35.091  21.651  26.010  1.00  0.00     0.338 C 
ATOM      8  O   UNL A   1      34.770  21.607  27.186  1.00  0.00    -0.246 OA
BRANCH   7   9
ATOM      9  C   UNL A   1      34.070  21.612  24.965  1.00  0.00     0.064 A 
ATOM     10  C   UNL A   1      33.925  19.138  24.574  1.00  0.00     0.045 C 
ATOM     11  C   UNL A   1      33.460  20.539  24.341  1.00  0.00    -0.036 A 
ATOM     12  C   UNL A   1      32.411  20.842  23.452  1.00  0.00     0.006 A 
ATOM     13  C   UNL A   1      32.115  22.180  23.087  1.00  0.00     0.022 A 
ATOM     14  C   UNL A   1      33.827  22.904  24.534  1.00  0.00     0.038 A 
ATOM     15  C   UNL A   1      32.894  23.220  23.592  1.00  0.00     0.088 A 
BRANCH  15  16
ATOM     16  S   UNL A   1      32.629  24.944  23.263  1.00  0.00     0.264 S 
ATOM     17  O   UNL A   1      33.955  25.527  23.133  1.00  0.00    -0.201 OA
ATOM     18  O   UNL A   1      31.696  24.948  22.159  1.00  0.00    -0.201 OA
BRANCH  16  19
ATOM     19  N   UNL A   1      31.865  25.712  24.665  1.00  0.00    -0.269 N 
ATOM     20  C   UNL A   1      30.616  25.134  25.260  1.00  0.00     0.164 C 
BRANCH  19  21
ATOM     21  C   UNL A   1      31.627  27.141  24.469  1.00  0.00     0.055 A 
ATOM     22  C   UNL A   1      30.608  27.535  23.586  1.00  0.00     0.027 A 
ATOM     23  C   UNL A   1      32.115  28.068  25.421  1.00  0.00    -0.024 A 
ATOM     24  C   UNL A   1      30.148  28.841  23.550  1.00  0.00     0.002 A 
ATOM     25  C   UNL A   1      31.640  29.402  25.380  1.00  0.00    -0.046 A 
ATOM     26  C   UNL A   1      33.012  27.607  26.547  1.00  0.00     0.047 C 
ATOM     27  C   UNL A   1      30.674  29.773  24.429  1.00  0.00     0.004 A 
ATOM     28  C   UNL A   1      32.096  30.447  26.361  1.00  0.00     0.044 C 
ENDBRANCH  19  21
ENDBRANCH  16  19
ENDBRANCH  15  16
ENDBRANCH   7   9
ENDBRANCH   6   7
ENDBRANCH   5   6
ENDBRANCH   4   5
ENDBRANCH   3   4
ENDBRANCH   2   3
ENDBRANCH   1   2
BRANCH   1  29
ATOM     29  O   UNL A   1      41.405  20.179  26.803  1.00  0.00    -0.377 OA
BRANCH  29  30
ATOM     30  C   UNL A   1      42.269  19.378  27.604  1.00  0.00     0.188 C 
BRANCH  30  31
ATOM     31  C   UNL A   1      42.667  17.991  27.112  1.00  0.00     0.188 C 
BRANCH  31  32
ATOM     32  O   UNL A   1      43.018  18.105  25.735  1.00  0.00    -0.376 OA
BRANCH  32  33
ATOM     33  C   UNL A   1      44.402  18.298  25.460  1.00  0.00     0.202 C 
BRANCH  33  34
ATOM     34  C   UNL A   1      44.675  19.406  24.436  1.00  0.00     0.261 C 
BRANCH  34  35
ATOM     35  O   UNL A   1      44.055  20.629  24.880  1.00  0.00    -0.460 OA
BRANCH  35  36
ATOM     36  C   UNL A   1      44.423  21.748  24.196  1.00  0.00     0.338 C 
ATOM     37  O   UNL A   1      44.524  21.828  22.984  1.00  0.00    -0.246 OA
BRANCH  36  38
ATOM     38  C   UNL A   1      44.955  22.767  25.145  1.00  0.00     0.060 A 
ATOM     39  C   UNL A   1      44.488  22.817  26.470  1.00  0.00     0.016 A 
ATOM     40  C   UNL A   1      45.652  23.850  24.628  1.00  0.00     0.016 A 
ATOM     41  C   UNL A   1      44.563  24.014  27.203  1.00  0.00     0.010 A 
ATOM     42  C   UNL A   1      45.616  25.048  25.311  1.00  0.00     0.010 A 
ATOM     43  C   UNL A   1      45.038  25.167  26.584  1.00  0.00    -0.014 A 
BRANCH  43  44
ATOM     44  C   UNL A   1      44.848  26.554  27.062  1.00  0.00     0.031 A 
ATOM     45  C   UNL A   1      43.479  27.165  26.960  1.00  0.00     0.074 A 
ATOM     46  C   UNL A   1      45.766  27.071  27.923  1.00  0.00     0.049 A 
ATOM     47  N   UNL A   1      43.092  28.218  27.592  1.00  0.00    -0.248 NA
ATOM     48  C   UNL A   1      42.387  26.591  26.174  1.00  0.00     0.031 C 
ATOM     49  C   UNL A   1      45.522  28.046  28.985  1.00  0.00     0.029 A 
ATOM     50  N   UNL A   1      47.109  26.762  28.114  1.00  0.00    -0.354 N 
ATOM     51  C   UNL A   1      41.717  28.314  27.539  1.00  0.00     0.074 A 
ATOM     52  C   UNL A   1      41.329  27.297  26.598  1.00  0.00     0.031 C 
ATOM     53  C   UNL A   1      46.635  28.300  29.685  1.00  0.00     0.029 A 
ATOM     54  C   UNL A   1      47.713  27.750  28.911  1.00  0.00     0.049 A 
ATOM     55  H   UNL A   1      47.567  25.970  27.747  1.00  0.00     0.167 HD
ATOM     56  C   UNL A   1      41.093  29.192  28.385  1.00  0.00     0.037 A 
ATOM     57  C   UNL A   1      48.654  28.574  28.359  1.00  0.00     0.037 A 
ATOM     58  C   UNL A   1      42.077  30.096  29.016  1.00  0.00     0.049 A 
ATOM     59  C   UNL A   1      48.050  29.963  28.146  1.00  0.00     0.074 A 
ATOM     60  C   UNL A   1      42.373  30.470  30.312  1.00  0.00     0.029 A 
ATOM     61  N   UNL A   1      43.093  30.655  28.229  1.00  0.00    -0.354 N 
ATOM     62  N   UNL A   1      46.781  30.171  27.845  1.00  0.00    -0.248 NA
ATOM     63  C   UNL A   1      48.719  31.188  28.587  1.00  0.00     0.031 C 
ATOM     64  C   UNL A   1      43.672  31.069  30.311  1.00  0.00     0.029 A 
ATOM     65  C   UNL A   1      44.114  31.176  28.998  1.00  0.00     0.049 A 
ATOM     66  H   UNL A   1      43.081  30.673  27.245  1.00  0.00     0.167 HD
ATOM     67  C   UNL A   1      46.436  31.449  28.213  1.00  0.00     0.074 A 
ATOM     68  C   UNL A   1      47.694  32.060  28.619  1.00  0.00     0.031 C 
ATOM     69  C   UNL A   1      45.176  31.959  28.386  1.00  0.00     0.037 A 
BRANCH  56  70
ATOM     70  C   UNL A   1      39.612  29.178  28.781  1.00  0.00     0.064 A 
ATOM     71  C   UNL A   1      38.608  29.522  27.841  1.00  0.00     0.173 A 
ATOM     72  C   UNL A   1      39.113  28.949  30.084  1.00  0.00     0.173 A 
ATOM     73  F   UNL A   1      38.909  29.755  26.557  1.00  0.00    -0.203 F 
ATOM     74  C   UNL A   1      37.250  29.648  28.177  1.00  0.00     0.198 A 
ATOM     75  C   UNL A   1      37.747  29.015  30.406  1.00  0.00     0.198 A 
ATOM     76  F   UNL A   1      39.924  28.706  31.118  1.00  0.00    -0.203 F 
ATOM     77  F   UNL A   1      36.365  30.041  27.250  1.00  0.00    -0.200 F 
ATOM     78  C   UNL A   1      36.817  29.381  29.458  1.00  0.00     0.200 A 
ATOM     79  F   UNL A   1      37.346  28.745  31.657  1.00  0.00    -0.200 F 
ATOM     80  F   UNL A   1      35.520  29.488  29.779  1.00  0.00    -0.200 F 
ENDBRANCH  56  70
BRANCH  57  81
ATOM     81  C   UNL A   1      49.687  27.743  27.655  1.00  0.00     0.064 A 
ATOM     82  C   UNL A   1      49.700  27.985  26.256  1.00  0.00     0.173 A 
ATOM     83  C   UNL A   1      50.932  27.495  28.258  1.00  0.00     0.173 A 
ATOM     84  F   UNL A   1      48.539  28.184  25.609  1.00  0.00    -0.203 F 
ATOM     85  C   UNL A   1      50.883  28.306  25.587  1.00  0.00     0.198 A 
ATOM     86  C   UNL A   1      52.123  27.759  27.560  1.00  0.00     0.198 A 
ATOM     87  F   UNL A   1      51.008  27.228  29.569  1.00  0.00    -0.203 F 
ATOM     88  F   UNL A   1      50.834  28.820  24.349  1.00  0.00    -0.200 F 
ATOM     89  C   UNL A   1      52.089  28.247  26.259  1.00  0.00     0.200 A 
ATOM     90  F   UNL A   1      53.302  27.693  28.197  1.00  0.00    -0.200 F 
ATOM     91  F   UNL A   1      53.200  28.739  25.690  1.00  0.00    -0.200 F 
ENDBRANCH  57  81
BRANCH  69  92
ATOM     92  C   UNL A   1      44.820  33.360  27.933  1.00  0.00     0.064 A 
ATOM     93  C   UNL A   1      44.194  33.614  26.703  1.00  0.00     0.173 A 
ATOM     94  C   UNL A   1      44.876  34.462  28.828  1.00  0.00     0.173 A 
ATOM     95  F   UNL A   1      43.986  32.640  25.806  1.00  0.00    -0.203 F 
ATOM     96  C   UNL A   1      43.701  34.875  26.375  1.00  0.00     0.198 A 
ATOM     97  C   UNL A   1      44.329  35.702  28.519  1.00  0.00     0.198 A 
ATOM     98  F   UNL A   1      45.412  34.368  30.052  1.00  0.00    -0.203 F 
ATOM     99  F   UNL A   1      43.136  35.066  25.177  1.00  0.00    -0.200 F 
ATOM    100  C   UNL A   1      43.754  35.913  27.286  1.00  0.00     0.200 A 
ATOM    101  F   UNL A   1      44.335  36.678  29.438  1.00  0.00    -0.200 F 
ATOM    102  F   UNL A   1      43.232  37.107  26.983  1.00  0.00    -0.200 F 
ENDBRANCH  69  92
ENDBRANCH  43  44
ENDBRANCH  36  38
ENDBRANCH  35  36
ENDBRANCH  34  35
ENDBRANCH  33  34
ENDBRANCH  32  33
ENDBRANCH  31  32
ENDBRANCH  30  31
ENDBRANCH  29  30
ENDBRANCH   1  29
TORSDOF 23
ENDMDL
MODEL 3
REMARK VINA RESULT:     -10.4      4.818      7.590
REMARK SMILES Cc1ccc(S(=O)(=O)N(C)c2cccc(C)c2C)cc1C(=O)OCCOCCOCCOCCOC(=O)c1ccc(-c2c3nc(c(-c4c(F)c(F)c(F)c(F)c4F)c4ccc([nH]4)c(-c4c(F)c(F)c(F)c(F)c4F)c4nc(c(-c5c(F)c(F)c(F)c(F)c5F)c5ccc2[nH]5)C=C4)C=C3)cc1
REMARK SMILES IDX 28 1 27 2 26 3 25 4 24 5 23 6 21 7 22 8 20 9 1 10 2 11 3 12
REMARK SMILES IDX 4 13 19 14 5 15 6 16 7 17 8 18 9 19 10 20 11 21 12 22 17 23
REMARK SMILES IDX 13 24 15 25 18 26 14 27 16 28 29 29 30 30 31 31 32 32 33 33
REMARK SMILES IDX 34 34 35 35 36 36 37 37 38 38 39 39 100 40 40 41 99 42 41 43
REMARK SMILES IDX 42 44 43 45 93 46 44 47 98 48 92 49 94 50 45 51 97 52 91 53
REMARK SMILES IDX 90 54 46 56 78 57 58 58 77 59 59 60 62 61 76 62 95 63 60 64
REMARK SMILES IDX 61 65 75 67 96 68 63 69 47 70 48 71 56 72 49 73 50 74 54 75
REMARK SMILES IDX 57 76 51 77 52 78 55 79 53 80 79 81 80 82 88 83 81 84 82 85
REMARK SMILES IDX 86 86 89 87 83 88 84 89 87 90 85 91 64 92 65 93 73 94 66 95
REMARK SMILES IDX 67 96 71 97 74 98 68 99 69 100 72 101 70 102
REMARK H PARENT 94 55 62 66
REMARK Flexibility Score: inf
ROOT
ATOM      1  C   UNL A   1      40.902  22.115  27.023  1.00  0.00     0.188 C 
ENDROOT
BRANCH   1   2
ATOM      2  C   UNL A   1      40.327  20.740  26.645  1.00  0.00     0.188 C 
BRANCH   2   3
ATOM      3  O   UNL A   1      39.221  20.624  25.766  1.00  0.00    -0.376 OA
BRANCH   3   4
ATOM      4  C   UNL A   1      38.384  21.770  25.644  1.00  0.00     0.202 C 
BRANCH   4   5
ATOM      5  C   UNL A   1      37.062  21.612  24.909  1.00  0.00     0.261 C 
BRANCH   5   6
ATOM      6  O   UNL A   1      36.077  22.351  25.644  1.00  0.00    -0.460 OA
BRANCH   6   7
ATOM      7  C   UNL A   1      35.055  21.619  26.112  1.00  0.00     0.338 C 
ATOM      8  O   UNL A   1      34.678  21.504  27.267  1.00  0.00    -0.246 OA
BRANCH   7   9
ATOM      9  C   UNL A   1      34.088  21.604  25.016  1.00  0.00     0.064 A 
ATOM     10  C   UNL A   1      33.884  19.134  24.633  1.00  0.00     0.045 C 
ATOM     11  C   UNL A   1      33.477  20.548  24.368  1.00  0.00    -0.036 A 
ATOM     12  C   UNL A   1      32.485  20.877  23.424  1.00  0.00     0.006 A 
ATOM     13  C   UNL A   1      32.252  22.221  23.036  1.00  0.00     0.022 A 
ATOM     14  C   UNL A   1      33.909  22.900  24.566  1.00  0.00     0.038 A 
ATOM     15  C   UNL A   1      33.037  23.240  23.575  1.00  0.00     0.088 A 
BRANCH  15  16
ATOM     16  S   UNL A   1      32.845  24.969  23.223  1.00  0.00     0.264 S 
ATOM     17  O   UNL A   1      34.050  25.607  23.727  1.00  0.00    -0.201 OA
ATOM     18  O   UNL A   1      32.509  25.002  21.817  1.00  0.00    -0.201 OA
BRANCH  16  19
ATOM     19  N   UNL A   1      31.487  25.624  24.155  1.00  0.00    -0.269 N 
ATOM     20  C   UNL A   1      30.093  25.125  23.917  1.00  0.00     0.164 C 
BRANCH  19  21
ATOM     21  C   UNL A   1      31.432  27.084  24.125  1.00  0.00     0.055 A 
ATOM     22  C   UNL A   1      30.634  27.705  23.150  1.00  0.00     0.027 A 
ATOM     23  C   UNL A   1      31.830  27.821  25.267  1.00  0.00    -0.024 A 
ATOM     24  C   UNL A   1      30.321  29.052  23.223  1.00  0.00     0.002 A 
ATOM     25  C   UNL A   1      31.506  29.199  25.337  1.00  0.00    -0.046 A 
ATOM     26  C   UNL A   1      32.457  27.120  26.449  1.00  0.00     0.047 C 
ATOM     27  C   UNL A   1      30.769  29.798  24.300  1.00  0.00     0.004 A 
ATOM     28  C   UNL A   1      31.879  30.052  26.517  1.00  0.00     0.044 C 
ENDBRANCH  19  21
ENDBRANCH  16  19
ENDBRANCH  15  16
ENDBRANCH   7   9
ENDBRANCH   6   7
ENDBRANCH   5   6
ENDBRANCH   4   5
ENDBRANCH   3   4
ENDBRANCH   2   3
ENDBRANCH   1   2
BRANCH   1  29
ATOM     29  O   UNL A   1      42.280  22.381  26.812  1.00  0.00    -0.377 OA
BRANCH  29  30
ATOM     30  C   UNL A   1      42.845  22.040  25.550  1.00  0.00     0.188 C 
BRANCH  30  31
ATOM     31  C   UNL A   1      43.552  23.118  24.736  1.00  0.00     0.188 C 
BRANCH  31  32
ATOM     32  O   UNL A   1      44.247  23.963  25.649  1.00  0.00    -0.376 OA
BRANCH  32  33
ATOM     33  C   UNL A   1      44.431  25.312  25.232  1.00  0.00     0.202 C 
BRANCH  33  34
ATOM     34  C   UNL A   1      43.126  26.113  25.154  1.00  0.00     0.261 C 
BRANCH  34  35
ATOM     35  O   UNL A   1      42.561  26.234  26.475  1.00  0.00    -0.460 OA
BRANCH  35  36
ATOM     36  C   UNL A   1      41.204  26.323  26.520  1.00  0.00     0.338 C 
ATOM     37  O   UNL A   1      40.431  25.575  25.946  1.00  0.00    -0.246 OA
BRANCH  36  38
ATOM     38  C   UNL A   1      40.803  27.623  27.131  1.00  0.00     0.060 A 
ATOM     39  C   UNL A   1      41.767  28.612  27.392  1.00  0.00     0.016 A 
ATOM     40  C   UNL A   1      39.555  27.715  27.729  1.00  0.00     0.016 A 
ATOM     41  C   UNL A   1      41.538  29.579  28.386  1.00  0.00     0.010 A 
ATOM     42  C   UNL A   1      39.387  28.593  28.780  1.00  0.00     0.010 A 
ATOM     43  C   UNL A   1      40.382  29.508  29.157  1.00  0.00    -0.014 A 
BRANCH  43  44
ATOM     44  C   UNL A   1      40.153  30.189  30.450  1.00  0.00     0.031 A 
ATOM     45  C   UNL A   1      39.351  31.460  30.457  1.00  0.00     0.074 A 
ATOM     46  C   UNL A   1      40.305  29.470  31.594  1.00  0.00     0.049 A 
ATOM     47  N   UNL A   1      38.821  31.993  31.503  1.00  0.00    -0.248 NA
ATOM     48  C   UNL A   1      39.013  32.217  29.252  1.00  0.00     0.031 C 
ATOM     49  C   UNL A   1      39.571  29.645  32.846  1.00  0.00     0.029 A 
ATOM     50  N   UNL A   1      41.080  28.345  31.865  1.00  0.00    -0.354 N 
ATOM     51  C   UNL A   1      37.894  32.941  31.124  1.00  0.00     0.074 A 
ATOM     52  C   UNL A   1      38.090  33.077  29.705  1.00  0.00     0.031 C 
ATOM     53  C   UNL A   1      39.929  28.733  33.759  1.00  0.00     0.029 A 
ATOM     54  C   UNL A   1      41.131  28.131  33.254  1.00  0.00     0.049 A 
ATOM     55  H   UNL A   1      41.523  27.784  31.188  1.00  0.00     0.167 HD
ATOM     56  C   UNL A   1      37.020  33.411  32.069  1.00  0.00     0.037 A 
ATOM     57  C   UNL A   1      42.316  28.302  33.915  1.00  0.00     0.037 A 
ATOM     58  C   UNL A   1      37.442  32.993  33.421  1.00  0.00     0.049 A 
ATOM     59  C   UNL A   1      42.264  29.601  34.721  1.00  0.00     0.074 A 
ATOM     60  C   UNL A   1      36.831  32.359  34.485  1.00  0.00     0.029 A 
ATOM     61  N   UNL A   1      38.796  33.083  33.773  1.00  0.00    -0.354 N 
ATOM     62  N   UNL A   1      41.601  30.675  34.335  1.00  0.00    -0.248 NA
ATOM     63  C   UNL A   1      42.645  29.666  36.133  1.00  0.00     0.031 C 
ATOM     64  C   UNL A   1      37.857  31.890  35.365  1.00  0.00     0.029 A 
ATOM     65  C   UNL A   1      39.085  32.348  34.905  1.00  0.00     0.049 A 
ATOM     66  H   UNL A   1      39.461  33.607  33.272  1.00  0.00     0.167 HD
ATOM     67  C   UNL A   1      41.319  31.448  35.436  1.00  0.00     0.074 A 
ATOM     68  C   UNL A   1      42.039  30.803  36.525  1.00  0.00     0.031 C 
ATOM     69  C   UNL A   1      40.390  32.451  35.540  1.00  0.00     0.037 A 
BRANCH  56  70
ATOM     70  C   UNL A   1      35.693  34.132  31.802  1.00  0.00     0.064 A 
ATOM     71  C   UNL A   1      34.933  33.844  30.641  1.00  0.00     0.173 A 
ATOM     72  C   UNL A   1      35.165  35.189  32.577  1.00  0.00     0.173 A 
ATOM     73  F   UNL A   1      35.288  32.859  29.806  1.00  0.00    -0.203 F 
ATOM     74  C   UNL A   1      33.779  34.558  30.280  1.00  0.00     0.198 A 
ATOM     75  C   UNL A   1      33.976  35.862  32.249  1.00  0.00     0.198 A 
ATOM     76  F   UNL A   1      35.799  35.660  33.656  1.00  0.00    -0.203 F 
ATOM     77  F   UNL A   1      33.147  34.273  29.133  1.00  0.00    -0.200 F 
ATOM     78  C   UNL A   1      33.291  35.559  31.092  1.00  0.00     0.200 A 
ATOM     79  F   UNL A   1      33.515  36.830  33.056  1.00  0.00    -0.200 F 
ATOM     80  F   UNL A   1      32.182  36.234  30.758  1.00  0.00    -0.200 F 
ENDBRANCH  56  70
BRANCH  57  81
ATOM     81  C   UNL A   1      43.392  27.529  33.209  1.00  0.00     0.064 A 
ATOM     82  C   UNL A   1      44.370  28.383  32.637  1.00  0.00     0.173 A 
ATOM     83  C   UNL A   1      43.856  26.312  33.737  1.00  0.00     0.173 A 
ATOM     84  F   UNL A   1      43.987  29.542  32.073  1.00  0.00    -0.203 F 
ATOM     85  C   UNL A   1      45.731  28.200  32.892  1.00  0.00     0.198 A 
ATOM     86  C   UNL A   1      45.232  26.104  33.934  1.00  0.00     0.198 A 
ATOM     87  F   UNL A   1      42.996  25.434  34.270  1.00  0.00    -0.203 F 
ATOM     88  F   UNL A   1      46.605  29.174  32.598  1.00  0.00    -0.200 F 
ATOM     89  C   UNL A   1      46.154  27.086  33.591  1.00  0.00     0.200 A 
ATOM     90  F   UNL A   1      45.658  25.020  34.601  1.00  0.00    -0.200 F 
ATOM     91  F   UNL A   1      47.425  26.999  34.011  1.00  0.00    -0.200 F 
ENDBRANCH  57  81
BRANCH  69  92
ATOM     92  C   UNL A   1      40.680  33.723  36.307  1.00  0.00     0.064 A 
ATOM     93  C   UNL A   1      41.288  34.838  35.710  1.00  0.00     0.173 A 
ATOM     94  C   UNL A   1      40.135  33.946  37.600  1.00  0.00     0.173 A 
ATOM     95  F   UNL A   1      41.755  34.793  34.455  1.00  0.00    -0.203 F 
ATOM     96  C   UNL A   1      41.381  36.064  36.364  1.00  0.00     0.198 A 
ATOM     97  C   UNL A   1      40.179  35.188  38.224  1.00  0.00     0.198 A 
ATOM     98  F   UNL A   1      39.495  32.990  38.286  1.00  0.00    -0.203 F 
ATOM     99  F   UNL A   1      41.994  37.086  35.755  1.00  0.00    -0.200 F 
ATOM    100  C   UNL A   1      40.815  36.244  37.611  1.00  0.00     0.200 A 
ATOM    101  F   UNL A   1      39.570  35.359  39.406  1.00  0.00    -0.200 F 
ATOM    102  F   UNL A   1      40.863  37.439  38.212  1.00  0.00    -0.200 F 
ENDBRANCH  69  92
ENDBRANCH  43  44
ENDBRANCH  36  38
ENDBRANCH  35  36
ENDBRANCH  34  35
ENDBRANCH  33  34
ENDBRANCH  32  33
ENDBRANCH  31  32
ENDBRANCH  30  31
ENDBRANCH  29  30
ENDBRANCH   1  29
TORSDOF 23
ENDMDL
