MODEL 1
REMARK VINA RESULT:      -8.5      0.000      0.000
REMARK SMILES O=C(CCCN1C(=O)C(=O)/C(=C(/[O-])c2ccccc2)[C@@H]1/C=C/c1ccccc1)OCCOCCOCCOCCOC(=O)c1ccc(-c2c3nc(c(-c4c(F)c(F)c(F)c(F)c4F)c4ccc([nH]4)c(-c4c(F)c(F)c(F)c(F)c4F)c4nc(c(-c5c(F)c(F)c(F)c(F)c5F)c5ccc2[nH]5)C=C4)C=C3)cc1
REMARK SMILES IDX 33 1 32 2 31 3 30 4 29 5 2 6 1 7 3 8 4 9 5 10 6 11 7 12
REMARK SMILES IDX 20 13 8 14 9 15 11 16 10 17 12 18 13 19 21 20 22 21 23 22
REMARK SMILES IDX 24 23 28 24 25 25 27 26 26 27 14 28 15 29 19 30 16 31 18 32
REMARK SMILES IDX 17 33 34 34 35 35 36 36 37 37 38 38 39 39 40 40 41 41 42 42
REMARK SMILES IDX 43 43 44 44 45 45 106 46 46 47 105 48 47 49 48 50 49 51
REMARK SMILES IDX 99 52 50 53 104 54 98 55 100 56 51 57 103 58 97 59 96 60
REMARK SMILES IDX 52 62 84 63 64 64 83 65 65 66 68 67 82 68 101 69 66 70 67 71
REMARK SMILES IDX 81 73 102 74 69 75 53 76 54 77 62 78 55 79 56 80 60 81 63 82
REMARK SMILES IDX 57 83 58 84 61 85 59 86 85 87 86 88 94 89 87 90 88 91 92 92
REMARK SMILES IDX 95 93 89 94 90 95 93 96 91 97 70 98 71 99 79 100 72 101
REMARK SMILES IDX 73 102 77 103 80 104 74 105 75 106 78 107 76 108
REMARK H PARENT 100 61 68 72
REMARK Flexibility Score: inf
ROOT
ATOM      1  C   UNL A   1      34.190  29.173  26.951  1.00  0.00     0.188 C 
ENDROOT
BRANCH   1   2
ATOM      2  O   UNL A   1      33.306  28.271  27.605  1.00  0.00    -0.376 OA
BRANCH   2   3
ATOM      3  C   UNL A   1      31.914  28.528  27.515  1.00  0.00     0.202 C 
BRANCH   3   4
ATOM      4  C   UNL A   1      31.405  28.125  26.122  1.00  0.00     0.261 C 
BRANCH   4   5
ATOM      5  O   UNL A   1      30.923  26.768  26.135  1.00  0.00    -0.463 OA
BRANCH   5   6
ATOM      6  C   UNL A   1      30.243  26.419  25.010  1.00  0.00     0.305 C 
ATOM      7  O   UNL A   1      29.789  27.223  24.202  1.00  0.00    -0.252 OA
BRANCH   6   8
ATOM      8  C   UNL A   1      29.909  24.946  24.961  1.00  0.00     0.124 C 
BRANCH   8   9
ATOM      9  C   UNL A   1      30.271  24.031  26.130  1.00  0.00     0.033 C 
BRANCH   9  10
ATOM     10  C   UNL A   1      31.078  22.750  25.904  1.00  0.00     0.121 C 
BRANCH  10  11
ATOM     11  N   UNL A   1      32.529  22.725  26.095  1.00  0.00    -0.325 N 
ATOM     12  C   UNL A   1      33.203  22.546  27.277  1.00  0.00     0.295 C 
ATOM     13  C   UNL A   1      33.436  22.791  24.951  1.00  0.00     0.143 C 
ATOM     14  O   UNL A   1      32.799  22.217  28.372  1.00  0.00    -0.265 OA
ATOM     15  C   UNL A   1      34.677  22.756  26.977  1.00  0.00     0.248 C 
ATOM     16  C   UNL A   1      34.842  22.762  25.505  1.00  0.00     0.024 C 
ATOM     17  O   UNL A   1      35.526  22.911  27.828  1.00  0.00    -0.283 OA
ATOM     18  C   UNL A   1      36.029  22.742  24.861  1.00  0.00    -0.092 C 
ATOM     19  O   UNL A   1      36.130  22.719  23.481  1.00  0.00    -0.872 OA
BRANCH  13  20
ATOM     20  C   UNL A   1      33.146  24.017  24.125  1.00  0.00     0.003 C 
ATOM     21  C   UNL A   1      33.714  25.210  24.375  1.00  0.00     0.006 C 
BRANCH  21  22
ATOM     22  C   UNL A   1      33.447  26.412  23.591  1.00  0.00    -0.026 A 
ATOM     23  C   UNL A   1      32.671  26.344  22.428  1.00  0.00     0.008 A 
ATOM     24  C   UNL A   1      34.028  27.627  23.964  1.00  0.00     0.008 A 
ATOM     25  C   UNL A   1      32.498  27.480  21.634  1.00  0.00     0.001 A 
ATOM     26  C   UNL A   1      33.856  28.760  23.166  1.00  0.00     0.001 A 
ATOM     27  C   UNL A   1      33.096  28.685  22.000  1.00  0.00     0.000 A 
ENDBRANCH  21  22
ENDBRANCH  13  20
BRANCH  18  28
ATOM     28  C   UNL A   1      37.359  22.826  25.515  1.00  0.00    -0.033 A 
ATOM     29  C   UNL A   1      37.828  24.078  25.947  1.00  0.00     0.007 A 
ATOM     30  C   UNL A   1      38.168  21.705  25.749  1.00  0.00     0.007 A 
ATOM     31  C   UNL A   1      39.029  24.193  26.656  1.00  0.00     0.001 A 
ATOM     32  C   UNL A   1      39.354  21.813  26.485  1.00  0.00     0.001 A 
ATOM     33  C   UNL A   1      39.780  23.057  26.944  1.00  0.00     0.000 A 
ENDBRANCH  18  28
ENDBRANCH  10  11
ENDBRANCH   9  10
ENDBRANCH   8   9
ENDBRANCH   6   8
ENDBRANCH   5   6
ENDBRANCH   4   5
ENDBRANCH   3   4
ENDBRANCH   2   3
ENDBRANCH   1   2
BRANCH   1  34
ATOM     34  C   UNL A   1      35.043  30.046  27.879  1.00  0.00     0.188 C 
BRANCH  34  35
ATOM     35  O   UNL A   1      35.054  31.453  27.633  1.00  0.00    -0.377 OA
BRANCH  35  36
ATOM     36  C   UNL A   1      34.131  32.234  28.384  1.00  0.00     0.188 C 
BRANCH  36  37
ATOM     37  C   UNL A   1      34.690  33.282  29.351  1.00  0.00     0.188 C 
BRANCH  37  38
ATOM     38  O   UNL A   1      35.960  32.944  29.905  1.00  0.00    -0.376 OA
BRANCH  38  39
ATOM     39  C   UNL A   1      35.882  32.726  31.312  1.00  0.00     0.202 C 
BRANCH  39  40
ATOM     40  C   UNL A   1      37.220  32.261  31.900  1.00  0.00     0.261 C 
BRANCH  40  41
ATOM     41  O   UNL A   1      37.270  30.876  32.290  1.00  0.00    -0.460 OA
BRANCH  41  42
ATOM     42  C   UNL A   1      37.404  29.957  31.310  1.00  0.00     0.338 C 
ATOM     43  O   UNL A   1      36.554  29.169  30.929  1.00  0.00    -0.246 OA
BRANCH  42  44
ATOM     44  C   UNL A   1      38.749  30.090  30.692  1.00  0.00     0.060 A 
ATOM     45  C   UNL A   1      38.854  30.236  29.303  1.00  0.00     0.016 A 
ATOM     46  C   UNL A   1      39.907  30.012  31.474  1.00  0.00     0.016 A 
ATOM     47  C   UNL A   1      40.113  30.279  28.691  1.00  0.00     0.010 A 
ATOM     48  C   UNL A   1      41.163  30.028  30.860  1.00  0.00     0.010 A 
ATOM     49  C   UNL A   1      41.274  30.129  29.463  1.00  0.00    -0.014 A 
BRANCH  49  50
ATOM     50  C   UNL A   1      42.587  29.861  28.821  1.00  0.00     0.031 A 
ATOM     51  C   UNL A   1      42.883  28.456  28.369  1.00  0.00     0.074 A 
ATOM     52  C   UNL A   1      43.525  30.813  28.685  1.00  0.00     0.049 A 
ATOM     53  N   UNL A   1      43.988  27.949  27.886  1.00  0.00    -0.248 NA
ATOM     54  C   UNL A   1      41.779  27.491  28.487  1.00  0.00     0.031 C 
ATOM     55  C   UNL A   1      43.368  32.217  29.057  1.00  0.00     0.029 A 
ATOM     56  N   UNL A   1      44.815  30.730  28.217  1.00  0.00    -0.354 N 
ATOM     57  C   UNL A   1      43.714  26.609  27.647  1.00  0.00     0.074 A 
ATOM     58  C   UNL A   1      42.345  26.376  28.051  1.00  0.00     0.031 C 
ATOM     59  C   UNL A   1      44.529  32.858  28.831  1.00  0.00     0.029 A 
ATOM     60  C   UNL A   1      45.518  31.904  28.328  1.00  0.00     0.049 A 
ATOM     61  H   UNL A   1      45.199  29.906  27.839  1.00  0.00     0.167 HD
ATOM     62  C   UNL A   1      44.528  25.654  27.138  1.00  0.00     0.037 A 
ATOM     63  C   UNL A   1      46.817  32.169  28.080  1.00  0.00     0.037 A 
ATOM     64  C   UNL A   1      45.895  25.868  26.752  1.00  0.00     0.049 A 
ATOM     65  C   UNL A   1      47.727  31.073  27.582  1.00  0.00     0.074 A 
ATOM     66  C   UNL A   1      46.789  24.965  26.203  1.00  0.00     0.029 A 
ATOM     67  N   UNL A   1      46.573  27.069  26.889  1.00  0.00    -0.354 N 
ATOM     68  N   UNL A   1      47.448  29.820  27.318  1.00  0.00    -0.248 NA
ATOM     69  C   UNL A   1      49.137  31.430  27.354  1.00  0.00     0.031 C 
ATOM     70  C   UNL A   1      48.022  25.609  26.049  1.00  0.00     0.029 A 
ATOM     71  C   UNL A   1      47.882  26.924  26.463  1.00  0.00     0.049 A 
ATOM     72  H   UNL A   1      46.180  27.903  27.238  1.00  0.00     0.167 HD
ATOM     73  C   UNL A   1      48.634  29.247  26.873  1.00  0.00     0.074 A 
ATOM     74  C   UNL A   1      49.637  30.291  26.894  1.00  0.00     0.031 C 
ATOM     75  C   UNL A   1      48.869  27.972  26.480  1.00  0.00     0.037 A 
BRANCH  62  76
ATOM     76  C   UNL A   1      43.960  24.276  27.003  1.00  0.00     0.064 A 
ATOM     77  C   UNL A   1      43.658  23.728  25.748  1.00  0.00     0.173 A 
ATOM     78  C   UNL A   1      43.725  23.490  28.141  1.00  0.00     0.173 A 
ATOM     79  F   UNL A   1      43.850  24.449  24.633  1.00  0.00    -0.203 F 
ATOM     80  C   UNL A   1      43.118  22.450  25.638  1.00  0.00     0.198 A 
ATOM     81  C   UNL A   1      43.207  22.204  28.025  1.00  0.00     0.198 A 
ATOM     82  F   UNL A   1      44.000  23.971  29.362  1.00  0.00    -0.203 F 
ATOM     83  F   UNL A   1      42.797  21.961  24.432  1.00  0.00    -0.200 F 
ATOM     84  C   UNL A   1      42.898  21.688  26.776  1.00  0.00     0.200 A 
ATOM     85  F   UNL A   1      43.001  21.465  29.125  1.00  0.00    -0.200 F 
ATOM     86  F   UNL A   1      42.377  20.457  26.669  1.00  0.00    -0.200 F 
ENDBRANCH  62  76
BRANCH  63  87
ATOM     87  C   UNL A   1      47.356  33.531  28.328  1.00  0.00     0.064 A 
ATOM     88  C   UNL A   1      47.397  34.490  27.307  1.00  0.00     0.173 A 
ATOM     89  C   UNL A   1      47.872  33.889  29.582  1.00  0.00     0.173 A 
ATOM     90  F   UNL A   1      46.948  34.182  26.082  1.00  0.00    -0.203 F 
ATOM     91  C   UNL A   1      47.943  35.752  27.528  1.00  0.00     0.198 A 
ATOM     92  C   UNL A   1      48.396  35.160  29.808  1.00  0.00     0.198 A 
ATOM     93  F   UNL A   1      47.866  33.002  30.589  1.00  0.00    -0.203 F 
ATOM     94  F   UNL A   1      48.009  36.637  26.524  1.00  0.00    -0.200 F 
ATOM     95  C   UNL A   1      48.438  36.088  28.780  1.00  0.00     0.200 A 
ATOM     96  F   UNL A   1      48.869  35.481  31.020  1.00  0.00    -0.200 F 
ATOM     97  F   UNL A   1      48.963  37.303  28.992  1.00  0.00    -0.200 F 
ENDBRANCH  63  87
BRANCH  75  98
ATOM     98  C   UNL A   1      50.253  27.630  26.011  1.00  0.00     0.064 A 
ATOM     99  C   UNL A   1      51.278  27.319  26.915  1.00  0.00     0.173 A 
ATOM    100  C   UNL A   1      50.537  27.545  24.639  1.00  0.00     0.173 A 
ATOM    101  F   UNL A   1      51.060  27.399  28.236  1.00  0.00    -0.203 F 
ATOM    102  C   UNL A   1      52.542  26.947  26.463  1.00  0.00     0.198 A 
ATOM    103  C   UNL A   1      51.794  27.152  24.190  1.00  0.00     0.198 A 
ATOM    104  F   UNL A   1      49.586  27.826  23.734  1.00  0.00    -0.203 F 
ATOM    105  F   UNL A   1      53.516  26.684  27.344  1.00  0.00    -0.200 F 
ATOM    106  C   UNL A   1      52.796  26.856  25.102  1.00  0.00     0.200 A 
ATOM    107  F   UNL A   1      52.034  27.053  22.875  1.00  0.00    -0.200 F 
ATOM    108  F   UNL A   1      54.009  26.486  24.669  1.00  0.00    -0.200 F 
ENDBRANCH  75  98
ENDBRANCH  49  50
ENDBRANCH  42  44
ENDBRANCH  41  42
ENDBRANCH  40  41
ENDBRANCH  39  40
ENDBRANCH  38  39
ENDBRANCH  37  38
ENDBRANCH  36  37
ENDBRANCH  35  36
ENDBRANCH  34  35
ENDBRANCH   1  34
TORSDOF 26
ENDMDL
MODEL 2
REMARK VINA RESULT:      -8.5      6.239     11.213
REMARK SMILES O=C(CCCN1C(=O)C(=O)/C(=C(/[O-])c2ccccc2)[C@@H]1/C=C/c1ccccc1)OCCOCCOCCOCCOC(=O)c1ccc(-c2c3nc(c(-c4c(F)c(F)c(F)c(F)c4F)c4ccc([nH]4)c(-c4c(F)c(F)c(F)c(F)c4F)c4nc(c(-c5c(F)c(F)c(F)c(F)c5F)c5ccc2[nH]5)C=C4)C=C3)cc1
REMARK SMILES IDX 33 1 32 2 31 3 30 4 29 5 2 6 1 7 3 8 4 9 5 10 6 11 7 12
REMARK SMILES IDX 20 13 8 14 9 15 11 16 10 17 12 18 13 19 21 20 22 21 23 22
REMARK SMILES IDX 24 23 28 24 25 25 27 26 26 27 14 28 15 29 19 30 16 31 18 32
REMARK SMILES IDX 17 33 34 34 35 35 36 36 37 37 38 38 39 39 40 40 41 41 42 42
REMARK SMILES IDX 43 43 44 44 45 45 106 46 46 47 105 48 47 49 48 50 49 51
REMARK SMILES IDX 99 52 50 53 104 54 98 55 100 56 51 57 103 58 97 59 96 60
REMARK SMILES IDX 52 62 84 63 64 64 83 65 65 66 68 67 82 68 101 69 66 70 67 71
REMARK SMILES IDX 81 73 102 74 69 75 53 76 54 77 62 78 55 79 56 80 60 81 63 82
REMARK SMILES IDX 57 83 58 84 61 85 59 86 85 87 86 88 94 89 87 90 88 91 92 92
REMARK SMILES IDX 95 93 89 94 90 95 93 96 91 97 70 98 71 99 79 100 72 101
REMARK SMILES IDX 73 102 77 103 80 104 74 105 75 106 78 107 76 108
REMARK H PARENT 100 61 68 72
REMARK Flexibility Score: inf
ROOT
ATOM      1  C   UNL A   1      42.170  26.865  27.275  1.00  0.00     0.188 C 
ENDROOT
BRANCH   1   2
ATOM      2  O   UNL A   1      40.757  26.760  27.388  1.00  0.00    -0.376 OA
BRANCH   2   3
ATOM      3  C   UNL A   1      40.123  25.661  26.754  1.00  0.00     0.202 C 
BRANCH   3   4
ATOM      4  C   UNL A   1      40.480  24.363  27.495  1.00  0.00     0.261 C 
BRANCH   4   5
ATOM      5  O   UNL A   1      40.913  23.355  26.563  1.00  0.00    -0.463 OA
BRANCH   5   6
ATOM      6  C   UNL A   1      40.991  22.109  27.104  1.00  0.00     0.305 C 
ATOM      7  O   UNL A   1      41.850  21.760  27.909  1.00  0.00    -0.252 OA
BRANCH   6   8
ATOM      8  C   UNL A   1      40.046  21.126  26.452  1.00  0.00     0.124 C 
BRANCH   8   9
ATOM      9  C   UNL A   1      38.964  21.616  25.491  1.00  0.00     0.033 C 
BRANCH   9  10
ATOM     10  C   UNL A   1      37.526  21.104  25.601  1.00  0.00     0.121 C 
BRANCH  10  11
ATOM     11  N   UNL A   1      36.386  22.003  25.423  1.00  0.00    -0.325 N 
ATOM     12  C   UNL A   1      36.259  23.281  25.905  1.00  0.00     0.295 C 
ATOM     13  C   UNL A   1      35.259  21.624  24.573  1.00  0.00     0.143 C 
ATOM     14  O   UNL A   1      37.074  24.010  26.430  1.00  0.00    -0.265 OA
ATOM     15  C   UNL A   1      34.843  23.732  25.587  1.00  0.00     0.248 C 
ATOM     16  C   UNL A   1      34.265  22.762  24.629  1.00  0.00     0.024 C 
ATOM     17  O   UNL A   1      34.317  24.706  26.079  1.00  0.00    -0.283 OA
ATOM     18  C   UNL A   1      33.094  22.925  23.977  1.00  0.00    -0.092 C 
ATOM     19  O   UNL A   1      32.610  22.001  23.067  1.00  0.00    -0.872 OA
BRANCH  13  20
ATOM     20  C   UNL A   1      34.684  20.307  25.026  1.00  0.00     0.003 C 
ATOM     21  C   UNL A   1      34.521  19.263  24.194  1.00  0.00     0.006 C 
BRANCH  21  22
ATOM     22  C   UNL A   1      33.965  17.979  24.608  1.00  0.00    -0.026 A 
ATOM     23  C   UNL A   1      32.599  17.851  24.885  1.00  0.00     0.008 A 
ATOM     24  C   UNL A   1      34.814  16.884  24.799  1.00  0.00     0.008 A 
ATOM     25  C   UNL A   1      32.092  16.643  25.369  1.00  0.00     0.001 A 
ATOM     26  C   UNL A   1      34.305  15.679  25.287  1.00  0.00     0.001 A 
ATOM     27  C   UNL A   1      32.947  15.561  25.576  1.00  0.00     0.000 A 
ENDBRANCH  21  22
ENDBRANCH  13  20
BRANCH  18  28
ATOM     28  C   UNL A   1      32.140  24.042  24.196  1.00  0.00    -0.033 A 
ATOM     29  C   UNL A   1      32.164  25.139  23.320  1.00  0.00     0.007 A 
ATOM     30  C   UNL A   1      31.190  24.044  25.228  1.00  0.00     0.007 A 
ATOM     31  C   UNL A   1      31.221  26.167  23.426  1.00  0.00     0.001 A 
ATOM     32  C   UNL A   1      30.226  25.055  25.316  1.00  0.00     0.001 A 
ATOM     33  C   UNL A   1      30.238  26.113  24.411  1.00  0.00     0.000 A 
ENDBRANCH  18  28
ENDBRANCH  10  11
ENDBRANCH   9  10
ENDBRANCH   8   9
ENDBRANCH   6   8
ENDBRANCH   5   6
ENDBRANCH   4   5
ENDBRANCH   3   4
ENDBRANCH   2   3
ENDBRANCH   1   2
BRANCH   1  34
ATOM     34  C   UNL A   1      42.681  28.136  26.587  1.00  0.00     0.188 C 
BRANCH  34  35
ATOM     35  O   UNL A   1      44.061  28.174  26.216  1.00  0.00    -0.377 OA
BRANCH  35  36
ATOM     36  C   UNL A   1      44.506  27.157  25.326  1.00  0.00     0.188 C 
BRANCH  36  37
ATOM     37  C   UNL A   1      45.991  27.120  24.956  1.00  0.00     0.188 C 
BRANCH  37  38
ATOM     38  O   UNL A   1      46.860  26.858  26.056  1.00  0.00    -0.376 OA
BRANCH  38  39
ATOM     39  C   UNL A   1      47.340  25.515  26.042  1.00  0.00     0.202 C 
BRANCH  39  40
ATOM     40  C   UNL A   1      47.538  24.957  27.457  1.00  0.00     0.261 C 
BRANCH  40  41
ATOM     41  O   UNL A   1      46.538  24.016  27.891  1.00  0.00    -0.460 OA
BRANCH  41  42
ATOM     42  C   UNL A   1      45.251  24.424  27.874  1.00  0.00     0.338 C 
ATOM     43  O   UNL A   1      44.408  24.138  27.040  1.00  0.00    -0.246 OA
BRANCH  42  44
ATOM     44  C   UNL A   1      44.977  25.237  29.087  1.00  0.00     0.060 A 
ATOM     45  C   UNL A   1      44.298  24.653  30.164  1.00  0.00     0.016 A 
ATOM     46  C   UNL A   1      45.337  26.587  29.141  1.00  0.00     0.016 A 
ATOM     47  C   UNL A   1      43.954  25.422  31.283  1.00  0.00     0.010 A 
ATOM     48  C   UNL A   1      44.971  27.362  30.246  1.00  0.00     0.010 A 
ATOM     49  C   UNL A   1      44.250  26.793  31.310  1.00  0.00    -0.014 A 
BRANCH  49  50
ATOM     50  C   UNL A   1      43.634  27.686  32.325  1.00  0.00     0.031 A 
ATOM     51  C   UNL A   1      42.405  28.463  31.936  1.00  0.00     0.074 A 
ATOM     52  C   UNL A   1      44.170  27.859  33.545  1.00  0.00     0.049 A 
ATOM     53  N   UNL A   1      41.753  29.382  32.601  1.00  0.00    -0.248 NA
ATOM     54  C   UNL A   1      41.841  28.163  30.610  1.00  0.00     0.031 C 
ATOM     55  C   UNL A   1      45.342  27.158  34.063  1.00  0.00     0.029 A 
ATOM     56  N   UNL A   1      43.805  28.706  34.565  1.00  0.00    -0.354 N 
ATOM     57  C   UNL A   1      40.707  29.772  31.774  1.00  0.00     0.074 A 
ATOM     58  C   UNL A   1      40.819  29.002  30.555  1.00  0.00     0.031 C 
ATOM     59  C   UNL A   1      45.619  27.626  35.293  1.00  0.00     0.029 A 
ATOM     60  C   UNL A   1      44.663  28.679  35.636  1.00  0.00     0.049 A 
ATOM     61  H   UNL A   1      43.005  29.279  34.529  1.00  0.00     0.167 HD
ATOM     62  C   UNL A   1      39.739  30.690  32.006  1.00  0.00     0.037 A 
ATOM     63  C   UNL A   1      44.689  29.440  36.750  1.00  0.00     0.037 A 
ATOM     64  C   UNL A   1      39.629  31.475  33.205  1.00  0.00     0.049 A 
ATOM     65  C   UNL A   1      43.644  30.508  36.957  1.00  0.00     0.074 A 
ATOM     66  C   UNL A   1      38.666  32.411  33.538  1.00  0.00     0.029 A 
ATOM     67  N   UNL A   1      40.523  31.425  34.262  1.00  0.00    -0.354 N 
ATOM     68  N   UNL A   1      42.634  30.840  36.191  1.00  0.00    -0.248 NA
ATOM     69  C   UNL A   1      43.748  31.313  38.186  1.00  0.00     0.031 C 
ATOM     70  C   UNL A   1      39.004  32.961  34.780  1.00  0.00     0.029 A 
ATOM     71  C   UNL A   1      40.152  32.335  35.237  1.00  0.00     0.049 A 
ATOM     72  H   UNL A   1      41.307  30.830  34.312  1.00  0.00     0.167 HD
ATOM     73  C   UNL A   1      41.972  31.869  36.850  1.00  0.00     0.074 A 
ATOM     74  C   UNL A   1      42.690  32.105  38.085  1.00  0.00     0.031 C 
ATOM     75  C   UNL A   1      40.868  32.555  36.466  1.00  0.00     0.037 A 
BRANCH  62  76
ATOM     76  C   UNL A   1      38.738  30.915  30.916  1.00  0.00     0.064 A 
ATOM     77  C   UNL A   1      37.705  30.000  30.671  1.00  0.00     0.173 A 
ATOM     78  C   UNL A   1      38.807  32.064  30.115  1.00  0.00     0.173 A 
ATOM     79  F   UNL A   1      37.608  28.878  31.400  1.00  0.00    -0.203 F 
ATOM     80  C   UNL A   1      36.788  30.216  29.645  1.00  0.00     0.198 A 
ATOM     81  C   UNL A   1      37.876  32.288  29.106  1.00  0.00     0.198 A 
ATOM     82  F   UNL A   1      39.778  32.968  30.313  1.00  0.00    -0.203 F 
ATOM     83  F   UNL A   1      35.833  29.308  29.399  1.00  0.00    -0.200 F 
ATOM     84  C   UNL A   1      36.872  31.362  28.867  1.00  0.00     0.200 A 
ATOM     85  F   UNL A   1      37.954  33.399  28.359  1.00  0.00    -0.200 F 
ATOM     86  F   UNL A   1      35.990  31.568  27.880  1.00  0.00    -0.200 F 
ENDBRANCH  62  76
BRANCH  63  87
ATOM     87  C   UNL A   1      45.766  29.245  37.755  1.00  0.00     0.064 A 
ATOM     88  C   UNL A   1      46.912  30.052  37.752  1.00  0.00     0.173 A 
ATOM     89  C   UNL A   1      45.686  28.227  38.715  1.00  0.00     0.173 A 
ATOM     90  F   UNL A   1      47.049  31.016  36.830  1.00  0.00    -0.203 F 
ATOM     91  C   UNL A   1      47.942  29.841  38.665  1.00  0.00     0.198 A 
ATOM     92  C   UNL A   1      46.707  28.032  39.643  1.00  0.00     0.198 A 
ATOM     93  F   UNL A   1      44.615  27.420  38.751  1.00  0.00    -0.203 F 
ATOM     94  F   UNL A   1      49.046  30.599  38.615  1.00  0.00    -0.200 F 
ATOM     95  C   UNL A   1      47.837  28.834  39.613  1.00  0.00     0.200 A 
ATOM     96  F   UNL A   1      46.599  27.060  40.560  1.00  0.00    -0.200 F 
ATOM     97  F   UNL A   1      48.828  28.631  40.492  1.00  0.00    -0.200 F 
ENDBRANCH  63  87
BRANCH  75  98
ATOM     98  C   UNL A   1      40.342  33.608  37.398  1.00  0.00     0.064 A 
ATOM     99  C   UNL A   1      40.811  34.928  37.353  1.00  0.00     0.173 A 
ATOM    100  C   UNL A   1      39.308  33.306  38.297  1.00  0.00     0.173 A 
ATOM    101  F   UNL A   1      41.808  35.262  36.519  1.00  0.00    -0.203 F 
ATOM    102  C   UNL A   1      40.272  35.907  38.184  1.00  0.00     0.198 A 
ATOM    103  C   UNL A   1      38.756  34.291  39.111  1.00  0.00     0.198 A 
ATOM    104  F   UNL A   1      38.820  32.058  38.372  1.00  0.00    -0.203 F 
ATOM    105  F   UNL A   1      40.755  37.156  38.147  1.00  0.00    -0.200 F 
ATOM    106  C   UNL A   1      39.240  35.590  39.055  1.00  0.00     0.200 A 
ATOM    107  F   UNL A   1      37.752  33.985  39.944  1.00  0.00    -0.200 F 
ATOM    108  F   UNL A   1      38.714  36.536  39.847  1.00  0.00    -0.200 F 
ENDBRANCH  75  98
ENDBRANCH  49  50
ENDBRANCH  42  44
ENDBRANCH  41  42
ENDBRANCH  40  41
ENDBRANCH  39  40
ENDBRANCH  38  39
ENDBRANCH  37  38
ENDBRANCH  36  37
ENDBRANCH  35  36
ENDBRANCH  34  35
ENDBRANCH   1  34
TORSDOF 26
ENDMDL
MODEL 3
REMARK VINA RESULT:      -8.3      8.732     12.548
REMARK SMILES O=C(CCCN1C(=O)C(=O)/C(=C(/[O-])c2ccccc2)[C@@H]1/C=C/c1ccccc1)OCCOCCOCCOCCOC(=O)c1ccc(-c2c3nc(c(-c4c(F)c(F)c(F)c(F)c4F)c4ccc([nH]4)c(-c4c(F)c(F)c(F)c(F)c4F)c4nc(c(-c5c(F)c(F)c(F)c(F)c5F)c5ccc2[nH]5)C=C4)C=C3)cc1
REMARK SMILES IDX 33 1 32 2 31 3 30 4 29 5 2 6 1 7 3 8 4 9 5 10 6 11 7 12
REMARK SMILES IDX 20 13 8 14 9 15 11 16 10 17 12 18 13 19 21 20 22 21 23 22
REMARK SMILES IDX 24 23 28 24 25 25 27 26 26 27 14 28 15 29 19 30 16 31 18 32
REMARK SMILES IDX 17 33 34 34 35 35 36 36 37 37 38 38 39 39 40 40 41 41 42 42
REMARK SMILES IDX 43 43 44 44 45 45 106 46 46 47 105 48 47 49 48 50 49 51
REMARK SMILES IDX 99 52 50 53 104 54 98 55 100 56 51 57 103 58 97 59 96 60
REMARK SMILES IDX 52 62 84 63 64 64 83 65 65 66 68 67 82 68 101 69 66 70 67 71
REMARK SMILES IDX 81 73 102 74 69 75 53 76 54 77 62 78 55 79 56 80 60 81 63 82
REMARK SMILES IDX 57 83 58 84 61 85 59 86 85 87 86 88 94 89 87 90 88 91 92 92
REMARK SMILES IDX 95 93 89 94 90 95 93 96 91 97 70 98 71 99 79 100 72 101
REMARK SMILES IDX 73 102 77 103 80 104 74 105 75 106 78 107 76 108
REMARK H PARENT 100 61 68 72
REMARK Flexibility Score: inf
ROOT
ATOM      1  C   UNL A   1      33.228  34.031  27.958  1.00  0.00     0.188 C 
ENDROOT
BRANCH   1   2
ATOM      2  O   UNL A   1      33.800  32.747  27.749  1.00  0.00    -0.376 OA
BRANCH   2   3
ATOM      3  C   UNL A   1      34.538  32.170  28.814  1.00  0.00     0.202 C 
BRANCH   3   4
ATOM      4  C   UNL A   1      35.447  31.057  28.267  1.00  0.00     0.261 C 
BRANCH   4   5
ATOM      5  O   UNL A   1      34.929  30.550  27.024  1.00  0.00    -0.463 OA
BRANCH   5   6
ATOM      6  C   UNL A   1      34.066  29.510  27.175  1.00  0.00     0.305 C 
ATOM      7  O   UNL A   1      33.840  28.951  28.244  1.00  0.00    -0.252 OA
BRANCH   6   8
ATOM      8  C   UNL A   1      33.572  28.962  25.856  1.00  0.00     0.124 C 
BRANCH   8   9
ATOM      9  C   UNL A   1      34.070  27.612  25.344  1.00  0.00     0.033 C 
BRANCH   9  10
ATOM     10  C   UNL A   1      34.011  26.365  26.230  1.00  0.00     0.121 C 
BRANCH  10  11
ATOM     11  N   UNL A   1      33.852  25.031  25.650  1.00  0.00    -0.325 N 
ATOM     12  C   UNL A   1      34.800  24.307  24.972  1.00  0.00     0.295 C 
ATOM     13  C   UNL A   1      32.621  24.269  25.851  1.00  0.00     0.143 C 
ATOM     14  O   UNL A   1      35.989  24.503  24.830  1.00  0.00    -0.265 OA
ATOM     15  C   UNL A   1      34.106  23.064  24.442  1.00  0.00     0.248 C 
ATOM     16  C   UNL A   1      32.789  22.962  25.110  1.00  0.00     0.024 C 
ATOM     17  O   UNL A   1      34.580  22.332  23.601  1.00  0.00    -0.283 OA
ATOM     18  C   UNL A   1      31.965  21.896  25.033  1.00  0.00    -0.092 C 
ATOM     19  O   UNL A   1      30.754  21.837  25.702  1.00  0.00    -0.872 OA
BRANCH  13  20
ATOM     20  C   UNL A   1      31.431  25.069  25.387  1.00  0.00     0.003 C 
ATOM     21  C   UNL A   1      31.444  25.795  24.255  1.00  0.00     0.006 C 
BRANCH  21  22
ATOM     22  C   UNL A   1      30.306  26.579  23.785  1.00  0.00    -0.026 A 
ATOM     23  C   UNL A   1      30.508  27.769  23.077  1.00  0.00     0.008 A 
ATOM     24  C   UNL A   1      29.006  26.177  24.106  1.00  0.00     0.008 A 
ATOM     25  C   UNL A   1      29.415  28.560  22.711  1.00  0.00     0.001 A 
ATOM     26  C   UNL A   1      27.917  26.971  23.742  1.00  0.00     0.001 A 
ATOM     27  C   UNL A   1      28.122  28.164  23.051  1.00  0.00     0.000 A 
ENDBRANCH  21  22
ENDBRANCH  13  20
BRANCH  18  28
ATOM     28  C   UNL A   1      32.187  20.701  24.179  1.00  0.00    -0.033 A 
ATOM     29  C   UNL A   1      32.620  19.507  24.778  1.00  0.00     0.007 A 
ATOM     30  C   UNL A   1      31.958  20.697  22.796  1.00  0.00     0.007 A 
ATOM     31  C   UNL A   1      32.747  18.331  24.031  1.00  0.00     0.001 A 
ATOM     32  C   UNL A   1      32.055  19.515  22.053  1.00  0.00     0.001 A 
ATOM     33  C   UNL A   1      32.443  18.330  22.673  1.00  0.00     0.000 A 
ENDBRANCH  18  28
ENDBRANCH  10  11
ENDBRANCH   9  10
ENDBRANCH   8   9
ENDBRANCH   6   8
ENDBRANCH   5   6
ENDBRANCH   4   5
ENDBRANCH   3   4
ENDBRANCH   2   3
ENDBRANCH   1   2
BRANCH   1  34
ATOM     34  C   UNL A   1      34.229  35.186  28.073  1.00  0.00     0.188 C 
BRANCH  34  35
ATOM     35  O   UNL A   1      33.895  36.261  28.953  1.00  0.00    -0.377 OA
BRANCH  35  36
ATOM     36  C   UNL A   1      32.787  36.049  29.820  1.00  0.00     0.188 C 
BRANCH  36  37
ATOM     37  C   UNL A   1      32.932  36.454  31.290  1.00  0.00     0.188 C 
BRANCH  37  38
ATOM     38  O   UNL A   1      32.547  35.439  32.214  1.00  0.00    -0.376 OA
BRANCH  38  39
ATOM     39  C   UNL A   1      33.679  34.818  32.820  1.00  0.00     0.202 C 
BRANCH  39  40
ATOM     40  C   UNL A   1      34.824  34.603  31.822  1.00  0.00     0.261 C 
BRANCH  40  41
ATOM     41  O   UNL A   1      36.141  34.553  32.402  1.00  0.00    -0.460 OA
BRANCH  41  42
ATOM     42  C   UNL A   1      36.737  33.345  32.489  1.00  0.00     0.338 C 
ATOM     43  O   UNL A   1      36.840  32.518  31.598  1.00  0.00    -0.246 OA
BRANCH  42  44
ATOM     44  C   UNL A   1      37.329  33.185  33.842  1.00  0.00     0.060 A 
ATOM     45  C   UNL A   1      37.881  34.300  34.485  1.00  0.00     0.016 A 
ATOM     46  C   UNL A   1      37.391  31.928  34.453  1.00  0.00     0.016 A 
ATOM     47  C   UNL A   1      38.519  34.158  35.724  1.00  0.00     0.010 A 
ATOM     48  C   UNL A   1      38.050  31.780  35.677  1.00  0.00     0.010 A 
ATOM     49  C   UNL A   1      38.646  32.888  36.305  1.00  0.00    -0.014 A 
BRANCH  49  50
ATOM     50  C   UNL A   1      39.572  32.661  37.445  1.00  0.00     0.031 A 
ATOM     51  C   UNL A   1      41.015  32.358  37.139  1.00  0.00     0.074 A 
ATOM     52  C   UNL A   1      39.151  32.663  38.721  1.00  0.00     0.049 A 
ATOM     53  N   UNL A   1      41.987  32.018  37.946  1.00  0.00    -0.248 NA
ATOM     54  C   UNL A   1      41.409  32.445  35.724  1.00  0.00     0.031 C 
ATOM     55  C   UNL A   1      37.792  32.961  39.164  1.00  0.00     0.029 A 
ATOM     56  N   UNL A   1      39.830  32.378  39.882  1.00  0.00    -0.354 N 
ATOM     57  C   UNL A   1      43.103  31.847  37.139  1.00  0.00     0.074 A 
ATOM     58  C   UNL A   1      42.688  32.106  35.778  1.00  0.00     0.031 C 
ATOM     59  C   UNL A   1      37.728  32.812  40.499  1.00  0.00     0.029 A 
ATOM     60  C   UNL A   1      39.034  32.380  41.000  1.00  0.00     0.049 A 
ATOM     61  H   UNL A   1      40.796  32.187  39.909  1.00  0.00     0.167 HD
ATOM     62  C   UNL A   1      44.363  31.504  37.495  1.00  0.00     0.037 A 
ATOM     63  C   UNL A   1      39.321  32.043  42.275  1.00  0.00     0.037 A 
ATOM     64  C   UNL A   1      44.784  31.225  38.840  1.00  0.00     0.049 A 
ATOM     65  C   UNL A   1      40.713  31.593  42.639  1.00  0.00     0.074 A 
ATOM     66  C   UNL A   1      46.047  30.894  39.300  1.00  0.00     0.029 A 
ATOM     67  N   UNL A   1      43.945  31.230  39.944  1.00  0.00    -0.354 N 
ATOM     68  N   UNL A   1      41.773  31.476  41.877  1.00  0.00    -0.248 NA
ATOM     69  C   UNL A   1      40.947  31.220  44.044  1.00  0.00     0.031 C 
ATOM     70  C   UNL A   1      45.962  30.654  40.676  1.00  0.00     0.029 A 
ATOM     71  C   UNL A   1      44.656  30.879  41.079  1.00  0.00     0.049 A 
ATOM     72  H   UNL A   1      42.985  31.450  39.922  1.00  0.00     0.167 HD
ATOM     73  C   UNL A   1      42.799  31.043  42.709  1.00  0.00     0.074 A 
ATOM     74  C   UNL A   1      42.239  30.923  44.038  1.00  0.00     0.031 C 
ATOM     75  C   UNL A   1      44.090  30.771  42.398  1.00  0.00     0.037 A 
BRANCH  62  76
ATOM     76  C   UNL A   1      45.372  31.380  36.396  1.00  0.00     0.064 A 
ATOM     77  C   UNL A   1      45.578  30.167  35.724  1.00  0.00     0.173 A 
ATOM     78  C   UNL A   1      46.135  32.490  36.003  1.00  0.00     0.173 A 
ATOM     79  F   UNL A   1      44.883  29.074  36.076  1.00  0.00    -0.203 F 
ATOM     80  C   UNL A   1      46.528  30.062  34.713  1.00  0.00     0.198 A 
ATOM     81  C   UNL A   1      47.068  32.388  34.977  1.00  0.00     0.198 A 
ATOM     82  F   UNL A   1      45.973  33.672  36.616  1.00  0.00    -0.203 F 
ATOM     83  F   UNL A   1      46.739  28.883  34.112  1.00  0.00    -0.200 F 
ATOM     84  C   UNL A   1      47.269  31.174  34.337  1.00  0.00     0.200 A 
ATOM     85  F   UNL A   1      47.779  33.464  34.610  1.00  0.00    -0.200 F 
ATOM     86  F   UNL A   1      48.184  31.072  33.364  1.00  0.00    -0.200 F 
ENDBRANCH  62  76
BRANCH  63  87
ATOM     87  C   UNL A   1      38.255  32.085  43.309  1.00  0.00     0.064 A 
ATOM     88  C   UNL A   1      38.009  33.252  44.046  1.00  0.00     0.173 A 
ATOM     89  C   UNL A   1      37.486  30.951  43.604  1.00  0.00     0.173 A 
ATOM     90  F   UNL A   1      38.743  34.352  43.823  1.00  0.00    -0.203 F 
ATOM     91  C   UNL A   1      37.040  33.279  45.047  1.00  0.00     0.198 A 
ATOM     92  C   UNL A   1      36.501  30.986  44.589  1.00  0.00     0.198 A 
ATOM     93  F   UNL A   1      37.691  29.807  42.935  1.00  0.00    -0.203 F 
ATOM     94  F   UNL A   1      36.852  34.394  45.766  1.00  0.00    -0.200 F 
ATOM     95  C   UNL A   1      36.283  32.147  45.314  1.00  0.00     0.200 A 
ATOM     96  F   UNL A   1      35.769  29.892  44.841  1.00  0.00    -0.200 F 
ATOM     97  F   UNL A   1      35.351  32.174  46.277  1.00  0.00    -0.200 F 
ENDBRANCH  63  87
BRANCH  75  98
ATOM     98  C   UNL A   1      45.001  30.344  43.511  1.00  0.00     0.064 A 
ATOM     99  C   UNL A   1      45.717  31.279  44.272  1.00  0.00     0.173 A 
ATOM    100  C   UNL A   1      45.105  28.990  43.864  1.00  0.00     0.173 A 
ATOM    101  F   UNL A   1      45.661  32.584  43.965  1.00  0.00    -0.203 F 
ATOM    102  C   UNL A   1      46.514  30.872  45.339  1.00  0.00     0.198 A 
ATOM    103  C   UNL A   1      45.885  28.588  44.945  1.00  0.00     0.198 A 
ATOM    104  F   UNL A   1      44.433  28.058  43.170  1.00  0.00    -0.203 F 
ATOM    105  F   UNL A   1      47.214  31.779  46.035  1.00  0.00    -0.200 F 
ATOM    106  C   UNL A   1      46.590  29.530  45.680  1.00  0.00     0.200 A 
ATOM    107  F   UNL A   1      45.948  27.292  45.279  1.00  0.00    -0.200 F 
ATOM    108  F   UNL A   1      47.349  29.141  46.714  1.00  0.00    -0.200 F 
ENDBRANCH  75  98
ENDBRANCH  49  50
ENDBRANCH  42  44
ENDBRANCH  41  42
ENDBRANCH  40  41
ENDBRANCH  39  40
ENDBRANCH  38  39
ENDBRANCH  37  38
ENDBRANCH  36  37
ENDBRANCH  35  36
ENDBRANCH  34  35
ENDBRANCH   1  34
TORSDOF 26
ENDMDL
