MODEL 1
REMARK VINA RESULT:     -10.0      0.000      0.000
REMARK SMILES CC(=O)OCC1=C(C(=O)OCCOCCOCCOCCOC(=O)c2ccc(-c3c4nc(c(-c5c(F)c(F)c(F)c(F)c5F)c5ccc([nH]5)c(-c5c(F)c(F)c(F)c(F)c5F)c5nc(c(-c6c(F)c(F)c(F)c(F)c6F)c6ccc3[nH]6)C=C5)C=C4)cc2)N2C(=O)[C@H](NC(=O)c3c(C)nn(C(F)F)c3C)[C@@H]2SC1
REMARK SMILES IDX 15 1 14 2 13 3 12 4 11 5 10 6 8 7 9 8 7 9 6 10 107 11 88 12
REMARK SMILES IDX 106 13 89 14 105 15 90 16 91 17 5 18 4 19 2 20 1 21 3 22
REMARK SMILES IDX 92 23 93 24 94 26 95 27 96 28 103 29 97 30 98 31 99 32
REMARK SMILES IDX 104 33 100 34 101 35 102 36 16 37 17 38 18 39 19 40 20 41
REMARK SMILES IDX 21 42 22 43 23 44 24 45 25 46 26 47 87 48 27 49 86 50 28 51
REMARK SMILES IDX 29 52 30 53 80 54 31 55 85 56 79 57 81 58 32 59 84 60 78 61
REMARK SMILES IDX 77 62 33 64 65 65 45 66 64 67 46 68 49 69 63 70 82 71 47 72
REMARK SMILES IDX 48 73 62 75 83 76 50 77 34 78 35 79 43 80 36 81 37 82 41 83
REMARK SMILES IDX 44 84 38 85 39 86 42 87 40 88 66 89 67 90 75 91 68 92 69 93
REMARK SMILES IDX 73 94 76 95 70 96 71 97 74 98 72 99 51 100 52 101 60 102
REMARK SMILES IDX 53 103 54 104 58 105 61 106 55 107 56 108 59 109 57 110
REMARK H PARENT 92 25 81 63 49 74
REMARK Flexibility Score: inf
ROOT
ATOM      1  C   UNL A   1      40.447  19.914  26.436  1.00  0.00     0.188 C 
ENDROOT
BRANCH   1   2
ATOM      2  C   UNL A   1      39.987  21.336  26.042  1.00  0.00     0.188 C 
BRANCH   2   3
ATOM      3  O   UNL A   1      38.689  21.382  25.460  1.00  0.00    -0.376 OA
BRANCH   3   4
ATOM      4  C   UNL A   1      37.767  22.294  26.033  1.00  0.00     0.202 C 
BRANCH   4   5
ATOM      5  C   UNL A   1      36.296  21.991  25.759  1.00  0.00     0.261 C 
BRANCH   5   6
ATOM      6  O   UNL A   1      35.407  22.761  26.575  1.00  0.00    -0.459 OA
BRANCH   6   7
ATOM      7  C   UNL A   1      34.118  22.367  26.657  1.00  0.00     0.355 C 
ATOM      8  O   UNL A   1      33.524  22.049  27.673  1.00  0.00    -0.244 OA
BRANCH   7   9
ATOM      9  C   UNL A   1      33.521  22.407  25.283  1.00  0.00     0.134 C 
ATOM     10  C   UNL A   1      33.269  21.286  24.559  1.00  0.00     0.008 C 
ATOM     11  C   UNL A   1      32.564  21.310  23.208  1.00  0.00     0.108 C 
ATOM     12  N   UNL A   1      33.234  23.640  24.778  1.00  0.00    -0.289 N 
ATOM     13  S   UNL A   1      31.579  22.811  22.905  1.00  0.00    -0.129 SA
ATOM     14  C   UNL A   1      33.317  24.926  25.157  1.00  0.00     0.253 C 
ATOM     15  C   UNL A   1      32.926  23.901  23.390  1.00  0.00     0.181 C 
ATOM     16  O   UNL A   1      33.777  25.474  26.137  1.00  0.00    -0.272 OA
ATOM     17  C   UNL A   1      32.608  25.363  23.825  1.00  0.00     0.206 C 
BRANCH  10  18
ATOM     18  C   UNL A   1      33.615  19.853  24.953  1.00  0.00     0.267 C 
BRANCH  18  19
ATOM     19  O   UNL A   1      32.505  18.971  25.143  1.00  0.00    -0.461 OA
BRANCH  19  20
ATOM     20  C   UNL A   1      32.597  17.755  24.542  1.00  0.00     0.302 C 
ATOM     21  C   UNL A   1      32.663  16.681  25.585  1.00  0.00     0.139 C 
ATOM     22  O   UNL A   1      32.568  17.564  23.335  1.00  0.00    -0.253 OA
ENDBRANCH  19  20
ENDBRANCH  18  19
ENDBRANCH  10  18
BRANCH  17  23
ATOM     23  N   UNL A   1      31.179  25.745  23.969  1.00  0.00    -0.337 N 
ATOM     24  C   UNL A   1      30.643  26.870  24.548  1.00  0.00     0.255 C 
ATOM     25  H   UNL A   1      30.528  25.106  23.600  1.00  0.00     0.164 HD
ATOM     26  O   UNL A   1      29.433  26.927  24.746  1.00  0.00    -0.269 OA
BRANCH  24  27
ATOM     27  C   UNL A   1      31.542  27.944  24.935  1.00  0.00     0.083 A 
ATOM     28  C   UNL A   1      32.373  28.717  24.082  1.00  0.00     0.073 A 
ATOM     29  C   UNL A   1      31.860  28.376  26.218  1.00  0.00     0.054 A 
ATOM     30  C   UNL A   1      32.550  28.620  22.610  1.00  0.00     0.069 C 
ATOM     31  N   UNL A   1      33.043  29.655  24.759  1.00  0.00    -0.172 NA
ATOM     32  N   UNL A   1      32.700  29.460  26.052  1.00  0.00    -0.208 N 
ATOM     33  C   UNL A   1      31.468  27.845  27.548  1.00  0.00     0.067 C 
BRANCH  32  34
ATOM     34  C   UNL A   1      33.194  30.374  27.085  1.00  0.00     0.465 C 
ATOM     35  F   UNL A   1      34.491  30.725  26.888  1.00  0.00    -0.184 F 
ATOM     36  F   UNL A   1      32.463  31.523  27.134  1.00  0.00    -0.184 F 
ENDBRANCH  32  34
ENDBRANCH  24  27
ENDBRANCH  17  23
ENDBRANCH   7   9
ENDBRANCH   6   7
ENDBRANCH   5   6
ENDBRANCH   4   5
ENDBRANCH   3   4
ENDBRANCH   2   3
ENDBRANCH   1   2
BRANCH   1  37
ATOM     37  O   UNL A   1      41.351  19.203  25.600  1.00  0.00    -0.377 OA
BRANCH  37  38
ATOM     38  C   UNL A   1      42.727  19.581  25.575  1.00  0.00     0.188 C 
BRANCH  38  39
ATOM     39  C   UNL A   1      43.849  18.520  25.659  1.00  0.00     0.188 C 
BRANCH  39  40
ATOM     40  O   UNL A   1      44.800  18.584  24.608  1.00  0.00    -0.376 OA
BRANCH  40  41
ATOM     41  C   UNL A   1      45.238  19.874  24.215  1.00  0.00     0.202 C 
BRANCH  41  42
ATOM     42  C   UNL A   1      46.189  20.568  25.197  1.00  0.00     0.261 C 
BRANCH  42  43
ATOM     43  O   UNL A   1      46.121  22.003  25.219  1.00  0.00    -0.460 OA
BRANCH  43  44
ATOM     44  C   UNL A   1      45.454  22.582  26.240  1.00  0.00     0.338 C 
ATOM     45  O   UNL A   1      44.775  22.040  27.092  1.00  0.00    -0.246 OA
BRANCH  44  46
ATOM     46  C   UNL A   1      45.824  24.008  26.244  1.00  0.00     0.060 A 
ATOM     47  C   UNL A   1      45.554  24.801  25.121  1.00  0.00     0.016 A 
ATOM     48  C   UNL A   1      46.440  24.552  27.372  1.00  0.00     0.016 A 
ATOM     49  C   UNL A   1      45.932  26.145  25.113  1.00  0.00     0.010 A 
ATOM     50  C   UNL A   1      46.836  25.887  27.355  1.00  0.00     0.010 A 
ATOM     51  C   UNL A   1      46.615  26.678  26.214  1.00  0.00    -0.014 A 
BRANCH  51  52
ATOM     52  C   UNL A   1      47.306  27.983  26.115  1.00  0.00     0.031 A 
ATOM     53  C   UNL A   1      48.785  27.972  25.852  1.00  0.00     0.074 A 
ATOM     54  C   UNL A   1      46.653  29.142  26.299  1.00  0.00     0.049 A 
ATOM     55  N   UNL A   1      49.644  28.957  25.873  1.00  0.00    -0.248 NA
ATOM     56  C   UNL A   1      49.378  26.661  25.536  1.00  0.00     0.031 C 
ATOM     57  C   UNL A   1      45.215  29.278  26.516  1.00  0.00     0.029 A 
ATOM     58  N   UNL A   1      47.130  30.428  26.357  1.00  0.00    -0.354 N 
ATOM     59  C   UNL A   1      50.876  28.384  25.587  1.00  0.00     0.074 A 
ATOM     60  C   UNL A   1      50.661  26.964  25.421  1.00  0.00     0.031 C 
ATOM     61  C   UNL A   1      44.928  30.578  26.709  1.00  0.00     0.029 A 
ATOM     62  C   UNL A   1      46.166  31.355  26.670  1.00  0.00     0.049 A 
ATOM     63  H   UNL A   1      48.071  30.662  26.189  1.00  0.00     0.167 HD
ATOM     64  C   UNL A   1      52.080  28.991  25.472  1.00  0.00     0.037 A 
ATOM     65  C   UNL A   1      46.286  32.672  26.930  1.00  0.00     0.037 A 
ATOM     66  C   UNL A   1      52.287  30.402  25.647  1.00  0.00     0.049 A 
ATOM     67  C   UNL A   1      47.651  33.314  26.870  1.00  0.00     0.074 A 
ATOM     68  C   UNL A   1      53.464  31.122  25.545  1.00  0.00     0.029 A 
ATOM     69  N   UNL A   1      51.289  31.310  25.970  1.00  0.00    -0.354 N 
ATOM     70  N   UNL A   1      48.811  32.773  26.585  1.00  0.00    -0.248 NA
ATOM     71  C   UNL A   1      47.721  34.752  27.171  1.00  0.00     0.031 C 
ATOM     72  C   UNL A   1      53.188  32.456  25.857  1.00  0.00     0.029 A 
ATOM     73  C   UNL A   1      51.827  32.580  26.093  1.00  0.00     0.049 A 
ATOM     74  H   UNL A   1      50.339  31.085  26.095  1.00  0.00     0.167 HD
ATOM     75  C   UNL A   1      49.739  33.807  26.632  1.00  0.00     0.074 A 
ATOM     76  C   UNL A   1      49.006  35.009  26.972  1.00  0.00     0.031 C 
ATOM     77  C   UNL A   1      51.076  33.767  26.410  1.00  0.00     0.037 A 
BRANCH  64  78
ATOM     78  C   UNL A   1      53.266  28.122  25.178  1.00  0.00     0.064 A 
ATOM     79  C   UNL A   1      53.736  27.931  23.869  1.00  0.00     0.173 A 
ATOM     80  C   UNL A   1      53.956  27.487  26.222  1.00  0.00     0.173 A 
ATOM     81  F   UNL A   1      53.100  28.499  22.834  1.00  0.00    -0.203 F 
ATOM     82  C   UNL A   1      54.836  27.116  23.615  1.00  0.00     0.198 A 
ATOM     83  C   UNL A   1      55.074  26.699  25.967  1.00  0.00     0.198 A 
ATOM     84  F   UNL A   1      53.547  27.636  27.491  1.00  0.00    -0.203 F 
ATOM     85  F   UNL A   1      55.235  26.906  22.354  1.00  0.00    -0.200 F 
ATOM     86  C   UNL A   1      55.508  26.507  24.665  1.00  0.00     0.200 A 
ATOM     87  F   UNL A   1      55.729  26.119  26.983  1.00  0.00    -0.200 F 
ATOM     88  F   UNL A   1      56.570  25.727  24.419  1.00  0.00    -0.200 F 
ENDBRANCH  64  78
BRANCH  65  89
ATOM     89  C   UNL A   1      45.087  33.474  27.287  1.00  0.00     0.064 A 
ATOM     90  C   UNL A   1      44.614  33.519  28.606  1.00  0.00     0.173 A 
ATOM     91  C   UNL A   1      44.374  34.193  26.316  1.00  0.00     0.173 A 
ATOM     92  F   UNL A   1      45.246  32.828  29.566  1.00  0.00    -0.203 F 
ATOM     93  C   UNL A   1      43.466  34.237  28.937  1.00  0.00     0.198 A 
ATOM     94  C   UNL A   1      43.243  34.934  26.653  1.00  0.00     0.198 A 
ATOM     95  F   UNL A   1      44.782  34.183  25.038  1.00  0.00    -0.203 F 
ATOM     96  F   UNL A   1      43.010  34.223  30.197  1.00  0.00    -0.200 F 
ATOM     97  C   UNL A   1      42.785  34.948  27.962  1.00  0.00     0.200 A 
ATOM     98  F   UNL A   1      42.597  35.631  25.710  1.00  0.00    -0.200 F 
ATOM     99  F   UNL A   1      41.683  35.640  28.280  1.00  0.00    -0.200 F 
ENDBRANCH  65  89
BRANCH  77 100
ATOM    100  C   UNL A   1      51.830  35.065  26.462  1.00  0.00     0.064 A 
ATOM    101  C   UNL A   1      51.956  35.895  25.338  1.00  0.00     0.173 A 
ATOM    102  C   UNL A   1      52.378  35.512  27.674  1.00  0.00     0.173 A 
ATOM    103  F   UNL A   1      51.460  35.508  24.154  1.00  0.00    -0.203 F 
ATOM    104  C   UNL A   1      52.621  37.116  25.424  1.00  0.00     0.198 A 
ATOM    105  C   UNL A   1      53.015  36.746  27.762  1.00  0.00     0.198 A 
ATOM    106  F   UNL A   1      52.276  34.759  28.780  1.00  0.00    -0.203 F 
ATOM    107  F   UNL A   1      52.766  37.875  24.329  1.00  0.00    -0.200 F 
ATOM    108  C   UNL A   1      53.141  37.544  26.636  1.00  0.00     0.200 A 
ATOM    109  F   UNL A   1      53.502  37.165  28.939  1.00  0.00    -0.200 F 
ATOM    110  F   UNL A   1      53.769  38.726  26.718  1.00  0.00    -0.200 F 
ENDBRANCH  77 100
ENDBRANCH  51  52
ENDBRANCH  44  46
ENDBRANCH  43  44
ENDBRANCH  42  43
ENDBRANCH  41  42
ENDBRANCH  40  41
ENDBRANCH  39  40
ENDBRANCH  38  39
ENDBRANCH  37  38
ENDBRANCH   1  37
TORSDOF 26
ENDMDL
MODEL 2
REMARK VINA RESULT:      -9.9      8.522     11.283
REMARK SMILES CC(=O)OCC1=C(C(=O)OCCOCCOCCOCCOC(=O)c2ccc(-c3c4nc(c(-c5c(F)c(F)c(F)c(F)c5F)c5ccc([nH]5)c(-c5c(F)c(F)c(F)c(F)c5F)c5nc(c(-c6c(F)c(F)c(F)c(F)c6F)c6ccc3[nH]6)C=C5)C=C4)cc2)N2C(=O)[C@H](NC(=O)c3c(C)nn(C(F)F)c3C)[C@@H]2SC1
REMARK SMILES IDX 15 1 14 2 13 3 12 4 11 5 10 6 8 7 9 8 7 9 6 10 107 11 88 12
REMARK SMILES IDX 106 13 89 14 105 15 90 16 91 17 5 18 4 19 2 20 1 21 3 22
REMARK SMILES IDX 92 23 93 24 94 26 95 27 96 28 103 29 97 30 98 31 99 32
REMARK SMILES IDX 104 33 100 34 101 35 102 36 16 37 17 38 18 39 19 40 20 41
REMARK SMILES IDX 21 42 22 43 23 44 24 45 25 46 26 47 87 48 27 49 86 50 28 51
REMARK SMILES IDX 29 52 30 53 80 54 31 55 85 56 79 57 81 58 32 59 84 60 78 61
REMARK SMILES IDX 77 62 33 64 65 65 45 66 64 67 46 68 49 69 63 70 82 71 47 72
REMARK SMILES IDX 48 73 62 75 83 76 50 77 34 78 35 79 43 80 36 81 37 82 41 83
REMARK SMILES IDX 44 84 38 85 39 86 42 87 40 88 66 89 67 90 75 91 68 92 69 93
REMARK SMILES IDX 73 94 76 95 70 96 71 97 74 98 72 99 51 100 52 101 60 102
REMARK SMILES IDX 53 103 54 104 58 105 61 106 55 107 56 108 59 109 57 110
REMARK H PARENT 92 25 81 63 49 74
REMARK Flexibility Score: inf
ROOT
ATOM      1  C   UNL A   1      40.908  25.319  28.338  1.00  0.00     0.188 C 
ENDROOT
BRANCH   1   2
ATOM      2  C   UNL A   1      40.376  24.186  27.432  1.00  0.00     0.188 C 
BRANCH   2   3
ATOM      3  O   UNL A   1      38.958  24.061  27.435  1.00  0.00    -0.376 OA
BRANCH   3   4
ATOM      4  C   UNL A   1      38.327  23.946  26.171  1.00  0.00     0.202 C 
BRANCH   4   5
ATOM      5  C   UNL A   1      37.773  22.561  25.843  1.00  0.00     0.261 C 
BRANCH   5   6
ATOM      6  O   UNL A   1      36.352  22.555  25.674  1.00  0.00    -0.459 OA
BRANCH   6   7
ATOM      7  C   UNL A   1      35.862  22.380  24.427  1.00  0.00     0.355 C 
ATOM      8  O   UNL A   1      36.504  22.390  23.391  1.00  0.00    -0.244 OA
BRANCH   7   9
ATOM      9  C   UNL A   1      34.386  22.143  24.527  1.00  0.00     0.134 C 
ATOM     10  C   UNL A   1      33.851  20.905  24.694  1.00  0.00     0.008 C 
ATOM     11  C   UNL A   1      32.361  20.666  24.904  1.00  0.00     0.108 C 
ATOM     12  N   UNL A   1      33.583  23.241  24.442  1.00  0.00    -0.289 N 
ATOM     13  S   UNL A   1      31.445  22.124  25.495  1.00  0.00    -0.129 SA
ATOM     14  C   UNL A   1      33.711  24.571  24.293  1.00  0.00     0.253 C 
ATOM     15  C   UNL A   1      32.154  23.193  24.234  1.00  0.00     0.181 C 
ATOM     16  O   UNL A   1      34.664  25.297  24.104  1.00  0.00    -0.272 OA
ATOM     17  C   UNL A   1      32.156  24.736  24.451  1.00  0.00     0.206 C 
BRANCH  10  18
ATOM     18  C   UNL A   1      34.611  19.583  24.718  1.00  0.00     0.267 C 
BRANCH  18  19
ATOM     19  O   UNL A   1      33.809  18.400  24.755  1.00  0.00    -0.461 OA
BRANCH  19  20
ATOM     20  C   UNL A   1      34.422  17.248  24.371  1.00  0.00     0.302 C 
ATOM     21  C   UNL A   1      34.009  16.900  22.974  1.00  0.00     0.139 C 
ATOM     22  O   UNL A   1      35.231  16.627  25.042  1.00  0.00    -0.253 OA
ENDBRANCH  19  20
ENDBRANCH  18  19
ENDBRANCH  10  18
BRANCH  17  23
ATOM     23  N   UNL A   1      31.709  25.247  25.773  1.00  0.00    -0.337 N 
ATOM     24  C   UNL A   1      31.299  26.514  26.112  1.00  0.00     0.255 C 
ATOM     25  H   UNL A   1      31.705  24.589  26.505  1.00  0.00     0.164 HD
ATOM     26  O   UNL A   1      31.147  26.801  27.295  1.00  0.00    -0.269 OA
BRANCH  24  27
ATOM     27  C   UNL A   1      31.092  27.481  25.048  1.00  0.00     0.083 A 
ATOM     28  C   UNL A   1      31.841  28.662  24.803  1.00  0.00     0.073 A 
ATOM     29  C   UNL A   1      30.066  27.519  24.110  1.00  0.00     0.054 A 
ATOM     30  C   UNL A   1      32.993  29.213  25.564  1.00  0.00     0.069 C 
ATOM     31  N   UNL A   1      31.412  29.306  23.713  1.00  0.00    -0.172 NA
ATOM     32  N   UNL A   1      30.353  28.586  23.281  1.00  0.00    -0.208 N 
ATOM     33  C   UNL A   1      28.858  26.669  23.956  1.00  0.00     0.067 C 
BRANCH  32  34
ATOM     34  C   UNL A   1      29.672  28.960  22.039  1.00  0.00     0.465 C 
ATOM     35  F   UNL A   1      28.380  29.325  22.248  1.00  0.00    -0.184 F 
ATOM     36  F   UNL A   1      30.293  29.999  21.416  1.00  0.00    -0.184 F 
ENDBRANCH  32  34
ENDBRANCH  24  27
ENDBRANCH  17  23
ENDBRANCH   7   9
ENDBRANCH   6   7
ENDBRANCH   5   6
ENDBRANCH   4   5
ENDBRANCH   3   4
ENDBRANCH   2   3
ENDBRANCH   1   2
BRANCH   1  37
ATOM     37  O   UNL A   1      40.667  26.677  27.991  1.00  0.00    -0.377 OA
BRANCH  37  38
ATOM     38  C   UNL A   1      39.342  27.200  28.083  1.00  0.00     0.188 C 
BRANCH  38  39
ATOM     39  C   UNL A   1      39.088  28.723  28.164  1.00  0.00     0.188 C 
BRANCH  39  40
ATOM     40  O   UNL A   1      37.918  29.088  28.880  1.00  0.00    -0.376 OA
BRANCH  40  41
ATOM     41  C   UNL A   1      37.028  29.988  28.240  1.00  0.00     0.202 C 
BRANCH  41  42
ATOM     42  C   UNL A   1      35.838  30.446  29.092  1.00  0.00     0.261 C 
BRANCH  42  43
ATOM     43  O   UNL A   1      35.851  31.826  29.487  1.00  0.00    -0.460 OA
BRANCH  43  44
ATOM     44  C   UNL A   1      35.556  32.110  30.774  1.00  0.00     0.338 C 
ATOM     45  O   UNL A   1      34.482  32.443  31.239  1.00  0.00    -0.246 OA
BRANCH  44  46
ATOM     46  C   UNL A   1      36.752  31.789  31.572  1.00  0.00     0.060 A 
ATOM     47  C   UNL A   1      36.632  30.989  32.717  1.00  0.00     0.016 A 
ATOM     48  C   UNL A   1      37.994  32.286  31.175  1.00  0.00     0.016 A 
ATOM     49  C   UNL A   1      37.760  30.710  33.489  1.00  0.00     0.010 A 
ATOM     50  C   UNL A   1      39.116  32.024  31.958  1.00  0.00     0.010 A 
ATOM     51  C   UNL A   1      38.997  31.265  33.136  1.00  0.00    -0.014 A 
BRANCH  51  52
ATOM     52  C   UNL A   1      40.128  31.260  34.089  1.00  0.00     0.031 A 
ATOM     53  C   UNL A   1      41.032  30.059  34.094  1.00  0.00     0.074 A 
ATOM     54  C   UNL A   1      40.323  32.264  34.958  1.00  0.00     0.049 A 
ATOM     55  N   UNL A   1      41.989  29.738  34.923  1.00  0.00    -0.248 NA
ATOM     56  C   UNL A   1      40.811  29.078  33.017  1.00  0.00     0.031 C 
ATOM     57  C   UNL A   1      39.540  33.496  35.017  1.00  0.00     0.029 A 
ATOM     58  N   UNL A   1      41.233  32.390  35.979  1.00  0.00    -0.354 N 
ATOM     59  C   UNL A   1      42.475  28.515  34.478  1.00  0.00     0.074 A 
ATOM     60  C   UNL A   1      41.693  28.139  33.322  1.00  0.00     0.031 C 
ATOM     61  C   UNL A   1      39.988  34.245  36.041  1.00  0.00     0.029 A 
ATOM     62  C   UNL A   1      41.059  33.526  36.731  1.00  0.00     0.049 A 
ATOM     63  H   UNL A   1      41.941  31.730  36.154  1.00  0.00     0.167 HD
ATOM     64  C   UNL A   1      43.485  27.774  34.989  1.00  0.00     0.037 A 
ATOM     65  C   UNL A   1      41.673  33.914  37.865  1.00  0.00     0.037 A 
ATOM     66  C   UNL A   1      44.252  28.152  36.145  1.00  0.00     0.049 A 
ATOM     67  C   UNL A   1      42.746  33.035  38.461  1.00  0.00     0.074 A 
ATOM     68  C   UNL A   1      45.303  27.479  36.741  1.00  0.00     0.029 A 
ATOM     69  N   UNL A   1      44.042  29.306  36.885  1.00  0.00    -0.354 N 
ATOM     70  N   UNL A   1      43.213  31.887  38.030  1.00  0.00    -0.248 NA
ATOM     71  C   UNL A   1      43.375  33.505  39.704  1.00  0.00     0.031 C 
ATOM     72  C   UNL A   1      45.695  28.199  37.873  1.00  0.00     0.029 A 
ATOM     73  C   UNL A   1      44.931  29.353  37.946  1.00  0.00     0.049 A 
ATOM     74  H   UNL A   1      43.363  29.990  36.686  1.00  0.00     0.167 HD
ATOM     75  C   UNL A   1      44.214  31.520  38.922  1.00  0.00     0.074 A 
ATOM     76  C   UNL A   1      44.289  32.568  39.918  1.00  0.00     0.031 C 
ATOM     77  C   UNL A   1      45.004  30.418  38.914  1.00  0.00     0.037 A 
BRANCH  64  78
ATOM     78  C   UNL A   1      43.789  26.467  34.321  1.00  0.00     0.064 A 
ATOM     79  C   UNL A   1      43.206  25.264  34.750  1.00  0.00     0.173 A 
ATOM     80  C   UNL A   1      44.662  26.418  33.224  1.00  0.00     0.173 A 
ATOM     81  F   UNL A   1      42.381  25.253  35.807  1.00  0.00    -0.203 F 
ATOM     82  C   UNL A   1      43.506  24.059  34.119  1.00  0.00     0.198 A 
ATOM     83  C   UNL A   1      44.935  25.217  32.577  1.00  0.00     0.198 A 
ATOM     84  F   UNL A   1      45.248  27.540  32.776  1.00  0.00    -0.203 F 
ATOM     85  F   UNL A   1      42.978  22.916  34.578  1.00  0.00    -0.200 F 
ATOM     86  C   UNL A   1      44.364  24.038  33.030  1.00  0.00     0.200 A 
ATOM     87  F   UNL A   1      45.756  25.200  31.518  1.00  0.00    -0.200 F 
ATOM     88  F   UNL A   1      44.647  22.878  32.421  1.00  0.00    -0.200 F 
ENDBRANCH  64  78
BRANCH  65  89
ATOM     89  C   UNL A   1      41.283  35.186  38.527  1.00  0.00     0.064 A 
ATOM     90  C   UNL A   1      40.088  35.287  39.253  1.00  0.00     0.173 A 
ATOM     91  C   UNL A   1      42.083  36.335  38.431  1.00  0.00     0.173 A 
ATOM     92  F   UNL A   1      39.276  34.224  39.353  1.00  0.00    -0.203 F 
ATOM     93  C   UNL A   1      39.699  36.489  39.840  1.00  0.00     0.198 A 
ATOM     94  C   UNL A   1      41.708  37.529  39.043  1.00  0.00     0.198 A 
ATOM     95  F   UNL A   1      43.237  36.294  37.747  1.00  0.00    -0.203 F 
ATOM     96  F   UNL A   1      38.528  36.569  40.487  1.00  0.00    -0.200 F 
ATOM     97  C   UNL A   1      40.512  37.607  39.740  1.00  0.00     0.200 A 
ATOM     98  F   UNL A   1      42.504  38.602  38.955  1.00  0.00    -0.200 F 
ATOM     99  F   UNL A   1      40.140  38.763  40.306  1.00  0.00    -0.200 F 
ENDBRANCH  65  89
BRANCH  77 100
ATOM    100  C   UNL A   1      46.062  30.312  39.975  1.00  0.00     0.064 A 
ATOM    101  C   UNL A   1      47.335  30.875  39.811  1.00  0.00     0.173 A 
ATOM    102  C   UNL A   1      45.770  29.692  41.200  1.00  0.00     0.173 A 
ATOM    103  F   UNL A   1      47.667  31.469  38.655  1.00  0.00    -0.203 F 
ATOM    104  C   UNL A   1      48.284  30.803  40.828  1.00  0.00     0.198 A 
ATOM    105  C   UNL A   1      46.710  29.649  42.225  1.00  0.00     0.198 A 
ATOM    106  F   UNL A   1      44.562  29.146  41.410  1.00  0.00    -0.203 F 
ATOM    107  F   UNL A   1      49.509  31.312  40.636  1.00  0.00    -0.200 F 
ATOM    108  C   UNL A   1      47.968  30.200  42.036  1.00  0.00     0.200 A 
ATOM    109  F   UNL A   1      46.396  29.080  43.396  1.00  0.00    -0.200 F 
ATOM    110  F   UNL A   1      48.879  30.144  43.018  1.00  0.00    -0.200 F 
ENDBRANCH  77 100
ENDBRANCH  51  52
ENDBRANCH  44  46
ENDBRANCH  43  44
ENDBRANCH  42  43
ENDBRANCH  41  42
ENDBRANCH  40  41
ENDBRANCH  39  40
ENDBRANCH  38  39
ENDBRANCH  37  38
ENDBRANCH   1  37
TORSDOF 26
ENDMDL
MODEL 3
REMARK VINA RESULT:      -9.9      6.690     10.297
REMARK SMILES CC(=O)OCC1=C(C(=O)OCCOCCOCCOCCOC(=O)c2ccc(-c3c4nc(c(-c5c(F)c(F)c(F)c(F)c5F)c5ccc([nH]5)c(-c5c(F)c(F)c(F)c(F)c5F)c5nc(c(-c6c(F)c(F)c(F)c(F)c6F)c6ccc3[nH]6)C=C5)C=C4)cc2)N2C(=O)[C@H](NC(=O)c3c(C)nn(C(F)F)c3C)[C@@H]2SC1
REMARK SMILES IDX 15 1 14 2 13 3 12 4 11 5 10 6 8 7 9 8 7 9 6 10 107 11 88 12
REMARK SMILES IDX 106 13 89 14 105 15 90 16 91 17 5 18 4 19 2 20 1 21 3 22
REMARK SMILES IDX 92 23 93 24 94 26 95 27 96 28 103 29 97 30 98 31 99 32
REMARK SMILES IDX 104 33 100 34 101 35 102 36 16 37 17 38 18 39 19 40 20 41
REMARK SMILES IDX 21 42 22 43 23 44 24 45 25 46 26 47 87 48 27 49 86 50 28 51
REMARK SMILES IDX 29 52 30 53 80 54 31 55 85 56 79 57 81 58 32 59 84 60 78 61
REMARK SMILES IDX 77 62 33 64 65 65 45 66 64 67 46 68 49 69 63 70 82 71 47 72
REMARK SMILES IDX 48 73 62 75 83 76 50 77 34 78 35 79 43 80 36 81 37 82 41 83
REMARK SMILES IDX 44 84 38 85 39 86 42 87 40 88 66 89 67 90 75 91 68 92 69 93
REMARK SMILES IDX 73 94 76 95 70 96 71 97 74 98 72 99 51 100 52 101 60 102
REMARK SMILES IDX 53 103 54 104 58 105 61 106 55 107 56 108 59 109 57 110
REMARK H PARENT 92 25 81 63 49 74
REMARK Flexibility Score: inf
ROOT
ATOM      1  C   UNL A   1      40.949  24.160  27.950  1.00  0.00     0.188 C 
ENDROOT
BRANCH   1   2
ATOM      2  C   UNL A   1      41.009  23.012  26.917  1.00  0.00     0.188 C 
BRANCH   2   3
ATOM      3  O   UNL A   1      39.843  22.196  26.893  1.00  0.00    -0.376 OA
BRANCH   3   4
ATOM      4  C   UNL A   1      38.693  22.748  26.276  1.00  0.00     0.202 C 
BRANCH   4   5
ATOM      5  C   UNL A   1      37.788  21.743  25.567  1.00  0.00     0.261 C 
BRANCH   5   6
ATOM      6  O   UNL A   1      36.418  22.154  25.532  1.00  0.00    -0.459 OA
BRANCH   6   7
ATOM      7  C   UNL A   1      35.823  22.281  24.327  1.00  0.00     0.355 C 
ATOM      8  O   UNL A   1      36.382  22.505  23.266  1.00  0.00    -0.244 OA
BRANCH   7   9
ATOM      9  C   UNL A   1      34.349  22.074  24.500  1.00  0.00     0.134 C 
ATOM     10  C   UNL A   1      33.799  20.849  24.705  1.00  0.00     0.008 C 
ATOM     11  C   UNL A   1      32.317  20.641  24.990  1.00  0.00     0.108 C 
ATOM     12  N   UNL A   1      33.565  23.187  24.444  1.00  0.00    -0.289 N 
ATOM     13  S   UNL A   1      31.459  22.123  25.611  1.00  0.00    -0.129 SA
ATOM     14  C   UNL A   1      33.711  24.513  24.276  1.00  0.00     0.253 C 
ATOM     15  C   UNL A   1      32.127  23.166  24.306  1.00  0.00     0.181 C 
ATOM     16  O   UNL A   1      34.668  25.218  24.033  1.00  0.00    -0.272 OA
ATOM     17  C   UNL A   1      32.170  24.710  24.508  1.00  0.00     0.206 C 
BRANCH  10  18
ATOM     18  C   UNL A   1      34.534  19.512  24.705  1.00  0.00     0.267 C 
BRANCH  18  19
ATOM     19  O   UNL A   1      33.832  18.412  24.122  1.00  0.00    -0.461 OA
BRANCH  19  20
ATOM     20  C   UNL A   1      33.600  17.348  24.937  1.00  0.00     0.302 C 
ATOM     21  C   UNL A   1      34.630  16.289  24.688  1.00  0.00     0.139 C 
ATOM     22  O   UNL A   1      32.723  17.292  25.786  1.00  0.00    -0.253 OA
ENDBRANCH  19  20
ENDBRANCH  18  19
ENDBRANCH  10  18
BRANCH  17  23
ATOM     23  N   UNL A   1      31.798  25.242  25.845  1.00  0.00    -0.337 N 
ATOM     24  C   UNL A   1      31.422  26.518  26.190  1.00  0.00     0.255 C 
ATOM     25  H   UNL A   1      31.823  24.592  26.583  1.00  0.00     0.164 HD
ATOM     26  O   UNL A   1      31.335  26.820  27.375  1.00  0.00    -0.269 OA
BRANCH  24  27
ATOM     27  C   UNL A   1      31.173  27.476  25.127  1.00  0.00     0.083 A 
ATOM     28  C   UNL A   1      31.882  28.679  24.871  1.00  0.00     0.073 A 
ATOM     29  C   UNL A   1      30.136  27.479  24.200  1.00  0.00     0.054 A 
ATOM     30  C   UNL A   1      33.024  29.268  25.618  1.00  0.00     0.069 C 
ATOM     31  N   UNL A   1      31.420  29.307  23.785  1.00  0.00    -0.172 NA
ATOM     32  N   UNL A   1      30.380  28.553  23.366  1.00  0.00    -0.208 N 
ATOM     33  C   UNL A   1      28.953  26.592  24.061  1.00  0.00     0.067 C 
BRANCH  32  34
ATOM     34  C   UNL A   1      29.673  28.904  22.131  1.00  0.00     0.465 C 
ATOM     35  F   UNL A   1      28.392  29.291  22.361  1.00  0.00    -0.184 F 
ATOM     36  F   UNL A   1      30.293  29.918  21.465  1.00  0.00    -0.184 F 
ENDBRANCH  32  34
ENDBRANCH  24  27
ENDBRANCH  17  23
ENDBRANCH   7   9
ENDBRANCH   6   7
ENDBRANCH   5   6
ENDBRANCH   4   5
ENDBRANCH   3   4
ENDBRANCH   2   3
ENDBRANCH   1   2
BRANCH   1  37
ATOM     37  O   UNL A   1      41.167  25.502  27.532  1.00  0.00    -0.377 OA
BRANCH  37  38
ATOM     38  C   UNL A   1      40.070  26.416  27.512  1.00  0.00     0.188 C 
BRANCH  38  39
ATOM     39  C   UNL A   1      39.879  27.461  28.635  1.00  0.00     0.188 C 
BRANCH  39  40
ATOM     40  O   UNL A   1      38.557  27.962  28.756  1.00  0.00    -0.376 OA
BRANCH  40  41
ATOM     41  C   UNL A   1      38.337  29.301  28.344  1.00  0.00     0.202 C 
BRANCH  41  42
ATOM     42  C   UNL A   1      37.397  30.114  29.242  1.00  0.00     0.261 C 
BRANCH  42  43
ATOM     43  O   UNL A   1      37.983  30.640  30.443  1.00  0.00    -0.460 OA
BRANCH  43  44
ATOM     44  C   UNL A   1      37.772  29.961  31.591  1.00  0.00     0.338 C 
ATOM     45  O   UNL A   1      36.708  29.691  32.114  1.00  0.00    -0.246 OA
BRANCH  44  46
ATOM     46  C   UNL A   1      39.080  29.448  32.036  1.00  0.00     0.060 A 
ATOM     47  C   UNL A   1      40.212  30.271  31.966  1.00  0.00     0.016 A 
ATOM     48  C   UNL A   1      39.173  28.144  32.524  1.00  0.00     0.016 A 
ATOM     49  C   UNL A   1      41.455  29.775  32.359  1.00  0.00     0.010 A 
ATOM     50  C   UNL A   1      40.418  27.643  32.896  1.00  0.00     0.010 A 
ATOM     51  C   UNL A   1      41.568  28.444  32.783  1.00  0.00    -0.014 A 
BRANCH  51  52
ATOM     52  C   UNL A   1      42.894  27.797  32.897  1.00  0.00     0.031 A 
ATOM     53  C   UNL A   1      43.501  27.686  34.266  1.00  0.00     0.074 A 
ATOM     54  C   UNL A   1      43.562  27.364  31.816  1.00  0.00     0.049 A 
ATOM     55  N   UNL A   1      44.701  27.307  34.619  1.00  0.00    -0.248 NA
ATOM     56  C   UNL A   1      42.634  28.070  35.393  1.00  0.00     0.031 C 
ATOM     57  C   UNL A   1      43.056  27.379  30.446  1.00  0.00     0.029 A 
ATOM     58  N   UNL A   1      44.829  26.847  31.705  1.00  0.00    -0.354 N 
ATOM     59  C   UNL A   1      44.737  27.421  36.003  1.00  0.00     0.074 A 
ATOM     60  C   UNL A   1      43.450  27.925  36.425  1.00  0.00     0.031 C 
ATOM     61  C   UNL A   1      44.015  26.916  29.625  1.00  0.00     0.029 A 
ATOM     62  C   UNL A   1      45.213  26.612  30.408  1.00  0.00     0.049 A 
ATOM     63  H   UNL A   1      45.406  26.663  32.481  1.00  0.00     0.167 HD
ATOM     64  C   UNL A   1      45.755  27.128  36.845  1.00  0.00     0.037 A 
ATOM     65  C   UNL A   1      46.408  26.231  29.916  1.00  0.00     0.037 A 
ATOM     66  C   UNL A   1      47.035  26.634  36.416  1.00  0.00     0.049 A 
ATOM     67  C   UNL A   1      47.552  25.982  30.868  1.00  0.00     0.074 A 
ATOM     68  C   UNL A   1      48.133  26.297  37.187  1.00  0.00     0.029 A 
ATOM     69  N   UNL A   1      47.390  26.415  35.093  1.00  0.00    -0.354 N 
ATOM     70  N   UNL A   1      47.579  26.076  32.176  1.00  0.00    -0.248 NA
ATOM     71  C   UNL A   1      48.835  25.577  30.273  1.00  0.00     0.031 C 
ATOM     72  C   UNL A   1      49.170  25.923  36.328  1.00  0.00     0.029 A 
ATOM     73  C   UNL A   1      48.699  25.968  35.024  1.00  0.00     0.049 A 
ATOM     74  H   UNL A   1      46.800  26.557  34.318  1.00  0.00     0.167 HD
ATOM     75  C   UNL A   1      48.861  25.703  32.562  1.00  0.00     0.074 A 
ATOM     76  C   UNL A   1      49.584  25.380  31.350  1.00  0.00     0.031 C 
ATOM     77  C   UNL A   1      49.392  25.629  33.808  1.00  0.00     0.037 A 
BRANCH  64  78
ATOM     78  C   UNL A   1      45.532  27.369  38.308  1.00  0.00     0.064 A 
ATOM     79  C   UNL A   1      45.851  28.594  38.913  1.00  0.00     0.173 A 
ATOM     80  C   UNL A   1      44.973  26.365  39.114  1.00  0.00     0.173 A 
ATOM     81  F   UNL A   1      46.406  29.579  38.190  1.00  0.00    -0.203 F 
ATOM     82  C   UNL A   1      45.641  28.797  40.274  1.00  0.00     0.198 A 
ATOM     83  C   UNL A   1      44.736  26.582  40.468  1.00  0.00     0.198 A 
ATOM     84  F   UNL A   1      44.652  25.174  38.586  1.00  0.00    -0.203 F 
ATOM     85  F   UNL A   1      46.001  29.957  40.840  1.00  0.00    -0.200 F 
ATOM     86  C   UNL A   1      45.077  27.794  41.049  1.00  0.00     0.200 A 
ATOM     87  F   UNL A   1      44.182  25.616  41.213  1.00  0.00    -0.200 F 
ATOM     88  F   UNL A   1      44.872  27.993  42.358  1.00  0.00    -0.200 F 
ENDBRANCH  64  78
BRANCH  65  89
ATOM     89  C   UNL A   1      46.596  26.075  28.449  1.00  0.00     0.064 A 
ATOM     90  C   UNL A   1      46.365  24.845  27.818  1.00  0.00     0.173 A 
ATOM     91  C   UNL A   1      47.032  27.144  27.652  1.00  0.00     0.173 A 
ATOM     92  F   UNL A   1      45.972  23.786  28.541  1.00  0.00    -0.203 F 
ATOM     93  C   UNL A   1      46.579  24.685  26.450  1.00  0.00     0.198 A 
ATOM     94  C   UNL A   1      47.218  26.991  26.280  1.00  0.00     0.198 A 
ATOM     95  F   UNL A   1      47.270  28.342  28.206  1.00  0.00    -0.203 F 
ATOM     96  F   UNL A   1      46.396  23.486  25.881  1.00  0.00    -0.200 F 
ATOM     97  C   UNL A   1      47.000  25.759  25.681  1.00  0.00     0.200 A 
ATOM     98  F   UNL A   1      47.611  28.035  25.539  1.00  0.00    -0.200 F 
ATOM     99  F   UNL A   1      47.204  25.606  24.366  1.00  0.00    -0.200 F 
ENDBRANCH  65  89
BRANCH  77 100
ATOM    100  C   UNL A   1      50.801  25.123  33.936  1.00  0.00     0.064 A 
ATOM    101  C   UNL A   1      51.899  25.993  33.988  1.00  0.00     0.173 A 
ATOM    102  C   UNL A   1      51.044  23.748  34.075  1.00  0.00     0.173 A 
ATOM    103  F   UNL A   1      51.721  27.315  33.848  1.00  0.00    -0.203 F 
ATOM    104  C   UNL A   1      53.192  25.502  34.154  1.00  0.00     0.198 A 
ATOM    105  C   UNL A   1      52.333  23.263  34.272  1.00  0.00     0.198 A 
ATOM    106  F   UNL A   1      50.026  22.875  34.042  1.00  0.00    -0.203 F 
ATOM    107  F   UNL A   1      54.232  26.347  34.159  1.00  0.00    -0.200 F 
ATOM    108  C   UNL A   1      53.407  24.140  34.305  1.00  0.00     0.200 A 
ATOM    109  F   UNL A   1      52.536  21.949  34.434  1.00  0.00    -0.200 F 
ATOM    110  F   UNL A   1      54.650  23.671  34.478  1.00  0.00    -0.200 F 
ENDBRANCH  77 100
ENDBRANCH  51  52
ENDBRANCH  44  46
ENDBRANCH  43  44
ENDBRANCH  42  43
ENDBRANCH  41  42
ENDBRANCH  40  41
ENDBRANCH  39  40
ENDBRANCH  38  39
ENDBRANCH  37  38
ENDBRANCH   1  37
TORSDOF 26
ENDMDL
