MODEL 1
REMARK VINA RESULT:     -10.6      0.000      0.000
REMARK SMILES O=C(OCCOCCOCCOCCOC(=O)[C@H]1C[N@H+](Cc2ccc(Cl)c(Cl)c2)CC12CCCCC2)c1ccc(-c2c3nc(c(-c4c(F)c(F)c(F)c(F)c4F)c4ccc([nH]4)c(-c4c(F)c(F)c(F)c(F)c4F)c4nc(c(-c5c(F)c(F)c(F)c(F)c5F)c5ccc2[nH]5)C=C4)C=C3)cc1
REMARK SMILES IDX 9 1 8 2 7 3 6 4 5 5 4 6 3 7 2 8 1 9 37 10 38 11 99 12 39 13
REMARK SMILES IDX 98 14 40 15 41 16 42 17 92 18 43 19 97 20 91 21 93 22 44 23
REMARK SMILES IDX 96 24 90 25 89 26 45 28 77 29 57 30 76 31 58 32 61 33 75 34
REMARK SMILES IDX 94 35 59 36 60 37 74 39 95 40 62 41 46 42 47 43 55 44 48 45
REMARK SMILES IDX 49 46 53 47 56 48 50 49 51 50 54 51 52 52 78 53 79 54 87 55
REMARK SMILES IDX 80 56 81 57 85 58 88 59 82 60 83 61 86 62 84 63 63 64 64 65
REMARK SMILES IDX 72 66 65 67 66 68 70 69 73 70 67 71 68 72 71 73 69 74 10 75
REMARK SMILES IDX 11 76 12 77 13 78 14 79 15 80 16 81 17 82 18 83 19 84 31 85
REMARK SMILES IDX 20 86 30 87 32 88 36 89 33 91 35 92 34 93 21 94 22 95 23 96
REMARK SMILES IDX 29 97 24 98 27 99 25 100 28 101 26 102
REMARK H PARENT 93 27 61 38 20 90
REMARK Flexibility Score: inf
ROOT
ATOM      1  O   UNL A   1      34.122  33.187  28.925  1.00  0.00    -0.377 OA
ENDROOT
BRANCH   1   2
ATOM      2  C   UNL A   1      34.413  34.576  29.009  1.00  0.00     0.188 C 
BRANCH   2   3
ATOM      3  C   UNL A   1      33.472  35.342  29.940  1.00  0.00     0.188 C 
BRANCH   3   4
ATOM      4  O   UNL A   1      33.282  34.558  31.117  1.00  0.00    -0.376 OA
BRANCH   4   5
ATOM      5  C   UNL A   1      33.626  35.181  32.354  1.00  0.00     0.202 C 
BRANCH   5   6
ATOM      6  C   UNL A   1      35.109  35.052  32.685  1.00  0.00     0.261 C 
BRANCH   6   7
ATOM      7  O   UNL A   1      35.694  33.912  32.045  1.00  0.00    -0.460 OA
BRANCH   7   8
ATOM      8  C   UNL A   1      36.246  32.831  32.651  1.00  0.00     0.338 C 
ATOM      9  O   UNL A   1      35.761  32.446  33.714  1.00  0.00    -0.246 OA
BRANCH   8  10
ATOM     10  C   UNL A   1      37.392  32.044  32.090  1.00  0.00     0.060 A 
ATOM     11  C   UNL A   1      38.141  31.082  32.774  1.00  0.00     0.016 A 
ATOM     12  C   UNL A   1      37.683  32.250  30.731  1.00  0.00     0.016 A 
ATOM     13  C   UNL A   1      39.142  30.356  32.164  1.00  0.00     0.010 A 
ATOM     14  C   UNL A   1      38.697  31.527  30.099  1.00  0.00     0.010 A 
ATOM     15  C   UNL A   1      39.428  30.584  30.828  1.00  0.00    -0.014 A 
BRANCH  15  16
ATOM     16  C   UNL A   1      40.633  29.949  30.291  1.00  0.00     0.031 A 
ATOM     17  C   UNL A   1      41.905  30.722  30.386  1.00  0.00     0.074 A 
ATOM     18  C   UNL A   1      40.586  28.673  29.873  1.00  0.00     0.049 A 
ATOM     19  N   UNL A   1      43.059  30.489  29.832  1.00  0.00    -0.248 NA
ATOM     20  C   UNL A   1      41.873  31.929  31.235  1.00  0.00     0.031 C 
ATOM     21  C   UNL A   1      39.411  27.800  29.951  1.00  0.00     0.029 A 
ATOM     22  N   UNL A   1      41.552  27.886  29.313  1.00  0.00    -0.354 N 
ATOM     23  C   UNL A   1      43.865  31.555  30.204  1.00  0.00     0.074 A 
ATOM     24  C   UNL A   1      43.092  32.416  31.063  1.00  0.00     0.031 C 
ATOM     25  C   UNL A   1      39.723  26.600  29.435  1.00  0.00     0.029 A 
ATOM     26  C   UNL A   1      41.078  26.663  28.906  1.00  0.00     0.049 A 
ATOM     27  H   UNL A   1      42.490  28.168  29.210  1.00  0.00     0.167 HD
ATOM     28  C   UNL A   1      45.137  31.786  29.811  1.00  0.00     0.037 A 
ATOM     29  C   UNL A   1      41.668  25.748  28.116  1.00  0.00     0.037 A 
ATOM     30  C   UNL A   1      45.854  30.872  28.968  1.00  0.00     0.049 A 
ATOM     31  C   UNL A   1      43.046  26.078  27.600  1.00  0.00     0.074 A 
ATOM     32  C   UNL A   1      47.130  30.982  28.455  1.00  0.00     0.029 A 
ATOM     33  N   UNL A   1      45.333  29.665  28.514  1.00  0.00    -0.354 N 
ATOM     34  N   UNL A   1      43.799  27.121  27.869  1.00  0.00    -0.248 NA
ATOM     35  C   UNL A   1      43.643  25.135  26.652  1.00  0.00     0.031 C 
ATOM     36  C   UNL A   1      47.358  29.866  27.642  1.00  0.00     0.029 A 
ATOM     37  C   UNL A   1      46.247  29.034  27.695  1.00  0.00     0.049 A 
ATOM     38  H   UNL A   1      44.442  29.312  28.743  1.00  0.00     0.167 HD
ATOM     39  C   UNL A   1      44.962  26.957  27.133  1.00  0.00     0.074 A 
ATOM     40  C   UNL A   1      44.823  25.697  26.426  1.00  0.00     0.031 C 
ATOM     41  C   UNL A   1      46.044  27.768  27.032  1.00  0.00     0.037 A 
BRANCH  28  42
ATOM     42  C   UNL A   1      45.749  33.098  30.188  1.00  0.00     0.064 A 
ATOM     43  C   UNL A   1      45.621  34.250  29.399  1.00  0.00     0.173 A 
ATOM     44  C   UNL A   1      46.513  33.192  31.363  1.00  0.00     0.173 A 
ATOM     45  F   UNL A   1      44.934  34.206  28.247  1.00  0.00    -0.203 F 
ATOM     46  C   UNL A   1      46.249  35.440  29.761  1.00  0.00     0.198 A 
ATOM     47  C   UNL A   1      47.117  34.389  31.735  1.00  0.00     0.198 A 
ATOM     48  F   UNL A   1      46.685  32.115  32.144  1.00  0.00    -0.203 F 
ATOM     49  F   UNL A   1      46.158  36.514  28.963  1.00  0.00    -0.200 F 
ATOM     50  C   UNL A   1      46.991  35.510  30.931  1.00  0.00     0.200 A 
ATOM     51  F   UNL A   1      47.835  34.452  32.865  1.00  0.00    -0.200 F 
ATOM     52  F   UNL A   1      47.595  36.656  31.277  1.00  0.00    -0.200 F 
ENDBRANCH  28  42
BRANCH  29  53
ATOM     53  C   UNL A   1      40.931  24.531  27.677  1.00  0.00     0.064 A 
ATOM     54  C   UNL A   1      41.317  23.251  28.097  1.00  0.00     0.173 A 
ATOM     55  C   UNL A   1      39.842  24.617  26.791  1.00  0.00     0.173 A 
ATOM     56  F   UNL A   1      42.361  23.105  28.925  1.00  0.00    -0.203 F 
ATOM     57  C   UNL A   1      40.662  22.109  27.633  1.00  0.00     0.198 A 
ATOM     58  C   UNL A   1      39.166  23.479  26.356  1.00  0.00     0.198 A 
ATOM     59  F   UNL A   1      39.429  25.813  26.345  1.00  0.00    -0.203 F 
ATOM     60  F   UNL A   1      41.092  20.896  28.006  1.00  0.00    -0.200 F 
ATOM     61  C   UNL A   1      39.585  22.225  26.766  1.00  0.00     0.200 A 
ATOM     62  F   UNL A   1      38.117  23.598  25.532  1.00  0.00    -0.200 F 
ATOM     63  F   UNL A   1      38.961  21.127  26.317  1.00  0.00    -0.200 F 
ENDBRANCH  29  53
BRANCH  41  64
ATOM     64  C   UNL A   1      47.157  27.296  26.151  1.00  0.00     0.064 A 
ATOM     65  C   UNL A   1      47.216  27.655  24.798  1.00  0.00     0.173 A 
ATOM     66  C   UNL A   1      48.216  26.554  26.693  1.00  0.00     0.173 A 
ATOM     67  F   UNL A   1      46.215  28.349  24.238  1.00  0.00    -0.203 F 
ATOM     68  C   UNL A   1      48.298  27.276  24.012  1.00  0.00     0.198 A 
ATOM     69  C   UNL A   1      49.312  26.206  25.913  1.00  0.00     0.198 A 
ATOM     70  F   UNL A   1      48.202  26.198  27.986  1.00  0.00    -0.203 F 
ATOM     71  F   UNL A   1      48.323  27.597  22.712  1.00  0.00    -0.200 F 
ATOM     72  C   UNL A   1      49.350  26.564  24.573  1.00  0.00     0.200 A 
ATOM     73  F   UNL A   1      50.336  25.539  26.460  1.00  0.00    -0.200 F 
ATOM     74  F   UNL A   1      50.404  26.222  23.819  1.00  0.00    -0.200 F 
ENDBRANCH  41  64
ENDBRANCH  15  16
ENDBRANCH   8  10
ENDBRANCH   7   8
ENDBRANCH   6   7
ENDBRANCH   5   6
ENDBRANCH   4   5
ENDBRANCH   3   4
ENDBRANCH   2   3
ENDBRANCH   1   2
BRANCH   1  75
ATOM     75  C   UNL A   1      34.582  32.523  27.763  1.00  0.00     0.188 C 
BRANCH  75  76
ATOM     76  C   UNL A   1      34.901  31.014  27.794  1.00  0.00     0.188 C 
BRANCH  76  77
ATOM     77  O   UNL A   1      33.886  30.040  27.639  1.00  0.00    -0.376 OA
BRANCH  77  78
ATOM     78  C   UNL A   1      32.617  30.455  27.172  1.00  0.00     0.202 C 
BRANCH  78  79
ATOM     79  C   UNL A   1      32.214  30.082  25.734  1.00  0.00     0.261 C 
BRANCH  79  80
ATOM     80  O   UNL A   1      32.415  28.703  25.360  1.00  0.00    -0.463 OA
BRANCH  80  81
ATOM     81  C   UNL A   1      31.371  27.969  24.856  1.00  0.00     0.315 C 
ATOM     82  O   UNL A   1      30.375  28.445  24.327  1.00  0.00    -0.252 OA
BRANCH  81  83
ATOM     83  C   UNL A   1      31.627  26.477  25.095  1.00  0.00     0.166 C 
ATOM     84  C   UNL A   1      30.366  25.941  25.770  1.00  0.00     0.278 C 
ATOM     85  C   UNL A   1      31.979  25.446  23.946  1.00  0.00     0.038 C 
ATOM     86  N   UNL A   1      30.340  24.518  25.493  1.00  0.00    -0.330 N 
ATOM     87  C   UNL A   1      30.888  24.356  24.150  1.00  0.00     0.270 C 
ATOM     88  C   UNL A   1      31.988  25.980  22.494  1.00  0.00     0.014 C 
ATOM     89  C   UNL A   1      33.401  24.844  24.145  1.00  0.00     0.014 C 
ATOM     90  H   UNL A   1      29.383  24.164  25.491  1.00  0.00     0.348 HD
ATOM     91  C   UNL A   1      32.378  24.927  21.439  1.00  0.00     0.001 C 
ATOM     92  C   UNL A   1      33.773  23.727  23.173  1.00  0.00     0.001 C 
ATOM     93  C   UNL A   1      33.699  24.219  21.739  1.00  0.00     0.000 C 
BRANCH  86  94
ATOM     94  C   UNL A   1      30.743  23.603  26.566  1.00  0.00     0.299 C 
BRANCH  94  95
ATOM     95  C   UNL A   1      31.901  22.653  26.327  1.00  0.00     0.008 A 
ATOM     96  C   UNL A   1      33.155  22.852  26.927  1.00  0.00     0.011 A 
ATOM     97  C   UNL A   1      31.754  21.572  25.438  1.00  0.00     0.031 A 
ATOM     98  C   UNL A   1      34.265  22.094  26.536  1.00  0.00     0.022 A 
ATOM     99  C   UNL A   1      32.860  20.794  25.060  1.00  0.00     0.060 A 
ATOM    100  C   UNL A   1      34.125  21.082  25.583  1.00  0.00     0.059 A 
ATOM    101  Cl  UNL A   1      32.608  19.564  23.874  1.00  0.00    -0.083 Cl
ATOM    102  Cl  UNL A   1      35.557  20.276  25.048  1.00  0.00    -0.083 Cl
ENDBRANCH  94  95
ENDBRANCH  86  94
ENDBRANCH  81  83
ENDBRANCH  80  81
ENDBRANCH  79  80
ENDBRANCH  78  79
ENDBRANCH  77  78
ENDBRANCH  76  77
ENDBRANCH  75  76
ENDBRANCH   1  75
TORSDOF 22
ENDMDL
MODEL 2
REMARK VINA RESULT:     -10.2      1.095      2.548
REMARK SMILES O=C(OCCOCCOCCOCCOC(=O)[C@H]1C[N@H+](Cc2ccc(Cl)c(Cl)c2)CC12CCCCC2)c1ccc(-c2c3nc(c(-c4c(F)c(F)c(F)c(F)c4F)c4ccc([nH]4)c(-c4c(F)c(F)c(F)c(F)c4F)c4nc(c(-c5c(F)c(F)c(F)c(F)c5F)c5ccc2[nH]5)C=C4)C=C3)cc1
REMARK SMILES IDX 9 1 8 2 7 3 6 4 5 5 4 6 3 7 2 8 1 9 37 10 38 11 99 12 39 13
REMARK SMILES IDX 98 14 40 15 41 16 42 17 92 18 43 19 97 20 91 21 93 22 44 23
REMARK SMILES IDX 96 24 90 25 89 26 45 28 77 29 57 30 76 31 58 32 61 33 75 34
REMARK SMILES IDX 94 35 59 36 60 37 74 39 95 40 62 41 46 42 47 43 55 44 48 45
REMARK SMILES IDX 49 46 53 47 56 48 50 49 51 50 54 51 52 52 78 53 79 54 87 55
REMARK SMILES IDX 80 56 81 57 85 58 88 59 82 60 83 61 86 62 84 63 63 64 64 65
REMARK SMILES IDX 72 66 65 67 66 68 70 69 73 70 67 71 68 72 71 73 69 74 10 75
REMARK SMILES IDX 11 76 12 77 13 78 14 79 15 80 16 81 17 82 18 83 19 84 31 85
REMARK SMILES IDX 20 86 30 87 32 88 36 89 33 91 35 92 34 93 21 94 22 95 23 96
REMARK SMILES IDX 29 97 24 98 27 99 25 100 28 101 26 102
REMARK H PARENT 93 27 61 38 20 90
REMARK Flexibility Score: inf
ROOT
ATOM      1  O   UNL A   1      34.162  31.237  27.525  1.00  0.00    -0.377 OA
ENDROOT
BRANCH   1   2
ATOM      2  C   UNL A   1      34.292  32.571  28.000  1.00  0.00     0.188 C 
BRANCH   2   3
ATOM      3  C   UNL A   1      34.960  32.668  29.373  1.00  0.00     0.188 C 
BRANCH   3   4
ATOM      4  O   UNL A   1      34.030  33.270  30.273  1.00  0.00    -0.376 OA
BRANCH   4   5
ATOM      5  C   UNL A   1      34.587  33.966  31.386  1.00  0.00     0.202 C 
BRANCH   5   6
ATOM      6  C   UNL A   1      34.491  33.172  32.685  1.00  0.00     0.261 C 
BRANCH   6   7
ATOM      7  O   UNL A   1      35.381  32.049  32.682  1.00  0.00    -0.460 OA
BRANCH   7   8
ATOM      8  C   UNL A   1      36.615  31.986  33.243  1.00  0.00     0.338 C 
ATOM      9  O   UNL A   1      36.742  32.337  34.416  1.00  0.00    -0.246 OA
BRANCH   8  10
ATOM     10  C   UNL A   1      37.836  31.477  32.540  1.00  0.00     0.060 A 
ATOM     11  C   UNL A   1      38.186  31.733  31.211  1.00  0.00     0.016 A 
ATOM     12  C   UNL A   1      38.740  30.736  33.319  1.00  0.00     0.016 A 
ATOM     13  C   UNL A   1      39.364  31.276  30.658  1.00  0.00     0.010 A 
ATOM     14  C   UNL A   1      39.935  30.261  32.774  1.00  0.00     0.010 A 
ATOM     15  C   UNL A   1      40.235  30.531  31.435  1.00  0.00    -0.014 A 
BRANCH  15  16
ATOM     16  C   UNL A   1      41.358  29.892  30.745  1.00  0.00     0.031 A 
ATOM     17  C   UNL A   1      42.676  30.588  30.812  1.00  0.00     0.074 A 
ATOM     18  C   UNL A   1      41.207  28.668  30.214  1.00  0.00     0.049 A 
ATOM     19  N   UNL A   1      43.770  30.353  30.147  1.00  0.00    -0.248 NA
ATOM     20  C   UNL A   1      42.777  31.705  31.770  1.00  0.00     0.031 C 
ATOM     21  C   UNL A   1      39.993  27.851  30.303  1.00  0.00     0.029 A 
ATOM     22  N   UNL A   1      42.081  27.892  29.507  1.00  0.00    -0.354 N 
ATOM     23  C   UNL A   1      44.661  31.335  30.553  1.00  0.00     0.074 A 
ATOM     24  C   UNL A   1      44.005  32.145  31.548  1.00  0.00     0.031 C 
ATOM     25  C   UNL A   1      40.195  26.694  29.653  1.00  0.00     0.029 A 
ATOM     26  C   UNL A   1      41.509  26.740  29.026  1.00  0.00     0.049 A 
ATOM     27  H   UNL A   1      43.023  28.136  29.356  1.00  0.00     0.167 HD
ATOM     28  C   UNL A   1      45.911  31.540  30.083  1.00  0.00     0.037 A 
ATOM     29  C   UNL A   1      41.984  25.879  28.108  1.00  0.00     0.037 A 
ATOM     30  C   UNL A   1      46.511  30.679  29.103  1.00  0.00     0.049 A 
ATOM     31  C   UNL A   1      43.337  26.190  27.518  1.00  0.00     0.074 A 
ATOM     32  C   UNL A   1      47.749  30.774  28.503  1.00  0.00     0.029 A 
ATOM     33  N   UNL A   1      45.888  29.550  28.580  1.00  0.00    -0.354 N 
ATOM     34  N   UNL A   1      44.167  27.162  27.823  1.00  0.00    -0.248 NA
ATOM     35  C   UNL A   1      43.807  25.315  26.440  1.00  0.00     0.031 C 
ATOM     36  C   UNL A   1      47.850  29.734  27.573  1.00  0.00     0.029 A 
ATOM     37  C   UNL A   1      46.701  28.958  27.636  1.00  0.00     0.049 A 
ATOM     38  H   UNL A   1      44.998  29.221  28.846  1.00  0.00     0.167 HD
ATOM     39  C   UNL A   1      45.260  27.013  26.985  1.00  0.00     0.074 A 
ATOM     40  C   UNL A   1      44.997  25.837  26.175  1.00  0.00     0.031 C 
ATOM     41  C   UNL A   1      46.377  27.775  26.874  1.00  0.00     0.037 A 
BRANCH  28  42
ATOM     42  C   UNL A   1      46.625  32.777  30.532  1.00  0.00     0.064 A 
ATOM     43  C   UNL A   1      47.406  32.821  31.696  1.00  0.00     0.173 A 
ATOM     44  C   UNL A   1      46.493  33.960  29.787  1.00  0.00     0.173 A 
ATOM     45  F   UNL A   1      47.534  31.729  32.465  1.00  0.00    -0.203 F 
ATOM     46  C   UNL A   1      48.014  34.007  32.106  1.00  0.00     0.198 A 
ATOM     47  C   UNL A   1      47.122  35.136  30.186  1.00  0.00     0.198 A 
ATOM     48  F   UNL A   1      45.740  33.978  28.678  1.00  0.00    -0.203 F 
ATOM     49  F   UNL A   1      48.711  34.039  33.250  1.00  0.00    -0.200 F 
ATOM     50  C   UNL A   1      47.876  35.160  31.348  1.00  0.00     0.200 A 
ATOM     51  F   UNL A   1      46.985  36.249  29.452  1.00  0.00    -0.200 F 
ATOM     52  F   UNL A   1      48.460  36.300  31.745  1.00  0.00    -0.200 F 
ENDBRANCH  28  42
BRANCH  29  53
ATOM     53  C   UNL A   1      41.148  24.750  27.616  1.00  0.00     0.064 A 
ATOM     54  C   UNL A   1      40.064  24.964  26.755  1.00  0.00     0.173 A 
ATOM     55  C   UNL A   1      41.393  23.428  28.029  1.00  0.00     0.173 A 
ATOM     56  F   UNL A   1      39.769  26.205  26.345  1.00  0.00    -0.203 F 
ATOM     57  C   UNL A   1      39.245  23.910  26.347  1.00  0.00     0.198 A 
ATOM     58  C   UNL A   1      40.597  22.371  27.593  1.00  0.00     0.198 A 
ATOM     59  F   UNL A   1      42.411  23.158  28.859  1.00  0.00    -0.203 F 
ATOM     60  F   UNL A   1      38.180  24.154  25.572  1.00  0.00    -0.200 F 
ATOM     61  C   UNL A   1      39.515  22.614  26.763  1.00  0.00     0.200 A 
ATOM     62  F   UNL A   1      40.872  21.120  27.985  1.00  0.00    -0.200 F 
ATOM     63  F   UNL A   1      38.725  21.603  26.376  1.00  0.00    -0.200 F 
ENDBRANCH  29  53
BRANCH  41  64
ATOM     64  C   UNL A   1      47.392  27.336  25.867  1.00  0.00     0.064 A 
ATOM     65  C   UNL A   1      47.335  27.776  24.538  1.00  0.00     0.173 A 
ATOM     66  C   UNL A   1      48.478  26.543  26.263  1.00  0.00     0.173 A 
ATOM     67  F   UNL A   1      46.304  28.523  24.116  1.00  0.00    -0.203 F 
ATOM     68  C   UNL A   1      48.331  27.426  23.633  1.00  0.00     0.198 A 
ATOM     69  C   UNL A   1      49.488  26.223  25.364  1.00  0.00     0.198 A 
ATOM     70  F   UNL A   1      48.574  26.109  27.529  1.00  0.00    -0.203 F 
ATOM     71  F   UNL A   1      48.244  27.825  22.358  1.00  0.00    -0.200 F 
ATOM     72  C   UNL A   1      49.412  26.661  24.051  1.00  0.00     0.200 A 
ATOM     73  F   UNL A   1      50.542  25.504  25.773  1.00  0.00    -0.200 F 
ATOM     74  F   UNL A   1      50.383  26.347  23.183  1.00  0.00    -0.200 F 
ENDBRANCH  41  64
ENDBRANCH  15  16
ENDBRANCH   8  10
ENDBRANCH   7   8
ENDBRANCH   6   7
ENDBRANCH   5   6
ENDBRANCH   4   5
ENDBRANCH   3   4
ENDBRANCH   2   3
ENDBRANCH   1   2
BRANCH   1  75
ATOM     75  C   UNL A   1      32.857  30.830  27.162  1.00  0.00     0.188 C 
BRANCH  75  76
ATOM     76  C   UNL A   1      32.643  29.625  26.222  1.00  0.00     0.188 C 
BRANCH  76  77
ATOM     77  O   UNL A   1      33.605  29.268  25.247  1.00  0.00    -0.376 OA
BRANCH  77  78
ATOM     78  C   UNL A   1      33.169  29.028  23.923  1.00  0.00     0.202 C 
BRANCH  78  79
ATOM     79  C   UNL A   1      31.673  29.207  23.606  1.00  0.00     0.261 C 
BRANCH  79  80
ATOM     80  O   UNL A   1      31.146  28.368  22.558  1.00  0.00    -0.463 OA
BRANCH  80  81
ATOM     81  C   UNL A   1      30.233  27.388  22.857  1.00  0.00     0.315 C 
ATOM     82  O   UNL A   1      29.040  27.582  23.053  1.00  0.00    -0.252 OA
BRANCH  81  83
ATOM     83  C   UNL A   1      30.943  26.032  22.946  1.00  0.00     0.166 C 
ATOM     84  C   UNL A   1      32.136  26.124  21.996  1.00  0.00     0.278 C 
ATOM     85  C   UNL A   1      31.504  25.415  24.292  1.00  0.00     0.038 C 
ATOM     86  N   UNL A   1      33.096  25.145  22.467  1.00  0.00    -0.330 N 
ATOM     87  C   UNL A   1      32.989  25.139  23.923  1.00  0.00     0.270 C 
ATOM     88  C   UNL A   1      31.383  26.278  25.571  1.00  0.00     0.014 C 
ATOM     89  C   UNL A   1      30.770  24.089  24.651  1.00  0.00     0.014 C 
ATOM     90  H   UNL A   1      34.048  25.419  22.220  1.00  0.00     0.348 HD
ATOM     91  C   UNL A   1      31.913  25.592  26.845  1.00  0.00     0.001 C 
ATOM     92  C   UNL A   1      31.342  23.338  25.851  1.00  0.00     0.001 C 
ATOM     93  C   UNL A   1      31.309  24.211  27.093  1.00  0.00     0.000 C 
BRANCH  86  94
ATOM     94  C   UNL A   1      33.201  23.880  21.733  1.00  0.00     0.299 C 
BRANCH  94  95
ATOM     95  C   UNL A   1      33.214  22.577  22.510  1.00  0.00     0.008 A 
ATOM     96  C   UNL A   1      32.231  21.593  22.317  1.00  0.00     0.011 A 
ATOM     97  C   UNL A   1      34.193  22.354  23.497  1.00  0.00     0.031 A 
ATOM     98  C   UNL A   1      32.135  20.497  23.183  1.00  0.00     0.022 A 
ATOM     99  C   UNL A   1      34.114  21.244  24.353  1.00  0.00     0.060 A 
ATOM    100  C   UNL A   1      33.060  20.334  24.217  1.00  0.00     0.059 A 
ATOM    101  Cl  UNL A   1      35.292  21.114  25.609  1.00  0.00    -0.083 Cl
ATOM    102  Cl  UNL A   1      32.805  19.036  25.329  1.00  0.00    -0.083 Cl
ENDBRANCH  94  95
ENDBRANCH  86  94
ENDBRANCH  81  83
ENDBRANCH  80  81
ENDBRANCH  79  80
ENDBRANCH  78  79
ENDBRANCH  77  78
ENDBRANCH  76  77
ENDBRANCH  75  76
ENDBRANCH   1  75
TORSDOF 22
ENDMDL
MODEL 3
REMARK VINA RESULT:      -9.7      5.654     10.127
REMARK SMILES O=C(OCCOCCOCCOCCOC(=O)[C@H]1C[N@H+](Cc2ccc(Cl)c(Cl)c2)CC12CCCCC2)c1ccc(-c2c3nc(c(-c4c(F)c(F)c(F)c(F)c4F)c4ccc([nH]4)c(-c4c(F)c(F)c(F)c(F)c4F)c4nc(c(-c5c(F)c(F)c(F)c(F)c5F)c5ccc2[nH]5)C=C4)C=C3)cc1
REMARK SMILES IDX 9 1 8 2 7 3 6 4 5 5 4 6 3 7 2 8 1 9 37 10 38 11 99 12 39 13
REMARK SMILES IDX 98 14 40 15 41 16 42 17 92 18 43 19 97 20 91 21 93 22 44 23
REMARK SMILES IDX 96 24 90 25 89 26 45 28 77 29 57 30 76 31 58 32 61 33 75 34
REMARK SMILES IDX 94 35 59 36 60 37 74 39 95 40 62 41 46 42 47 43 55 44 48 45
REMARK SMILES IDX 49 46 53 47 56 48 50 49 51 50 54 51 52 52 78 53 79 54 87 55
REMARK SMILES IDX 80 56 81 57 85 58 88 59 82 60 83 61 86 62 84 63 63 64 64 65
REMARK SMILES IDX 72 66 65 67 66 68 70 69 73 70 67 71 68 72 71 73 69 74 10 75
REMARK SMILES IDX 11 76 12 77 13 78 14 79 15 80 16 81 17 82 18 83 19 84 31 85
REMARK SMILES IDX 20 86 30 87 32 88 36 89 33 91 35 92 34 93 21 94 22 95 23 96
REMARK SMILES IDX 29 97 24 98 27 99 25 100 28 101 26 102
REMARK H PARENT 93 27 61 38 20 90
REMARK Flexibility Score: inf
ROOT
ATOM      1  O   UNL A   1      37.999  32.728  40.644  1.00  0.00    -0.377 OA
ENDROOT
BRANCH   1   2
ATOM      2  C   UNL A   1      37.509  33.957  41.163  1.00  0.00     0.188 C 
BRANCH   2   3
ATOM      3  C   UNL A   1      38.614  34.947  41.535  1.00  0.00     0.188 C 
BRANCH   3   4
ATOM      4  O   UNL A   1      38.754  35.875  40.460  1.00  0.00    -0.376 OA
BRANCH   4   5
ATOM      5  C   UNL A   1      39.665  36.953  40.671  1.00  0.00     0.202 C 
BRANCH   5   6
ATOM      6  C   UNL A   1      41.000  36.491  41.246  1.00  0.00     0.261 C 
BRANCH   6   7
ATOM      7  O   UNL A   1      41.789  35.810  40.262  1.00  0.00    -0.460 OA
BRANCH   7   8
ATOM      8  C   UNL A   1      42.333  36.346  39.140  1.00  0.00     0.338 C 
ATOM      9  O   UNL A   1      42.854  37.458  39.218  1.00  0.00    -0.246 OA
BRANCH   8  10
ATOM     10  C   UNL A   1      42.377  35.655  37.811  1.00  0.00     0.060 A 
ATOM     11  C   UNL A   1      41.277  35.365  36.999  1.00  0.00     0.016 A 
ATOM     12  C   UNL A   1      43.653  35.341  37.315  1.00  0.00     0.016 A 
ATOM     13  C   UNL A   1      41.412  34.780  35.757  1.00  0.00     0.010 A 
ATOM     14  C   UNL A   1      43.807  34.745  36.062  1.00  0.00     0.010 A 
ATOM     15  C   UNL A   1      42.676  34.460  35.291  1.00  0.00    -0.014 A 
BRANCH  15  16
ATOM     16  C   UNL A   1      42.748  33.651  34.072  1.00  0.00     0.031 A 
ATOM     17  C   UNL A   1      42.639  32.172  34.236  1.00  0.00     0.074 A 
ATOM     18  C   UNL A   1      42.763  34.251  32.872  1.00  0.00     0.049 A 
ATOM     19  N   UNL A   1      42.858  31.226  33.370  1.00  0.00    -0.248 NA
ATOM     20  C   UNL A   1      42.216  31.692  35.566  1.00  0.00     0.031 C 
ATOM     21  C   UNL A   1      42.660  35.697  32.647  1.00  0.00     0.029 A 
ATOM     22  N   UNL A   1      42.858  33.723  31.615  1.00  0.00    -0.354 N 
ATOM     23  C   UNL A   1      42.672  30.042  34.068  1.00  0.00     0.074 A 
ATOM     24  C   UNL A   1      42.282  30.379  35.414  1.00  0.00     0.031 C 
ATOM     25  C   UNL A   1      42.719  35.940  31.327  1.00  0.00     0.029 A 
ATOM     26  C   UNL A   1      42.963  34.681  30.636  1.00  0.00     0.049 A 
ATOM     27  H   UNL A   1      42.853  32.756  31.431  1.00  0.00     0.167 HD
ATOM     28  C   UNL A   1      42.856  28.788  33.601  1.00  0.00     0.037 A 
ATOM     29  C   UNL A   1      43.309  34.536  29.345  1.00  0.00     0.037 A 
ATOM     30  C   UNL A   1      43.226  28.525  32.240  1.00  0.00     0.049 A 
ATOM     31  C   UNL A   1      43.617  33.136  28.874  1.00  0.00     0.074 A 
ATOM     32  C   UNL A   1      43.484  27.317  31.626  1.00  0.00     0.029 A 
ATOM     33  N   UNL A   1      43.390  29.516  31.277  1.00  0.00    -0.354 N 
ATOM     34  N   UNL A   1      43.530  32.005  29.538  1.00  0.00    -0.248 NA
ATOM     35  C   UNL A   1      44.099  32.990  27.499  1.00  0.00     0.031 C 
ATOM     36  C   UNL A   1      43.863  27.584  30.306  1.00  0.00     0.029 A 
ATOM     37  C   UNL A   1      43.783  28.952  30.081  1.00  0.00     0.049 A 
ATOM     38  H   UNL A   1      43.246  30.479  31.427  1.00  0.00     0.167 HD
ATOM     39  C   UNL A   1      43.937  31.012  28.662  1.00  0.00     0.074 A 
ATOM     40  C   UNL A   1      44.245  31.675  27.408  1.00  0.00     0.031 C 
ATOM     41  C   UNL A   1      44.061  29.676  28.863  1.00  0.00     0.037 A 
BRANCH  28  42
ATOM     42  C   UNL A   1      42.778  27.664  34.588  1.00  0.00     0.064 A 
ATOM     43  C   UNL A   1      43.862  27.282  35.390  1.00  0.00     0.173 A 
ATOM     44  C   UNL A   1      41.585  26.932  34.707  1.00  0.00     0.173 A 
ATOM     45  F   UNL A   1      45.036  27.923  35.288  1.00  0.00    -0.203 F 
ATOM     46  C   UNL A   1      43.762  26.198  36.260  1.00  0.00     0.198 A 
ATOM     47  C   UNL A   1      41.481  25.867  35.597  1.00  0.00     0.198 A 
ATOM     48  F   UNL A   1      40.524  27.243  33.949  1.00  0.00    -0.203 F 
ATOM     49  F   UNL A   1      44.829  25.816  36.977  1.00  0.00    -0.200 F 
ATOM     50  C   UNL A   1      42.571  25.496  36.367  1.00  0.00     0.200 A 
ATOM     51  F   UNL A   1      40.329  25.189  35.695  1.00  0.00    -0.200 F 
ATOM     52  F   UNL A   1      42.477  24.453  37.204  1.00  0.00    -0.200 F 
ENDBRANCH  28  42
BRANCH  29  53
ATOM     53  C   UNL A   1      43.499  35.723  28.467  1.00  0.00     0.064 A 
ATOM     54  C   UNL A   1      44.770  36.266  28.235  1.00  0.00     0.173 A 
ATOM     55  C   UNL A   1      42.403  36.370  27.868  1.00  0.00     0.173 A 
ATOM     56  F   UNL A   1      45.850  35.705  28.797  1.00  0.00    -0.203 F 
ATOM     57  C   UNL A   1      44.935  37.416  27.463  1.00  0.00     0.198 A 
ATOM     58  C   UNL A   1      42.572  37.497  27.067  1.00  0.00     0.198 A 
ATOM     59  F   UNL A   1      41.159  35.904  28.057  1.00  0.00    -0.203 F 
ATOM     60  F   UNL A   1      46.156  37.946  27.308  1.00  0.00    -0.200 F 
ATOM     61  C   UNL A   1      43.837  38.028  26.876  1.00  0.00     0.200 A 
ATOM     62  F   UNL A   1      41.509  38.075  26.491  1.00  0.00    -0.200 F 
ATOM     63  F   UNL A   1      43.996  39.136  26.140  1.00  0.00    -0.200 F 
ENDBRANCH  29  53
BRANCH  41  64
ATOM     64  C   UNL A   1      44.521  28.861  27.697  1.00  0.00     0.064 A 
ATOM     65  C   UNL A   1      45.869  28.516  27.536  1.00  0.00     0.173 A 
ATOM     66  C   UNL A   1      43.586  28.347  26.787  1.00  0.00     0.173 A 
ATOM     67  F   UNL A   1      46.796  29.001  28.375  1.00  0.00    -0.203 F 
ATOM     68  C   UNL A   1      46.269  27.691  26.492  1.00  0.00     0.198 A 
ATOM     69  C   UNL A   1      43.985  27.494  25.765  1.00  0.00     0.198 A 
ATOM     70  F   UNL A   1      42.284  28.645  26.912  1.00  0.00    -0.203 F 
ATOM     71  F   UNL A   1      47.566  27.399  26.331  1.00  0.00    -0.200 F 
ATOM     72  C   UNL A   1      45.325  27.170  25.616  1.00  0.00     0.200 A 
ATOM     73  F   UNL A   1      43.072  26.975  24.934  1.00  0.00    -0.200 F 
ATOM     74  F   UNL A   1      45.711  26.354  24.626  1.00  0.00    -0.200 F 
ENDBRANCH  41  64
ENDBRANCH  15  16
ENDBRANCH   8  10
ENDBRANCH   7   8
ENDBRANCH   6   7
ENDBRANCH   5   6
ENDBRANCH   4   5
ENDBRANCH   3   4
ENDBRANCH   2   3
ENDBRANCH   1   2
BRANCH   1  75
ATOM     75  C   UNL A   1      38.296  32.711  39.260  1.00  0.00     0.188 C 
BRANCH  75  76
ATOM     76  C   UNL A   1      37.311  32.081  38.253  1.00  0.00     0.188 C 
BRANCH  76  77
ATOM     77  O   UNL A   1      37.630  30.892  37.552  1.00  0.00    -0.376 OA
BRANCH  77  78
ATOM     78  C   UNL A   1      38.591  30.955  36.518  1.00  0.00     0.202 C 
BRANCH  78  79
ATOM     79  C   UNL A   1      38.094  30.951  35.061  1.00  0.00     0.261 C 
BRANCH  79  80
ATOM     80  O   UNL A   1      38.783  30.058  34.161  1.00  0.00    -0.463 OA
BRANCH  80  81
ATOM     81  C   UNL A   1      38.100  29.457  33.134  1.00  0.00     0.315 C 
ATOM     82  O   UNL A   1      37.404  28.456  33.251  1.00  0.00    -0.252 OA
BRANCH  81  83
ATOM     83  C   UNL A   1      38.375  30.205  31.825  1.00  0.00     0.166 C 
ATOM     84  C   UNL A   1      39.190  31.437  32.213  1.00  0.00     0.278 C 
ATOM     85  C   UNL A   1      39.117  29.565  30.581  1.00  0.00     0.038 C 
ATOM     86  N   UNL A   1      39.918  31.824  31.021  1.00  0.00    -0.330 N 
ATOM     87  C   UNL A   1      40.268  30.582  30.338  1.00  0.00     0.270 C 
ATOM     88  C   UNL A   1      39.653  28.123  30.742  1.00  0.00     0.014 C 
ATOM     89  C   UNL A   1      38.177  29.491  29.342  1.00  0.00     0.014 C 
ATOM     90  H   UNL A   1      40.784  32.308  31.263  1.00  0.00     0.348 HD
ATOM     91  C   UNL A   1      40.326  27.557  29.476  1.00  0.00     0.001 C 
ATOM     92  C   UNL A   1      38.845  29.028  28.050  1.00  0.00     0.001 C 
ATOM     93  C   UNL A   1      39.452  27.649  28.226  1.00  0.00     0.000 C 
BRANCH  86  94
ATOM     94  C   UNL A   1      39.419  32.969  30.253  1.00  0.00     0.299 C 
BRANCH  94  95
ATOM     95  C   UNL A   1      37.935  33.065  29.956  1.00  0.00     0.008 A 
ATOM     96  C   UNL A   1      37.406  32.700  28.707  1.00  0.00     0.011 A 
ATOM     97  C   UNL A   1      37.055  33.588  30.922  1.00  0.00     0.031 A 
ATOM     98  C   UNL A   1      36.076  32.990  28.379  1.00  0.00     0.022 A 
ATOM     99  C   UNL A   1      35.715  33.861  30.604  1.00  0.00     0.060 A 
ATOM    100  C   UNL A   1      35.236  33.594  29.317  1.00  0.00     0.059 A 
ATOM    101  Cl  UNL A   1      34.739  34.611  31.817  1.00  0.00    -0.083 Cl
ATOM    102  Cl  UNL A   1      33.649  34.047  28.804  1.00  0.00    -0.083 Cl
ENDBRANCH  94  95
ENDBRANCH  86  94
ENDBRANCH  81  83
ENDBRANCH  80  81
ENDBRANCH  79  80
ENDBRANCH  78  79
ENDBRANCH  77  78
ENDBRANCH  76  77
ENDBRANCH  75  76
ENDBRANCH   1  75
TORSDOF 22
ENDMDL
