MODEL 1
REMARK VINA RESULT:     -11.1      0.000      0.000
REMARK SMILES O=C(OCCOCCOCCOCCOC(=O)[C@@H]1CN(c2nc(-c3ccccc3)no2)CC[NH2+]1)c1ccc(-c2c3nc(c(-c4c(F)c(F)c(F)c(F)c4F)c4ccc([nH]4)c(-c4c(F)c(F)c(F)c(F)c4F)c4nc(c(-c5c(F)c(F)c(F)c(F)c5F)c5ccc2[nH]5)C=C4)C=C3)cc1
REMARK SMILES IDX 9 1 8 2 7 3 6 4 5 5 4 6 3 7 2 8 1 9 35 10 36 11 97 12 37 13
REMARK SMILES IDX 96 14 38 15 39 16 40 17 90 18 41 19 95 20 89 21 91 22 42 23
REMARK SMILES IDX 94 24 88 25 87 26 43 28 75 29 55 30 74 31 56 32 59 33 73 34
REMARK SMILES IDX 92 35 57 36 58 37 72 39 93 40 60 41 44 42 45 43 53 44 46 45
REMARK SMILES IDX 47 46 51 47 54 48 48 49 49 50 52 51 50 52 76 53 77 54 85 55
REMARK SMILES IDX 78 56 79 57 83 58 86 59 80 60 81 61 84 62 82 63 61 64 62 65
REMARK SMILES IDX 70 66 63 67 64 68 68 69 71 70 65 71 66 72 69 73 67 74 10 75
REMARK SMILES IDX 11 76 12 77 13 78 14 79 15 80 16 81 17 82 18 83 19 84 34 85
REMARK SMILES IDX 20 86 33 87 32 90 21 91 22 92 31 93 23 94 30 95 24 96 25 97
REMARK SMILES IDX 29 98 26 99 28 100 27 101
REMARK H PARENT 91 27 59 38 34 88 34 89
REMARK Flexibility Score: inf
ROOT
ATOM      1  O   UNL A   1      33.919  28.172  23.743  1.00  0.00    -0.377 OA
ENDROOT
BRANCH   1   2
ATOM      2  C   UNL A   1      33.021  29.014  24.459  1.00  0.00     0.188 C 
BRANCH   2   3
ATOM      3  C   UNL A   1      33.395  29.214  25.920  1.00  0.00     0.188 C 
BRANCH   3   4
ATOM      4  O   UNL A   1      33.144  30.570  26.266  1.00  0.00    -0.376 OA
BRANCH   4   5
ATOM      5  C   UNL A   1      31.778  30.901  26.481  1.00  0.00     0.202 C 
BRANCH   5   6
ATOM      6  C   UNL A   1      31.575  32.342  26.942  1.00  0.00     0.261 C 
BRANCH   6   7
ATOM      7  O   UNL A   1      32.794  33.106  26.932  1.00  0.00    -0.460 OA
BRANCH   7   8
ATOM      8  C   UNL A   1      33.525  33.506  28.002  1.00  0.00     0.338 C 
ATOM      9  O   UNL A   1      33.139  34.479  28.657  1.00  0.00    -0.246 OA
BRANCH   8  10
ATOM     10  C   UNL A   1      34.753  32.802  28.474  1.00  0.00     0.060 A 
ATOM     11  C   UNL A   1      34.779  31.484  28.925  1.00  0.00     0.016 A 
ATOM     12  C   UNL A   1      35.977  33.484  28.384  1.00  0.00     0.016 A 
ATOM     13  C   UNL A   1      35.941  30.888  29.380  1.00  0.00     0.010 A 
ATOM     14  C   UNL A   1      37.170  32.876  28.795  1.00  0.00     0.010 A 
ATOM     15  C   UNL A   1      37.143  31.584  29.333  1.00  0.00    -0.014 A 
BRANCH  15  16
ATOM     16  C   UNL A   1      38.284  30.980  30.043  1.00  0.00     0.031 A 
ATOM     17  C   UNL A   1      38.436  31.288  31.501  1.00  0.00     0.074 A 
ATOM     18  C   UNL A   1      39.012  30.017  29.445  1.00  0.00     0.049 A 
ATOM     19  N   UNL A   1      39.354  30.900  32.342  1.00  0.00    -0.248 NA
ATOM     20  C   UNL A   1      37.390  32.134  32.103  1.00  0.00     0.031 C 
ATOM     21  C   UNL A   1      38.809  29.534  28.077  1.00  0.00     0.029 A 
ATOM     22  N   UNL A   1      40.025  29.234  29.927  1.00  0.00    -0.354 N 
ATOM     23  C   UNL A   1      39.015  31.478  33.557  1.00  0.00     0.074 A 
ATOM     24  C   UNL A   1      37.810  32.248  33.351  1.00  0.00     0.031 C 
ATOM     25  C   UNL A   1      39.651  28.515  27.842  1.00  0.00     0.029 A 
ATOM     26  C   UNL A   1      40.503  28.330  29.009  1.00  0.00     0.049 A 
ATOM     27  H   UNL A   1      40.378  29.311  30.843  1.00  0.00     0.167 HD
ATOM     28  C   UNL A   1      39.663  31.372  34.739  1.00  0.00     0.037 A 
ATOM     29  C   UNL A   1      41.543  27.479  29.104  1.00  0.00     0.037 A 
ATOM     30  C   UNL A   1      40.857  30.594  34.907  1.00  0.00     0.049 A 
ATOM     31  C   UNL A   1      42.315  27.464  30.397  1.00  0.00     0.074 A 
ATOM     32  C   UNL A   1      41.691  30.502  36.004  1.00  0.00     0.029 A 
ATOM     33  N   UNL A   1      41.379  29.757  33.929  1.00  0.00    -0.354 N 
ATOM     34  N   UNL A   1      42.075  28.119  31.511  1.00  0.00    -0.248 NA
ATOM     35  C   UNL A   1      43.510  26.615  30.445  1.00  0.00     0.031 C 
ATOM     36  C   UNL A   1      42.735  29.628  35.678  1.00  0.00     0.029 A 
ATOM     37  C   UNL A   1      42.526  29.142  34.394  1.00  0.00     0.049 A 
ATOM     38  H   UNL A   1      40.989  29.619  33.036  1.00  0.00     0.167 HD
ATOM     39  C   UNL A   1      43.083  27.759  32.391  1.00  0.00     0.074 A 
ATOM     40  C   UNL A   1      43.919  26.801  31.692  1.00  0.00     0.031 C 
ATOM     41  C   UNL A   1      43.316  28.188  33.657  1.00  0.00     0.037 A 
BRANCH  28  42
ATOM     42  C   UNL A   1      39.123  32.177  35.882  1.00  0.00     0.064 A 
ATOM     43  C   UNL A   1      39.530  33.499  36.115  1.00  0.00     0.173 A 
ATOM     44  C   UNL A   1      38.232  31.593  36.796  1.00  0.00     0.173 A 
ATOM     45  F   UNL A   1      40.411  34.090  35.294  1.00  0.00    -0.203 F 
ATOM     46  C   UNL A   1      39.087  34.197  37.238  1.00  0.00     0.198 A 
ATOM     47  C   UNL A   1      37.774  32.302  37.904  1.00  0.00     0.198 A 
ATOM     48  F   UNL A   1      37.825  30.326  36.626  1.00  0.00    -0.203 F 
ATOM     49  F   UNL A   1      39.539  35.436  37.476  1.00  0.00    -0.200 F 
ATOM     50  C   UNL A   1      38.208  33.599  38.129  1.00  0.00     0.200 A 
ATOM     51  F   UNL A   1      36.928  31.721  38.765  1.00  0.00    -0.200 F 
ATOM     52  F   UNL A   1      37.796  34.266  39.216  1.00  0.00    -0.200 F 
ENDBRANCH  28  42
BRANCH  29  53
ATOM     53  C   UNL A   1      41.956  26.652  27.937  1.00  0.00     0.064 A 
ATOM     54  C   UNL A   1      42.899  27.108  27.006  1.00  0.00     0.173 A 
ATOM     55  C   UNL A   1      41.387  25.386  27.711  1.00  0.00     0.173 A 
ATOM     56  F   UNL A   1      43.459  28.318  27.158  1.00  0.00    -0.203 F 
ATOM     57  C   UNL A   1      43.240  26.345  25.888  1.00  0.00     0.198 A 
ATOM     58  C   UNL A   1      41.754  24.610  26.614  1.00  0.00     0.198 A 
ATOM     59  F   UNL A   1      40.473  24.897  28.562  1.00  0.00    -0.203 F 
ATOM     60  F   UNL A   1      44.103  26.831  24.986  1.00  0.00    -0.200 F 
ATOM     61  C   UNL A   1      42.673  25.094  25.696  1.00  0.00     0.200 A 
ATOM     62  F   UNL A   1      41.212  23.396  26.443  1.00  0.00    -0.200 F 
ATOM     63  F   UNL A   1      43.000  24.363  24.623  1.00  0.00    -0.200 F 
ENDBRANCH  29  53
BRANCH  41  64
ATOM     64  C   UNL A   1      44.501  27.600  34.357  1.00  0.00     0.064 A 
ATOM     65  C   UNL A   1      45.757  28.223  34.313  1.00  0.00     0.173 A 
ATOM     66  C   UNL A   1      44.366  26.426  35.111  1.00  0.00     0.173 A 
ATOM     67  F   UNL A   1      45.933  29.339  33.592  1.00  0.00    -0.203 F 
ATOM     68  C   UNL A   1      46.844  27.673  34.983  1.00  0.00     0.198 A 
ATOM     69  C   UNL A   1      45.450  25.897  35.802  1.00  0.00     0.198 A 
ATOM     70  F   UNL A   1      43.180  25.802  35.185  1.00  0.00    -0.203 F 
ATOM     71  F   UNL A   1      48.048  28.257  34.892  1.00  0.00    -0.200 F 
ATOM     72  C   UNL A   1      46.688  26.516  35.732  1.00  0.00     0.200 A 
ATOM     73  F   UNL A   1      45.295  24.785  36.534  1.00  0.00    -0.200 F 
ATOM     74  F   UNL A   1      47.736  25.992  36.381  1.00  0.00    -0.200 F 
ENDBRANCH  41  64
ENDBRANCH  15  16
ENDBRANCH   8  10
ENDBRANCH   7   8
ENDBRANCH   6   7
ENDBRANCH   5   6
ENDBRANCH   4   5
ENDBRANCH   3   4
ENDBRANCH   2   3
ENDBRANCH   1   2
BRANCH   1  75
ATOM     75  C   UNL A   1      33.630  27.856  22.377  1.00  0.00     0.188 C 
BRANCH  75  76
ATOM     76  C   UNL A   1      33.085  26.456  22.050  1.00  0.00     0.188 C 
BRANCH  76  77
ATOM     77  O   UNL A   1      31.745  26.453  21.612  1.00  0.00    -0.376 OA
BRANCH  77  78
ATOM     78  C   UNL A   1      30.772  27.143  22.386  1.00  0.00     0.202 C 
BRANCH  78  79
ATOM     79  C   UNL A   1      29.957  26.503  23.536  1.00  0.00     0.261 C 
BRANCH  79  80
ATOM     80  O   UNL A   1      30.396  26.759  24.879  1.00  0.00    -0.459 OA
BRANCH  80  81
ATOM     81  C   UNL A   1      30.484  25.676  25.702  1.00  0.00     0.366 C 
ATOM     82  O   UNL A   1      29.607  25.366  26.514  1.00  0.00    -0.245 OA
BRANCH  81  83
ATOM     83  C   UNL A   1      31.761  24.840  25.547  1.00  0.00     0.313 C 
ATOM     84  C   UNL A   1      31.763  23.749  26.626  1.00  0.00     0.199 C 
ATOM     85  N   UNL A   1      33.014  25.631  25.579  1.00  0.00    -0.332 N 
ATOM     86  N   UNL A   1      32.966  22.915  26.514  1.00  0.00    -0.312 N 
ATOM     87  C   UNL A   1      34.199  24.777  25.462  1.00  0.00     0.283 C 
ATOM     88  H   UNL A   1      33.062  26.139  26.463  1.00  0.00     0.347 HD
ATOM     89  H   UNL A   1      33.006  26.273  24.787  1.00  0.00     0.347 HD
ATOM     90  C   UNL A   1      34.244  23.635  26.501  1.00  0.00     0.183 C 
BRANCH  86  91
ATOM     91  C   UNL A   1      32.871  21.737  25.861  1.00  0.00     0.324 A 
ATOM     92  N   UNL A   1      33.461  20.597  26.123  1.00  0.00    -0.171 NA
ATOM     93  O   UNL A   1      32.075  21.684  24.751  1.00  0.00    -0.315 OA
ATOM     94  C   UNL A   1      32.977  19.781  25.131  1.00  0.00     0.204 A 
ATOM     95  N   UNL A   1      32.153  20.382  24.262  1.00  0.00    -0.055 NA
BRANCH  94  96
ATOM     96  C   UNL A   1      33.295  18.373  25.057  1.00  0.00     0.023 A 
ATOM     97  C   UNL A   1      32.526  17.438  25.758  1.00  0.00     0.012 A 
ATOM     98  C   UNL A   1      34.405  17.948  24.317  1.00  0.00     0.012 A 
ATOM     99  C   UNL A   1      32.883  16.089  25.739  1.00  0.00     0.001 A 
ATOM    100  C   UNL A   1      34.757  16.598  24.297  1.00  0.00     0.001 A 
ATOM    101  C   UNL A   1      34.000  15.671  25.013  1.00  0.00     0.000 A 
ENDBRANCH  94  96
ENDBRANCH  86  91
ENDBRANCH  81  83
ENDBRANCH  80  81
ENDBRANCH  79  80
ENDBRANCH  78  79
ENDBRANCH  77  78
ENDBRANCH  76  77
ENDBRANCH  75  76
ENDBRANCH   1  75
TORSDOF 22
ENDMDL
MODEL 2
REMARK VINA RESULT:     -11.0      1.090      7.188
REMARK SMILES O=C(OCCOCCOCCOCCOC(=O)[C@@H]1CN(c2nc(-c3ccccc3)no2)CC[NH2+]1)c1ccc(-c2c3nc(c(-c4c(F)c(F)c(F)c(F)c4F)c4ccc([nH]4)c(-c4c(F)c(F)c(F)c(F)c4F)c4nc(c(-c5c(F)c(F)c(F)c(F)c5F)c5ccc2[nH]5)C=C4)C=C3)cc1
REMARK SMILES IDX 9 1 8 2 7 3 6 4 5 5 4 6 3 7 2 8 1 9 35 10 36 11 97 12 37 13
REMARK SMILES IDX 96 14 38 15 39 16 40 17 90 18 41 19 95 20 89 21 91 22 42 23
REMARK SMILES IDX 94 24 88 25 87 26 43 28 75 29 55 30 74 31 56 32 59 33 73 34
REMARK SMILES IDX 92 35 57 36 58 37 72 39 93 40 60 41 44 42 45 43 53 44 46 45
REMARK SMILES IDX 47 46 51 47 54 48 48 49 49 50 52 51 50 52 76 53 77 54 85 55
REMARK SMILES IDX 78 56 79 57 83 58 86 59 80 60 81 61 84 62 82 63 61 64 62 65
REMARK SMILES IDX 70 66 63 67 64 68 68 69 71 70 65 71 66 72 69 73 67 74 10 75
REMARK SMILES IDX 11 76 12 77 13 78 14 79 15 80 16 81 17 82 18 83 19 84 34 85
REMARK SMILES IDX 20 86 33 87 32 90 21 91 22 92 31 93 23 94 30 95 24 96 25 97
REMARK SMILES IDX 29 98 26 99 28 100 27 101
REMARK H PARENT 91 27 59 38 34 88 34 89
REMARK Flexibility Score: inf
ROOT
ATOM      1  O   UNL A   1      31.964  28.686  22.290  1.00  0.00    -0.377 OA
ENDROOT
BRANCH   1   2
ATOM      2  C   UNL A   1      33.283  28.364  22.719  1.00  0.00     0.188 C 
BRANCH   2   3
ATOM      3  C   UNL A   1      33.548  28.673  24.185  1.00  0.00     0.188 C 
BRANCH   3   4
ATOM      4  O   UNL A   1      32.514  29.528  24.657  1.00  0.00    -0.376 OA
BRANCH   4   5
ATOM      5  C   UNL A   1      31.901  29.126  25.876  1.00  0.00     0.202 C 
BRANCH   5   6
ATOM      6  C   UNL A   1      31.884  30.230  26.932  1.00  0.00     0.261 C 
BRANCH   6   7
ATOM      7  O   UNL A   1      32.727  31.343  26.585  1.00  0.00    -0.460 OA
BRANCH   7   8
ATOM      8  C   UNL A   1      33.519  32.066  27.416  1.00  0.00     0.338 C 
ATOM      9  O   UNL A   1      33.187  33.221  27.699  1.00  0.00    -0.246 OA
BRANCH   8  10
ATOM     10  C   UNL A   1      34.754  31.528  28.056  1.00  0.00     0.060 A 
ATOM     11  C   UNL A   1      34.925  30.201  28.443  1.00  0.00     0.016 A 
ATOM     12  C   UNL A   1      35.847  32.397  28.208  1.00  0.00     0.016 A 
ATOM     13  C   UNL A   1      36.081  29.761  29.061  1.00  0.00     0.010 A 
ATOM     14  C   UNL A   1      37.042  31.953  28.788  1.00  0.00     0.010 A 
ATOM     15  C   UNL A   1      37.143  30.636  29.252  1.00  0.00    -0.014 A 
BRANCH  15  16
ATOM     16  C   UNL A   1      38.240  30.165  30.117  1.00  0.00     0.031 A 
ATOM     17  C   UNL A   1      39.294  29.302  29.493  1.00  0.00     0.074 A 
ATOM     18  C   UNL A   1      38.393  30.687  31.349  1.00  0.00     0.049 A 
ATOM     19  N   UNL A   1      40.344  28.750  30.035  1.00  0.00    -0.248 NA
ATOM     20  C   UNL A   1      39.157  29.045  28.048  1.00  0.00     0.031 C 
ATOM     21  C   UNL A   1      37.500  31.673  31.964  1.00  0.00     0.029 A 
ATOM     22  N   UNL A   1      39.380  30.507  32.280  1.00  0.00    -0.354 N 
ATOM     23  C   UNL A   1      40.972  28.058  29.008  1.00  0.00     0.074 A 
ATOM     24  C   UNL A   1      40.188  28.252  27.810  1.00  0.00     0.031 C 
ATOM     25  C   UNL A   1      38.000  32.034  33.157  1.00  0.00     0.029 A 
ATOM     26  C   UNL A   1      39.197  31.247  33.423  1.00  0.00     0.049 A 
ATOM     27  H   UNL A   1      40.146  29.904  32.144  1.00  0.00     0.167 HD
ATOM     28  C   UNL A   1      42.105  27.323  29.071  1.00  0.00     0.037 A 
ATOM     29  C   UNL A   1      39.906  31.247  34.567  1.00  0.00     0.037 A 
ATOM     30  C   UNL A   1      42.860  27.155  30.280  1.00  0.00     0.049 A 
ATOM     31  C   UNL A   1      41.101  30.334  34.647  1.00  0.00     0.074 A 
ATOM     32  C   UNL A   1      43.945  26.337  30.524  1.00  0.00     0.029 A 
ATOM     33  N   UNL A   1      42.598  27.845  31.457  1.00  0.00    -0.354 N 
ATOM     34  N   UNL A   1      41.619  29.568  33.713  1.00  0.00    -0.248 NA
ATOM     35  C   UNL A   1      41.796  30.263  35.936  1.00  0.00     0.031 C 
ATOM     36  C   UNL A   1      44.323  26.512  31.861  1.00  0.00     0.029 A 
ATOM     37  C   UNL A   1      43.500  27.472  32.436  1.00  0.00     0.049 A 
ATOM     38  H   UNL A   1      41.877  28.504  31.578  1.00  0.00     0.167 HD
ATOM     39  C   UNL A   1      42.701  28.929  34.299  1.00  0.00     0.074 A 
ATOM     40  C   UNL A   1      42.785  29.424  35.660  1.00  0.00     0.031 C 
ATOM     41  C   UNL A   1      43.544  28.005  33.774  1.00  0.00     0.037 A 
BRANCH  28  42
ATOM     42  C   UNL A   1      42.517  26.606  27.822  1.00  0.00     0.064 A 
ATOM     43  C   UNL A   1      42.041  25.322  27.512  1.00  0.00     0.173 A 
ATOM     44  C   UNL A   1      43.453  27.186  26.952  1.00  0.00     0.173 A 
ATOM     45  F   UNL A   1      41.175  24.707  28.332  1.00  0.00    -0.203 F 
ATOM     46  C   UNL A   1      42.510  24.635  26.395  1.00  0.00     0.198 A 
ATOM     47  C   UNL A   1      43.902  26.505  25.823  1.00  0.00     0.198 A 
ATOM     48  F   UNL A   1      43.951  28.404  27.212  1.00  0.00    -0.203 F 
ATOM     49  F   UNL A   1      42.092  23.385  26.153  1.00  0.00    -0.200 F 
ATOM     50  C   UNL A   1      43.438  25.228  25.550  1.00  0.00     0.200 A 
ATOM     51  F   UNL A   1      44.800  27.078  25.011  1.00  0.00    -0.200 F 
ATOM     52  F   UNL A   1      43.899  24.560  24.483  1.00  0.00    -0.200 F 
ENDBRANCH  28  42
BRANCH  29  53
ATOM     53  C   UNL A   1      39.466  32.063  35.733  1.00  0.00     0.064 A 
ATOM     54  C   UNL A   1      39.991  33.339  35.980  1.00  0.00     0.173 A 
ATOM     55  C   UNL A   1      38.524  31.565  36.649  1.00  0.00     0.173 A 
ATOM     56  F   UNL A   1      40.911  33.857  35.152  1.00  0.00    -0.203 F 
ATOM     57  C   UNL A   1      39.609  34.072  37.105  1.00  0.00     0.198 A 
ATOM     58  C   UNL A   1      38.117  32.313  37.752  1.00  0.00     0.198 A 
ATOM     59  F   UNL A   1      37.991  30.347  36.471  1.00  0.00    -0.203 F 
ATOM     60  F   UNL A   1      40.170  35.266  37.345  1.00  0.00    -0.200 F 
ATOM     61  C   UNL A   1      38.668  33.562  37.986  1.00  0.00     0.200 A 
ATOM     62  F   UNL A   1      37.196  31.818  38.591  1.00  0.00    -0.200 F 
ATOM     63  F   UNL A   1      38.304  34.266  39.065  1.00  0.00    -0.200 F 
ENDBRANCH  29  53
BRANCH  41  64
ATOM     64  C   UNL A   1      44.631  27.501  34.672  1.00  0.00     0.064 A 
ATOM     65  C   UNL A   1      45.858  28.171  34.778  1.00  0.00     0.173 A 
ATOM     66  C   UNL A   1      44.423  26.363  35.462  1.00  0.00     0.173 A 
ATOM     67  F   UNL A   1      46.103  29.256  34.028  1.00  0.00    -0.203 F 
ATOM     68  C   UNL A   1      46.851  27.701  35.629  1.00  0.00     0.198 A 
ATOM     69  C   UNL A   1      45.409  25.913  36.333  1.00  0.00     0.198 A 
ATOM     70  F   UNL A   1      43.260  25.696  35.397  1.00  0.00    -0.203 F 
ATOM     71  F   UNL A   1      48.036  28.327  35.683  1.00  0.00    -0.200 F 
ATOM     72  C   UNL A   1      46.623  26.577  36.411  1.00  0.00     0.200 A 
ATOM     73  F   UNL A   1      45.184  24.835  37.097  1.00  0.00    -0.200 F 
ATOM     74  F   UNL A   1      47.580  26.130  37.235  1.00  0.00    -0.200 F 
ENDBRANCH  41  64
ENDBRANCH  15  16
ENDBRANCH   8  10
ENDBRANCH   7   8
ENDBRANCH   6   7
ENDBRANCH   5   6
ENDBRANCH   4   5
ENDBRANCH   3   4
ENDBRANCH   2   3
ENDBRANCH   1   2
BRANCH   1  75
ATOM     75  C   UNL A   1      30.932  27.707  22.435  1.00  0.00     0.188 C 
BRANCH  75  76
ATOM     76  C   UNL A   1      31.323  26.220  22.389  1.00  0.00     0.188 C 
BRANCH  76  77
ATOM     77  O   UNL A   1      30.685  25.432  23.369  1.00  0.00    -0.376 OA
BRANCH  77  78
ATOM     78  C   UNL A   1      29.791  26.062  24.276  1.00  0.00     0.202 C 
BRANCH  78  79
ATOM     79  C   UNL A   1      29.634  25.669  25.765  1.00  0.00     0.261 C 
BRANCH  79  80
ATOM     80  O   UNL A   1      30.826  25.627  26.566  1.00  0.00    -0.459 OA
BRANCH  80  81
ATOM     81  C   UNL A   1      31.384  24.398  26.752  1.00  0.00     0.366 C 
ATOM     82  O   UNL A   1      30.901  23.537  27.495  1.00  0.00    -0.245 OA
BRANCH  81  83
ATOM     83  C   UNL A   1      32.670  24.138  25.959  1.00  0.00     0.313 C 
ATOM     84  C   UNL A   1      33.687  23.462  26.888  1.00  0.00     0.199 C 
ATOM     85  N   UNL A   1      33.246  25.345  25.320  1.00  0.00    -0.332 N 
ATOM     86  N   UNL A   1      34.938  23.185  26.170  1.00  0.00    -0.312 N 
ATOM     87  C   UNL A   1      34.490  25.042  24.607  1.00  0.00     0.283 C 
ATOM     88  H   UNL A   1      33.442  26.040  26.041  1.00  0.00     0.347 HD
ATOM     89  H   UNL A   1      32.571  25.700  24.643  1.00  0.00     0.347 HD
ATOM     90  C   UNL A   1      35.545  24.328  25.480  1.00  0.00     0.183 C 
BRANCH  86  91
ATOM     91  C   UNL A   1      35.133  21.944  25.677  1.00  0.00     0.324 A 
ATOM     92  N   UNL A   1      34.263  20.981  25.488  1.00  0.00    -0.171 NA
ATOM     93  O   UNL A   1      36.407  21.586  25.332  1.00  0.00    -0.315 OA
ATOM     94  C   UNL A   1      35.042  19.979  24.967  1.00  0.00     0.204 A 
ATOM     95  N   UNL A   1      36.345  20.275  24.866  1.00  0.00    -0.055 NA
BRANCH  94  96
ATOM     96  C   UNL A   1      34.492  18.719  24.519  1.00  0.00     0.023 A 
ATOM     97  C   UNL A   1      35.155  17.520  24.798  1.00  0.00     0.012 A 
ATOM     98  C   UNL A   1      33.313  18.705  23.763  1.00  0.00     0.012 A 
ATOM     99  C   UNL A   1      34.654  16.316  24.301  1.00  0.00     0.001 A 
ATOM    100  C   UNL A   1      32.813  17.499  23.271  1.00  0.00     0.001 A 
ATOM    101  C   UNL A   1      33.487  16.307  23.534  1.00  0.00     0.000 A 
ENDBRANCH  94  96
ENDBRANCH  86  91
ENDBRANCH  81  83
ENDBRANCH  80  81
ENDBRANCH  79  80
ENDBRANCH  78  79
ENDBRANCH  77  78
ENDBRANCH  76  77
ENDBRANCH  75  76
ENDBRANCH   1  75
TORSDOF 22
ENDMDL
MODEL 3
REMARK VINA RESULT:     -10.8      1.963      7.709
REMARK SMILES O=C(OCCOCCOCCOCCOC(=O)[C@@H]1CN(c2nc(-c3ccccc3)no2)CC[NH2+]1)c1ccc(-c2c3nc(c(-c4c(F)c(F)c(F)c(F)c4F)c4ccc([nH]4)c(-c4c(F)c(F)c(F)c(F)c4F)c4nc(c(-c5c(F)c(F)c(F)c(F)c5F)c5ccc2[nH]5)C=C4)C=C3)cc1
REMARK SMILES IDX 9 1 8 2 7 3 6 4 5 5 4 6 3 7 2 8 1 9 35 10 36 11 97 12 37 13
REMARK SMILES IDX 96 14 38 15 39 16 40 17 90 18 41 19 95 20 89 21 91 22 42 23
REMARK SMILES IDX 94 24 88 25 87 26 43 28 75 29 55 30 74 31 56 32 59 33 73 34
REMARK SMILES IDX 92 35 57 36 58 37 72 39 93 40 60 41 44 42 45 43 53 44 46 45
REMARK SMILES IDX 47 46 51 47 54 48 48 49 49 50 52 51 50 52 76 53 77 54 85 55
REMARK SMILES IDX 78 56 79 57 83 58 86 59 80 60 81 61 84 62 82 63 61 64 62 65
REMARK SMILES IDX 70 66 63 67 64 68 68 69 71 70 65 71 66 72 69 73 67 74 10 75
REMARK SMILES IDX 11 76 12 77 13 78 14 79 15 80 16 81 17 82 18 83 19 84 34 85
REMARK SMILES IDX 20 86 33 87 32 90 21 91 22 92 31 93 23 94 30 95 24 96 25 97
REMARK SMILES IDX 29 98 26 99 28 100 27 101
REMARK H PARENT 91 27 59 38 34 88 34 89
REMARK Flexibility Score: inf
ROOT
ATOM      1  O   UNL A   1      32.084  28.369  22.327  1.00  0.00    -0.377 OA
ENDROOT
BRANCH   1   2
ATOM      2  C   UNL A   1      33.260  27.845  22.936  1.00  0.00     0.188 C 
BRANCH   2   3
ATOM      3  C   UNL A   1      33.442  28.264  24.387  1.00  0.00     0.188 C 
BRANCH   3   4
ATOM      4  O   UNL A   1      32.471  29.257  24.693  1.00  0.00    -0.376 OA
BRANCH   4   5
ATOM      5  C   UNL A   1      31.783  29.077  25.924  1.00  0.00     0.202 C 
BRANCH   5   6
ATOM      6  C   UNL A   1      31.954  30.252  26.885  1.00  0.00     0.261 C 
BRANCH   6   7
ATOM      7  O   UNL A   1      33.138  31.023  26.615  1.00  0.00    -0.460 OA
BRANCH   7   8
ATOM      8  C   UNL A   1      33.853  31.769  27.493  1.00  0.00     0.338 C 
ATOM      9  O   UNL A   1      33.438  32.891  27.797  1.00  0.00    -0.246 OA
BRANCH   8  10
ATOM     10  C   UNL A   1      35.099  31.291  28.161  1.00  0.00     0.060 A 
ATOM     11  C   UNL A   1      35.294  29.992  28.623  1.00  0.00     0.016 A 
ATOM     12  C   UNL A   1      36.176  32.187  28.261  1.00  0.00     0.016 A 
ATOM     13  C   UNL A   1      36.459  29.609  29.263  1.00  0.00     0.010 A 
ATOM     14  C   UNL A   1      37.379  31.799  28.863  1.00  0.00     0.010 A 
ATOM     15  C   UNL A   1      37.505  30.513  29.402  1.00  0.00    -0.014 A 
BRANCH  15  16
ATOM     16  C   UNL A   1      38.611  30.113  30.291  1.00  0.00     0.031 A 
ATOM     17  C   UNL A   1      39.726  29.312  29.692  1.00  0.00     0.074 A 
ATOM     18  C   UNL A   1      38.707  30.648  31.522  1.00  0.00     0.049 A 
ATOM     19  N   UNL A   1      40.797  28.827  30.257  1.00  0.00    -0.248 NA
ATOM     20  C   UNL A   1      39.634  29.040  28.246  1.00  0.00     0.031 C 
ATOM     21  C   UNL A   1      37.745  31.581  32.114  1.00  0.00     0.029 A 
ATOM     22  N   UNL A   1      39.685  30.532  32.473  1.00  0.00    -0.354 N 
ATOM     23  C   UNL A   1      41.485  28.169  29.246  1.00  0.00     0.074 A 
ATOM     24  C   UNL A   1      40.715  28.310  28.033  1.00  0.00     0.031 C 
ATOM     25  C   UNL A   1      38.199  31.977  33.314  1.00  0.00     0.029 A 
ATOM     26  C   UNL A   1      39.435  31.265  33.608  1.00  0.00     0.049 A 
ATOM     27  H   UNL A   1      40.489  29.976  32.355  1.00  0.00     0.167 HD
ATOM     28  C   UNL A   1      42.658  27.504  29.335  1.00  0.00     0.037 A 
ATOM     29  C   UNL A   1      40.121  31.313  34.766  1.00  0.00     0.037 A 
ATOM     30  C   UNL A   1      43.399  27.387  30.559  1.00  0.00     0.049 A 
ATOM     31  C   UNL A   1      41.367  30.473  34.874  1.00  0.00     0.074 A 
ATOM     32  C   UNL A   1      44.526  26.636  30.829  1.00  0.00     0.029 A 
ATOM     33  N   UNL A   1      43.073  28.065  31.728  1.00  0.00    -0.354 N 
ATOM     34  N   UNL A   1      41.948  29.736  33.955  1.00  0.00    -0.248 NA
ATOM     35  C   UNL A   1      42.040  30.451  36.177  1.00  0.00     0.031 C 
ATOM     36  C   UNL A   1      44.866  26.840  32.172  1.00  0.00     0.029 A 
ATOM     37  C   UNL A   1      43.977  27.751  32.725  1.00  0.00     0.049 A 
ATOM     38  H   UNL A   1      42.311  28.680  31.831  1.00  0.00     0.167 HD
ATOM     39  C   UNL A   1      43.054  29.166  34.564  1.00  0.00     0.074 A 
ATOM     40  C   UNL A   1      43.082  29.671  35.924  1.00  0.00     0.031 C 
ATOM     41  C   UNL A   1      43.962  28.291  34.061  1.00  0.00     0.037 A 
BRANCH  28  42
ATOM     42  C   UNL A   1      43.138  26.807  28.098  1.00  0.00     0.064 A 
ATOM     43  C   UNL A   1      42.978  25.424  27.917  1.00  0.00     0.173 A 
ATOM     44  C   UNL A   1      43.824  27.523  27.107  1.00  0.00     0.173 A 
ATOM     45  F   UNL A   1      42.364  24.686  28.854  1.00  0.00    -0.203 F 
ATOM     46  C   UNL A   1      43.515  24.782  26.803  1.00  0.00     0.198 A 
ATOM     47  C   UNL A   1      44.339  26.881  25.983  1.00  0.00     0.198 A 
ATOM     48  F   UNL A   1      44.017  28.844  27.240  1.00  0.00    -0.203 F 
ATOM     49  F   UNL A   1      43.407  23.451  26.681  1.00  0.00    -0.200 F 
ATOM     50  C   UNL A   1      44.192  25.511  25.836  1.00  0.00     0.200 A 
ATOM     51  F   UNL A   1      44.996  27.587  25.053  1.00  0.00    -0.200 F 
ATOM     52  F   UNL A   1      44.721  24.889  24.773  1.00  0.00    -0.200 F 
ENDBRANCH  28  42
BRANCH  29  53
ATOM     53  C   UNL A   1      39.610  32.106  35.919  1.00  0.00     0.064 A 
ATOM     54  C   UNL A   1      38.661  31.584  36.809  1.00  0.00     0.173 A 
ATOM     55  C   UNL A   1      40.044  33.424  36.138  1.00  0.00     0.173 A 
ATOM     56  F   UNL A   1      38.193  30.339  36.636  1.00  0.00    -0.203 F 
ATOM     57  C   UNL A   1      38.152  32.355  37.855  1.00  0.00     0.198 A 
ATOM     58  C   UNL A   1      39.562  34.181  37.204  1.00  0.00     0.198 A 
ATOM     59  F   UNL A   1      40.946  33.982  35.316  1.00  0.00    -0.203 F 
ATOM     60  F   UNL A   1      37.204  31.849  38.657  1.00  0.00    -0.200 F 
ATOM     61  C   UNL A   1      38.607  33.650  38.056  1.00  0.00     0.200 A 
ATOM     62  F   UNL A   1      40.017  35.426  37.400  1.00  0.00    -0.200 F 
ATOM     63  F   UNL A   1      38.117  34.389  39.060  1.00  0.00    -0.200 F 
ENDBRANCH  29  53
BRANCH  41  64
ATOM     64  C   UNL A   1      45.059  27.858  34.983  1.00  0.00     0.064 A 
ATOM     65  C   UNL A   1      45.010  26.623  35.645  1.00  0.00     0.173 A 
ATOM     66  C   UNL A   1      46.185  28.670  35.170  1.00  0.00     0.173 A 
ATOM     67  F   UNL A   1      43.944  25.822  35.505  1.00  0.00    -0.203 F 
ATOM     68  C   UNL A   1      46.045  26.228  36.485  1.00  0.00     0.198 A 
ATOM     69  C   UNL A   1      47.231  28.258  35.989  1.00  0.00     0.198 A 
ATOM     70  F   UNL A   1      46.276  29.857  34.550  1.00  0.00    -0.203 F 
ATOM     71  F   UNL A   1      45.961  25.065  37.146  1.00  0.00    -0.200 F 
ATOM     72  C   UNL A   1      47.157  27.042  36.650  1.00  0.00     0.200 A 
ATOM     73  F   UNL A   1      48.309  29.039  36.139  1.00  0.00    -0.200 F 
ATOM     74  F   UNL A   1      48.156  26.655  37.455  1.00  0.00    -0.200 F 
ENDBRANCH  41  64
ENDBRANCH  15  16
ENDBRANCH   8  10
ENDBRANCH   7   8
ENDBRANCH   6   7
ENDBRANCH   5   6
ENDBRANCH   4   5
ENDBRANCH   3   4
ENDBRANCH   2   3
ENDBRANCH   1   2
BRANCH   1  75
ATOM     75  C   UNL A   1      30.867  27.622  22.418  1.00  0.00     0.188 C 
BRANCH  75  76
ATOM     76  C   UNL A   1      30.948  26.087  22.390  1.00  0.00     0.188 C 
BRANCH  76  77
ATOM     77  O   UNL A   1      30.133  25.455  23.352  1.00  0.00    -0.376 OA
BRANCH  77  78
ATOM     78  C   UNL A   1      29.643  26.224  24.443  1.00  0.00     0.202 C 
BRANCH  78  79
ATOM     79  C   UNL A   1      29.779  25.817  25.930  1.00  0.00     0.261 C 
BRANCH  79  80
ATOM     80  O   UNL A   1      31.092  25.481  26.406  1.00  0.00    -0.459 OA
BRANCH  80  81
ATOM     81  C   UNL A   1      31.351  24.154  26.573  1.00  0.00     0.366 C 
ATOM     82  O   UNL A   1      30.981  23.507  27.557  1.00  0.00    -0.245 OA
BRANCH  81  83
ATOM     83  C   UNL A   1      32.140  23.495  25.434  1.00  0.00     0.313 C 
ATOM     84  C   UNL A   1      33.033  24.558  24.781  1.00  0.00     0.199 C 
ATOM     85  N   UNL A   1      31.297  22.808  24.427  1.00  0.00    -0.332 N 
ATOM     86  N   UNL A   1      33.817  23.973  23.687  1.00  0.00    -0.312 N 
ATOM     87  C   UNL A   1      32.102  22.229  23.348  1.00  0.00     0.283 C 
ATOM     88  H   UNL A   1      30.646  23.484  24.025  1.00  0.00     0.347 HD
ATOM     89  H   UNL A   1      30.799  22.051  24.892  1.00  0.00     0.347 HD
ATOM     90  C   UNL A   1      33.049  23.244  22.670  1.00  0.00     0.183 C 
BRANCH  86  91
ATOM     91  C   UNL A   1      35.090  23.602  23.936  1.00  0.00     0.324 A 
ATOM     92  N   UNL A   1      35.781  23.707  25.045  1.00  0.00    -0.171 NA
ATOM     93  O   UNL A   1      35.809  23.054  22.909  1.00  0.00    -0.315 OA
ATOM     94  C   UNL A   1      36.990  23.164  24.690  1.00  0.00     0.204 A 
ATOM     95  N   UNL A   1      37.076  22.770  23.413  1.00  0.00    -0.055 NA
BRANCH  94  96
ATOM     96  C   UNL A   1      38.071  22.988  25.635  1.00  0.00     0.023 A 
ATOM     97  C   UNL A   1      38.500  24.060  26.425  1.00  0.00     0.012 A 
ATOM     98  C   UNL A   1      38.720  21.750  25.727  1.00  0.00     0.012 A 
ATOM     99  C   UNL A   1      39.589  23.900  27.282  1.00  0.00     0.001 A 
ATOM    100  C   UNL A   1      39.806  21.593  26.588  1.00  0.00     0.001 A 
ATOM    101  C   UNL A   1      40.244  22.670  27.359  1.00  0.00     0.000 A 
ENDBRANCH  94  96
ENDBRANCH  86  91
ENDBRANCH  81  83
ENDBRANCH  80  81
ENDBRANCH  79  80
ENDBRANCH  78  79
ENDBRANCH  77  78
ENDBRANCH  76  77
ENDBRANCH  75  76
ENDBRANCH   1  75
TORSDOF 22
ENDMDL
