MODEL 1
REMARK VINA RESULT:     -10.5      0.000      0.000
REMARK SMILES COc1ccccc1-c1ccc(C(=O)OCCOCCOCCOCCOC(=O)c2ccc(-c3c4nc(c(-c5c(F)c(F)c(F)c(F)c5F)c5ccc([nH]5)c(-c5c(F)c(F)c(F)c(F)c5F)c5nc(c(-c6c(F)c(F)c(F)c(F)c6F)c6ccc3[nH]6)C=C5)C=C4)cc2)c(O)c1
REMARK SMILES IDX 21 1 20 2 19 3 18 4 17 5 16 6 15 7 13 8 14 9 12 10 9 11
REMARK SMILES IDX 10 12 95 13 11 14 93 15 8 16 3 17 4 18 5 19 7 20 6 21 2 22
REMARK SMILES IDX 1 23 94 24 22 26 23 27 24 28 25 29 26 30 27 31 28 32 29 33
REMARK SMILES IDX 30 34 31 35 92 36 32 37 91 38 33 39 34 40 35 41 85 42 36 43
REMARK SMILES IDX 90 44 84 45 86 46 37 47 89 48 83 49 82 50 38 52 70 53 50 54
REMARK SMILES IDX 69 55 51 56 54 57 68 58 87 59 52 60 53 61 67 63 88 64 55 65
REMARK SMILES IDX 39 66 40 67 48 68 41 69 42 70 46 71 49 72 43 73 44 74 47 75
REMARK SMILES IDX 45 76 71 77 72 78 80 79 73 80 74 81 78 82 81 83 75 84 76 85
REMARK SMILES IDX 79 86 77 87 56 88 57 89 65 90 58 91 59 92 63 93 66 94 60 95
REMARK SMILES IDX 61 96 64 97 62 98
REMARK H PARENT 94 25 86 51 54 62
REMARK Flexibility Score: inf
ROOT
ATOM      1  O   UNL A   1      35.160  24.050  25.502  1.00  0.00    -0.377 OA
ENDROOT
BRANCH   1   2
ATOM      2  C   UNL A   1      34.708  25.272  24.929  1.00  0.00     0.188 C 
BRANCH   2   3
ATOM      3  C   UNL A   1      33.611  26.123  25.617  1.00  0.00     0.188 C 
BRANCH   3   4
ATOM      4  O   UNL A   1      33.748  27.521  25.436  1.00  0.00    -0.376 OA
BRANCH   4   5
ATOM      5  C   UNL A   1      32.739  28.389  25.913  1.00  0.00     0.202 C 
BRANCH   5   6
ATOM      6  C   UNL A   1      31.625  28.827  24.952  1.00  0.00     0.261 C 
BRANCH   6   7
ATOM      7  O   UNL A   1      31.961  28.736  23.569  1.00  0.00    -0.460 OA
BRANCH   7   8
ATOM      8  C   UNL A   1      31.033  28.192  22.757  1.00  0.00     0.341 C 
ATOM      9  O   UNL A   1      30.291  28.796  21.999  1.00  0.00    -0.246 OA
BRANCH   8  10
ATOM     10  C   UNL A   1      31.208  26.723  22.728  1.00  0.00     0.101 A 
ATOM     11  C   UNL A   1      31.514  23.949  22.964  1.00  0.00    -0.011 A 
ATOM     12  C   UNL A   1      30.367  24.577  23.473  1.00  0.00     0.010 A 
ATOM     13  C   UNL A   1      32.419  24.700  22.194  1.00  0.00     0.056 A 
ATOM     14  C   UNL A   1      30.223  25.958  23.370  1.00  0.00     0.020 A 
ATOM     15  C   UNL A   1      32.276  26.084  22.090  1.00  0.00     0.130 A 
BRANCH  11  16
ATOM     16  C   UNL A   1      31.877  22.615  23.456  1.00  0.00     0.024 A 
ATOM     17  C   UNL A   1      31.931  22.346  24.843  1.00  0.00     0.126 A 
ATOM     18  C   UNL A   1      32.214  21.063  25.313  1.00  0.00     0.047 A 
ATOM     19  C   UNL A   1      32.425  20.021  24.412  1.00  0.00     0.004 A 
ATOM     20  C   UNL A   1      32.104  21.552  22.566  1.00  0.00     0.012 A 
ATOM     21  C   UNL A   1      32.376  20.265  23.041  1.00  0.00     0.001 A 
BRANCH  17  22
ATOM     22  O   UNL A   1      31.814  23.320  25.808  1.00  0.00    -0.496 OA
ATOM     23  C   UNL A   1      30.778  23.061  26.758  1.00  0.00     0.278 C 
ENDBRANCH  17  22
ENDBRANCH  11  16
BRANCH  15  24
ATOM     24  O   UNL A   1      33.235  26.802  21.433  1.00  0.00    -0.507 OA
ATOM     25  H   UNL A   1      33.119  27.722  21.297  1.00  0.00     0.293 HD
ENDBRANCH  15  24
ENDBRANCH   8  10
ENDBRANCH   7   8
ENDBRANCH   6   7
ENDBRANCH   5   6
ENDBRANCH   4   5
ENDBRANCH   3   4
ENDBRANCH   2   3
ENDBRANCH   1   2
BRANCH   1  26
ATOM     26  C   UNL A   1      36.216  23.328  24.878  1.00  0.00     0.188 C 
BRANCH  26  27
ATOM     27  C   UNL A   1      36.699  21.986  25.478  1.00  0.00     0.188 C 
BRANCH  27  28
ATOM     28  O   UNL A   1      37.579  21.256  24.642  1.00  0.00    -0.376 OA
BRANCH  28  29
ATOM     29  C   UNL A   1      37.856  19.911  24.984  1.00  0.00     0.202 C 
BRANCH  29  30
ATOM     30  C   UNL A   1      39.264  19.562  25.488  1.00  0.00     0.261 C 
BRANCH  30  31
ATOM     31  O   UNL A   1      39.640  20.090  26.768  1.00  0.00    -0.460 OA
BRANCH  31  32
ATOM     32  C   UNL A   1      40.952  20.298  27.000  1.00  0.00     0.338 C 
ATOM     33  O   UNL A   1      41.869  19.506  26.839  1.00  0.00    -0.246 OA
BRANCH  32  34
ATOM     34  C   UNL A   1      41.121  21.728  27.320  1.00  0.00     0.060 A 
ATOM     35  C   UNL A   1      40.377  22.687  26.618  1.00  0.00     0.016 A 
ATOM     36  C   UNL A   1      42.006  22.116  28.328  1.00  0.00     0.016 A 
ATOM     37  C   UNL A   1      40.541  24.043  26.905  1.00  0.00     0.010 A 
ATOM     38  C   UNL A   1      42.187  23.473  28.596  1.00  0.00     0.010 A 
ATOM     39  C   UNL A   1      41.480  24.444  27.863  1.00  0.00    -0.014 A 
BRANCH  39  40
ATOM     40  C   UNL A   1      41.883  25.866  27.961  1.00  0.00     0.031 A 
ATOM     41  C   UNL A   1      43.214  26.265  27.386  1.00  0.00     0.074 A 
ATOM     42  C   UNL A   1      41.097  26.782  28.551  1.00  0.00     0.049 A 
ATOM     43  N   UNL A   1      43.834  27.415  27.434  1.00  0.00    -0.248 NA
ATOM     44  C   UNL A   1      43.947  25.214  26.663  1.00  0.00     0.031 C 
ATOM     45  C   UNL A   1      39.769  26.528  29.105  1.00  0.00     0.029 A 
ATOM     46  N   UNL A   1      41.317  28.115  28.797  1.00  0.00    -0.354 N 
ATOM     47  C   UNL A   1      45.033  27.222  26.762  1.00  0.00     0.074 A 
ATOM     48  C   UNL A   1      45.069  25.838  26.342  1.00  0.00     0.031 C 
ATOM     49  C   UNL A   1      39.299  27.666  29.644  1.00  0.00     0.029 A 
ATOM     50  C   UNL A   1      40.309  28.715  29.510  1.00  0.00     0.049 A 
ATOM     51  H   UNL A   1      42.121  28.595  28.492  1.00  0.00     0.167 HD
ATOM     52  C   UNL A   1      46.015  28.121  26.513  1.00  0.00     0.037 A 
ATOM     53  C   UNL A   1      40.230  29.960  30.020  1.00  0.00     0.037 A 
ATOM     54  C   UNL A   1      45.975  29.495  26.938  1.00  0.00     0.049 A 
ATOM     55  C   UNL A   1      41.372  30.923  29.801  1.00  0.00     0.074 A 
ATOM     56  C   UNL A   1      46.908  30.492  26.723  1.00  0.00     0.029 A 
ATOM     57  N   UNL A   1      44.947  30.061  27.679  1.00  0.00    -0.354 N 
ATOM     58  N   UNL A   1      42.495  30.744  29.147  1.00  0.00    -0.248 NA
ATOM     59  C   UNL A   1      41.234  32.262  30.390  1.00  0.00     0.031 C 
ATOM     60  C   UNL A   1      46.477  31.643  27.390  1.00  0.00     0.029 A 
ATOM     61  C   UNL A   1      45.239  31.387  27.955  1.00  0.00     0.049 A 
ATOM     62  H   UNL A   1      44.131  29.591  27.965  1.00  0.00     0.167 HD
ATOM     63  C   UNL A   1      43.177  31.954  29.213  1.00  0.00     0.074 A 
ATOM     64  C   UNL A   1      42.336  32.862  29.964  1.00  0.00     0.031 C 
ATOM     65  C   UNL A   1      44.385  32.284  28.694  1.00  0.00     0.037 A 
BRANCH  52  66
ATOM     66  C   UNL A   1      47.232  27.635  25.780  1.00  0.00     0.064 A 
ATOM     67  C   UNL A   1      47.343  27.725  24.384  1.00  0.00     0.173 A 
ATOM     68  C   UNL A   1      48.315  27.093  26.489  1.00  0.00     0.173 A 
ATOM     69  F   UNL A   1      46.331  28.220  23.656  1.00  0.00    -0.203 F 
ATOM     70  C   UNL A   1      48.480  27.262  23.725  1.00  0.00     0.198 A 
ATOM     71  C   UNL A   1      49.463  26.664  25.830  1.00  0.00     0.198 A 
ATOM     72  F   UNL A   1      48.263  26.986  27.826  1.00  0.00    -0.203 F 
ATOM     73  F   UNL A   1      48.540  27.307  22.386  1.00  0.00    -0.200 F 
ATOM     74  C   UNL A   1      49.542  26.741  24.449  1.00  0.00     0.200 A 
ATOM     75  F   UNL A   1      50.494  26.175  26.533  1.00  0.00    -0.200 F 
ATOM     76  F   UNL A   1      50.637  26.305  23.813  1.00  0.00    -0.200 F 
ENDBRANCH  52  66
BRANCH  53  77
ATOM     77  C   UNL A   1      39.035  30.369  30.806  1.00  0.00     0.064 A 
ATOM     78  C   UNL A   1      37.928  30.962  30.184  1.00  0.00     0.173 A 
ATOM     79  C   UNL A   1      38.985  30.200  32.198  1.00  0.00     0.173 A 
ATOM     80  F   UNL A   1      37.936  31.172  28.859  1.00  0.00    -0.203 F 
ATOM     81  C   UNL A   1      36.827  31.387  30.925  1.00  0.00     0.198 A 
ATOM     82  C   UNL A   1      37.870  30.595  32.934  1.00  0.00     0.198 A 
ATOM     83  F   UNL A   1      40.020  29.643  32.845  1.00  0.00    -0.203 F 
ATOM     84  F   UNL A   1      35.805  32.000  30.311  1.00  0.00    -0.200 F 
ATOM     85  C   UNL A   1      36.795  31.198  32.298  1.00  0.00     0.200 A 
ATOM     86  F   UNL A   1      37.841  30.399  34.259  1.00  0.00    -0.200 F 
ATOM     87  F   UNL A   1      35.736  31.605  33.010  1.00  0.00    -0.200 F 
ENDBRANCH  53  77
BRANCH  65  88
ATOM     88  C   UNL A   1      44.854  33.703  28.866  1.00  0.00     0.064 A 
ATOM     89  C   UNL A   1      45.662  34.093  29.944  1.00  0.00     0.173 A 
ATOM     90  C   UNL A   1      44.530  34.674  27.906  1.00  0.00     0.173 A 
ATOM     91  F   UNL A   1      45.993  33.208  30.897  1.00  0.00    -0.203 F 
ATOM     92  C   UNL A   1      46.103  35.408  30.069  1.00  0.00     0.198 A 
ATOM     93  C   UNL A   1      45.004  35.979  28.013  1.00  0.00     0.198 A 
ATOM     94  F   UNL A   1      43.769  34.352  26.849  1.00  0.00    -0.203 F 
ATOM     95  F   UNL A   1      46.831  35.771  31.134  1.00  0.00    -0.200 F 
ATOM     96  C   UNL A   1      45.782  36.347  29.099  1.00  0.00     0.200 A 
ATOM     97  F   UNL A   1      44.707  36.878  27.064  1.00  0.00    -0.200 F 
ATOM     98  F   UNL A   1      46.219  37.609  29.215  1.00  0.00    -0.200 F 
ENDBRANCH  65  88
ENDBRANCH  39  40
ENDBRANCH  32  34
ENDBRANCH  31  32
ENDBRANCH  30  31
ENDBRANCH  29  30
ENDBRANCH  28  29
ENDBRANCH  27  28
ENDBRANCH  26  27
ENDBRANCH   1  26
TORSDOF 23
ENDMDL
MODEL 2
REMARK VINA RESULT:     -10.3      0.743      7.135
REMARK SMILES COc1ccccc1-c1ccc(C(=O)OCCOCCOCCOCCOC(=O)c2ccc(-c3c4nc(c(-c5c(F)c(F)c(F)c(F)c5F)c5ccc([nH]5)c(-c5c(F)c(F)c(F)c(F)c5F)c5nc(c(-c6c(F)c(F)c(F)c(F)c6F)c6ccc3[nH]6)C=C5)C=C4)cc2)c(O)c1
REMARK SMILES IDX 21 1 20 2 19 3 18 4 17 5 16 6 15 7 13 8 14 9 12 10 9 11
REMARK SMILES IDX 10 12 95 13 11 14 93 15 8 16 3 17 4 18 5 19 7 20 6 21 2 22
REMARK SMILES IDX 1 23 94 24 22 26 23 27 24 28 25 29 26 30 27 31 28 32 29 33
REMARK SMILES IDX 30 34 31 35 92 36 32 37 91 38 33 39 34 40 35 41 85 42 36 43
REMARK SMILES IDX 90 44 84 45 86 46 37 47 89 48 83 49 82 50 38 52 70 53 50 54
REMARK SMILES IDX 69 55 51 56 54 57 68 58 87 59 52 60 53 61 67 63 88 64 55 65
REMARK SMILES IDX 39 66 40 67 48 68 41 69 42 70 46 71 49 72 43 73 44 74 47 75
REMARK SMILES IDX 45 76 71 77 72 78 80 79 73 80 74 81 78 82 81 83 75 84 76 85
REMARK SMILES IDX 79 86 77 87 56 88 57 89 65 90 58 91 59 92 63 93 66 94 60 95
REMARK SMILES IDX 61 96 64 97 62 98
REMARK H PARENT 94 25 86 51 54 62
REMARK Flexibility Score: inf
ROOT
ATOM      1  O   UNL A   1      34.770  25.590  25.974  1.00  0.00    -0.377 OA
ENDROOT
BRANCH   1   2
ATOM      2  C   UNL A   1      33.797  26.591  25.700  1.00  0.00     0.188 C 
BRANCH   2   3
ATOM      3  C   UNL A   1      33.765  27.919  26.498  1.00  0.00     0.188 C 
BRANCH   3   4
ATOM      4  O   UNL A   1      33.437  29.062  25.728  1.00  0.00    -0.376 OA
BRANCH   4   5
ATOM      5  C   UNL A   1      32.080  29.345  25.445  1.00  0.00     0.202 C 
BRANCH   5   6
ATOM      6  C   UNL A   1      31.560  29.115  24.019  1.00  0.00     0.261 C 
BRANCH   6   7
ATOM      7  O   UNL A   1      32.077  27.952  23.376  1.00  0.00    -0.460 OA
BRANCH   7   8
ATOM      8  C   UNL A   1      31.237  27.294  22.552  1.00  0.00     0.341 C 
ATOM      9  O   UNL A   1      30.518  27.795  21.701  1.00  0.00    -0.246 OA
BRANCH   8  10
ATOM     10  C   UNL A   1      31.489  25.841  22.652  1.00  0.00     0.101 A 
ATOM     11  C   UNL A   1      31.907  23.112  23.127  1.00  0.00    -0.011 A 
ATOM     12  C   UNL A   1      30.675  23.703  23.450  1.00  0.00     0.010 A 
ATOM     13  C   UNL A   1      32.859  23.862  22.415  1.00  0.00     0.056 A 
ATOM     14  C   UNL A   1      30.474  25.063  23.229  1.00  0.00     0.020 A 
ATOM     15  C   UNL A   1      32.659  25.225  22.194  1.00  0.00     0.130 A 
BRANCH  11  16
ATOM     16  C   UNL A   1      32.276  21.839  23.756  1.00  0.00     0.024 A 
ATOM     17  C   UNL A   1      32.593  21.776  25.133  1.00  0.00     0.126 A 
ATOM     18  C   UNL A   1      32.882  20.557  25.747  1.00  0.00     0.047 A 
ATOM     19  C   UNL A   1      32.838  19.377  25.009  1.00  0.00     0.004 A 
ATOM     20  C   UNL A   1      32.247  20.636  23.029  1.00  0.00     0.012 A 
ATOM     21  C   UNL A   1      32.527  19.416  23.651  1.00  0.00     0.001 A 
BRANCH  17  22
ATOM     22  O   UNL A   1      32.738  22.891  25.927  1.00  0.00    -0.496 OA
ATOM     23  C   UNL A   1      32.438  22.654  27.304  1.00  0.00     0.278 C 
ENDBRANCH  17  22
ENDBRANCH  11  16
BRANCH  15  24
ATOM     24  O   UNL A   1      33.652  25.954  21.603  1.00  0.00    -0.507 OA
ATOM     25  H   UNL A   1      33.804  26.839  21.869  1.00  0.00     0.293 HD
ENDBRANCH  15  24
ENDBRANCH   8  10
ENDBRANCH   7   8
ENDBRANCH   6   7
ENDBRANCH   5   6
ENDBRANCH   4   5
ENDBRANCH   3   4
ENDBRANCH   2   3
ENDBRANCH   1   2
BRANCH   1  26
ATOM     26  C   UNL A   1      35.105  24.640  24.969  1.00  0.00     0.188 C 
BRANCH  26  27
ATOM     27  C   UNL A   1      36.068  23.473  25.293  1.00  0.00     0.188 C 
BRANCH  27  28
ATOM     28  O   UNL A   1      36.168  22.497  24.271  1.00  0.00    -0.376 OA
BRANCH  28  29
ATOM     29  C   UNL A   1      36.392  21.154  24.657  1.00  0.00     0.202 C 
BRANCH  29  30
ATOM     30  C   UNL A   1      37.828  20.717  24.980  1.00  0.00     0.261 C 
BRANCH  30  31
ATOM     31  O   UNL A   1      38.371  21.161  26.232  1.00  0.00    -0.460 OA
BRANCH  31  32
ATOM     32  C   UNL A   1      39.702  21.046  26.415  1.00  0.00     0.338 C 
ATOM     33  O   UNL A   1      40.410  20.091  26.134  1.00  0.00    -0.246 OA
BRANCH  32  34
ATOM     34  C   UNL A   1      40.200  22.363  26.858  1.00  0.00     0.060 A 
ATOM     35  C   UNL A   1      39.658  23.531  26.304  1.00  0.00     0.016 A 
ATOM     36  C   UNL A   1      41.194  22.438  27.835  1.00  0.00     0.016 A 
ATOM     37  C   UNL A   1      40.132  24.780  26.707  1.00  0.00     0.010 A 
ATOM     38  C   UNL A   1      41.685  23.686  28.220  1.00  0.00     0.010 A 
ATOM     39  C   UNL A   1      41.180  24.861  27.633  1.00  0.00    -0.014 A 
BRANCH  39  40
ATOM     40  C   UNL A   1      41.894  26.142  27.839  1.00  0.00     0.031 A 
ATOM     41  C   UNL A   1      41.184  27.234  28.591  1.00  0.00     0.074 A 
ATOM     42  C   UNL A   1      43.135  26.341  27.366  1.00  0.00     0.049 A 
ATOM     43  N   UNL A   1      41.550  28.470  28.813  1.00  0.00    -0.248 NA
ATOM     44  C   UNL A   1      39.875  26.880  29.164  1.00  0.00     0.031 C 
ATOM     45  C   UNL A   1      43.942  25.347  26.663  1.00  0.00     0.029 A 
ATOM     46  N   UNL A   1      43.928  27.462  27.394  1.00  0.00    -0.354 N 
ATOM     47  C   UNL A   1      40.513  29.042  29.537  1.00  0.00     0.074 A 
ATOM     48  C   UNL A   1      39.491  28.031  29.692  1.00  0.00     0.031 C 
ATOM     49  C   UNL A   1      45.111  25.909  26.308  1.00  0.00     0.029 A 
ATOM     50  C   UNL A   1      45.116  27.311  26.723  1.00  0.00     0.049 A 
ATOM     51  H   UNL A   1      43.669  28.295  27.852  1.00  0.00     0.167 HD
ATOM     52  C   UNL A   1      40.425  30.299  30.034  1.00  0.00     0.037 A 
ATOM     53  C   UNL A   1      46.078  28.214  26.450  1.00  0.00     0.037 A 
ATOM     54  C   UNL A   1      41.445  31.302  29.872  1.00  0.00     0.049 A 
ATOM     55  C   UNL A   1      45.922  29.632  26.944  1.00  0.00     0.074 A 
ATOM     56  C   UNL A   1      41.462  32.599  30.350  1.00  0.00     0.029 A 
ATOM     57  N   UNL A   1      42.625  31.119  29.166  1.00  0.00    -0.354 N 
ATOM     58  N   UNL A   1      44.951  30.165  27.647  1.00  0.00    -0.248 NA
ATOM     59  C   UNL A   1      46.999  30.575  26.607  1.00  0.00     0.031 C 
ATOM     60  C   UNL A   1      42.620  33.222  29.877  1.00  0.00     0.029 A 
ATOM     61  C   UNL A   1      43.363  32.292  29.169  1.00  0.00     0.049 A 
ATOM     62  H   UNL A   1      42.897  30.281  28.727  1.00  0.00     0.167 HD
ATOM     63  C   UNL A   1      45.317  31.488  27.868  1.00  0.00     0.074 A 
ATOM     64  C   UNL A   1      46.603  31.675  27.231  1.00  0.00     0.031 C 
ATOM     65  C   UNL A   1      44.650  32.459  28.542  1.00  0.00     0.037 A 
BRANCH  52  66
ATOM     66  C   UNL A   1      39.167  30.670  30.764  1.00  0.00     0.064 A 
ATOM     67  C   UNL A   1      38.065  31.237  30.104  1.00  0.00     0.173 A 
ATOM     68  C   UNL A   1      39.052  30.431  32.142  1.00  0.00     0.173 A 
ATOM     69  F   UNL A   1      38.127  31.501  28.790  1.00  0.00    -0.203 F 
ATOM     70  C   UNL A   1      36.910  31.579  30.803  1.00  0.00     0.198 A 
ATOM     71  C   UNL A   1      37.882  30.741  32.830  1.00  0.00     0.198 A 
ATOM     72  F   UNL A   1      40.073  29.889  32.823  1.00  0.00    -0.203 F 
ATOM     73  F   UNL A   1      35.891  32.170  30.161  1.00  0.00    -0.200 F 
ATOM     74  C   UNL A   1      36.816  31.322  32.162  1.00  0.00     0.200 A 
ATOM     75  F   UNL A   1      37.789  30.479  34.141  1.00  0.00    -0.200 F 
ATOM     76  F   UNL A   1      35.700  31.643  32.831  1.00  0.00    -0.200 F 
ENDBRANCH  52  66
BRANCH  53  77
ATOM     77  C   UNL A   1      47.270  27.815  25.656  1.00  0.00     0.064 A 
ATOM     78  C   UNL A   1      47.245  27.828  24.255  1.00  0.00     0.173 A 
ATOM     79  C   UNL A   1      48.452  27.386  26.281  1.00  0.00     0.173 A 
ATOM     80  F   UNL A   1      46.131  28.203  23.609  1.00  0.00    -0.203 F 
ATOM     81  C   UNL A   1      48.346  27.411  23.509  1.00  0.00     0.198 A 
ATOM     82  C   UNL A   1      49.564  27.001  25.535  1.00  0.00     0.198 A 
ATOM     83  F   UNL A   1      48.529  27.348  27.619  1.00  0.00    -0.203 F 
ATOM     84  F   UNL A   1      48.275  27.383  22.171  1.00  0.00    -0.200 F 
ATOM     85  C   UNL A   1      49.507  27.003  24.149  1.00  0.00     0.200 A 
ATOM     86  F   UNL A   1      50.686  26.619  26.158  1.00  0.00    -0.200 F 
ATOM     87  F   UNL A   1      50.566  26.603  23.433  1.00  0.00    -0.200 F 
ENDBRANCH  53  77
BRANCH  65  88
ATOM     88  C   UNL A   1      45.320  33.798  28.680  1.00  0.00     0.064 A 
ATOM     89  C   UNL A   1      45.103  34.836  27.762  1.00  0.00     0.173 A 
ATOM     90  C   UNL A   1      46.153  34.060  29.779  1.00  0.00     0.173 A 
ATOM     91  F   UNL A   1      44.326  34.636  26.686  1.00  0.00    -0.203 F 
ATOM     92  C   UNL A   1      45.717  36.076  27.924  1.00  0.00     0.198 A 
ATOM     93  C   UNL A   1      46.734  35.312  29.959  1.00  0.00     0.198 A 
ATOM     94  F   UNL A   1      46.386  33.106  30.693  1.00  0.00    -0.203 F 
ATOM     95  F   UNL A   1      45.537  37.037  27.007  1.00  0.00    -0.200 F 
ATOM     96  C   UNL A   1      46.524  36.316  29.027  1.00  0.00     0.200 A 
ATOM     97  F   UNL A   1      47.498  35.546  31.036  1.00  0.00    -0.200 F 
ATOM     98  F   UNL A   1      47.103  37.513  29.188  1.00  0.00    -0.200 F 
ENDBRANCH  65  88
ENDBRANCH  39  40
ENDBRANCH  32  34
ENDBRANCH  31  32
ENDBRANCH  30  31
ENDBRANCH  29  30
ENDBRANCH  28  29
ENDBRANCH  27  28
ENDBRANCH  26  27
ENDBRANCH   1  26
TORSDOF 23
ENDMDL
MODEL 3
REMARK VINA RESULT:     -10.1      1.012      7.383
REMARK SMILES COc1ccccc1-c1ccc(C(=O)OCCOCCOCCOCCOC(=O)c2ccc(-c3c4nc(c(-c5c(F)c(F)c(F)c(F)c5F)c5ccc([nH]5)c(-c5c(F)c(F)c(F)c(F)c5F)c5nc(c(-c6c(F)c(F)c(F)c(F)c6F)c6ccc3[nH]6)C=C5)C=C4)cc2)c(O)c1
REMARK SMILES IDX 21 1 20 2 19 3 18 4 17 5 16 6 15 7 13 8 14 9 12 10 9 11
REMARK SMILES IDX 10 12 95 13 11 14 93 15 8 16 3 17 4 18 5 19 7 20 6 21 2 22
REMARK SMILES IDX 1 23 94 24 22 26 23 27 24 28 25 29 26 30 27 31 28 32 29 33
REMARK SMILES IDX 30 34 31 35 92 36 32 37 91 38 33 39 34 40 35 41 85 42 36 43
REMARK SMILES IDX 90 44 84 45 86 46 37 47 89 48 83 49 82 50 38 52 70 53 50 54
REMARK SMILES IDX 69 55 51 56 54 57 68 58 87 59 52 60 53 61 67 63 88 64 55 65
REMARK SMILES IDX 39 66 40 67 48 68 41 69 42 70 46 71 49 72 43 73 44 74 47 75
REMARK SMILES IDX 45 76 71 77 72 78 80 79 73 80 74 81 78 82 81 83 75 84 76 85
REMARK SMILES IDX 79 86 77 87 56 88 57 89 65 90 58 91 59 92 63 93 66 94 60 95
REMARK SMILES IDX 61 96 64 97 62 98
REMARK H PARENT 94 25 86 51 54 62
REMARK Flexibility Score: inf
ROOT
ATOM      1  O   UNL A   1      34.320  26.440  26.168  1.00  0.00    -0.377 OA
ENDROOT
BRANCH   1   2
ATOM      2  C   UNL A   1      34.004  27.813  25.972  1.00  0.00     0.188 C 
BRANCH   2   3
ATOM      3  C   UNL A   1      34.051  28.823  27.147  1.00  0.00     0.188 C 
BRANCH   3   4
ATOM      4  O   UNL A   1      33.682  30.146  26.803  1.00  0.00    -0.376 OA
BRANCH   4   5
ATOM      5  C   UNL A   1      32.337  30.558  26.959  1.00  0.00     0.202 C 
BRANCH   5   6
ATOM      6  C   UNL A   1      31.453  30.683  25.710  1.00  0.00     0.261 C 
BRANCH   6   7
ATOM      7  O   UNL A   1      31.676  29.681  24.720  1.00  0.00    -0.460 OA
BRANCH   7   8
ATOM      8  C   UNL A   1      30.594  29.261  24.034  1.00  0.00     0.341 C 
ATOM      9  O   UNL A   1      29.830  29.960  23.387  1.00  0.00    -0.246 OA
BRANCH   8  10
ATOM     10  C   UNL A   1      30.600  27.783  23.967  1.00  0.00     0.101 A 
ATOM     11  C   UNL A   1      30.830  24.993  24.034  1.00  0.00    -0.011 A 
ATOM     12  C   UNL A   1      30.592  25.708  25.218  1.00  0.00     0.010 A 
ATOM     13  C   UNL A   1      30.785  25.671  22.804  1.00  0.00     0.056 A 
ATOM     14  C   UNL A   1      30.494  27.097  25.186  1.00  0.00     0.020 A 
ATOM     15  C   UNL A   1      30.687  27.063  22.771  1.00  0.00     0.130 A 
BRANCH  11  16
ATOM     16  C   UNL A   1      31.374  23.632  24.118  1.00  0.00     0.024 A 
ATOM     17  C   UNL A   1      31.294  22.894  25.321  1.00  0.00     0.126 A 
ATOM     18  C   UNL A   1      31.752  21.578  25.387  1.00  0.00     0.047 A 
ATOM     19  C   UNL A   1      32.276  20.965  24.251  1.00  0.00     0.004 A 
ATOM     20  C   UNL A   1      31.916  22.998  22.987  1.00  0.00     0.012 A 
ATOM     21  C   UNL A   1      32.364  21.675  23.054  1.00  0.00     0.001 A 
BRANCH  17  22
ATOM     22  O   UNL A   1      30.866  23.434  26.513  1.00  0.00    -0.496 OA
ATOM     23  C   UNL A   1      29.758  22.738  27.090  1.00  0.00     0.278 C 
ENDBRANCH  17  22
ENDBRANCH  11  16
BRANCH  15  24
ATOM     24  O   UNL A   1      30.763  27.705  21.568  1.00  0.00    -0.507 OA
ATOM     25  H   UNL A   1      31.351  28.426  21.458  1.00  0.00     0.293 HD
ENDBRANCH  15  24
ENDBRANCH   8  10
ENDBRANCH   7   8
ENDBRANCH   6   7
ENDBRANCH   5   6
ENDBRANCH   4   5
ENDBRANCH   3   4
ENDBRANCH   2   3
ENDBRANCH   1   2
BRANCH   1  26
ATOM     26  C   UNL A   1      34.357  25.559  25.051  1.00  0.00     0.188 C 
BRANCH  26  27
ATOM     27  C   UNL A   1      34.853  24.105  25.224  1.00  0.00     0.188 C 
BRANCH  27  28
ATOM     28  O   UNL A   1      35.306  23.496  24.028  1.00  0.00    -0.376 OA
BRANCH  28  29
ATOM     29  C   UNL A   1      35.816  22.178  24.106  1.00  0.00     0.202 C 
BRANCH  29  30
ATOM     30  C   UNL A   1      37.303  21.989  24.439  1.00  0.00     0.261 C 
BRANCH  30  31
ATOM     31  O   UNL A   1      37.623  21.662  25.800  1.00  0.00    -0.460 OA
BRANCH  31  32
ATOM     32  C   UNL A   1      38.911  21.394  26.095  1.00  0.00     0.338 C 
ATOM     33  O   UNL A   1      39.536  20.378  25.831  1.00  0.00    -0.246 OA
BRANCH  32  34
ATOM     34  C   UNL A   1      39.503  22.629  26.643  1.00  0.00     0.060 A 
ATOM     35  C   UNL A   1      38.981  23.874  26.265  1.00  0.00     0.016 A 
ATOM     36  C   UNL A   1      40.565  22.550  27.545  1.00  0.00     0.016 A 
ATOM     37  C   UNL A   1      39.544  25.048  26.768  1.00  0.00     0.010 A 
ATOM     38  C   UNL A   1      41.143  23.725  28.028  1.00  0.00     0.010 A 
ATOM     39  C   UNL A   1      40.656  24.979  27.616  1.00  0.00    -0.014 A 
BRANCH  39  40
ATOM     40  C   UNL A   1      41.445  26.198  27.910  1.00  0.00     0.031 A 
ATOM     41  C   UNL A   1      40.771  27.313  28.660  1.00  0.00     0.074 A 
ATOM     42  C   UNL A   1      42.723  26.322  27.515  1.00  0.00     0.049 A 
ATOM     43  N   UNL A   1      41.209  28.511  28.949  1.00  0.00    -0.248 NA
ATOM     44  C   UNL A   1      39.409  27.035  29.146  1.00  0.00     0.031 C 
ATOM     45  C   UNL A   1      43.498  25.296  26.822  1.00  0.00     0.029 A 
ATOM     46  N   UNL A   1      43.590  27.381  27.630  1.00  0.00    -0.354 N 
ATOM     47  C   UNL A   1      40.174  29.133  29.634  1.00  0.00     0.074 A 
ATOM     48  C   UNL A   1      39.076  28.194  29.693  1.00  0.00     0.031 C 
ATOM     49  C   UNL A   1      44.723  25.784  26.555  1.00  0.00     0.029 A 
ATOM     50  C   UNL A   1      44.802  27.167  27.022  1.00  0.00     0.049 A 
ATOM     51  H   UNL A   1      43.363  28.215  28.103  1.00  0.00     0.167 HD
ATOM     52  C   UNL A   1      40.146  30.375  30.172  1.00  0.00     0.037 A 
ATOM     53  C   UNL A   1      45.840  28.007  26.837  1.00  0.00     0.037 A 
ATOM     54  C   UNL A   1      41.241  31.306  30.105  1.00  0.00     0.049 A 
ATOM     55  C   UNL A   1      45.755  29.415  27.374  1.00  0.00     0.074 A 
ATOM     56  C   UNL A   1      41.321  32.583  30.631  1.00  0.00     0.029 A 
ATOM     57  N   UNL A   1      42.445  31.062  29.460  1.00  0.00    -0.354 N 
ATOM     58  N   UNL A   1      44.784  29.994  28.040  1.00  0.00    -0.248 NA
ATOM     59  C   UNL A   1      46.913  30.288  27.134  1.00  0.00     0.031 C 
ATOM     60  C   UNL A   1      42.546  33.136  30.247  1.00  0.00     0.029 A 
ATOM     61  C   UNL A   1      43.263  32.178  29.549  1.00  0.00     0.049 A 
ATOM     62  H   UNL A   1      42.683  30.222  29.006  1.00  0.00     0.167 HD
ATOM     63  C   UNL A   1      45.228  31.279  28.331  1.00  0.00     0.074 A 
ATOM     64  C   UNL A   1      46.560  31.393  27.775  1.00  0.00     0.031 C 
ATOM     65  C   UNL A   1      44.593  32.272  29.001  1.00  0.00     0.037 A 
BRANCH  52  66
ATOM     66  C   UNL A   1      38.876  30.812  30.843  1.00  0.00     0.064 A 
ATOM     67  C   UNL A   1      38.704  30.727  32.233  1.00  0.00     0.173 A 
ATOM     68  C   UNL A   1      37.823  31.348  30.085  1.00  0.00     0.173 A 
ATOM     69  F   UNL A   1      39.672  30.209  33.004  1.00  0.00    -0.203 F 
ATOM     70  C   UNL A   1      37.514  31.133  32.834  1.00  0.00     0.198 A 
ATOM     71  C   UNL A   1      36.650  31.785  30.693  1.00  0.00     0.198 A 
ATOM     72  F   UNL A   1      37.935  31.455  28.753  1.00  0.00    -0.203 F 
ATOM     73  F   UNL A   1      37.352  30.991  34.158  1.00  0.00    -0.200 F 
ATOM     74  C   UNL A   1      36.493  31.670  32.065  1.00  0.00     0.200 A 
ATOM     75  F   UNL A   1      35.670  32.317  29.949  1.00  0.00    -0.200 F 
ATOM     76  F   UNL A   1      35.353  32.068  32.646  1.00  0.00    -0.200 F 
ENDBRANCH  52  66
BRANCH  53  77
ATOM     77  C   UNL A   1      47.046  27.549  26.097  1.00  0.00     0.064 A 
ATOM     78  C   UNL A   1      48.147  27.005  26.772  1.00  0.00     0.173 A 
ATOM     79  C   UNL A   1      47.134  27.671  24.702  1.00  0.00     0.173 A 
ATOM     80  F   UNL A   1      48.125  26.893  28.109  1.00  0.00    -0.203 F 
ATOM     81  C   UNL A   1      49.296  26.618  26.084  1.00  0.00     0.198 A 
ATOM     82  C   UNL A   1      48.270  27.253  24.011  1.00  0.00     0.198 A 
ATOM     83  F   UNL A   1      46.111  28.190  24.006  1.00  0.00    -0.203 F 
ATOM     84  F   UNL A   1      50.354  26.151  26.761  1.00  0.00    -0.200 F 
ATOM     85  C   UNL A   1      49.354  26.736  24.704  1.00  0.00     0.200 A 
ATOM     86  F   UNL A   1      48.317  27.358  22.677  1.00  0.00    -0.200 F 
ATOM     87  F   UNL A   1      50.458  26.363  24.043  1.00  0.00    -0.200 F 
ENDBRANCH  53  77
BRANCH  65  88
ATOM     88  C   UNL A   1      45.346  33.554  29.227  1.00  0.00     0.064 A 
ATOM     89  C   UNL A   1      45.251  34.637  28.341  1.00  0.00     0.173 A 
ATOM     90  C   UNL A   1      46.135  33.715  30.376  1.00  0.00     0.173 A 
ATOM     91  F   UNL A   1      44.520  34.533  27.220  1.00  0.00    -0.203 F 
ATOM     92  C   UNL A   1      45.940  35.823  28.584  1.00  0.00     0.198 A 
ATOM     93  C   UNL A   1      46.792  34.915  30.636  1.00  0.00     0.198 A 
ATOM     94  F   UNL A   1      46.252  32.715  31.262  1.00  0.00    -0.203 F 
ATOM     95  F   UNL A   1      45.876  36.827  27.699  1.00  0.00    -0.200 F 
ATOM     96  C   UNL A   1      46.702  35.965  29.735  1.00  0.00     0.200 A 
ATOM     97  F   UNL A   1      47.511  35.054  31.758  1.00  0.00    -0.200 F 
ATOM     98  F   UNL A   1      47.353  37.111  29.974  1.00  0.00    -0.200 F 
ENDBRANCH  65  88
ENDBRANCH  39  40
ENDBRANCH  32  34
ENDBRANCH  31  32
ENDBRANCH  30  31
ENDBRANCH  29  30
ENDBRANCH  28  29
ENDBRANCH  27  28
ENDBRANCH  26  27
ENDBRANCH   1  26
TORSDOF 23
ENDMDL
