MODEL 1
REMARK VINA RESULT:     -10.4      0.000      0.000
REMARK SMILES COc1ccc(OC)c(N2C(=O)c3ccc(C(=O)OCCOCCOCCOCCOC(=O)c4ccc(-c5c6nc(c(-c7c(F)c(F)c(F)c(F)c7F)c7ccc([nH]7)c(-c7c(F)c(F)c(F)c(F)c7F)c7nc(c(-c8c(F)c(F)c(F)c(F)c8F)c8ccc5[nH]8)C=C7)C=C6)cc4)cc3C2=O)c1
REMARK SMILES IDX 25 1 24 2 23 3 22 4 21 5 20 6 19 7 17 8 18 9 16 10 10 11
REMARK SMILES IDX 11 12 99 13 12 14 13 15 98 16 100 17 14 18 97 19 15 20 9 21
REMARK SMILES IDX 3 22 4 23 101 24 5 25 6 26 2 27 1 28 7 29 8 30 26 31 27 32
REMARK SMILES IDX 28 33 29 34 30 35 31 36 32 37 33 38 34 39 35 40 96 41 36 42
REMARK SMILES IDX 95 43 37 44 38 45 39 46 89 47 40 48 94 49 88 50 90 51 41 52
REMARK SMILES IDX 93 53 87 54 86 55 42 57 74 58 54 59 73 60 55 61 58 62 72 63
REMARK SMILES IDX 91 64 56 65 57 66 71 68 92 69 59 70 43 71 44 72 52 73 45 74
REMARK SMILES IDX 46 75 50 76 53 77 47 78 48 79 51 80 49 81 75 82 76 83 84 84
REMARK SMILES IDX 77 85 78 86 82 87 85 88 79 89 80 90 83 91 81 92 60 93 61 94
REMARK SMILES IDX 69 95 62 96 63 97 67 98 70 99 64 100 65 101 68 102 66 103
REMARK H PARENT 90 56 58 67
REMARK Flexibility Score: inf
ROOT
ATOM      1  O   UNL A   1      29.019  31.685  22.433  1.00  0.00    -0.377 OA
ENDROOT
BRANCH   1   2
ATOM      2  C   UNL A   1      28.947  30.481  21.688  1.00  0.00     0.188 C 
BRANCH   2   3
ATOM      3  C   UNL A   1      28.517  29.193  22.408  1.00  0.00     0.188 C 
BRANCH   3   4
ATOM      4  O   UNL A   1      29.591  28.335  22.777  1.00  0.00    -0.376 OA
BRANCH   4   5
ATOM      5  C   UNL A   1      29.229  27.160  23.492  1.00  0.00     0.202 C 
BRANCH   5   6
ATOM      6  C   UNL A   1      30.011  26.975  24.799  1.00  0.00     0.261 C 
BRANCH   6   7
ATOM      7  O   UNL A   1      30.967  28.018  25.056  1.00  0.00    -0.460 OA
BRANCH   7   8
ATOM      8  C   UNL A   1      31.935  27.718  25.947  1.00  0.00     0.338 C 
ATOM      9  O   UNL A   1      32.020  28.086  27.104  1.00  0.00    -0.246 OA
BRANCH   8  10
ATOM     10  C   UNL A   1      32.793  26.678  25.359  1.00  0.00     0.060 A 
ATOM     11  N   UNL A   1      35.029  22.728  24.792  1.00  0.00    -0.238 N 
ATOM     12  C   UNL A   1      34.991  23.560  23.698  1.00  0.00     0.266 C 
ATOM     13  C   UNL A   1      34.566  23.381  25.914  1.00  0.00     0.266 C 
ATOM     14  O   UNL A   1      35.376  23.416  22.549  1.00  0.00    -0.268 OA
ATOM     15  C   UNL A   1      34.293  24.764  24.112  1.00  0.00     0.053 A 
ATOM     16  C   UNL A   1      34.002  24.650  25.457  1.00  0.00     0.054 A 
ATOM     17  O   UNL A   1      34.664  23.132  27.100  1.00  0.00    -0.268 OA
ATOM     18  C   UNL A   1      33.878  25.832  23.345  1.00  0.00     0.015 A 
ATOM     19  C   UNL A   1      33.268  25.610  26.129  1.00  0.00     0.030 A 
ATOM     20  C   UNL A   1      33.095  26.792  23.980  1.00  0.00     0.016 A 
BRANCH  11  21
ATOM     21  C   UNL A   1      35.469  21.380  24.720  1.00  0.00     0.098 A 
ATOM     22  C   UNL A   1      34.862  19.008  24.778  1.00  0.00     0.121 A 
ATOM     23  C   UNL A   1      36.210  18.673  24.897  1.00  0.00     0.050 A 
ATOM     24  C   UNL A   1      34.509  20.352  24.659  1.00  0.00     0.077 A 
ATOM     25  C   UNL A   1      37.190  19.671  24.926  1.00  0.00     0.052 A 
ATOM     26  C   UNL A   1      36.822  21.021  24.849  1.00  0.00     0.143 A 
BRANCH  22  27
ATOM     27  O   UNL A   1      33.982  17.961  24.829  1.00  0.00    -0.497 OA
ATOM     28  C   UNL A   1      32.625  18.243  24.494  1.00  0.00     0.278 C 
ENDBRANCH  22  27
BRANCH  26  29
ATOM     29  O   UNL A   1      37.755  21.968  25.192  1.00  0.00    -0.495 OA
ATOM     30  C   UNL A   1      38.887  21.406  25.857  1.00  0.00     0.278 C 
ENDBRANCH  26  29
ENDBRANCH  11  21
ENDBRANCH   8  10
ENDBRANCH   7   8
ENDBRANCH   6   7
ENDBRANCH   5   6
ENDBRANCH   4   5
ENDBRANCH   3   4
ENDBRANCH   2   3
ENDBRANCH   1   2
BRANCH   1  31
ATOM     31  C   UNL A   1      28.910  31.649  23.850  1.00  0.00     0.188 C 
BRANCH  31  32
ATOM     32  C   UNL A   1      30.003  32.258  24.751  1.00  0.00     0.188 C 
BRANCH  32  33
ATOM     33  O   UNL A   1      30.927  31.314  25.279  1.00  0.00    -0.376 OA
BRANCH  33  34
ATOM     34  C   UNL A   1      31.404  31.583  26.591  1.00  0.00     0.202 C 
BRANCH  34  35
ATOM     35  C   UNL A   1      31.672  33.072  26.831  1.00  0.00     0.261 C 
BRANCH  35  36
ATOM     36  O   UNL A   1      33.037  33.386  27.151  1.00  0.00    -0.460 OA
BRANCH  36  37
ATOM     37  C   UNL A   1      33.246  34.209  28.202  1.00  0.00     0.338 C 
ATOM     38  O   UNL A   1      32.571  35.161  28.547  1.00  0.00    -0.246 OA
BRANCH  37  39
ATOM     39  C   UNL A   1      34.363  33.655  28.987  1.00  0.00     0.060 A 
ATOM     40  C   UNL A   1      35.670  34.046  28.675  1.00  0.00     0.016 A 
ATOM     41  C   UNL A   1      34.113  32.760  30.030  1.00  0.00     0.016 A 
ATOM     42  C   UNL A   1      36.743  33.511  29.391  1.00  0.00     0.010 A 
ATOM     43  C   UNL A   1      35.185  32.214  30.733  1.00  0.00     0.010 A 
ATOM     44  C   UNL A   1      36.505  32.564  30.396  1.00  0.00    -0.014 A 
BRANCH  44  45
ATOM     45  C   UNL A   1      37.629  31.791  30.972  1.00  0.00     0.031 A 
ATOM     46  C   UNL A   1      38.078  32.124  32.366  1.00  0.00     0.074 A 
ATOM     47  C   UNL A   1      38.251  30.829  30.268  1.00  0.00     0.049 A 
ATOM     48  N   UNL A   1      39.082  31.646  33.055  1.00  0.00    -0.248 NA
ATOM     49  C   UNL A   1      37.286  33.140  33.080  1.00  0.00     0.031 C 
ATOM     50  C   UNL A   1      37.890  30.398  28.920  1.00  0.00     0.029 A 
ATOM     51  N   UNL A   1      39.335  30.053  30.593  1.00  0.00    -0.354 N 
ATOM     52  C   UNL A   1      39.043  32.303  34.277  1.00  0.00     0.074 A 
ATOM     53  C   UNL A   1      37.936  33.231  34.231  1.00  0.00     0.031 C 
ATOM     54  C   UNL A   1      38.752  29.445  28.524  1.00  0.00     0.029 A 
ATOM     55  C   UNL A   1      39.740  29.223  29.578  1.00  0.00     0.049 A 
ATOM     56  H   UNL A   1      39.780  30.089  31.471  1.00  0.00     0.167 HD
ATOM     57  C   UNL A   1      39.857  32.141  35.346  1.00  0.00     0.037 A 
ATOM     58  C   UNL A   1      40.805  28.400  29.505  1.00  0.00     0.037 A 
ATOM     59  C   UNL A   1      40.965  31.225  35.390  1.00  0.00     0.049 A 
ATOM     60  C   UNL A   1      41.740  28.292  30.685  1.00  0.00     0.074 A 
ATOM     61  C   UNL A   1      41.839  30.977  36.433  1.00  0.00     0.029 A 
ATOM     62  N   UNL A   1      41.355  30.414  34.336  1.00  0.00    -0.354 N 
ATOM     63  N   UNL A   1      41.678  28.890  31.850  1.00  0.00    -0.248 NA
ATOM     64  C   UNL A   1      42.894  27.394  30.535  1.00  0.00     0.031 C 
ATOM     65  C   UNL A   1      42.787  30.047  35.994  1.00  0.00     0.029 A 
ATOM     66  C   UNL A   1      42.474  29.681  34.695  1.00  0.00     0.049 A 
ATOM     67  H   UNL A   1      40.905  30.366  33.461  1.00  0.00     0.167 HD
ATOM     68  C   UNL A   1      42.763  28.419  32.580  1.00  0.00     0.074 A 
ATOM     69  C   UNL A   1      43.462  27.478  31.731  1.00  0.00     0.031 C 
ATOM     70  C   UNL A   1      43.148  28.738  33.841  1.00  0.00     0.037 A 
BRANCH  57  71
ATOM     71  C   UNL A   1      39.593  32.993  36.550  1.00  0.00     0.064 A 
ATOM     72  C   UNL A   1      40.241  34.223  36.734  1.00  0.00     0.173 A 
ATOM     73  C   UNL A   1      38.657  32.590  37.514  1.00  0.00     0.173 A 
ATOM     74  F   UNL A   1      41.157  34.643  35.849  1.00  0.00    -0.203 F 
ATOM     75  C   UNL A   1      39.973  35.012  37.849  1.00  0.00     0.198 A 
ATOM     76  C   UNL A   1      38.374  33.392  38.615  1.00  0.00     0.198 A 
ATOM     77  F   UNL A   1      38.013  31.421  37.383  1.00  0.00    -0.203 F 
ATOM     78  F   UNL A   1      40.631  36.166  38.026  1.00  0.00    -0.200 F 
ATOM     79  C   UNL A   1      39.035  34.600  38.784  1.00  0.00     0.200 A 
ATOM     80  F   UNL A   1      37.460  32.998  39.512  1.00  0.00    -0.200 F 
ATOM     81  F   UNL A   1      38.772  35.364  39.853  1.00  0.00    -0.200 F 
ENDBRANCH  57  71
BRANCH  58  82
ATOM     82  C   UNL A   1      41.065  27.622  28.266  1.00  0.00     0.064 A 
ATOM     83  C   UNL A   1      40.496  26.354  28.076  1.00  0.00     0.173 A 
ATOM     84  C   UNL A   1      41.919  28.110  27.268  1.00  0.00     0.173 A 
ATOM     85  F   UNL A   1      39.696  25.832  29.017  1.00  0.00    -0.203 F 
ATOM     86  C   UNL A   1      40.790  25.596  26.945  1.00  0.00     0.198 A 
ATOM     87  C   UNL A   1      42.190  27.362  26.123  1.00  0.00     0.198 A 
ATOM     88  F   UNL A   1      42.495  29.314  27.404  1.00  0.00    -0.203 F 
ATOM     89  F   UNL A   1      40.275  24.366  26.813  1.00  0.00    -0.200 F 
ATOM     90  C   UNL A   1      41.633  26.102  25.967  1.00  0.00     0.200 A 
ATOM     91  F   UNL A   1      43.000  27.858  25.177  1.00  0.00    -0.200 F 
ATOM     92  F   UNL A   1      41.918  25.371  24.880  1.00  0.00    -0.200 F 
ENDBRANCH  58  82
BRANCH  70  93
ATOM     93  C   UNL A   1      44.354  28.037  34.395  1.00  0.00     0.064 A 
ATOM     94  C   UNL A   1      45.647  28.550  34.224  1.00  0.00     0.173 A 
ATOM     95  C   UNL A   1      44.206  26.862  35.148  1.00  0.00     0.173 A 
ATOM     96  F   UNL A   1      45.842  29.663  33.500  1.00  0.00    -0.203 F 
ATOM     97  C   UNL A   1      46.752  27.901  34.770  1.00  0.00     0.198 A 
ATOM     98  C   UNL A   1      45.309  26.232  35.717  1.00  0.00     0.198 A 
ATOM     99  F   UNL A   1      42.989  26.334  35.348  1.00  0.00    -0.203 F 
ATOM    100  F   UNL A   1      47.983  28.386  34.559  1.00  0.00    -0.200 F 
ATOM    101  C   UNL A   1      46.581  26.748  35.522  1.00  0.00     0.200 A 
ATOM    102  F   UNL A   1      45.142  25.126  36.454  1.00  0.00    -0.200 F 
ATOM    103  F   UNL A   1      47.645  26.130  36.053  1.00  0.00    -0.200 F 
ENDBRANCH  70  93
ENDBRANCH  44  45
ENDBRANCH  37  39
ENDBRANCH  36  37
ENDBRANCH  35  36
ENDBRANCH  34  35
ENDBRANCH  33  34
ENDBRANCH  32  33
ENDBRANCH  31  32
ENDBRANCH   1  31
TORSDOF 23
ENDMDL
MODEL 2
REMARK VINA RESULT:     -10.0      0.826      6.909
REMARK SMILES COc1ccc(OC)c(N2C(=O)c3ccc(C(=O)OCCOCCOCCOCCOC(=O)c4ccc(-c5c6nc(c(-c7c(F)c(F)c(F)c(F)c7F)c7ccc([nH]7)c(-c7c(F)c(F)c(F)c(F)c7F)c7nc(c(-c8c(F)c(F)c(F)c(F)c8F)c8ccc5[nH]8)C=C7)C=C6)cc4)cc3C2=O)c1
REMARK SMILES IDX 25 1 24 2 23 3 22 4 21 5 20 6 19 7 17 8 18 9 16 10 10 11
REMARK SMILES IDX 11 12 99 13 12 14 13 15 98 16 100 17 14 18 97 19 15 20 9 21
REMARK SMILES IDX 3 22 4 23 101 24 5 25 6 26 2 27 1 28 7 29 8 30 26 31 27 32
REMARK SMILES IDX 28 33 29 34 30 35 31 36 32 37 33 38 34 39 35 40 96 41 36 42
REMARK SMILES IDX 95 43 37 44 38 45 39 46 89 47 40 48 94 49 88 50 90 51 41 52
REMARK SMILES IDX 93 53 87 54 86 55 42 57 74 58 54 59 73 60 55 61 58 62 72 63
REMARK SMILES IDX 91 64 56 65 57 66 71 68 92 69 59 70 43 71 44 72 52 73 45 74
REMARK SMILES IDX 46 75 50 76 53 77 47 78 48 79 51 80 49 81 75 82 76 83 84 84
REMARK SMILES IDX 77 85 78 86 82 87 85 88 79 89 80 90 83 91 81 92 60 93 61 94
REMARK SMILES IDX 69 95 62 96 63 97 67 98 70 99 64 100 65 101 68 102 66 103
REMARK H PARENT 90 56 58 67
REMARK Flexibility Score: inf
ROOT
ATOM      1  O   UNL A   1      30.460  30.081  22.538  1.00  0.00    -0.377 OA
ENDROOT
BRANCH   1   2
ATOM      2  C   UNL A   1      30.767  28.704  22.393  1.00  0.00     0.188 C 
BRANCH   2   3
ATOM      3  C   UNL A   1      29.776  27.665  22.942  1.00  0.00     0.188 C 
BRANCH   3   4
ATOM      4  O   UNL A   1      30.380  26.473  23.431  1.00  0.00    -0.376 OA
BRANCH   4   5
ATOM      5  C   UNL A   1      29.978  26.063  24.733  1.00  0.00     0.202 C 
BRANCH   5   6
ATOM      6  C   UNL A   1      30.313  27.085  25.827  1.00  0.00     0.261 C 
BRANCH   6   7
ATOM      7  O   UNL A   1      31.411  27.951  25.495  1.00  0.00    -0.460 OA
BRANCH   7   8
ATOM      8  C   UNL A   1      32.557  27.728  26.171  1.00  0.00     0.338 C 
ATOM      9  O   UNL A   1      32.924  28.256  27.205  1.00  0.00    -0.246 OA
BRANCH   8  10
ATOM     10  C   UNL A   1      33.225  26.563  25.571  1.00  0.00     0.060 A 
ATOM     11  N   UNL A   1      34.579  22.255  24.841  1.00  0.00    -0.238 N 
ATOM     12  C   UNL A   1      34.855  23.151  23.835  1.00  0.00     0.266 C 
ATOM     13  C   UNL A   1      34.144  22.914  25.971  1.00  0.00     0.266 C 
ATOM     14  O   UNL A   1      35.331  23.007  22.721  1.00  0.00    -0.268 OA
ATOM     15  C   UNL A   1      34.399  24.450  24.295  1.00  0.00     0.053 A 
ATOM     16  C   UNL A   1      33.934  24.309  25.588  1.00  0.00     0.054 A 
ATOM     17  O   UNL A   1      34.045  22.563  27.131  1.00  0.00    -0.268 OA
ATOM     18  C   UNL A   1      34.324  25.638  23.599  1.00  0.00     0.015 A 
ATOM     19  C   UNL A   1      33.358  25.361  26.276  1.00  0.00     0.030 A 
ATOM     20  C   UNL A   1      33.705  26.704  24.246  1.00  0.00     0.016 A 
BRANCH  11  21
ATOM     21  C   UNL A   1      34.714  20.850  24.681  1.00  0.00     0.098 A 
ATOM     22  C   UNL A   1      33.595  18.696  24.365  1.00  0.00     0.121 A 
ATOM     23  C   UNL A   1      34.791  18.040  24.652  1.00  0.00     0.050 A 
ATOM     24  C   UNL A   1      33.577  20.090  24.351  1.00  0.00     0.077 A 
ATOM     25  C   UNL A   1      35.947  18.769  24.951  1.00  0.00     0.052 A 
ATOM     26  C   UNL A   1      35.908  20.170  24.976  1.00  0.00     0.143 A 
BRANCH  22  27
ATOM     27  O   UNL A   1      32.510  17.889  24.155  1.00  0.00    -0.497 OA
ATOM     28  C   UNL A   1      32.347  16.784  25.043  1.00  0.00     0.278 C 
ENDBRANCH  22  27
BRANCH  26  29
ATOM     29  O   UNL A   1      36.951  20.837  25.569  1.00  0.00    -0.495 OA
ATOM     30  C   UNL A   1      38.004  21.133  24.651  1.00  0.00     0.278 C 
ENDBRANCH  26  29
ENDBRANCH  11  21
ENDBRANCH   8  10
ENDBRANCH   7   8
ENDBRANCH   6   7
ENDBRANCH   5   6
ENDBRANCH   4   5
ENDBRANCH   3   4
ENDBRANCH   2   3
ENDBRANCH   1   2
BRANCH   1  31
ATOM     31  C   UNL A   1      29.493  30.493  23.495  1.00  0.00     0.188 C 
BRANCH  31  32
ATOM     32  C   UNL A   1      29.857  31.475  24.627  1.00  0.00     0.188 C 
BRANCH  32  33
ATOM     33  O   UNL A   1      31.085  31.188  25.284  1.00  0.00    -0.376 OA
BRANCH  33  34
ATOM     34  C   UNL A   1      31.175  31.610  26.639  1.00  0.00     0.202 C 
BRANCH  34  35
ATOM     35  C   UNL A   1      31.749  33.022  26.783  1.00  0.00     0.261 C 
BRANCH  35  36
ATOM     36  O   UNL A   1      33.032  33.080  27.428  1.00  0.00    -0.460 OA
BRANCH  36  37
ATOM     37  C   UNL A   1      33.235  34.091  28.300  1.00  0.00     0.338 C 
ATOM     38  O   UNL A   1      32.543  35.077  28.471  1.00  0.00    -0.246 OA
BRANCH  37  39
ATOM     39  C   UNL A   1      34.376  33.720  29.156  1.00  0.00     0.060 A 
ATOM     40  C   UNL A   1      35.630  34.284  28.896  1.00  0.00     0.016 A 
ATOM     41  C   UNL A   1      34.199  32.823  30.212  1.00  0.00     0.016 A 
ATOM     42  C   UNL A   1      36.728  33.925  29.680  1.00  0.00     0.010 A 
ATOM     43  C   UNL A   1      35.299  32.451  30.984  1.00  0.00     0.010 A 
ATOM     44  C   UNL A   1      36.572  32.977  30.702  1.00  0.00    -0.014 A 
BRANCH  44  45
ATOM     45  C   UNL A   1      37.762  32.384  31.355  1.00  0.00     0.031 A 
ATOM     46  C   UNL A   1      38.495  31.290  30.633  1.00  0.00     0.074 A 
ATOM     47  C   UNL A   1      38.171  32.793  32.568  1.00  0.00     0.049 A 
ATOM     48  N   UNL A   1      39.510  30.565  31.028  1.00  0.00    -0.248 NA
ATOM     49  C   UNL A   1      38.014  30.966  29.279  1.00  0.00     0.031 C 
ATOM     50  C   UNL A   1      37.559  33.861  33.353  1.00  0.00     0.029 A 
ATOM     51  N   UNL A   1      39.196  32.335  33.358  1.00  0.00    -0.354 N 
ATOM     52  C   UNL A   1      39.785  29.702  29.977  1.00  0.00     0.074 A 
ATOM     53  C   UNL A   1      38.818  29.971  28.936  1.00  0.00     0.031 C 
ATOM     54  C   UNL A   1      38.210  33.966  34.525  1.00  0.00     0.029 A 
ATOM     55  C   UNL A   1      39.262  32.952  34.583  1.00  0.00     0.049 A 
ATOM     56  H   UNL A   1      39.823  31.632  33.074  1.00  0.00     0.167 HD
ATOM     57  C   UNL A   1      40.763  28.771  29.886  1.00  0.00     0.037 A 
ATOM     58  C   UNL A   1      40.066  32.703  35.635  1.00  0.00     0.037 A 
ATOM     59  C   UNL A   1      41.719  28.496  30.924  1.00  0.00     0.049 A 
ATOM     60  C   UNL A   1      41.100  31.609  35.535  1.00  0.00     0.074 A 
ATOM     61  C   UNL A   1      42.758  27.582  30.920  1.00  0.00     0.029 A 
ATOM     62  N   UNL A   1      41.743  29.129  32.156  1.00  0.00    -0.354 N 
ATOM     63  N   UNL A   1      41.378  30.820  34.526  1.00  0.00    -0.248 NA
ATOM     64  C   UNL A   1      41.932  31.372  36.724  1.00  0.00     0.031 C 
ATOM     65  C   UNL A   1      43.384  27.631  32.170  1.00  0.00     0.029 A 
ATOM     66  C   UNL A   1      42.765  28.608  32.933  1.00  0.00     0.049 A 
ATOM     67  H   UNL A   1      41.126  29.842  32.439  1.00  0.00     0.167 HD
ATOM     68  C   UNL A   1      42.432  30.017  34.946  1.00  0.00     0.074 A 
ATOM     69  C   UNL A   1      42.752  30.421  36.298  1.00  0.00     0.031 C 
ATOM     70  C   UNL A   1      43.078  29.032  34.273  1.00  0.00     0.037 A 
BRANCH  57  71
ATOM     71  C   UNL A   1      40.831  27.963  28.625  1.00  0.00     0.064 A 
ATOM     72  C   UNL A   1      40.123  26.759  28.488  1.00  0.00     0.173 A 
ATOM     73  C   UNL A   1      41.585  28.413  27.533  1.00  0.00     0.173 A 
ATOM     74  F   UNL A   1      39.403  26.278  29.511  1.00  0.00    -0.203 F 
ATOM     75  C   UNL A   1      40.183  26.027  27.305  1.00  0.00     0.198 A 
ATOM     76  C   UNL A   1      41.622  27.692  26.343  1.00  0.00     0.198 A 
ATOM     77  F   UNL A   1      42.280  29.558  27.617  1.00  0.00    -0.203 F 
ATOM     78  F   UNL A   1      39.530  24.860  27.207  1.00  0.00    -0.200 F 
ATOM     79  C   UNL A   1      40.925  26.497  26.232  1.00  0.00     0.200 A 
ATOM     80  F   UNL A   1      42.333  28.151  25.304  1.00  0.00    -0.200 F 
ATOM     81  F   UNL A   1      40.975  25.796  25.091  1.00  0.00    -0.200 F 
ENDBRANCH  57  71
BRANCH  58  82
ATOM     82  C   UNL A   1      39.920  33.487  36.889  1.00  0.00     0.064 A 
ATOM     83  C   UNL A   1      38.971  33.131  37.858  1.00  0.00     0.173 A 
ATOM     84  C   UNL A   1      40.697  34.630  37.126  1.00  0.00     0.173 A 
ATOM     85  F   UNL A   1      38.184  32.063  37.662  1.00  0.00    -0.203 F 
ATOM     86  C   UNL A   1      38.789  33.901  39.004  1.00  0.00     0.198 A 
ATOM     87  C   UNL A   1      40.533  35.384  38.287  1.00  0.00     0.198 A 
ATOM     88  F   UNL A   1      41.615  35.018  36.228  1.00  0.00    -0.203 F 
ATOM     89  F   UNL A   1      37.838  33.569  39.888  1.00  0.00    -0.200 F 
ATOM     90  C   UNL A   1      39.573  35.024  39.220  1.00  0.00     0.200 A 
ATOM     91  F   UNL A   1      41.298  36.464  38.496  1.00  0.00    -0.200 F 
ATOM     92  F   UNL A   1      39.396  35.767  40.322  1.00  0.00    -0.200 F 
ENDBRANCH  58  82
BRANCH  70  93
ATOM     93  C   UNL A   1      44.218  28.350  34.969  1.00  0.00     0.064 A 
ATOM     94  C   UNL A   1      45.522  28.863  34.923  1.00  0.00     0.173 A 
ATOM     95  C   UNL A   1      43.993  27.194  35.733  1.00  0.00     0.173 A 
ATOM     96  F   UNL A   1      45.791  29.958  34.196  1.00  0.00    -0.203 F 
ATOM     97  C   UNL A   1      46.563  28.232  35.599  1.00  0.00     0.198 A 
ATOM     98  C   UNL A   1      45.030  26.582  36.430  1.00  0.00     0.198 A 
ATOM     99  F   UNL A   1      42.762  26.667  35.816  1.00  0.00    -0.203 F 
ATOM    100  F   UNL A   1      47.809  28.716  35.507  1.00  0.00    -0.200 F 
ATOM    101  C   UNL A   1      46.316  27.098  36.358  1.00  0.00     0.200 A 
ATOM    102  F   UNL A   1      44.787  25.494  37.174  1.00  0.00    -0.200 F 
ATOM    103  F   UNL A   1      47.317  26.497  37.014  1.00  0.00    -0.200 F 
ENDBRANCH  70  93
ENDBRANCH  44  45
ENDBRANCH  37  39
ENDBRANCH  36  37
ENDBRANCH  35  36
ENDBRANCH  34  35
ENDBRANCH  33  34
ENDBRANCH  32  33
ENDBRANCH  31  32
ENDBRANCH   1  31
TORSDOF 23
ENDMDL
MODEL 3
REMARK VINA RESULT:      -9.9      3.225      4.874
REMARK SMILES COc1ccc(OC)c(N2C(=O)c3ccc(C(=O)OCCOCCOCCOCCOC(=O)c4ccc(-c5c6nc(c(-c7c(F)c(F)c(F)c(F)c7F)c7ccc([nH]7)c(-c7c(F)c(F)c(F)c(F)c7F)c7nc(c(-c8c(F)c(F)c(F)c(F)c8F)c8ccc5[nH]8)C=C7)C=C6)cc4)cc3C2=O)c1
REMARK SMILES IDX 25 1 24 2 23 3 22 4 21 5 20 6 19 7 17 8 18 9 16 10 10 11
REMARK SMILES IDX 11 12 99 13 12 14 13 15 98 16 100 17 14 18 97 19 15 20 9 21
REMARK SMILES IDX 3 22 4 23 101 24 5 25 6 26 2 27 1 28 7 29 8 30 26 31 27 32
REMARK SMILES IDX 28 33 29 34 30 35 31 36 32 37 33 38 34 39 35 40 96 41 36 42
REMARK SMILES IDX 95 43 37 44 38 45 39 46 89 47 40 48 94 49 88 50 90 51 41 52
REMARK SMILES IDX 93 53 87 54 86 55 42 57 74 58 54 59 73 60 55 61 58 62 72 63
REMARK SMILES IDX 91 64 56 65 57 66 71 68 92 69 59 70 43 71 44 72 52 73 45 74
REMARK SMILES IDX 46 75 50 76 53 77 47 78 48 79 51 80 49 81 75 82 76 83 84 84
REMARK SMILES IDX 77 85 78 86 82 87 85 88 79 89 80 90 83 91 81 92 60 93 61 94
REMARK SMILES IDX 69 95 62 96 63 97 67 98 70 99 64 100 65 101 68 102 66 103
REMARK H PARENT 90 56 58 67
REMARK Flexibility Score: inf
ROOT
ATOM      1  O   UNL A   1      30.992  29.099  22.735  1.00  0.00    -0.377 OA
ENDROOT
BRANCH   1   2
ATOM      2  C   UNL A   1      30.621  27.770  22.407  1.00  0.00     0.188 C 
BRANCH   2   3
ATOM      3  C   UNL A   1      29.506  27.093  23.219  1.00  0.00     0.188 C 
BRANCH   3   4
ATOM      4  O   UNL A   1      29.938  25.997  24.018  1.00  0.00    -0.376 OA
BRANCH   4   5
ATOM      5  C   UNL A   1      29.774  26.151  25.423  1.00  0.00     0.202 C 
BRANCH   5   6
ATOM      6  C   UNL A   1      30.950  26.866  26.101  1.00  0.00     0.261 C 
BRANCH   6   7
ATOM      7  O   UNL A   1      32.132  26.942  25.284  1.00  0.00    -0.460 OA
BRANCH   7   8
ATOM      8  C   UNL A   1      33.300  26.733  25.926  1.00  0.00     0.338 C 
ATOM      9  O   UNL A   1      33.913  27.517  26.627  1.00  0.00    -0.246 OA
BRANCH   8  10
ATOM     10  C   UNL A   1      33.632  25.303  25.820  1.00  0.00     0.060 A 
ATOM     11  N   UNL A   1      33.195  20.802  25.138  1.00  0.00    -0.238 N 
ATOM     12  C   UNL A   1      34.483  21.272  25.250  1.00  0.00     0.266 C 
ATOM     13  C   UNL A   1      32.290  21.781  25.488  1.00  0.00     0.266 C 
ATOM     14  O   UNL A   1      35.566  20.724  25.120  1.00  0.00    -0.268 OA
ATOM     15  C   UNL A   1      34.387  22.695  25.518  1.00  0.00     0.053 A 
ATOM     16  C   UNL A   1      33.051  23.021  25.634  1.00  0.00     0.054 A 
ATOM     17  O   UNL A   1      31.111  21.734  25.779  1.00  0.00    -0.268 OA
ATOM     18  C   UNL A   1      35.394  23.636  25.572  1.00  0.00     0.015 A 
ATOM     19  C   UNL A   1      32.630  24.326  25.814  1.00  0.00     0.030 A 
ATOM     20  C   UNL A   1      35.002  24.965  25.704  1.00  0.00     0.016 A 
BRANCH  11  21
ATOM     21  C   UNL A   1      32.890  19.488  24.693  1.00  0.00     0.098 A 
ATOM     22  C   UNL A   1      32.998  17.084  25.141  1.00  0.00     0.121 A 
ATOM     23  C   UNL A   1      32.626  16.828  23.823  1.00  0.00     0.050 A 
ATOM     24  C   UNL A   1      33.095  18.407  25.570  1.00  0.00     0.077 A 
ATOM     25  C   UNL A   1      32.382  17.882  22.936  1.00  0.00     0.052 A 
ATOM     26  C   UNL A   1      32.523  19.209  23.365  1.00  0.00     0.143 A 
BRANCH  22  27
ATOM     27  O   UNL A   1      33.280  15.983  25.904  1.00  0.00    -0.497 OA
ATOM     28  C   UNL A   1      32.679  14.753  25.506  1.00  0.00     0.278 C 
ENDBRANCH  22  27
BRANCH  26  29
ATOM     29  O   UNL A   1      32.587  20.195  22.412  1.00  0.00    -0.495 OA
ATOM     30  C   UNL A   1      31.707  19.952  21.313  1.00  0.00     0.278 C 
ENDBRANCH  26  29
ENDBRANCH  11  21
ENDBRANCH   8  10
ENDBRANCH   7   8
ENDBRANCH   6   7
ENDBRANCH   5   6
ENDBRANCH   4   5
ENDBRANCH   3   4
ENDBRANCH   2   3
ENDBRANCH   1   2
BRANCH   1  31
ATOM     31  C   UNL A   1      30.131  29.897  23.537  1.00  0.00     0.188 C 
BRANCH  31  32
ATOM     32  C   UNL A   1      30.665  30.664  24.763  1.00  0.00     0.188 C 
BRANCH  32  33
ATOM     33  O   UNL A   1      31.802  30.072  25.381  1.00  0.00    -0.376 OA
BRANCH  33  34
ATOM     34  C   UNL A   1      31.942  30.309  26.775  1.00  0.00     0.202 C 
BRANCH  34  35
ATOM     35  C   UNL A   1      33.100  31.257  27.102  1.00  0.00     0.261 C 
BRANCH  35  36
ATOM     36  O   UNL A   1      34.298  30.601  27.547  1.00  0.00    -0.460 OA
BRANCH  36  37
ATOM     37  C   UNL A   1      34.937  31.144  28.607  1.00  0.00     0.338 C 
ATOM     38  O   UNL A   1      34.508  31.970  29.390  1.00  0.00    -0.246 OA
BRANCH  37  39
ATOM     39  C   UNL A   1      36.217  30.432  28.768  1.00  0.00     0.060 A 
ATOM     40  C   UNL A   1      36.468  29.750  29.964  1.00  0.00     0.016 A 
ATOM     41  C   UNL A   1      37.159  30.437  27.736  1.00  0.00     0.016 A 
ATOM     42  C   UNL A   1      37.685  29.092  30.145  1.00  0.00     0.010 A 
ATOM     43  C   UNL A   1      38.381  29.795  27.924  1.00  0.00     0.010 A 
ATOM     44  C   UNL A   1      38.661  29.146  29.139  1.00  0.00    -0.014 A 
BRANCH  44  45
ATOM     45  C   UNL A   1      40.044  28.695  29.419  1.00  0.00     0.031 A 
ATOM     46  C   UNL A   1      40.941  29.608  30.205  1.00  0.00     0.074 A 
ATOM     47  C   UNL A   1      40.499  27.513  28.970  1.00  0.00     0.049 A 
ATOM     48  N   UNL A   1      42.207  29.474  30.508  1.00  0.00    -0.248 NA
ATOM     49  C   UNL A   1      40.327  30.846  30.714  1.00  0.00     0.031 C 
ATOM     50  C   UNL A   1      39.717  26.532  28.222  1.00  0.00     0.029 A 
ATOM     51  N   UNL A   1      41.747  26.949  29.067  1.00  0.00    -0.354 N 
ATOM     52  C   UNL A   1      42.538  30.606  31.239  1.00  0.00     0.074 A 
ATOM     53  C   UNL A   1      41.353  31.431  31.314  1.00  0.00     0.031 C 
ATOM     54  C   UNL A   1      40.510  25.492  27.911  1.00  0.00     0.029 A 
ATOM     55  C   UNL A   1      41.859  25.749  28.410  1.00  0.00     0.049 A 
ATOM     56  H   UNL A   1      42.490  27.366  29.561  1.00  0.00     0.167 HD
ATOM     57  C   UNL A   1      43.725  30.926  31.803  1.00  0.00     0.037 A 
ATOM     58  C   UNL A   1      42.938  24.966  28.217  1.00  0.00     0.037 A 
ATOM     59  C   UNL A   1      44.907  30.111  31.722  1.00  0.00     0.049 A 
ATOM     60  C   UNL A   1      44.269  25.382  28.794  1.00  0.00     0.074 A 
ATOM     61  C   UNL A   1      46.154  30.342  32.274  1.00  0.00     0.029 A 
ATOM     62  N   UNL A   1      44.987  28.911  31.033  1.00  0.00    -0.354 N 
ATOM     63  N   UNL A   1      44.568  26.437  29.514  1.00  0.00    -0.248 NA
ATOM     64  C   UNL A   1      45.413  24.497  28.529  1.00  0.00     0.031 C 
ATOM     65  C   UNL A   1      47.003  29.302  31.881  1.00  0.00     0.029 A 
ATOM     66  C   UNL A   1      46.272  28.400  31.125  1.00  0.00     0.049 A 
ATOM     67  H   UNL A   1      44.243  28.485  30.549  1.00  0.00     0.167 HD
ATOM     68  C   UNL A   1      45.921  26.326  29.812  1.00  0.00     0.074 A 
ATOM     69  C   UNL A   1      46.384  25.097  29.205  1.00  0.00     0.031 C 
ATOM     70  C   UNL A   1      46.711  27.167  30.524  1.00  0.00     0.037 A 
BRANCH  57  71
ATOM     71  C   UNL A   1      43.811  32.228  32.541  1.00  0.00     0.064 A 
ATOM     72  C   UNL A   1      43.519  32.315  33.910  1.00  0.00     0.173 A 
ATOM     73  C   UNL A   1      44.220  33.394  31.879  1.00  0.00     0.173 A 
ATOM     74  F   UNL A   1      43.105  31.231  34.583  1.00  0.00    -0.203 F 
ATOM     75  C   UNL A   1      43.617  33.528  34.586  1.00  0.00     0.198 A 
ATOM     76  C   UNL A   1      44.343  34.600  32.563  1.00  0.00     0.198 A 
ATOM     77  F   UNL A   1      44.510  33.361  30.569  1.00  0.00    -0.203 F 
ATOM     78  F   UNL A   1      43.297  33.598  35.886  1.00  0.00    -0.200 F 
ATOM     79  C   UNL A   1      44.037  34.667  33.914  1.00  0.00     0.200 A 
ATOM     80  F   UNL A   1      44.756  35.697  31.915  1.00  0.00    -0.200 F 
ATOM     81  F   UNL A   1      44.140  35.832  34.567  1.00  0.00    -0.200 F 
ENDBRANCH  57  71
BRANCH  58  82
ATOM     82  C   UNL A   1      42.822  23.715  27.423  1.00  0.00     0.064 A 
ATOM     83  C   UNL A   1      42.336  22.534  28.004  1.00  0.00     0.173 A 
ATOM     84  C   UNL A   1      43.232  23.663  26.084  1.00  0.00     0.173 A 
ATOM     85  F   UNL A   1      41.959  22.527  29.291  1.00  0.00    -0.203 F 
ATOM     86  C   UNL A   1      42.286  21.344  27.280  1.00  0.00     0.198 A 
ATOM     87  C   UNL A   1      43.156  22.478  25.353  1.00  0.00     0.198 A 
ATOM     88  F   UNL A   1      43.712  24.762  25.484  1.00  0.00    -0.203 F 
ATOM     89  F   UNL A   1      41.868  20.218  27.874  1.00  0.00    -0.200 F 
ATOM     90  C   UNL A   1      42.692  21.319  25.955  1.00  0.00     0.200 A 
ATOM     91  F   UNL A   1      43.542  22.459  24.070  1.00  0.00    -0.200 F 
ATOM     92  F   UNL A   1      42.647  20.173  25.259  1.00  0.00    -0.200 F 
ENDBRANCH  58  82
BRANCH  70  93
ATOM     93  C   UNL A   1      48.144  26.771  30.722  1.00  0.00     0.064 A 
ATOM     94  C   UNL A   1      48.533  25.901  31.749  1.00  0.00     0.173 A 
ATOM     95  C   UNL A   1      49.135  27.231  29.840  1.00  0.00     0.173 A 
ATOM     96  F   UNL A   1      47.626  25.444  32.627  1.00  0.00    -0.203 F 
ATOM     97  C   UNL A   1      49.865  25.521  31.900  1.00  0.00     0.198 A 
ATOM     98  C   UNL A   1      50.460  26.827  29.976  1.00  0.00     0.198 A 
ATOM     99  F   UNL A   1      48.814  28.060  28.835  1.00  0.00    -0.203 F 
ATOM    100  F   UNL A   1      50.220  24.721  32.915  1.00  0.00    -0.200 F 
ATOM    101  C   UNL A   1      50.824  25.978  31.010  1.00  0.00     0.200 A 
ATOM    102  F   UNL A   1      51.384  27.258  29.107  1.00  0.00    -0.200 F 
ATOM    103  F   UNL A   1      52.104  25.605  31.151  1.00  0.00    -0.200 F 
ENDBRANCH  70  93
ENDBRANCH  44  45
ENDBRANCH  37  39
ENDBRANCH  36  37
ENDBRANCH  35  36
ENDBRANCH  34  35
ENDBRANCH  33  34
ENDBRANCH  32  33
ENDBRANCH  31  32
ENDBRANCH   1  31
TORSDOF 23
ENDMDL
