MODEL 1
REMARK VINA RESULT:     -11.2      0.000      0.000
REMARK SMILES Cc1cc(Nc2nc3c(c(OCC(=O)OCCOCCOCCOCCOC(=O)c4ccc(-c5c6nc(c(-c7c(F)c(F)c(F)c(F)c7F)c7ccc([nH]7)c(-c7c(F)c(F)c(F)c(F)c7F)c7nc(c(-c8c(F)c(F)c(F)c(F)c8F)c8ccc5[nH]8)C=C7)C=C6)cc4)n2)CCCC3)ccc1Br
REMARK SMILES IDX 20 1 19 2 18 3 17 4 16 5 15 6 13 7 14 8 12 9 11 10 10 11
REMARK SMILES IDX 6 12 7 13 93 14 8 15 9 16 97 17 94 18 96 19 95 20 5 21 4 23
REMARK SMILES IDX 1 24 2 25 3 26 100 27 99 28 101 29 98 30 21 31 22 32 23 33
REMARK SMILES IDX 24 34 25 35 26 36 27 37 28 38 29 39 30 40 31 41 92 42 32 43
REMARK SMILES IDX 91 44 33 45 34 46 35 47 85 48 36 49 90 50 84 51 86 52 37 53
REMARK SMILES IDX 89 54 83 55 82 56 38 58 70 59 50 60 69 61 51 62 54 63 68 64
REMARK SMILES IDX 87 65 52 66 53 67 67 69 88 70 55 71 39 72 40 73 48 74 41 75
REMARK SMILES IDX 42 76 46 77 49 78 43 79 44 80 47 81 45 82 71 83 72 84 80 85
REMARK SMILES IDX 73 86 74 87 78 88 81 89 75 90 76 91 79 92 77 93 56 94 57 95
REMARK SMILES IDX 65 96 58 97 59 98 63 99 66 100 60 101 61 102 64 103 62 104
REMARK H PARENT 5 22 86 57 54 68
REMARK Flexibility Score: inf
ROOT
ATOM      1  C   UNL A   1      32.499  29.468  26.266  1.00  0.00     0.188 C 
ENDROOT
BRANCH   1   2
ATOM      2  C   UNL A   1      32.639  28.233  27.189  1.00  0.00     0.188 C 
BRANCH   2   3
ATOM      3  O   UNL A   1      33.530  27.251  26.702  1.00  0.00    -0.376 OA
BRANCH   3   4
ATOM      4  C   UNL A   1      33.087  26.277  25.780  1.00  0.00     0.202 C 
BRANCH   4   5
ATOM      5  C   UNL A   1      33.758  24.894  25.662  1.00  0.00     0.261 C 
BRANCH   5   6
ATOM      6  O   UNL A   1      33.940  24.145  26.879  1.00  0.00    -0.461 OA
BRANCH   6   7
ATOM      7  C   UNL A   1      33.050  23.172  27.190  1.00  0.00     0.344 C 
ATOM      8  O   UNL A   1      31.885  23.393  27.498  1.00  0.00    -0.248 OA
BRANCH   7   9
ATOM      9  C   UNL A   1      33.660  21.750  27.118  1.00  0.00     0.353 C 
BRANCH   9  10
ATOM     10  O   UNL A   1      34.210  21.243  25.904  1.00  0.00    -0.465 OA
BRANCH  10  11
ATOM     11  C   UNL A   1      33.363  21.139  24.805  1.00  0.00     0.222 A 
ATOM     12  C   UNL A   1      32.499  22.062  22.883  1.00  0.00     0.230 A 
ATOM     13  N   UNL A   1      32.154  20.857  22.407  1.00  0.00    -0.217 NA
ATOM     14  N   UNL A   1      33.121  22.242  24.065  1.00  0.00    -0.177 NA
ATOM     15  C   UNL A   1      32.458  19.765  23.134  1.00  0.00     0.053 A 
ATOM     16  C   UNL A   1      33.034  19.851  24.391  1.00  0.00     0.036 A 
ATOM     17  C   UNL A   1      32.193  18.443  22.455  1.00  0.00     0.057 C 
ATOM     18  C   UNL A   1      33.410  18.617  25.164  1.00  0.00     0.043 C 
ATOM     19  C   UNL A   1      32.900  17.264  23.117  1.00  0.00     0.007 C 
ATOM     20  C   UNL A   1      32.737  17.347  24.628  1.00  0.00     0.005 C 
BRANCH  12  21
ATOM     21  N   UNL A   1      32.375  23.175  22.052  1.00  0.00    -0.324 N 
ATOM     22  H   UNL A   1      32.566  22.998  21.103  1.00  0.00     0.170 HD
BRANCH  21  23
ATOM     23  C   UNL A   1      32.025  24.504  22.334  1.00  0.00     0.041 A 
ATOM     24  C   UNL A   1      29.158  26.325  24.097  1.00  0.00     0.045 C 
ATOM     25  C   UNL A   1      30.431  26.098  23.329  1.00  0.00    -0.035 A 
ATOM     26  C   UNL A   1      30.868  24.778  23.085  1.00  0.00     0.030 A 
ATOM     27  C   UNL A   1      31.177  27.157  22.792  1.00  0.00     0.021 A 
ATOM     28  C   UNL A   1      32.368  26.903  22.112  1.00  0.00     0.018 A 
ATOM     29  Br  UNL A   1      30.609  28.965  22.918  1.00  0.00    -0.051 Br
ATOM     30  C   UNL A   1      32.796  25.589  21.909  1.00  0.00     0.027 A 
ENDBRANCH  21  23
ENDBRANCH  12  21
ENDBRANCH  10  11
ENDBRANCH   9  10
ENDBRANCH   7   9
ENDBRANCH   6   7
ENDBRANCH   5   6
ENDBRANCH   4   5
ENDBRANCH   3   4
ENDBRANCH   2   3
ENDBRANCH   1   2
BRANCH   1  31
ATOM     31  O   UNL A   1      33.096  30.725  26.533  1.00  0.00    -0.377 OA
BRANCH  31  32
ATOM     32  C   UNL A   1      33.656  30.898  27.807  1.00  0.00     0.188 C 
BRANCH  32  33
ATOM     33  C   UNL A   1      34.546  32.146  27.890  1.00  0.00     0.188 C 
BRANCH  33  34
ATOM     34  O   UNL A   1      34.040  33.235  28.634  1.00  0.00    -0.376 OA
BRANCH  34  35
ATOM     35  C   UNL A   1      34.714  33.811  29.745  1.00  0.00     0.202 C 
BRANCH  35  36
ATOM     36  C   UNL A   1      34.690  33.376  31.225  1.00  0.00     0.261 C 
BRANCH  36  37
ATOM     37  O   UNL A   1      34.946  32.019  31.548  1.00  0.00    -0.460 OA
BRANCH  37  38
ATOM     38  C   UNL A   1      35.943  31.783  32.417  1.00  0.00     0.338 C 
ATOM     39  O   UNL A   1      35.948  31.954  33.625  1.00  0.00    -0.246 OA
BRANCH  38  40
ATOM     40  C   UNL A   1      36.971  31.050  31.665  1.00  0.00     0.060 A 
ATOM     41  C   UNL A   1      38.155  30.717  32.333  1.00  0.00     0.016 A 
ATOM     42  C   UNL A   1      36.740  30.637  30.350  1.00  0.00     0.016 A 
ATOM     43  C   UNL A   1      39.112  29.947  31.692  1.00  0.00     0.010 A 
ATOM     44  C   UNL A   1      37.730  29.918  29.682  1.00  0.00     0.010 A 
ATOM     45  C   UNL A   1      38.924  29.596  30.349  1.00  0.00    -0.014 A 
BRANCH  45  46
ATOM     46  C   UNL A   1      40.113  29.170  29.592  1.00  0.00     0.031 A 
ATOM     47  C   UNL A   1      41.220  30.173  29.453  1.00  0.00     0.074 A 
ATOM     48  C   UNL A   1      40.240  27.911  29.145  1.00  0.00     0.049 A 
ATOM     49  N   UNL A   1      42.391  30.045  28.890  1.00  0.00    -0.248 NA
ATOM     50  C   UNL A   1      40.978  31.501  30.048  1.00  0.00     0.031 C 
ATOM     51  C   UNL A   1      39.248  26.851  29.306  1.00  0.00     0.029 A 
ATOM     52  N   UNL A   1      41.275  27.310  28.478  1.00  0.00    -0.354 N 
ATOM     53  C   UNL A   1      43.026  31.264  29.079  1.00  0.00     0.074 A 
ATOM     54  C   UNL A   1      42.105  32.135  29.770  1.00  0.00     0.031 C 
ATOM     55  C   UNL A   1      39.724  25.724  28.749  1.00  0.00     0.029 A 
ATOM     56  C   UNL A   1      41.040  25.993  28.173  1.00  0.00     0.049 A 
ATOM     57  H   UNL A   1      42.108  27.778  28.241  1.00  0.00     0.167 HD
ATOM     58  C   UNL A   1      44.279  31.617  28.719  1.00  0.00     0.037 A 
ATOM     59  C   UNL A   1      41.808  25.120  27.492  1.00  0.00     0.037 A 
ATOM     60  C   UNL A   1      45.175  30.743  28.017  1.00  0.00     0.049 A 
ATOM     61  C   UNL A   1      43.157  25.577  26.995  1.00  0.00     0.074 A 
ATOM     62  C   UNL A   1      46.459  31.001  27.575  1.00  0.00     0.029 A 
ATOM     63  N   UNL A   1      44.872  29.440  27.648  1.00  0.00    -0.354 N 
ATOM     64  N   UNL A   1      43.758  26.730  27.175  1.00  0.00    -0.248 NA
ATOM     65  C   UNL A   1      43.933  24.617  26.201  1.00  0.00     0.031 C 
ATOM     66  C   UNL A   1      46.912  29.872  26.889  1.00  0.00     0.029 A 
ATOM     67  C   UNL A   1      45.936  28.889  26.957  1.00  0.00     0.049 A 
ATOM     68  H   UNL A   1      44.026  28.977  27.848  1.00  0.00     0.167 HD
ATOM     69  C   UNL A   1      44.989  26.625  26.541  1.00  0.00     0.074 A 
ATOM     70  C   UNL A   1      45.056  25.289  25.986  1.00  0.00     0.031 C 
ATOM     71  C   UNL A   1      45.975  27.550  26.424  1.00  0.00     0.037 A 
BRANCH  58  72
ATOM     72  C   UNL A   1      44.736  33.003  29.053  1.00  0.00     0.064 A 
ATOM     73  C   UNL A   1      45.461  33.276  30.223  1.00  0.00     0.173 A 
ATOM     74  C   UNL A   1      44.485  34.065  28.172  1.00  0.00     0.173 A 
ATOM     75  F   UNL A   1      45.704  32.300  31.111  1.00  0.00    -0.203 F 
ATOM     76  C   UNL A   1      45.911  34.564  30.501  1.00  0.00     0.198 A 
ATOM     77  C   UNL A   1      44.962  35.345  28.439  1.00  0.00     0.198 A 
ATOM     78  F   UNL A   1      43.788  33.857  27.045  1.00  0.00    -0.203 F 
ATOM     79  F   UNL A   1      46.570  34.810  31.642  1.00  0.00    -0.200 F 
ATOM     80  C   UNL A   1      45.672  35.594  29.604  1.00  0.00     0.200 A 
ATOM     81  F   UNL A   1      44.738  36.337  27.566  1.00  0.00    -0.200 F 
ATOM     82  F   UNL A   1      46.123  36.829  29.864  1.00  0.00    -0.200 F 
ENDBRANCH  58  72
BRANCH  59  83
ATOM     83  C   UNL A   1      41.321  23.737  27.244  1.00  0.00     0.064 A 
ATOM     84  C   UNL A   1      40.200  23.495  26.438  1.00  0.00     0.173 A 
ATOM     85  C   UNL A   1      41.968  22.626  27.807  1.00  0.00     0.173 A 
ATOM     86  F   UNL A   1      39.532  24.525  25.896  1.00  0.00    -0.203 F 
ATOM     87  C   UNL A   1      39.741  22.199  26.210  1.00  0.00     0.198 A 
ATOM     88  C   UNL A   1      41.526  21.329  27.554  1.00  0.00     0.198 A 
ATOM     89  F   UNL A   1      43.043  22.798  28.591  1.00  0.00    -0.203 F 
ATOM     90  F   UNL A   1      38.645  22.000  25.465  1.00  0.00    -0.200 F 
ATOM     91  C   UNL A   1      40.409  21.117  26.761  1.00  0.00     0.200 A 
ATOM     92  F   UNL A   1      42.184  20.285  28.078  1.00  0.00    -0.200 F 
ATOM     93  F   UNL A   1      39.974  19.870  26.532  1.00  0.00    -0.200 F 
ENDBRANCH  59  83
BRANCH  71  94
ATOM     94  C   UNL A   1      47.220  27.152  25.686  1.00  0.00     0.064 A 
ATOM     95  C   UNL A   1      47.394  27.455  24.328  1.00  0.00     0.173 A 
ATOM     96  C   UNL A   1      48.289  26.551  26.370  1.00  0.00     0.173 A 
ATOM     97  F   UNL A   1      46.399  28.021  23.630  1.00  0.00    -0.203 F 
ATOM     98  C   UNL A   1      48.589  27.159  23.680  1.00  0.00     0.198 A 
ATOM     99  C   UNL A   1      49.494  26.290  25.726  1.00  0.00     0.198 A 
ATOM    100  F   UNL A   1      48.177  26.254  27.674  1.00  0.00    -0.203 F 
ATOM    101  F   UNL A   1      48.722  27.426  22.372  1.00  0.00    -0.200 F 
ATOM    102  C   UNL A   1      49.642  26.588  24.381  1.00  0.00     0.200 A 
ATOM    103  F   UNL A   1      50.518  25.760  26.412  1.00  0.00    -0.200 F 
ATOM    104  F   UNL A   1      50.799  26.328  23.759  1.00  0.00    -0.200 F 
ENDBRANCH  71  94
ENDBRANCH  45  46
ENDBRANCH  38  40
ENDBRANCH  37  38
ENDBRANCH  36  37
ENDBRANCH  35  36
ENDBRANCH  34  35
ENDBRANCH  33  34
ENDBRANCH  32  33
ENDBRANCH  31  32
ENDBRANCH   1  31
TORSDOF 24
ENDMDL
MODEL 2
REMARK VINA RESULT:     -11.2      5.182      9.424
REMARK SMILES Cc1cc(Nc2nc3c(c(OCC(=O)OCCOCCOCCOCCOC(=O)c4ccc(-c5c6nc(c(-c7c(F)c(F)c(F)c(F)c7F)c7ccc([nH]7)c(-c7c(F)c(F)c(F)c(F)c7F)c7nc(c(-c8c(F)c(F)c(F)c(F)c8F)c8ccc5[nH]8)C=C7)C=C6)cc4)n2)CCCC3)ccc1Br
REMARK SMILES IDX 20 1 19 2 18 3 17 4 16 5 15 6 13 7 14 8 12 9 11 10 10 11
REMARK SMILES IDX 6 12 7 13 93 14 8 15 9 16 97 17 94 18 96 19 95 20 5 21 4 23
REMARK SMILES IDX 1 24 2 25 3 26 100 27 99 28 101 29 98 30 21 31 22 32 23 33
REMARK SMILES IDX 24 34 25 35 26 36 27 37 28 38 29 39 30 40 31 41 92 42 32 43
REMARK SMILES IDX 91 44 33 45 34 46 35 47 85 48 36 49 90 50 84 51 86 52 37 53
REMARK SMILES IDX 89 54 83 55 82 56 38 58 70 59 50 60 69 61 51 62 54 63 68 64
REMARK SMILES IDX 87 65 52 66 53 67 67 69 88 70 55 71 39 72 40 73 48 74 41 75
REMARK SMILES IDX 42 76 46 77 49 78 43 79 44 80 47 81 45 82 71 83 72 84 80 85
REMARK SMILES IDX 73 86 74 87 78 88 81 89 75 90 76 91 79 92 77 93 56 94 57 95
REMARK SMILES IDX 65 96 58 97 59 98 63 99 66 100 60 101 61 102 64 103 62 104
REMARK H PARENT 5 22 86 57 54 68
REMARK Flexibility Score: inf
ROOT
ATOM      1  C   UNL A   1      33.325  29.714  26.622  1.00  0.00     0.188 C 
ENDROOT
BRANCH   1   2
ATOM      2  C   UNL A   1      33.757  28.247  26.866  1.00  0.00     0.188 C 
BRANCH   2   3
ATOM      3  O   UNL A   1      33.032  27.302  26.106  1.00  0.00    -0.376 OA
BRANCH   3   4
ATOM      4  C   UNL A   1      31.802  26.793  26.580  1.00  0.00     0.202 C 
BRANCH   4   5
ATOM      5  C   UNL A   1      31.258  25.421  26.138  1.00  0.00     0.261 C 
BRANCH   5   6
ATOM      6  O   UNL A   1      31.301  24.353  27.105  1.00  0.00    -0.461 OA
BRANCH   6   7
ATOM      7  C   UNL A   1      30.527  23.259  26.908  1.00  0.00     0.344 C 
ATOM      8  O   UNL A   1      29.576  22.965  27.624  1.00  0.00    -0.248 OA
BRANCH   7   9
ATOM      9  C   UNL A   1      30.970  22.416  25.687  1.00  0.00     0.353 C 
BRANCH   9  10
ATOM     10  O   UNL A   1      32.321  21.987  25.537  1.00  0.00    -0.465 OA
BRANCH  10  11
ATOM     11  C   UNL A   1      33.041  22.485  24.455  1.00  0.00     0.222 A 
ATOM     12  C   UNL A   1      33.261  24.045  22.779  1.00  0.00     0.230 A 
ATOM     13  N   UNL A   1      34.580  23.822  22.684  1.00  0.00    -0.217 NA
ATOM     14  N   UNL A   1      32.463  23.413  23.663  1.00  0.00    -0.177 NA
ATOM     15  C   UNL A   1      35.146  22.935  23.525  1.00  0.00     0.053 A 
ATOM     16  C   UNL A   1      34.400  22.185  24.420  1.00  0.00     0.036 A 
ATOM     17  C   UNL A   1      36.653  22.866  23.472  1.00  0.00     0.057 C 
ATOM     18  C   UNL A   1      35.058  21.237  25.383  1.00  0.00     0.043 C 
ATOM     19  C   UNL A   1      37.275  22.171  24.679  1.00  0.00     0.007 C 
ATOM     20  C   UNL A   1      36.503  20.897  24.996  1.00  0.00     0.005 C 
BRANCH  12  21
ATOM     21  N   UNL A   1      32.704  25.103  22.060  1.00  0.00    -0.324 N 
ATOM     22  H   UNL A   1      32.800  25.026  21.084  1.00  0.00     0.170 HD
BRANCH  21  23
ATOM     23  C   UNL A   1      32.030  26.257  22.488  1.00  0.00     0.041 A 
ATOM     24  C   UNL A   1      28.461  27.195  23.501  1.00  0.00     0.045 C 
ATOM     25  C   UNL A   1      29.927  27.330  23.193  1.00  0.00    -0.035 A 
ATOM     26  C   UNL A   1      30.669  26.184  22.832  1.00  0.00     0.030 A 
ATOM     27  C   UNL A   1      30.579  28.571  23.195  1.00  0.00     0.021 A 
ATOM     28  C   UNL A   1      31.946  28.648  22.932  1.00  0.00     0.018 A 
ATOM     29  Br  UNL A   1      29.656  30.202  23.511  1.00  0.00    -0.051 Br
ATOM     30  C   UNL A   1      32.666  27.496  22.607  1.00  0.00     0.027 A 
ENDBRANCH  21  23
ENDBRANCH  12  21
ENDBRANCH  10  11
ENDBRANCH   9  10
ENDBRANCH   7   9
ENDBRANCH   6   7
ENDBRANCH   5   6
ENDBRANCH   4   5
ENDBRANCH   3   4
ENDBRANCH   2   3
ENDBRANCH   1   2
BRANCH   1  31
ATOM     31  O   UNL A   1      34.154  30.834  26.876  1.00  0.00    -0.377 OA
BRANCH  31  32
ATOM     32  C   UNL A   1      33.904  31.547  28.057  1.00  0.00     0.188 C 
BRANCH  32  33
ATOM     33  C   UNL A   1      34.995  32.586  28.355  1.00  0.00     0.188 C 
BRANCH  33  34
ATOM     34  O   UNL A   1      34.932  33.795  27.627  1.00  0.00    -0.376 OA
BRANCH  34  35
ATOM     35  C   UNL A   1      34.510  35.031  28.188  1.00  0.00     0.202 C 
BRANCH  35  36
ATOM     36  C   UNL A   1      33.281  35.325  29.072  1.00  0.00     0.261 C 
BRANCH  36  37
ATOM     37  O   UNL A   1      33.097  34.581  30.265  1.00  0.00    -0.460 OA
BRANCH  37  38
ATOM     38  C   UNL A   1      33.160  35.265  31.420  1.00  0.00     0.338 C 
ATOM     39  O   UNL A   1      32.368  36.083  31.858  1.00  0.00    -0.246 OA
BRANCH  38  40
ATOM     40  C   UNL A   1      34.267  34.671  32.183  1.00  0.00     0.060 A 
ATOM     41  C   UNL A   1      35.531  35.260  32.068  1.00  0.00     0.016 A 
ATOM     42  C   UNL A   1      34.044  33.598  33.051  1.00  0.00     0.016 A 
ATOM     43  C   UNL A   1      36.580  34.791  32.841  1.00  0.00     0.010 A 
ATOM     44  C   UNL A   1      35.115  33.083  33.780  1.00  0.00     0.010 A 
ATOM     45  C   UNL A   1      36.386  33.666  33.653  1.00  0.00    -0.014 A 
BRANCH  45  46
ATOM     46  C   UNL A   1      37.589  32.949  34.108  1.00  0.00     0.031 A 
ATOM     47  C   UNL A   1      38.140  31.903  33.184  1.00  0.00     0.074 A 
ATOM     48  C   UNL A   1      38.218  33.292  35.242  1.00  0.00     0.049 A 
ATOM     49  N   UNL A   1      39.210  31.165  33.309  1.00  0.00    -0.248 NA
ATOM     50  C   UNL A   1      37.387  31.667  31.938  1.00  0.00     0.031 C 
ATOM     51  C   UNL A   1      37.796  34.351  36.157  1.00  0.00     0.029 A 
ATOM     52  N   UNL A   1      39.364  32.794  35.803  1.00  0.00    -0.354 N 
ATOM     53  C   UNL A   1      39.265  30.397  32.155  1.00  0.00     0.074 A 
ATOM     54  C   UNL A   1      38.106  30.722  31.357  1.00  0.00     0.031 C 
ATOM     55  C   UNL A   1      38.675  34.421  37.172  1.00  0.00     0.029 A 
ATOM     56  C   UNL A   1      39.703  33.398  36.988  1.00  0.00     0.049 A 
ATOM     57  H   UNL A   1      39.894  32.071  35.395  1.00  0.00     0.167 HD
ATOM     58  C   UNL A   1      40.214  29.509  31.788  1.00  0.00     0.037 A 
ATOM     59  C   UNL A   1      40.725  33.133  37.825  1.00  0.00     0.037 A 
ATOM     60  C   UNL A   1      41.351  29.186  32.602  1.00  0.00     0.049 A 
ATOM     61  C   UNL A   1      41.706  32.051  37.448  1.00  0.00     0.074 A 
ATOM     62  C   UNL A   1      42.364  28.282  32.347  1.00  0.00     0.029 A 
ATOM     63  N   UNL A   1      41.619  29.757  33.839  1.00  0.00    -0.354 N 
ATOM     64  N   UNL A   1      41.760  31.326  36.355  1.00  0.00    -0.248 NA
ATOM     65  C   UNL A   1      42.767  31.748  38.417  1.00  0.00     0.031 C 
ATOM     66  C   UNL A   1      43.214  28.264  33.454  1.00  0.00     0.029 A 
ATOM     67  C   UNL A   1      42.768  29.202  34.373  1.00  0.00     0.049 A 
ATOM     68  H   UNL A   1      41.072  30.453  34.271  1.00  0.00     0.167 HD
ATOM     69  C   UNL A   1      42.869  30.502  36.493  1.00  0.00     0.074 A 
ATOM     70  C   UNL A   1      43.471  30.830  37.769  1.00  0.00     0.031 C 
ATOM     71  C   UNL A   1      43.347  29.557  35.645  1.00  0.00     0.037 A 
BRANCH  58  72
ATOM     72  C   UNL A   1      40.047  28.813  30.473  1.00  0.00     0.064 A 
ATOM     73  C   UNL A   1      40.581  29.342  29.288  1.00  0.00     0.173 A 
ATOM     74  C   UNL A   1      39.382  27.581  30.401  1.00  0.00     0.173 A 
ATOM     75  F   UNL A   1      41.203  30.531  29.300  1.00  0.00    -0.203 F 
ATOM     76  C   UNL A   1      40.449  28.665  28.079  1.00  0.00     0.198 A 
ATOM     77  C   UNL A   1      39.278  26.893  29.197  1.00  0.00     0.198 A 
ATOM     78  F   UNL A   1      38.845  27.038  31.505  1.00  0.00    -0.203 F 
ATOM     79  F   UNL A   1      40.936  29.205  26.954  1.00  0.00    -0.200 F 
ATOM     80  C   UNL A   1      39.809  27.436  28.036  1.00  0.00     0.200 A 
ATOM     81  F   UNL A   1      38.667  25.700  29.159  1.00  0.00    -0.200 F 
ATOM     82  F   UNL A   1      39.700  26.776  26.876  1.00  0.00    -0.200 F 
ENDBRANCH  58  72
BRANCH  59  83
ATOM     83  C   UNL A   1      40.870  33.902  39.089  1.00  0.00     0.064 A 
ATOM     84  C   UNL A   1      41.661  35.057  39.149  1.00  0.00     0.173 A 
ATOM     85  C   UNL A   1      40.218  33.500  40.265  1.00  0.00     0.173 A 
ATOM     86  F   UNL A   1      42.325  35.471  38.058  1.00  0.00    -0.203 F 
ATOM     87  C   UNL A   1      41.801  35.776  40.335  1.00  0.00     0.198 A 
ATOM     88  C   UNL A   1      40.334  34.235  41.442  1.00  0.00     0.198 A 
ATOM     89  F   UNL A   1      39.452  32.398  40.266  1.00  0.00    -0.203 F 
ATOM     90  F   UNL A   1      42.593  36.855  40.373  1.00  0.00    -0.200 F 
ATOM     91  C   UNL A   1      41.131  35.369  41.479  1.00  0.00     0.200 A 
ATOM     92  F   UNL A   1      39.672  33.845  42.541  1.00  0.00    -0.200 F 
ATOM     93  F   UNL A   1      41.256  36.066  42.616  1.00  0.00    -0.200 F 
ENDBRANCH  59  83
BRANCH  71  94
ATOM     94  C   UNL A   1      44.589  28.818  36.052  1.00  0.00     0.064 A 
ATOM     95  C   UNL A   1      44.522  27.597  36.736  1.00  0.00     0.173 A 
ATOM     96  C   UNL A   1      45.853  29.289  35.663  1.00  0.00     0.173 A 
ATOM     97  F   UNL A   1      43.338  27.110  37.136  1.00  0.00    -0.203 F 
ATOM     98  C   UNL A   1      45.679  26.880  37.029  1.00  0.00     0.198 A 
ATOM     99  C   UNL A   1      47.003  28.551  35.926  1.00  0.00     0.198 A 
ATOM    100  F   UNL A   1      45.969  30.446  34.992  1.00  0.00    -0.203 F 
ATOM    101  F   UNL A   1      45.596  25.731  37.715  1.00  0.00    -0.200 F 
ATOM    102  C   UNL A   1      46.916  27.351  36.613  1.00  0.00     0.200 A 
ATOM    103  F   UNL A   1      48.195  28.996  35.503  1.00  0.00    -0.200 F 
ATOM    104  F   UNL A   1      48.025  26.646  36.875  1.00  0.00    -0.200 F 
ENDBRANCH  71  94
ENDBRANCH  45  46
ENDBRANCH  38  40
ENDBRANCH  37  38
ENDBRANCH  36  37
ENDBRANCH  35  36
ENDBRANCH  34  35
ENDBRANCH  33  34
ENDBRANCH  32  33
ENDBRANCH  31  32
ENDBRANCH   1  31
TORSDOF 24
ENDMDL
MODEL 3
REMARK VINA RESULT:     -10.7      5.219      8.027
REMARK SMILES Cc1cc(Nc2nc3c(c(OCC(=O)OCCOCCOCCOCCOC(=O)c4ccc(-c5c6nc(c(-c7c(F)c(F)c(F)c(F)c7F)c7ccc([nH]7)c(-c7c(F)c(F)c(F)c(F)c7F)c7nc(c(-c8c(F)c(F)c(F)c(F)c8F)c8ccc5[nH]8)C=C7)C=C6)cc4)n2)CCCC3)ccc1Br
REMARK SMILES IDX 20 1 19 2 18 3 17 4 16 5 15 6 13 7 14 8 12 9 11 10 10 11
REMARK SMILES IDX 6 12 7 13 93 14 8 15 9 16 97 17 94 18 96 19 95 20 5 21 4 23
REMARK SMILES IDX 1 24 2 25 3 26 100 27 99 28 101 29 98 30 21 31 22 32 23 33
REMARK SMILES IDX 24 34 25 35 26 36 27 37 28 38 29 39 30 40 31 41 92 42 32 43
REMARK SMILES IDX 91 44 33 45 34 46 35 47 85 48 36 49 90 50 84 51 86 52 37 53
REMARK SMILES IDX 89 54 83 55 82 56 38 58 70 59 50 60 69 61 51 62 54 63 68 64
REMARK SMILES IDX 87 65 52 66 53 67 67 69 88 70 55 71 39 72 40 73 48 74 41 75
REMARK SMILES IDX 42 76 46 77 49 78 43 79 44 80 47 81 45 82 71 83 72 84 80 85
REMARK SMILES IDX 73 86 74 87 78 88 81 89 75 90 76 91 79 92 77 93 56 94 57 95
REMARK SMILES IDX 65 96 58 97 59 98 63 99 66 100 60 101 61 102 64 103 62 104
REMARK H PARENT 5 22 86 57 54 68
REMARK Flexibility Score: inf
ROOT
ATOM      1  C   UNL A   1      33.863  31.012  27.614  1.00  0.00     0.188 C 
ENDROOT
BRANCH   1   2
ATOM      2  C   UNL A   1      33.763  29.639  26.906  1.00  0.00     0.188 C 
BRANCH   2   3
ATOM      3  O   UNL A   1      32.786  29.589  25.887  1.00  0.00    -0.376 OA
BRANCH   3   4
ATOM      4  C   UNL A   1      33.033  28.874  24.694  1.00  0.00     0.202 C 
BRANCH   4   5
ATOM      5  C   UNL A   1      32.182  29.078  23.425  1.00  0.00     0.261 C 
BRANCH   5   6
ATOM      6  O   UNL A   1      32.253  28.055  22.413  1.00  0.00    -0.461 OA
BRANCH   6   7
ATOM      7  C   UNL A   1      33.466  27.575  22.048  1.00  0.00     0.344 C 
ATOM      8  O   UNL A   1      34.369  28.280  21.612  1.00  0.00    -0.248 OA
BRANCH   7   9
ATOM      9  C   UNL A   1      33.593  26.043  22.237  1.00  0.00     0.353 C 
BRANCH   9  10
ATOM     10  O   UNL A   1      32.476  25.180  22.040  1.00  0.00    -0.465 OA
BRANCH  10  11
ATOM     11  C   UNL A   1      32.248  24.190  22.990  1.00  0.00     0.222 A 
ATOM     12  C   UNL A   1      32.994  22.335  24.127  1.00  0.00     0.230 A 
ATOM     13  N   UNL A   1      32.127  22.544  25.127  1.00  0.00    -0.217 NA
ATOM     14  N   UNL A   1      33.098  23.144  23.054  1.00  0.00    -0.177 NA
ATOM     15  C   UNL A   1      31.328  23.628  25.073  1.00  0.00     0.053 A 
ATOM     16  C   UNL A   1      31.313  24.480  23.980  1.00  0.00     0.036 A 
ATOM     17  C   UNL A   1      30.506  23.887  26.312  1.00  0.00     0.057 C 
ATOM     18  C   UNL A   1      30.449  25.710  23.962  1.00  0.00     0.043 C 
ATOM     19  C   UNL A   1      29.933  25.300  26.379  1.00  0.00     0.007 C 
ATOM     20  C   UNL A   1      29.347  25.685  25.028  1.00  0.00     0.005 C 
BRANCH  12  21
ATOM     21  N   UNL A   1      33.960  21.339  24.271  1.00  0.00    -0.324 N 
ATOM     22  H   UNL A   1      33.677  20.449  23.959  1.00  0.00     0.170 HD
BRANCH  21  23
ATOM     23  C   UNL A   1      35.266  21.386  24.783  1.00  0.00     0.041 A 
ATOM     24  C   UNL A   1      37.640  24.061  26.142  1.00  0.00     0.045 C 
ATOM     25  C   UNL A   1      37.122  22.720  25.701  1.00  0.00    -0.035 A 
ATOM     26  C   UNL A   1      35.790  22.604  25.250  1.00  0.00     0.030 A 
ATOM     27  C   UNL A   1      37.939  21.580  25.667  1.00  0.00     0.021 A 
ATOM     28  C   UNL A   1      37.410  20.349  25.280  1.00  0.00     0.018 A 
ATOM     29  Br  UNL A   1      39.787  21.641  26.100  1.00  0.00    -0.051 Br
ATOM     30  C   UNL A   1      36.080  20.253  24.866  1.00  0.00     0.027 A 
ENDBRANCH  21  23
ENDBRANCH  12  21
ENDBRANCH  10  11
ENDBRANCH   9  10
ENDBRANCH   7   9
ENDBRANCH   6   7
ENDBRANCH   5   6
ENDBRANCH   4   5
ENDBRANCH   3   4
ENDBRANCH   2   3
ENDBRANCH   1   2
BRANCH   1  31
ATOM     31  O   UNL A   1      34.871  31.347  28.551  1.00  0.00    -0.377 OA
BRANCH  31  32
ATOM     32  C   UNL A   1      34.731  32.574  29.217  1.00  0.00     0.188 C 
BRANCH  32  33
ATOM     33  C   UNL A   1      35.354  33.738  28.434  1.00  0.00     0.188 C 
BRANCH  33  34
ATOM     34  O   UNL A   1      34.458  34.674  27.873  1.00  0.00    -0.376 OA
BRANCH  34  35
ATOM     35  C   UNL A   1      34.049  35.866  28.531  1.00  0.00     0.202 C 
BRANCH  35  36
ATOM     36  C   UNL A   1      32.971  36.052  29.618  1.00  0.00     0.261 C 
BRANCH  36  37
ATOM     37  O   UNL A   1      32.791  35.035  30.591  1.00  0.00    -0.460 OA
BRANCH  37  38
ATOM     38  C   UNL A   1      32.874  35.411  31.878  1.00  0.00     0.338 C 
ATOM     39  O   UNL A   1      32.044  36.001  32.549  1.00  0.00    -0.246 OA
BRANCH  38  40
ATOM     40  C   UNL A   1      34.083  34.765  32.411  1.00  0.00     0.060 A 
ATOM     41  C   UNL A   1      35.308  35.415  32.221  1.00  0.00     0.016 A 
ATOM     42  C   UNL A   1      33.999  33.580  33.147  1.00  0.00     0.016 A 
ATOM     43  C   UNL A   1      36.459  34.891  32.786  1.00  0.00     0.010 A 
ATOM     44  C   UNL A   1      35.166  33.017  33.661  1.00  0.00     0.010 A 
ATOM     45  C   UNL A   1      36.396  33.663  33.457  1.00  0.00    -0.014 A 
BRANCH  45  46
ATOM     46  C   UNL A   1      37.663  32.941  33.658  1.00  0.00     0.031 A 
ATOM     47  C   UNL A   1      38.399  33.211  34.938  1.00  0.00     0.074 A 
ATOM     48  C   UNL A   1      38.081  32.008  32.787  1.00  0.00     0.049 A 
ATOM     49  N   UNL A   1      39.500  32.676  35.391  1.00  0.00    -0.248 NA
ATOM     50  C   UNL A   1      37.798  34.212  35.839  1.00  0.00     0.031 C 
ATOM     51  C   UNL A   1      37.386  31.627  31.559  1.00  0.00     0.029 A 
ATOM     52  N   UNL A   1      39.185  31.199  32.819  1.00  0.00    -0.354 N 
ATOM     53  C   UNL A   1      39.710  33.262  36.631  1.00  0.00     0.074 A 
ATOM     54  C   UNL A   1      38.652  34.220  36.848  1.00  0.00     0.031 C 
ATOM     55  C   UNL A   1      38.086  30.652  30.951  1.00  0.00     0.029 A 
ATOM     56  C   UNL A   1      39.286  30.364  31.735  1.00  0.00     0.049 A 
ATOM     57  H   UNL A   1      39.844  31.214  33.551  1.00  0.00     0.167 HD
ATOM     58  C   UNL A   1      40.695  33.006  37.519  1.00  0.00     0.037 A 
ATOM     59  C   UNL A   1      40.253  29.480  31.420  1.00  0.00     0.037 A 
ATOM     60  C   UNL A   1      41.749  32.061  37.280  1.00  0.00     0.049 A 
ATOM     61  C   UNL A   1      41.407  29.300  32.374  1.00  0.00     0.074 A 
ATOM     62  C   UNL A   1      42.817  31.738  38.094  1.00  0.00     0.029 A 
ATOM     63  N   UNL A   1      41.867  31.292  36.130  1.00  0.00    -0.354 N 
ATOM     64  N   UNL A   1      41.605  29.852  33.548  1.00  0.00    -0.248 NA
ATOM     65  C   UNL A   1      42.472  28.376  31.962  1.00  0.00     0.031 C 
ATOM     66  C   UNL A   1      43.613  30.815  37.413  1.00  0.00     0.029 A 
ATOM     67  C   UNL A   1      43.009  30.515  36.202  1.00  0.00     0.049 A 
ATOM     68  H   UNL A   1      41.233  31.299  35.377  1.00  0.00     0.167 HD
ATOM     69  C   UNL A   1      42.799  29.327  34.025  1.00  0.00     0.074 A 
ATOM     70  C   UNL A   1      43.272  28.398  33.020  1.00  0.00     0.031 C 
ATOM     71  C   UNL A   1      43.449  29.591  35.186  1.00  0.00     0.037 A 
BRANCH  58  72
ATOM     72  C   UNL A   1      40.691  33.772  38.805  1.00  0.00     0.064 A 
ATOM     73  C   UNL A   1      41.480  34.920  38.980  1.00  0.00     0.173 A 
ATOM     74  C   UNL A   1      39.856  33.382  39.862  1.00  0.00     0.173 A 
ATOM     75  F   UNL A   1      42.314  35.320  38.009  1.00  0.00    -0.203 F 
ATOM     76  C   UNL A   1      41.437  35.643  40.169  1.00  0.00     0.198 A 
ATOM     77  C   UNL A   1      39.794  34.123  41.038  1.00  0.00     0.198 A 
ATOM     78  F   UNL A   1      39.090  32.286  39.748  1.00  0.00    -0.203 F 
ATOM     79  F   UNL A   1      42.225  36.715  40.328  1.00  0.00    -0.200 F 
ATOM     80  C   UNL A   1      40.586  35.252  41.191  1.00  0.00     0.200 A 
ATOM     81  F   UNL A   1      38.964  33.748  42.021  1.00  0.00    -0.200 F 
ATOM     82  F   UNL A   1      40.531  35.959  42.327  1.00  0.00    -0.200 F 
ENDBRANCH  58  72
BRANCH  59  83
ATOM     83  C   UNL A   1      40.168  28.705  30.154  1.00  0.00     0.064 A 
ATOM     84  C   UNL A   1      40.737  29.188  28.968  1.00  0.00     0.173 A 
ATOM     85  C   UNL A   1      39.518  27.461  30.103  1.00  0.00     0.173 A 
ATOM     86  F   UNL A   1      41.348  30.382  28.957  1.00  0.00    -0.203 F 
ATOM     87  C   UNL A   1      40.653  28.463  27.780  1.00  0.00     0.198 A 
ATOM     88  C   UNL A   1      39.461  26.724  28.922  1.00  0.00     0.198 A 
ATOM     89  F   UNL A   1      38.951  26.953  31.208  1.00  0.00    -0.203 F 
ATOM     90  F   UNL A   1      41.174  28.967  26.653  1.00  0.00    -0.200 F 
ATOM     91  C   UNL A   1      40.023  27.229  27.760  1.00  0.00     0.200 A 
ATOM     92  F   UNL A   1      38.863  25.525  28.912  1.00  0.00    -0.200 F 
ATOM     93  F   UNL A   1      39.953  26.527  26.621  1.00  0.00    -0.200 F 
ENDBRANCH  59  83
BRANCH  71  94
ATOM     94  C   UNL A   1      44.731  28.856  35.449  1.00  0.00     0.064 A 
ATOM     95  C   UNL A   1      44.741  27.601  36.073  1.00  0.00     0.173 A 
ATOM     96  C   UNL A   1      45.951  29.369  34.979  1.00  0.00     0.173 A 
ATOM     97  F   UNL A   1      43.602  27.073  36.546  1.00  0.00    -0.203 F 
ATOM     98  C   UNL A   1      45.928  26.893  36.231  1.00  0.00     0.198 A 
ATOM     99  C   UNL A   1      47.130  28.641  35.107  1.00  0.00     0.198 A 
ATOM    100  F   UNL A   1      45.993  30.560  34.362  1.00  0.00    -0.203 F 
ATOM    101  F   UNL A   1      45.920  25.709  36.861  1.00  0.00    -0.200 F 
ATOM    102  C   UNL A   1      47.119  27.407  35.737  1.00  0.00     0.200 A 
ATOM    103  F   UNL A   1      48.275  29.129  34.608  1.00  0.00    -0.200 F 
ATOM    104  F   UNL A   1      48.256  26.710  35.868  1.00  0.00    -0.200 F 
ENDBRANCH  71  94
ENDBRANCH  45  46
ENDBRANCH  38  40
ENDBRANCH  37  38
ENDBRANCH  36  37
ENDBRANCH  35  36
ENDBRANCH  34  35
ENDBRANCH  33  34
ENDBRANCH  32  33
ENDBRANCH  31  32
ENDBRANCH   1  31
TORSDOF 24
ENDMDL
