MODEL 1
REMARK VINA RESULT:     -10.3      0.000      0.000
REMARK SMILES CCOc1cc(OCC)cc(-c2ccc([C@@H](C)C(=O)OCCOCCOCCOCCOC(=O)c3ccc(-c4c5nc(c(-c6c(F)c(F)c(F)c(F)c6F)c6ccc([nH]6)c(-c6c(F)c(F)c(F)c(F)c6F)c6nc(c(-c7c(F)c(F)c(F)c(F)c7F)c7ccc4[nH]7)C=C6)C=C5)cc3)cc2F)c1
REMARK SMILES IDX 25 1 24 2 23 3 22 4 21 5 20 6 18 7 19 8 16 9 17 10 15 11
REMARK SMILES IDX 12 12 13 13 99 14 14 15 98 16 100 17 11 18 4 19 5 20 101 21
REMARK SMILES IDX 6 22 10 23 3 24 2 25 1 26 7 27 8 28 9 29 26 30 27 31 28 32
REMARK SMILES IDX 29 33 30 34 31 35 32 36 33 37 34 38 35 39 36 40 97 41 37 42
REMARK SMILES IDX 96 43 38 44 39 45 40 46 90 47 41 48 95 49 89 50 91 51 42 52
REMARK SMILES IDX 94 53 88 54 87 55 43 57 75 58 55 59 74 60 56 61 59 62 73 63
REMARK SMILES IDX 92 64 57 65 58 66 72 68 93 69 60 70 44 71 45 72 53 73 46 74
REMARK SMILES IDX 47 75 51 76 54 77 48 78 49 79 52 80 50 81 76 82 77 83 85 84
REMARK SMILES IDX 78 85 79 86 83 87 86 88 80 89 81 90 84 91 82 92 61 93 62 94
REMARK SMILES IDX 70 95 63 96 64 97 68 98 71 99 65 100 66 101 69 102 67 103
REMARK H PARENT 91 56 59 67
REMARK Flexibility Score: inf
ROOT
ATOM      1  C   UNL A   1      30.961  27.035  25.157  1.00  0.00     0.188 C 
ENDROOT
BRANCH   1   2
ATOM      2  C   UNL A   1      31.443  26.150  26.317  1.00  0.00     0.188 C 
BRANCH   2   3
ATOM      3  O   UNL A   1      32.009  24.870  26.075  1.00  0.00    -0.376 OA
BRANCH   3   4
ATOM      4  C   UNL A   1      31.797  23.803  26.986  1.00  0.00     0.202 C 
BRANCH   4   5
ATOM      5  C   UNL A   1      31.666  22.351  26.489  1.00  0.00     0.261 C 
BRANCH   5   6
ATOM      6  O   UNL A   1      32.764  21.824  25.714  1.00  0.00    -0.463 OA
BRANCH   6   7
ATOM      7  C   UNL A   1      32.846  22.247  24.429  1.00  0.00     0.313 C 
ATOM      8  O   UNL A   1      32.011  21.964  23.571  1.00  0.00    -0.252 OA
BRANCH   7   9
ATOM      9  C   UNL A   1      34.074  23.086  24.078  1.00  0.00     0.126 C 
ATOM     10  C   UNL A   1      34.108  23.280  22.566  1.00  0.00     0.025 C 
BRANCH   9  11
ATOM     11  C   UNL A   1      35.458  22.724  24.617  1.00  0.00    -0.031 A 
ATOM     12  C   UNL A   1      38.044  21.927  25.578  1.00  0.00     0.018 A 
ATOM     13  C   UNL A   1      37.565  23.244  25.736  1.00  0.00     0.012 A 
ATOM     14  C   UNL A   1      37.207  21.029  24.913  1.00  0.00     0.131 A 
ATOM     15  C   UNL A   1      36.294  23.636  25.273  1.00  0.00     0.005 A 
ATOM     16  C   UNL A   1      35.938  21.408  24.454  1.00  0.00     0.044 A 
ATOM     17  F   UNL A   1      37.593  19.758  24.722  1.00  0.00    -0.206 F 
BRANCH  12  18
ATOM     18  C   UNL A   1      39.325  21.509  26.186  1.00  0.00    -0.008 A 
ATOM     19  C   UNL A   1      41.216  21.795  27.697  1.00  0.00     0.123 A 
ATOM     20  C   UNL A   1      41.790  20.614  27.232  1.00  0.00     0.092 A 
ATOM     21  C   UNL A   1      39.999  22.250  27.170  1.00  0.00     0.055 A 
ATOM     22  C   UNL A   1      41.161  19.883  26.227  1.00  0.00     0.123 A 
ATOM     23  C   UNL A   1      39.941  20.334  25.718  1.00  0.00     0.055 A 
BRANCH  19  24
ATOM     24  O   UNL A   1      41.979  22.569  28.531  1.00  0.00    -0.494 OA
BRANCH  24  25
ATOM     25  C   UNL A   1      42.714  23.607  27.880  1.00  0.00     0.226 C 
ATOM     26  C   UNL A   1      43.354  24.522  28.901  1.00  0.00     0.049 C 
ENDBRANCH  24  25
ENDBRANCH  19  24
BRANCH  22  27
ATOM     27  O   UNL A   1      41.814  18.752  25.819  1.00  0.00    -0.494 OA
BRANCH  27  28
ATOM     28  C   UNL A   1      43.085  18.476  26.415  1.00  0.00     0.226 C 
ATOM     29  C   UNL A   1      44.216  18.687  25.420  1.00  0.00     0.049 C 
ENDBRANCH  27  28
ENDBRANCH  22  27
ENDBRANCH  12  18
ENDBRANCH   9  11
ENDBRANCH   7   9
ENDBRANCH   6   7
ENDBRANCH   5   6
ENDBRANCH   4   5
ENDBRANCH   3   4
ENDBRANCH   2   3
ENDBRANCH   1   2
BRANCH   1  30
ATOM     30  O   UNL A   1      31.940  27.880  24.585  1.00  0.00    -0.377 OA
BRANCH  30  31
ATOM     31  C   UNL A   1      31.818  29.265  24.860  1.00  0.00     0.188 C 
BRANCH  31  32
ATOM     32  C   UNL A   1      31.799  29.691  26.340  1.00  0.00     0.188 C 
BRANCH  32  33
ATOM     33  O   UNL A   1      32.196  31.038  26.563  1.00  0.00    -0.376 OA
BRANCH  33  34
ATOM     34  C   UNL A   1      33.484  31.272  27.109  1.00  0.00     0.202 C 
BRANCH  34  35
ATOM     35  C   UNL A   1      33.618  32.380  28.162  1.00  0.00     0.261 C 
BRANCH  35  36
ATOM     36  O   UNL A   1      33.167  33.692  27.785  1.00  0.00    -0.460 OA
BRANCH  36  37
ATOM     37  C   UNL A   1      33.348  34.689  28.671  1.00  0.00     0.338 C 
ATOM     38  O   UNL A   1      32.640  35.678  28.812  1.00  0.00    -0.246 OA
BRANCH  37  39
ATOM     39  C   UNL A   1      34.426  34.306  29.609  1.00  0.00     0.060 A 
ATOM     40  C   UNL A   1      35.739  34.285  29.123  1.00  0.00     0.016 A 
ATOM     41  C   UNL A   1      34.166  33.944  30.934  1.00  0.00     0.016 A 
ATOM     42  C   UNL A   1      36.784  33.852  29.936  1.00  0.00     0.010 A 
ATOM     43  C   UNL A   1      35.216  33.485  31.745  1.00  0.00     0.010 A 
ATOM     44  C   UNL A   1      36.525  33.396  31.235  1.00  0.00    -0.014 A 
BRANCH  44  45
ATOM     45  C   UNL A   1      37.601  32.662  31.952  1.00  0.00     0.031 A 
ATOM     46  C   UNL A   1      38.242  31.475  31.278  1.00  0.00     0.074 A 
ATOM     47  C   UNL A   1      38.081  33.101  33.129  1.00  0.00     0.049 A 
ATOM     48  N   UNL A   1      39.262  30.747  31.662  1.00  0.00    -0.248 NA
ATOM     49  C   UNL A   1      37.656  31.059  29.995  1.00  0.00     0.031 C 
ATOM     50  C   UNL A   1      37.576  34.255  33.868  1.00  0.00     0.029 A 
ATOM     51  N   UNL A   1      39.115  32.631  33.903  1.00  0.00    -0.354 N 
ATOM     52  C   UNL A   1      39.441  29.795  30.666  1.00  0.00     0.074 A 
ATOM     53  C   UNL A   1      38.401  30.009  29.683  1.00  0.00     0.031 C 
ATOM     54  C   UNL A   1      38.307  34.410  34.986  1.00  0.00     0.029 A 
ATOM     55  C   UNL A   1      39.314  33.352  35.053  1.00  0.00     0.049 A 
ATOM     56  H   UNL A   1      39.660  31.849  33.655  1.00  0.00     0.167 HD
ATOM     57  C   UNL A   1      40.396  28.837  30.570  1.00  0.00     0.037 A 
ATOM     58  C   UNL A   1      40.206  33.176  36.049  1.00  0.00     0.037 A 
ATOM     59  C   UNL A   1      41.427  28.616  31.550  1.00  0.00     0.049 A 
ATOM     60  C   UNL A   1      41.217  32.060  35.949  1.00  0.00     0.074 A 
ATOM     61  C   UNL A   1      42.446  27.680  31.536  1.00  0.00     0.029 A 
ATOM     62  N   UNL A   1      41.563  29.335  32.730  1.00  0.00    -0.354 N 
ATOM     63  N   UNL A   1      41.403  31.190  34.986  1.00  0.00    -0.248 NA
ATOM     64  C   UNL A   1      42.154  31.917  37.072  1.00  0.00     0.031 C 
ATOM     65  C   UNL A   1      43.159  27.789  32.735  1.00  0.00     0.029 A 
ATOM     66  C   UNL A   1      42.631  28.841  33.465  1.00  0.00     0.049 A 
ATOM     67  H   UNL A   1      40.987  30.084  33.005  1.00  0.00     0.167 HD
ATOM     68  C   UNL A   1      42.491  30.416  35.374  1.00  0.00     0.074 A 
ATOM     69  C   UNL A   1      42.941  30.940  36.646  1.00  0.00     0.031 C 
ATOM     70  C   UNL A   1      43.066  29.364  34.736  1.00  0.00     0.037 A 
BRANCH  57  71
ATOM     71  C   UNL A   1      40.348  27.930  29.372  1.00  0.00     0.064 A 
ATOM     72  C   UNL A   1      39.529  26.790  29.338  1.00  0.00     0.173 A 
ATOM     73  C   UNL A   1      41.112  28.219  28.231  1.00  0.00     0.173 A 
ATOM     74  F   UNL A   1      38.788  26.458  30.406  1.00  0.00    -0.203 F 
ATOM     75  C   UNL A   1      39.500  25.960  28.220  1.00  0.00     0.198 A 
ATOM     76  C   UNL A   1      41.055  27.406  27.102  1.00  0.00     0.198 A 
ATOM     77  F   UNL A   1      41.909  29.298  28.207  1.00  0.00    -0.203 F 
ATOM     78  F   UNL A   1      38.752  24.848  28.231  1.00  0.00    -0.200 F 
ATOM     79  C   UNL A   1      40.257  26.273  27.101  1.00  0.00     0.200 A 
ATOM     80  F   UNL A   1      41.776  27.719  26.016  1.00  0.00    -0.200 F 
ATOM     81  F   UNL A   1      40.223  25.478  26.022  1.00  0.00    -0.200 F 
ENDBRANCH  57  71
BRANCH  58  82
ATOM     82  C   UNL A   1      40.189  34.075  37.235  1.00  0.00     0.064 A 
ATOM     83  C   UNL A   1      40.972  35.236  37.283  1.00  0.00     0.173 A 
ATOM     84  C   UNL A   1      39.409  33.769  38.361  1.00  0.00     0.173 A 
ATOM     85  F   UNL A   1      41.756  35.559  36.244  1.00  0.00    -0.203 F 
ATOM     86  C   UNL A   1      40.996  36.043  38.420  1.00  0.00     0.198 A 
ATOM     87  C   UNL A   1      39.408  34.595  39.483  1.00  0.00     0.198 A 
ATOM     88  F   UNL A   1      38.644  32.667  38.371  1.00  0.00    -0.203 F 
ATOM     89  F   UNL A   1      41.797  37.116  38.459  1.00  0.00    -0.200 F 
ATOM     90  C   UNL A   1      40.208  35.726  39.516  1.00  0.00     0.200 A 
ATOM     91  F   UNL A   1      38.634  34.291  40.535  1.00  0.00    -0.200 F 
ATOM     92  F   UNL A   1      40.229  36.504  40.607  1.00  0.00    -0.200 F 
ENDBRANCH  58  82
BRANCH  70  93
ATOM     93  C   UNL A   1      44.266  28.736  35.392  1.00  0.00     0.064 A 
ATOM     94  C   UNL A   1      44.144  27.666  36.293  1.00  0.00     0.173 A 
ATOM     95  C   UNL A   1      45.558  29.215  35.121  1.00  0.00     0.173 A 
ATOM     96  F   UNL A   1      42.934  27.173  36.596  1.00  0.00    -0.203 F 
ATOM     97  C   UNL A   1      45.262  27.138  36.937  1.00  0.00     0.198 A 
ATOM     98  C   UNL A   1      46.676  28.658  35.736  1.00  0.00     0.198 A 
ATOM     99  F   UNL A   1      45.738  30.227  34.259  1.00  0.00    -0.203 F 
ATOM    100  F   UNL A   1      45.110  26.171  37.852  1.00  0.00    -0.200 F 
ATOM    101  C   UNL A   1      46.526  27.632  36.655  1.00  0.00     0.200 A 
ATOM    102  F   UNL A   1      47.899  29.124  35.447  1.00  0.00    -0.200 F 
ATOM    103  F   UNL A   1      47.599  27.128  37.281  1.00  0.00    -0.200 F 
ENDBRANCH  70  93
ENDBRANCH  44  45
ENDBRANCH  37  39
ENDBRANCH  36  37
ENDBRANCH  35  36
ENDBRANCH  34  35
ENDBRANCH  33  34
ENDBRANCH  32  33
ENDBRANCH  31  32
ENDBRANCH  30  31
ENDBRANCH   1  30
TORSDOF 26
ENDMDL
MODEL 2
REMARK VINA RESULT:     -10.2      5.464     11.103
REMARK SMILES CCOc1cc(OCC)cc(-c2ccc([C@@H](C)C(=O)OCCOCCOCCOCCOC(=O)c3ccc(-c4c5nc(c(-c6c(F)c(F)c(F)c(F)c6F)c6ccc([nH]6)c(-c6c(F)c(F)c(F)c(F)c6F)c6nc(c(-c7c(F)c(F)c(F)c(F)c7F)c7ccc4[nH]7)C=C6)C=C5)cc3)cc2F)c1
REMARK SMILES IDX 25 1 24 2 23 3 22 4 21 5 20 6 18 7 19 8 16 9 17 10 15 11
REMARK SMILES IDX 12 12 13 13 99 14 14 15 98 16 100 17 11 18 4 19 5 20 101 21
REMARK SMILES IDX 6 22 10 23 3 24 2 25 1 26 7 27 8 28 9 29 26 30 27 31 28 32
REMARK SMILES IDX 29 33 30 34 31 35 32 36 33 37 34 38 35 39 36 40 97 41 37 42
REMARK SMILES IDX 96 43 38 44 39 45 40 46 90 47 41 48 95 49 89 50 91 51 42 52
REMARK SMILES IDX 94 53 88 54 87 55 43 57 75 58 55 59 74 60 56 61 59 62 73 63
REMARK SMILES IDX 92 64 57 65 58 66 72 68 93 69 60 70 44 71 45 72 53 73 46 74
REMARK SMILES IDX 47 75 51 76 54 77 48 78 49 79 52 80 50 81 76 82 77 83 85 84
REMARK SMILES IDX 78 85 79 86 83 87 86 88 80 89 81 90 84 91 82 92 61 93 62 94
REMARK SMILES IDX 70 95 63 96 64 97 68 98 71 99 65 100 66 101 69 102 67 103
REMARK H PARENT 91 56 59 67
REMARK Flexibility Score: inf
ROOT
ATOM      1  C   UNL A   1      35.156  24.893  25.368  1.00  0.00     0.188 C 
ENDROOT
BRANCH   1   2
ATOM      2  C   UNL A   1      33.951  25.844  25.406  1.00  0.00     0.188 C 
BRANCH   2   3
ATOM      3  O   UNL A   1      33.942  27.045  24.647  1.00  0.00    -0.376 OA
BRANCH   3   4
ATOM      4  C   UNL A   1      33.144  28.147  25.049  1.00  0.00     0.202 C 
BRANCH   4   5
ATOM      5  C   UNL A   1      32.876  29.322  24.091  1.00  0.00     0.261 C 
BRANCH   5   6
ATOM      6  O   UNL A   1      32.068  29.046  22.927  1.00  0.00    -0.463 OA
BRANCH   6   7
ATOM      7  C   UNL A   1      30.726  29.051  23.118  1.00  0.00     0.313 C 
ATOM      8  O   UNL A   1      30.116  30.003  23.602  1.00  0.00    -0.252 OA
BRANCH   7   9
ATOM      9  C   UNL A   1      29.991  27.770  22.725  1.00  0.00     0.126 C 
ATOM     10  C   UNL A   1      28.527  27.913  23.128  1.00  0.00     0.025 C 
BRANCH   9  11
ATOM     11  C   UNL A   1      30.536  26.396  23.112  1.00  0.00    -0.031 A 
ATOM     12  C   UNL A   1      31.642  23.821  23.740  1.00  0.00     0.018 A 
ATOM     13  C   UNL A   1      30.651  24.421  24.543  1.00  0.00     0.012 A 
ATOM     14  C   UNL A   1      32.076  24.548  22.629  1.00  0.00     0.131 A 
ATOM     15  C   UNL A   1      30.101  25.679  24.234  1.00  0.00     0.005 A 
ATOM     16  C   UNL A   1      31.530  25.798  22.309  1.00  0.00     0.044 A 
ATOM     17  F   UNL A   1      33.018  24.045  21.816  1.00  0.00    -0.206 F 
BRANCH  12  18
ATOM     18  C   UNL A   1      32.110  22.445  24.013  1.00  0.00    -0.008 A 
ATOM     19  C   UNL A   1      32.519  20.122  23.401  1.00  0.00     0.123 A 
ATOM     20  C   UNL A   1      33.000  19.851  24.681  1.00  0.00     0.092 A 
ATOM     21  C   UNL A   1      32.064  21.406  23.070  1.00  0.00     0.055 A 
ATOM     22  C   UNL A   1      33.018  20.855  25.645  1.00  0.00     0.123 A 
ATOM     23  C   UNL A   1      32.577  22.136  25.303  1.00  0.00     0.055 A 
BRANCH  19  24
ATOM     24  O   UNL A   1      32.336  19.050  22.568  1.00  0.00    -0.494 OA
BRANCH  24  25
ATOM     25  C   UNL A   1      32.491  17.773  23.191  1.00  0.00     0.226 C 
ATOM     26  C   UNL A   1      33.783  17.123  22.750  1.00  0.00     0.049 C 
ENDBRANCH  24  25
ENDBRANCH  19  24
BRANCH  22  27
ATOM     27  O   UNL A   1      33.483  20.487  26.878  1.00  0.00    -0.494 OA
BRANCH  27  28
ATOM     28  C   UNL A   1      33.604  21.513  27.868  1.00  0.00     0.226 C 
ATOM     29  C   UNL A   1      34.847  22.357  27.635  1.00  0.00     0.049 C 
ENDBRANCH  27  28
ENDBRANCH  22  27
ENDBRANCH  12  18
ENDBRANCH   9  11
ENDBRANCH   7   9
ENDBRANCH   6   7
ENDBRANCH   5   6
ENDBRANCH   4   5
ENDBRANCH   3   4
ENDBRANCH   2   3
ENDBRANCH   1   2
BRANCH   1  30
ATOM     30  O   UNL A   1      35.135  23.920  24.341  1.00  0.00    -0.377 OA
BRANCH  30  31
ATOM     31  C   UNL A   1      36.390  23.394  23.943  1.00  0.00     0.188 C 
BRANCH  31  32
ATOM     32  C   UNL A   1      37.041  22.348  24.865  1.00  0.00     0.188 C 
BRANCH  32  33
ATOM     33  O   UNL A   1      38.358  22.680  25.285  1.00  0.00    -0.376 OA
BRANCH  33  34
ATOM     34  C   UNL A   1      38.997  21.823  26.218  1.00  0.00     0.202 C 
BRANCH  34  35
ATOM     35  C   UNL A   1      39.535  20.484  25.698  1.00  0.00     0.261 C 
BRANCH  35  36
ATOM     36  O   UNL A   1      40.330  19.706  26.609  1.00  0.00    -0.460 OA
BRANCH  36  37
ATOM     37  C   UNL A   1      41.605  19.452  26.259  1.00  0.00     0.338 C 
ATOM     38  O   UNL A   1      42.032  18.422  25.756  1.00  0.00    -0.246 OA
BRANCH  37  39
ATOM     39  C   UNL A   1      42.392  20.700  26.377  1.00  0.00     0.060 A 
ATOM     40  C   UNL A   1      42.449  21.319  27.631  1.00  0.00     0.016 A 
ATOM     41  C   UNL A   1      43.040  21.278  25.282  1.00  0.00     0.016 A 
ATOM     42  C   UNL A   1      43.104  22.540  27.784  1.00  0.00     0.010 A 
ATOM     43  C   UNL A   1      43.679  22.519  25.431  1.00  0.00     0.010 A 
ATOM     44  C   UNL A   1      43.677  23.177  26.675  1.00  0.00    -0.014 A 
BRANCH  44  45
ATOM     45  C   UNL A   1      44.087  24.599  26.814  1.00  0.00     0.031 A 
ATOM     46  C   UNL A   1      43.076  25.601  27.310  1.00  0.00     0.074 A 
ATOM     47  C   UNL A   1      45.362  24.981  26.613  1.00  0.00     0.049 A 
ATOM     48  N   UNL A   1      43.230  26.867  27.606  1.00  0.00    -0.248 NA
ATOM     49  C   UNL A   1      41.705  25.102  27.503  1.00  0.00     0.031 C 
ATOM     50  C   UNL A   1      46.444  24.106  26.170  1.00  0.00     0.029 A 
ATOM     51  N   UNL A   1      45.961  26.207  26.771  1.00  0.00    -0.354 N 
ATOM     52  C   UNL A   1      41.982  27.312  28.025  1.00  0.00     0.074 A 
ATOM     53  C   UNL A   1      41.072  26.194  27.904  1.00  0.00     0.031 C 
ATOM     54  C   UNL A   1      47.580  24.822  26.098  1.00  0.00     0.029 A 
ATOM     55  C   UNL A   1      47.300  26.208  26.468  1.00  0.00     0.049 A 
ATOM     56  H   UNL A   1      45.476  27.009  27.073  1.00  0.00     0.167 HD
ATOM     57  C   UNL A   1      41.628  28.537  28.484  1.00  0.00     0.037 A 
ATOM     58  C   UNL A   1      48.196  27.216  26.483  1.00  0.00     0.037 A 
ATOM     59  C   UNL A   1      42.530  29.655  28.597  1.00  0.00     0.049 A 
ATOM     60  C   UNL A   1      47.760  28.588  26.936  1.00  0.00     0.074 A 
ATOM     61  C   UNL A   1      42.269  30.932  29.062  1.00  0.00     0.029 A 
ATOM     62  N   UNL A   1      43.868  29.632  28.229  1.00  0.00    -0.354 N 
ATOM     63  N   UNL A   1      46.588  28.989  27.366  1.00  0.00    -0.248 NA
ATOM     64  C   UNL A   1      48.783  29.643  26.919  1.00  0.00     0.031 C 
ATOM     65  C   UNL A   1      43.430  31.699  28.915  1.00  0.00     0.029 A 
ATOM     66  C   UNL A   1      44.436  30.882  28.427  1.00  0.00     0.049 A 
ATOM     67  H   UNL A   1      44.343  28.845  27.878  1.00  0.00     0.167 HD
ATOM     68  C   UNL A   1      46.740  30.331  27.696  1.00  0.00     0.074 A 
ATOM     69  C   UNL A   1      48.125  30.667  27.443  1.00  0.00     0.031 C 
ATOM     70  C   UNL A   1      45.815  31.208  28.164  1.00  0.00     0.037 A 
BRANCH  57  71
ATOM     71  C   UNL A   1      40.190  28.744  28.868  1.00  0.00     0.064 A 
ATOM     72  C   UNL A   1      39.219  29.126  27.928  1.00  0.00     0.173 A 
ATOM     73  C   UNL A   1      39.771  28.530  30.190  1.00  0.00     0.173 A 
ATOM     74  F   UNL A   1      39.567  29.358  26.654  1.00  0.00    -0.203 F 
ATOM     75  C   UNL A   1      37.891  29.315  28.305  1.00  0.00     0.198 A 
ATOM     76  C   UNL A   1      38.436  28.686  30.555  1.00  0.00     0.198 A 
ATOM     77  F   UNL A   1      40.655  28.160  31.128  1.00  0.00    -0.203 F 
ATOM     78  F   UNL A   1      36.992  29.732  27.402  1.00  0.00    -0.200 F 
ATOM     79  C   UNL A   1      37.500  29.087  29.615  1.00  0.00     0.200 A 
ATOM     80  F   UNL A   1      38.057  28.452  31.820  1.00  0.00    -0.200 F 
ATOM     81  F   UNL A   1      36.220  29.261  29.975  1.00  0.00    -0.200 F 
ENDBRANCH  57  71
BRANCH  58  82
ATOM     82  C   UNL A   1      49.600  26.973  26.055  1.00  0.00     0.064 A 
ATOM     83  C   UNL A   1      50.592  26.610  26.975  1.00  0.00     0.173 A 
ATOM     84  C   UNL A   1      49.984  27.134  24.715  1.00  0.00     0.173 A 
ATOM     85  F   UNL A   1      50.284  26.470  28.273  1.00  0.00    -0.203 F 
ATOM     86  C   UNL A   1      51.918  26.440  26.578  1.00  0.00     0.198 A 
ATOM     87  C   UNL A   1      51.303  26.931  24.313  1.00  0.00     0.198 A 
ATOM     88  F   UNL A   1      49.076  27.485  23.792  1.00  0.00    -0.203 F 
ATOM     89  F   UNL A   1      52.856  26.148  27.490  1.00  0.00    -0.200 F 
ATOM     90  C   UNL A   1      52.270  26.594  25.246  1.00  0.00     0.200 A 
ATOM     91  F   UNL A   1      51.636  27.067  23.021  1.00  0.00    -0.200 F 
ATOM     92  F   UNL A   1      53.544  26.428  24.864  1.00  0.00    -0.200 F 
ENDBRANCH  58  82
BRANCH  70  93
ATOM     93  C   UNL A   1      46.286  32.606  28.465  1.00  0.00     0.064 A 
ATOM     94  C   UNL A   1      46.896  32.938  29.685  1.00  0.00     0.173 A 
ATOM     95  C   UNL A   1      46.120  33.632  27.520  1.00  0.00     0.173 A 
ATOM     96  F   UNL A   1      47.073  32.000  30.628  1.00  0.00    -0.203 F 
ATOM     97  C   UNL A   1      47.270  34.250  29.968  1.00  0.00     0.198 A 
ATOM     98  C   UNL A   1      46.531  34.934  27.791  1.00  0.00     0.198 A 
ATOM     99  F   UNL A   1      45.554  33.373  26.331  1.00  0.00    -0.203 F 
ATOM    100  F   UNL A   1      47.777  34.555  31.171  1.00  0.00    -0.200 F 
ATOM    101  C   UNL A   1      47.091  35.245  29.020  1.00  0.00     0.200 A 
ATOM    102  F   UNL A   1      46.375  35.891  26.866  1.00  0.00    -0.200 F 
ATOM    103  F   UNL A   1      47.445  36.508  29.297  1.00  0.00    -0.200 F 
ENDBRANCH  70  93
ENDBRANCH  44  45
ENDBRANCH  37  39
ENDBRANCH  36  37
ENDBRANCH  35  36
ENDBRANCH  34  35
ENDBRANCH  33  34
ENDBRANCH  32  33
ENDBRANCH  31  32
ENDBRANCH  30  31
ENDBRANCH   1  30
TORSDOF 26
ENDMDL
MODEL 3
REMARK VINA RESULT:      -9.7      5.551     12.030
REMARK SMILES CCOc1cc(OCC)cc(-c2ccc([C@@H](C)C(=O)OCCOCCOCCOCCOC(=O)c3ccc(-c4c5nc(c(-c6c(F)c(F)c(F)c(F)c6F)c6ccc([nH]6)c(-c6c(F)c(F)c(F)c(F)c6F)c6nc(c(-c7c(F)c(F)c(F)c(F)c7F)c7ccc4[nH]7)C=C6)C=C5)cc3)cc2F)c1
REMARK SMILES IDX 25 1 24 2 23 3 22 4 21 5 20 6 18 7 19 8 16 9 17 10 15 11
REMARK SMILES IDX 12 12 13 13 99 14 14 15 98 16 100 17 11 18 4 19 5 20 101 21
REMARK SMILES IDX 6 22 10 23 3 24 2 25 1 26 7 27 8 28 9 29 26 30 27 31 28 32
REMARK SMILES IDX 29 33 30 34 31 35 32 36 33 37 34 38 35 39 36 40 97 41 37 42
REMARK SMILES IDX 96 43 38 44 39 45 40 46 90 47 41 48 95 49 89 50 91 51 42 52
REMARK SMILES IDX 94 53 88 54 87 55 43 57 75 58 55 59 74 60 56 61 59 62 73 63
REMARK SMILES IDX 92 64 57 65 58 66 72 68 93 69 60 70 44 71 45 72 53 73 46 74
REMARK SMILES IDX 47 75 51 76 54 77 48 78 49 79 52 80 50 81 76 82 77 83 85 84
REMARK SMILES IDX 78 85 79 86 83 87 86 88 80 89 81 90 84 91 82 92 61 93 62 94
REMARK SMILES IDX 70 95 63 96 64 97 68 98 71 99 65 100 66 101 69 102 67 103
REMARK H PARENT 91 56 59 67
REMARK Flexibility Score: inf
ROOT
ATOM      1  C   UNL A   1      36.423  23.425  26.173  1.00  0.00     0.188 C 
ENDROOT
BRANCH   1   2
ATOM      2  C   UNL A   1      35.293  23.567  25.142  1.00  0.00     0.188 C 
BRANCH   2   3
ATOM      3  O   UNL A   1      34.214  24.466  25.358  1.00  0.00    -0.376 OA
BRANCH   3   4
ATOM      4  C   UNL A   1      32.880  23.988  25.429  1.00  0.00     0.202 C 
BRANCH   4   5
ATOM      5  C   UNL A   1      31.888  24.560  26.459  1.00  0.00     0.261 C 
BRANCH   5   6
ATOM      6  O   UNL A   1      31.409  25.902  26.232  1.00  0.00    -0.463 OA
BRANCH   6   7
ATOM      7  C   UNL A   1      31.042  26.198  24.962  1.00  0.00     0.313 C 
ATOM      8  O   UNL A   1      30.289  25.489  24.294  1.00  0.00    -0.252 OA
BRANCH   7   9
ATOM      9  C   UNL A   1      31.649  27.468  24.368  1.00  0.00     0.126 C 
ATOM     10  C   UNL A   1      32.480  27.080  23.149  1.00  0.00     0.025 C 
BRANCH   9  11
ATOM     11  C   UNL A   1      32.397  28.471  25.246  1.00  0.00    -0.031 A 
ATOM     12  C   UNL A   1      33.695  30.428  26.900  1.00  0.00     0.018 A 
ATOM     13  C   UNL A   1      34.343  29.240  26.504  1.00  0.00     0.012 A 
ATOM     14  C   UNL A   1      32.380  30.601  26.463  1.00  0.00     0.131 A 
ATOM     15  C   UNL A   1      33.713  28.283  25.687  1.00  0.00     0.005 A 
ATOM     16  C   UNL A   1      31.746  29.658  25.645  1.00  0.00     0.044 A 
ATOM     17  F   UNL A   1      31.695  31.705  26.800  1.00  0.00    -0.206 F 
BRANCH  12  18
ATOM     18  C   UNL A   1      34.421  31.475  27.650  1.00  0.00    -0.008 A 
ATOM     19  C   UNL A   1      34.576  33.617  28.802  1.00  0.00     0.123 A 
ATOM     20  C   UNL A   1      35.935  33.412  29.037  1.00  0.00     0.092 A 
ATOM     21  C   UNL A   1      33.825  32.664  28.101  1.00  0.00     0.055 A 
ATOM     22  C   UNL A   1      36.557  32.260  28.564  1.00  0.00     0.123 A 
ATOM     23  C   UNL A   1      35.798  31.307  27.881  1.00  0.00     0.055 A 
BRANCH  19  24
ATOM     24  O   UNL A   1      34.074  34.855  29.108  1.00  0.00    -0.494 OA
BRANCH  24  25
ATOM     25  C   UNL A   1      33.833  35.076  30.499  1.00  0.00     0.226 C 
ATOM     26  C   UNL A   1      32.898  36.248  30.694  1.00  0.00     0.049 C 
ENDBRANCH  24  25
ENDBRANCH  19  24
BRANCH  22  27
ATOM     27  O   UNL A   1      37.897  32.161  28.822  1.00  0.00    -0.494 OA
BRANCH  27  28
ATOM     28  C   UNL A   1      38.296  32.061  30.193  1.00  0.00     0.226 C 
ATOM     29  C   UNL A   1      37.461  31.028  30.934  1.00  0.00     0.049 C 
ENDBRANCH  27  28
ENDBRANCH  22  27
ENDBRANCH  12  18
ENDBRANCH   9  11
ENDBRANCH   7   9
ENDBRANCH   6   7
ENDBRANCH   5   6
ENDBRANCH   4   5
ENDBRANCH   3   4
ENDBRANCH   2   3
ENDBRANCH   1   2
BRANCH   1  30
ATOM     30  O   UNL A   1      37.652  22.938  25.670  1.00  0.00    -0.377 OA
BRANCH  30  31
ATOM     31  C   UNL A   1      38.723  22.851  26.594  1.00  0.00     0.188 C 
BRANCH  31  32
ATOM     32  C   UNL A   1      39.825  21.817  26.300  1.00  0.00     0.188 C 
BRANCH  32  33
ATOM     33  O   UNL A   1      40.452  21.287  27.462  1.00  0.00    -0.376 OA
BRANCH  33  34
ATOM     34  C   UNL A   1      41.479  20.325  27.285  1.00  0.00     0.202 C 
BRANCH  34  35
ATOM     35  C   UNL A   1      42.184  20.281  25.924  1.00  0.00     0.261 C 
BRANCH  35  36
ATOM     36  O   UNL A   1      43.447  19.595  25.868  1.00  0.00    -0.460 OA
BRANCH  36  37
ATOM     37  C   UNL A   1      44.248  19.854  24.818  1.00  0.00     0.338 C 
ATOM     38  O   UNL A   1      44.373  19.172  23.810  1.00  0.00    -0.246 OA
BRANCH  37  39
ATOM     39  C   UNL A   1      44.808  21.216  24.966  1.00  0.00     0.060 A 
ATOM     40  C   UNL A   1      45.409  21.546  26.187  1.00  0.00     0.016 A 
ATOM     41  C   UNL A   1      44.724  22.170  23.948  1.00  0.00     0.016 A 
ATOM     42  C   UNL A   1      45.878  22.838  26.413  1.00  0.00     0.010 A 
ATOM     43  C   UNL A   1      45.175  23.478  24.186  1.00  0.00     0.010 A 
ATOM     44  C   UNL A   1      45.715  23.830  25.437  1.00  0.00    -0.014 A 
BRANCH  44  45
ATOM     45  C   UNL A   1      45.942  25.247  25.827  1.00  0.00     0.031 A 
ATOM     46  C   UNL A   1      44.782  26.044  26.366  1.00  0.00     0.074 A 
ATOM     47  C   UNL A   1      47.173  25.787  25.810  1.00  0.00     0.049 A 
ATOM     48  N   UNL A   1      44.761  27.256  26.863  1.00  0.00    -0.248 NA
ATOM     49  C   UNL A   1      43.469  25.381  26.348  1.00  0.00     0.031 C 
ATOM     50  C   UNL A   1      48.383  25.112  25.349  1.00  0.00     0.029 A 
ATOM     51  N   UNL A   1      47.609  27.028  26.208  1.00  0.00    -0.354 N 
ATOM     52  C   UNL A   1      43.440  27.496  27.220  1.00  0.00     0.074 A 
ATOM     53  C   UNL A   1      42.681  26.322  26.845  1.00  0.00     0.031 C 
ATOM     54  C   UNL A   1      49.429  25.945  25.496  1.00  0.00     0.029 A 
ATOM     55  C   UNL A   1      48.958  27.218  26.040  1.00  0.00     0.049 A 
ATOM     56  H   UNL A   1      47.010  27.716  26.578  1.00  0.00     0.167 HD
ATOM     57  C   UNL A   1      42.907  28.588  27.821  1.00  0.00     0.037 A 
ATOM     58  C   UNL A   1      49.724  28.298  26.294  1.00  0.00     0.037 A 
ATOM     59  C   UNL A   1      43.658  29.761  28.187  1.00  0.00     0.049 A 
ATOM     60  C   UNL A   1      49.094  29.527  26.902  1.00  0.00     0.074 A 
ATOM     61  C   UNL A   1      43.211  30.913  28.811  1.00  0.00     0.029 A 
ATOM     62  N   UNL A   1      45.015  29.937  27.952  1.00  0.00    -0.354 N 
ATOM     63  N   UNL A   1      47.852  29.729  27.271  1.00  0.00    -0.248 NA
ATOM     64  C   UNL A   1      49.982  30.672  27.144  1.00  0.00     0.031 C 
ATOM     65  C   UNL A   1      44.282  31.811  28.895  1.00  0.00     0.029 A 
ATOM     66  C   UNL A   1      45.413  31.192  28.390  1.00  0.00     0.049 A 
ATOM     67  H   UNL A   1      45.607  29.271  27.535  1.00  0.00     0.167 HD
ATOM     68  C   UNL A   1      47.817  31.010  27.812  1.00  0.00     0.074 A 
ATOM     69  C   UNL A   1      49.168  31.524  27.749  1.00  0.00     0.031 C 
ATOM     70  C   UNL A   1      46.760  31.699  28.314  1.00  0.00     0.037 A 
BRANCH  57  71
ATOM     71  C   UNL A   1      41.428  28.578  28.089  1.00  0.00     0.064 A 
ATOM     72  C   UNL A   1      40.903  28.184  29.330  1.00  0.00     0.173 A 
ATOM     73  C   UNL A   1      40.525  28.994  27.100  1.00  0.00     0.173 A 
ATOM     74  F   UNL A   1      41.720  27.763  30.307  1.00  0.00    -0.203 F 
ATOM     75  C   UNL A   1      39.529  28.179  29.559  1.00  0.00     0.198 A 
ATOM     76  C   UNL A   1      39.154  29.020  27.344  1.00  0.00     0.198 A 
ATOM     77  F   UNL A   1      40.971  29.384  25.897  1.00  0.00    -0.203 F 
ATOM     78  F   UNL A   1      39.047  27.748  30.733  1.00  0.00    -0.200 F 
ATOM     79  C   UNL A   1      38.657  28.605  28.569  1.00  0.00     0.200 A 
ATOM     80  F   UNL A   1      38.313  29.445  26.389  1.00  0.00    -0.200 F 
ATOM     81  F   UNL A   1      37.335  28.607  28.792  1.00  0.00    -0.200 F 
ENDBRANCH  57  71
BRANCH  58  82
ATOM     82  C   UNL A   1      51.177  28.275  25.972  1.00  0.00     0.064 A 
ATOM     83  C   UNL A   1      52.142  28.075  26.969  1.00  0.00     0.173 A 
ATOM     84  C   UNL A   1      51.630  28.488  24.662  1.00  0.00     0.173 A 
ATOM     85  F   UNL A   1      51.763  27.896  28.243  1.00  0.00    -0.203 F 
ATOM     86  C   UNL A   1      53.504  28.113  26.672  1.00  0.00     0.198 A 
ATOM     87  C   UNL A   1      52.990  28.491  24.360  1.00  0.00     0.198 A 
ATOM     88  F   UNL A   1      50.749  28.689  23.670  1.00  0.00    -0.203 F 
ATOM     89  F   UNL A   1      54.405  27.975  27.654  1.00  0.00    -0.200 F 
ATOM     90  C   UNL A   1      53.926  28.313  25.366  1.00  0.00     0.200 A 
ATOM     91  F   UNL A   1      53.393  28.672  23.094  1.00  0.00    -0.200 F 
ATOM     92  F   UNL A   1      55.235  28.346  25.081  1.00  0.00    -0.200 F 
ENDBRANCH  58  82
BRANCH  70  93
ATOM     93  C   UNL A   1      47.036  33.072  28.865  1.00  0.00     0.064 A 
ATOM     94  C   UNL A   1      47.368  33.278  30.214  1.00  0.00     0.173 A 
ATOM     95  C   UNL A   1      46.962  34.201  28.033  1.00  0.00     0.173 A 
ATOM     96  F   UNL A   1      47.445  32.237  31.056  1.00  0.00    -0.203 F 
ATOM     97  C   UNL A   1      47.561  34.562  30.718  1.00  0.00     0.198 A 
ATOM     98  C   UNL A   1      47.195  35.480  28.533  1.00  0.00     0.198 A 
ATOM     99  F   UNL A   1      46.662  34.066  26.732  1.00  0.00    -0.203 F 
ATOM    100  F   UNL A   1      47.798  34.737  32.026  1.00  0.00    -0.200 F 
ATOM    101  C   UNL A   1      47.478  35.661  29.877  1.00  0.00     0.200 A 
ATOM    102  F   UNL A   1      47.134  36.539  27.713  1.00  0.00    -0.200 F 
ATOM    103  F   UNL A   1      47.657  36.896  30.366  1.00  0.00    -0.200 F 
ENDBRANCH  70  93
ENDBRANCH  44  45
ENDBRANCH  37  39
ENDBRANCH  36  37
ENDBRANCH  35  36
ENDBRANCH  34  35
ENDBRANCH  33  34
ENDBRANCH  32  33
ENDBRANCH  31  32
ENDBRANCH  30  31
ENDBRANCH   1  30
TORSDOF 26
ENDMDL
