MODEL 1
REMARK VINA RESULT:     -10.7      0.000      0.000
REMARK SMILES Cc1cc2c(c(C)c1Br)C=C(C(=O)OCCOCCOCCOCCOC(=O)c1ccc(-c3c4nc(c(-c5c(F)c(F)c(F)c(F)c5F)c5ccc([nH]5)c(-c5c(F)c(F)c(F)c(F)c5F)c5nc(c(-c6c(F)c(F)c(F)c(F)c6F)c6ccc3[nH]6)C=C5)C=C4)cc1)[C@@H](C(F)(F)F)O2
REMARK SMILES IDX 21 1 20 2 19 3 18 4 17 5 16 6 15 7 14 8 12 9 13 10 11 11
REMARK SMILES IDX 1 12 2 13 3 14 8 15 4 16 6 17 9 18 5 19 97 20 7 21 10 22
REMARK SMILES IDX 92 23 93 24 94 25 95 26 96 27 22 28 23 29 24 30 25 31 26 32
REMARK SMILES IDX 27 33 28 34 29 35 30 36 91 37 31 38 90 39 32 40 33 41 34 42
REMARK SMILES IDX 84 43 35 44 89 45 83 46 85 47 36 48 88 49 82 50 81 51 37 53
REMARK SMILES IDX 69 54 49 55 68 56 50 57 53 58 67 59 86 60 51 61 52 62 66 64
REMARK SMILES IDX 87 65 54 66 38 67 39 68 47 69 40 70 41 71 45 72 48 73 42 74
REMARK SMILES IDX 43 75 46 76 44 77 70 78 71 79 79 80 72 81 73 82 77 83 80 84
REMARK SMILES IDX 74 85 75 86 78 87 76 88 55 89 56 90 64 91 57 92 58 93 62 94
REMARK SMILES IDX 65 95 59 96 60 97 63 98 61 99
REMARK H PARENT 85 52 53 63
REMARK Flexibility Score: inf
ROOT
ATOM      1  C   UNL A   1      33.014  28.954  22.882  1.00  0.00     0.188 C 
ENDROOT
BRANCH   1   2
ATOM      2  O   UNL A   1      31.667  29.033  22.410  1.00  0.00    -0.377 OA
BRANCH   2   3
ATOM      3  C   UNL A   1      30.996  27.821  22.099  1.00  0.00     0.188 C 
BRANCH   3   4
ATOM      4  C   UNL A   1      29.808  27.518  23.035  1.00  0.00     0.188 C 
BRANCH   4   5
ATOM      5  O   UNL A   1      30.174  27.470  24.403  1.00  0.00    -0.376 OA
BRANCH   5   6
ATOM      6  C   UNL A   1      29.906  26.329  25.198  1.00  0.00     0.202 C 
BRANCH   6   7
ATOM      7  C   UNL A   1      30.996  25.461  25.856  1.00  0.00     0.261 C 
BRANCH   7   8
ATOM      8  O   UNL A   1      31.383  24.267  25.176  1.00  0.00    -0.460 OA
BRANCH   8   9
ATOM      9  C   UNL A   1      32.400  24.353  24.301  1.00  0.00     0.338 C 
ATOM     10  O   UNL A   1      32.630  25.271  23.535  1.00  0.00    -0.246 OA
BRANCH   9  11
ATOM     11  C   UNL A   1      33.306  23.211  24.555  1.00  0.00     0.087 C 
ATOM     12  C   UNL A   1      38.322  19.198  25.001  1.00  0.00     0.046 C 
ATOM     13  C   UNL A   1      37.340  20.316  25.220  1.00  0.00    -0.033 A 
ATOM     14  C   UNL A   1      35.996  20.086  24.903  1.00  0.00     0.051 A 
ATOM     15  C   UNL A   1      37.725  21.597  25.671  1.00  0.00     0.024 A 
ATOM     16  C   UNL A   1      35.071  21.125  24.918  1.00  0.00     0.128 A 
ATOM     17  C   UNL A   1      36.785  22.654  25.739  1.00  0.00    -0.026 A 
ATOM     18  Br  UNL A   1      39.561  21.888  26.128  1.00  0.00    -0.050 Br
ATOM     19  C   UNL A   1      35.467  22.418  25.272  1.00  0.00     0.021 A 
ATOM     20  O   UNL A   1      33.806  20.776  24.542  1.00  0.00    -0.475 OA
ATOM     21  C   UNL A   1      37.138  24.019  26.288  1.00  0.00     0.046 C 
ATOM     22  C   UNL A   1      34.518  23.503  25.043  1.00  0.00     0.027 C 
ATOM     23  C   UNL A   1      32.809  21.809  24.335  1.00  0.00     0.316 C 
BRANCH  23  24
ATOM     24  C   UNL A   1      32.209  21.611  22.937  1.00  0.00     0.430 C 
ATOM     25  F   UNL A   1      30.962  22.139  22.859  1.00  0.00    -0.167 F 
ATOM     26  F   UNL A   1      32.943  22.218  21.976  1.00  0.00    -0.167 F 
ATOM     27  F   UNL A   1      32.116  20.302  22.611  1.00  0.00    -0.167 F 
ENDBRANCH  23  24
ENDBRANCH   9  11
ENDBRANCH   8   9
ENDBRANCH   7   8
ENDBRANCH   6   7
ENDBRANCH   5   6
ENDBRANCH   4   5
ENDBRANCH   3   4
ENDBRANCH   2   3
ENDBRANCH   1   2
BRANCH   1  28
ATOM     28  C   UNL A   1      33.359  28.582  24.347  1.00  0.00     0.188 C 
BRANCH  28  29
ATOM     29  O   UNL A   1      33.219  29.648  25.274  1.00  0.00    -0.376 OA
BRANCH  29  30
ATOM     30  C   UNL A   1      31.914  30.030  25.674  1.00  0.00     0.202 C 
BRANCH  30  31
ATOM     31  C   UNL A   1      31.809  31.319  26.498  1.00  0.00     0.261 C 
BRANCH  31  32
ATOM     32  O   UNL A   1      32.708  31.417  27.613  1.00  0.00    -0.460 OA
BRANCH  32  33
ATOM     33  C   UNL A   1      33.563  32.461  27.623  1.00  0.00     0.338 C 
ATOM     34  O   UNL A   1      33.298  33.637  27.438  1.00  0.00    -0.246 OA
BRANCH  33  35
ATOM     35  C   UNL A   1      34.871  31.966  28.094  1.00  0.00     0.060 A 
ATOM     36  C   UNL A   1      35.018  30.602  28.379  1.00  0.00     0.016 A 
ATOM     37  C   UNL A   1      35.944  32.845  28.257  1.00  0.00     0.016 A 
ATOM     38  C   UNL A   1      36.227  30.120  28.877  1.00  0.00     0.010 A 
ATOM     39  C   UNL A   1      37.145  32.367  28.785  1.00  0.00     0.010 A 
ATOM     40  C   UNL A   1      37.275  31.012  29.138  1.00  0.00    -0.014 A 
BRANCH  40  41
ATOM     41  C   UNL A   1      38.388  30.586  30.018  1.00  0.00     0.031 A 
ATOM     42  C   UNL A   1      39.402  29.634  29.447  1.00  0.00     0.074 A 
ATOM     43  C   UNL A   1      38.521  31.053  31.270  1.00  0.00     0.049 A 
ATOM     44  N   UNL A   1      40.417  29.049  30.029  1.00  0.00    -0.248 NA
ATOM     45  C   UNL A   1      39.249  29.295  28.022  1.00  0.00     0.031 C 
ATOM     46  C   UNL A   1      37.648  32.035  31.905  1.00  0.00     0.029 A 
ATOM     47  N   UNL A   1      39.451  30.752  32.233  1.00  0.00    -0.354 N 
ATOM     48  C   UNL A   1      41.017  28.275  29.045  1.00  0.00     0.074 A 
ATOM     49  C   UNL A   1      40.240  28.437  27.837  1.00  0.00     0.031 C 
ATOM     50  C   UNL A   1      38.078  32.249  33.162  1.00  0.00     0.029 A 
ATOM     51  C   UNL A   1      39.229  31.388  33.430  1.00  0.00     0.049 A 
ATOM     52  H   UNL A   1      40.205  30.137  32.081  1.00  0.00     0.167 HD
ATOM     53  C   UNL A   1      42.125  27.505  29.139  1.00  0.00     0.037 A 
ATOM     54  C   UNL A   1      39.870  31.263  34.609  1.00  0.00     0.037 A 
ATOM     55  C   UNL A   1      42.894  27.343  30.343  1.00  0.00     0.049 A 
ATOM     56  C   UNL A   1      41.040  30.316  34.716  1.00  0.00     0.074 A 
ATOM     57  C   UNL A   1      44.028  26.577  30.545  1.00  0.00     0.029 A 
ATOM     58  N   UNL A   1      42.603  27.957  31.552  1.00  0.00    -0.354 N 
ATOM     59  N   UNL A   1      41.599  29.577  33.787  1.00  0.00    -0.248 NA
ATOM     60  C   UNL A   1      41.667  30.184  36.040  1.00  0.00     0.031 C 
ATOM     61  C   UNL A   1      44.391  26.684  31.891  1.00  0.00     0.029 A 
ATOM     62  C   UNL A   1      43.521  27.566  32.513  1.00  0.00     0.049 A 
ATOM     63  H   UNL A   1      41.855  28.579  31.705  1.00  0.00     0.167 HD
ATOM     64  C   UNL A   1      42.652  28.913  34.406  1.00  0.00     0.074 A 
ATOM     65  C   UNL A   1      42.669  29.356  35.784  1.00  0.00     0.031 C 
ATOM     66  C   UNL A   1      43.523  28.014  33.882  1.00  0.00     0.037 A 
BRANCH  53  67
ATOM     67  C   UNL A   1      42.561  26.758  27.913  1.00  0.00     0.064 A 
ATOM     68  C   UNL A   1      43.391  27.345  26.947  1.00  0.00     0.173 A 
ATOM     69  C   UNL A   1      42.188  25.418  27.729  1.00  0.00     0.173 A 
ATOM     70  F   UNL A   1      43.758  28.631  27.064  1.00  0.00    -0.203 F 
ATOM     71  C   UNL A   1      43.822  26.623  25.837  1.00  0.00     0.198 A 
ATOM     72  C   UNL A   1      42.646  24.689  26.635  1.00  0.00     0.198 A 
ATOM     73  F   UNL A   1      41.392  24.809  28.622  1.00  0.00    -0.203 F 
ATOM     74  F   UNL A   1      44.583  27.217  24.907  1.00  0.00    -0.200 F 
ATOM     75  C   UNL A   1      43.458  25.293  25.689  1.00  0.00     0.200 A 
ATOM     76  F   UNL A   1      42.303  23.400  26.500  1.00  0.00    -0.200 F 
ATOM     77  F   UNL A   1      43.889  24.593  24.630  1.00  0.00    -0.200 F 
ENDBRANCH  53  67
BRANCH  54  78
ATOM     78  C   UNL A   1      39.414  32.046  35.788  1.00  0.00     0.064 A 
ATOM     79  C   UNL A   1      39.990  33.284  36.101  1.00  0.00     0.173 A 
ATOM     80  C   UNL A   1      38.400  31.567  36.633  1.00  0.00     0.173 A 
ATOM     81  F   UNL A   1      40.984  33.770  35.343  1.00  0.00    -0.203 F 
ATOM     82  C   UNL A   1      39.577  34.011  37.216  1.00  0.00     0.198 A 
ATOM     83  C   UNL A   1      37.967  32.309  37.731  1.00  0.00     0.198 A 
ATOM     84  F   UNL A   1      37.821  30.383  36.387  1.00  0.00    -0.203 F 
ATOM     85  F   UNL A   1      40.175  35.172  37.516  1.00  0.00    -0.200 F 
ATOM     86  C   UNL A   1      38.559  33.527  38.025  1.00  0.00     0.200 A 
ATOM     87  F   UNL A   1      36.976  31.843  38.503  1.00  0.00    -0.200 F 
ATOM     88  F   UNL A   1      38.156  34.232  39.090  1.00  0.00    -0.200 F 
ENDBRANCH  54  78
BRANCH  66  89
ATOM     89  C   UNL A   1      44.582  27.459  34.794  1.00  0.00     0.064 A 
ATOM     90  C   UNL A   1      45.796  28.129  35.003  1.00  0.00     0.173 A 
ATOM     91  C   UNL A   1      44.357  26.273  35.510  1.00  0.00     0.173 A 
ATOM     92  F   UNL A   1      46.066  29.263  34.338  1.00  0.00    -0.203 F 
ATOM     93  C   UNL A   1      46.758  27.617  35.870  1.00  0.00     0.198 A 
ATOM     94  C   UNL A   1      45.305  25.783  36.404  1.00  0.00     0.198 A 
ATOM     95  F   UNL A   1      43.207  25.598  35.359  1.00  0.00    -0.203 F 
ATOM     96  F   UNL A   1      47.931  28.248  36.015  1.00  0.00    -0.200 F 
ATOM     97  C   UNL A   1      46.509  26.450  36.577  1.00  0.00     0.200 A 
ATOM     98  F   UNL A   1      45.053  24.667  37.101  1.00  0.00    -0.200 F 
ATOM     99  F   UNL A   1      47.430  25.965  37.419  1.00  0.00    -0.200 F 
ENDBRANCH  66  89
ENDBRANCH  40  41
ENDBRANCH  33  35
ENDBRANCH  32  33
ENDBRANCH  31  32
ENDBRANCH  30  31
ENDBRANCH  29  30
ENDBRANCH  28  29
ENDBRANCH   1  28
TORSDOF 21
ENDMDL
MODEL 2
REMARK VINA RESULT:     -10.7      0.549      7.193
REMARK SMILES Cc1cc2c(c(C)c1Br)C=C(C(=O)OCCOCCOCCOCCOC(=O)c1ccc(-c3c4nc(c(-c5c(F)c(F)c(F)c(F)c5F)c5ccc([nH]5)c(-c5c(F)c(F)c(F)c(F)c5F)c5nc(c(-c6c(F)c(F)c(F)c(F)c6F)c6ccc3[nH]6)C=C5)C=C4)cc1)[C@@H](C(F)(F)F)O2
REMARK SMILES IDX 21 1 20 2 19 3 18 4 17 5 16 6 15 7 14 8 12 9 13 10 11 11
REMARK SMILES IDX 1 12 2 13 3 14 8 15 4 16 6 17 9 18 5 19 97 20 7 21 10 22
REMARK SMILES IDX 92 23 93 24 94 25 95 26 96 27 22 28 23 29 24 30 25 31 26 32
REMARK SMILES IDX 27 33 28 34 29 35 30 36 91 37 31 38 90 39 32 40 33 41 34 42
REMARK SMILES IDX 84 43 35 44 89 45 83 46 85 47 36 48 88 49 82 50 81 51 37 53
REMARK SMILES IDX 69 54 49 55 68 56 50 57 53 58 67 59 86 60 51 61 52 62 66 64
REMARK SMILES IDX 87 65 54 66 38 67 39 68 47 69 40 70 41 71 45 72 48 73 42 74
REMARK SMILES IDX 43 75 46 76 44 77 70 78 71 79 79 80 72 81 73 82 77 83 80 84
REMARK SMILES IDX 74 85 75 86 78 87 76 88 55 89 56 90 64 91 57 92 58 93 62 94
REMARK SMILES IDX 65 95 59 96 60 97 63 98 61 99
REMARK H PARENT 85 52 53 63
REMARK Flexibility Score: inf
ROOT
ATOM      1  C   UNL A   1      33.059  28.855  22.909  1.00  0.00     0.188 C 
ENDROOT
BRANCH   1   2
ATOM      2  O   UNL A   1      31.741  28.963  22.368  1.00  0.00    -0.377 OA
BRANCH   2   3
ATOM      3  C   UNL A   1      31.000  27.768  22.169  1.00  0.00     0.188 C 
BRANCH   3   4
ATOM      4  C   UNL A   1      29.731  27.678  23.040  1.00  0.00     0.188 C 
BRANCH   4   5
ATOM      5  O   UNL A   1      30.011  27.574  24.425  1.00  0.00    -0.376 OA
BRANCH   5   6
ATOM      6  C   UNL A   1      29.887  26.341  25.111  1.00  0.00     0.202 C 
BRANCH   6   7
ATOM      7  C   UNL A   1      31.069  25.586  25.748  1.00  0.00     0.261 C 
BRANCH   7   8
ATOM      8  O   UNL A   1      31.456  24.348  25.152  1.00  0.00    -0.460 OA
BRANCH   8   9
ATOM      9  C   UNL A   1      32.438  24.381  24.234  1.00  0.00     0.338 C 
ATOM     10  O   UNL A   1      32.650  25.262  23.422  1.00  0.00    -0.246 OA
BRANCH   9  11
ATOM     11  C   UNL A   1      33.337  23.236  24.500  1.00  0.00     0.087 C 
ATOM     12  C   UNL A   1      38.333  19.204  25.004  1.00  0.00     0.046 C 
ATOM     13  C   UNL A   1      37.353  20.328  25.210  1.00  0.00    -0.033 A 
ATOM     14  C   UNL A   1      36.011  20.101  24.884  1.00  0.00     0.051 A 
ATOM     15  C   UNL A   1      37.741  21.609  25.656  1.00  0.00     0.024 A 
ATOM     16  C   UNL A   1      35.090  21.144  24.887  1.00  0.00     0.128 A 
ATOM     17  C   UNL A   1      36.805  22.671  25.713  1.00  0.00    -0.026 A 
ATOM     18  Br  UNL A   1      39.575  21.895  26.125  1.00  0.00    -0.050 Br
ATOM     19  C   UNL A   1      35.490  22.437  25.237  1.00  0.00     0.021 A 
ATOM     20  O   UNL A   1      33.827  20.799  24.504  1.00  0.00    -0.475 OA
ATOM     21  C   UNL A   1      37.160  24.037  26.257  1.00  0.00     0.046 C 
ATOM     22  C   UNL A   1      34.547  23.526  24.996  1.00  0.00     0.027 C 
ATOM     23  C   UNL A   1      32.836  21.835  24.285  1.00  0.00     0.316 C 
BRANCH  23  24
ATOM     24  C   UNL A   1      32.244  21.633  22.883  1.00  0.00     0.430 C 
ATOM     25  F   UNL A   1      32.153  20.316  22.574  1.00  0.00    -0.167 F 
ATOM     26  F   UNL A   1      30.994  22.140  22.780  1.00  0.00    -0.167 F 
ATOM     27  F   UNL A   1      33.000  22.222  21.930  1.00  0.00    -0.167 F 
ENDBRANCH  23  24
ENDBRANCH   9  11
ENDBRANCH   8   9
ENDBRANCH   7   8
ENDBRANCH   6   7
ENDBRANCH   5   6
ENDBRANCH   4   5
ENDBRANCH   3   4
ENDBRANCH   2   3
ENDBRANCH   1   2
BRANCH   1  28
ATOM     28  C   UNL A   1      33.319  28.530  24.403  1.00  0.00     0.188 C 
BRANCH  28  29
ATOM     29  O   UNL A   1      33.230  29.647  25.274  1.00  0.00    -0.376 OA
BRANCH  29  30
ATOM     30  C   UNL A   1      31.944  30.094  25.670  1.00  0.00     0.202 C 
BRANCH  30  31
ATOM     31  C   UNL A   1      31.903  31.378  26.508  1.00  0.00     0.261 C 
BRANCH  31  32
ATOM     32  O   UNL A   1      32.783  31.406  27.643  1.00  0.00    -0.460 OA
BRANCH  32  33
ATOM     33  C   UNL A   1      33.690  32.403  27.693  1.00  0.00     0.338 C 
ATOM     34  O   UNL A   1      33.478  33.602  27.615  1.00  0.00    -0.246 OA
BRANCH  33  35
ATOM     35  C   UNL A   1      34.991  31.810  28.056  1.00  0.00     0.060 A 
ATOM     36  C   UNL A   1      35.086  30.418  28.196  1.00  0.00     0.016 A 
ATOM     37  C   UNL A   1      36.108  32.622  28.261  1.00  0.00     0.016 A 
ATOM     38  C   UNL A   1      36.290  29.838  28.592  1.00  0.00     0.010 A 
ATOM     39  C   UNL A   1      37.305  32.044  28.687  1.00  0.00     0.010 A 
ATOM     40  C   UNL A   1      37.386  30.655  28.896  1.00  0.00    -0.014 A 
BRANCH  40  41
ATOM     41  C   UNL A   1      38.511  30.097  29.682  1.00  0.00     0.031 A 
ATOM     42  C   UNL A   1      38.675  30.571  31.100  1.00  0.00     0.074 A 
ATOM     43  C   UNL A   1      39.343  29.173  29.173  1.00  0.00     0.049 A 
ATOM     44  N   UNL A   1      39.617  30.303  31.966  1.00  0.00    -0.248 NA
ATOM     45  C   UNL A   1      37.628  31.473  31.610  1.00  0.00     0.031 C 
ATOM     46  C   UNL A   1      39.240  28.581  27.843  1.00  0.00     0.029 A 
ATOM     47  N   UNL A   1      40.447  28.574  29.727  1.00  0.00    -0.354 N 
ATOM     48  C   UNL A   1      39.278  31.003  33.116  1.00  0.00     0.074 A 
ATOM     49  C   UNL A   1      38.063  31.732  32.833  1.00  0.00     0.031 C 
ATOM     50  C   UNL A   1      40.250  27.709  27.677  1.00  0.00     0.029 A 
ATOM     51  C   UNL A   1      41.092  27.713  28.873  1.00  0.00     0.049 A 
ATOM     52  H   UNL A   1      40.749  28.746  30.648  1.00  0.00     0.167 HD
ATOM     53  C   UNL A   1      39.920  31.027  34.306  1.00  0.00     0.037 A 
ATOM     54  C   UNL A   1      42.243  27.033  29.036  1.00  0.00     0.037 A 
ATOM     55  C   UNL A   1      41.131  30.303  34.584  1.00  0.00     0.049 A 
ATOM     56  C   UNL A   1      42.997  27.159  30.338  1.00  0.00     0.074 A 
ATOM     57  C   UNL A   1      41.865  30.268  35.755  1.00  0.00     0.029 A 
ATOM     58  N   UNL A   1      41.787  29.488  33.674  1.00  0.00    -0.354 N 
ATOM     59  N   UNL A   1      42.680  27.830  31.419  1.00  0.00    -0.248 NA
ATOM     60  C   UNL A   1      44.272  26.433  30.438  1.00  0.00     0.031 C 
ATOM     61  C   UNL A   1      42.996  29.476  35.537  1.00  0.00     0.029 A 
ATOM     62  C   UNL A   1      42.935  28.966  34.249  1.00  0.00     0.049 A 
ATOM     63  H   UNL A   1      41.483  29.307  32.754  1.00  0.00     0.167 HD
ATOM     64  C   UNL A   1      43.701  27.591  32.333  1.00  0.00     0.074 A 
ATOM     65  C   UNL A   1      44.634  26.692  31.686  1.00  0.00     0.031 C 
ATOM     66  C   UNL A   1      43.855  28.074  33.591  1.00  0.00     0.037 A 
BRANCH  53  67
ATOM     67  C   UNL A   1      39.340  31.883  35.394  1.00  0.00     0.064 A 
ATOM     68  C   UNL A   1      38.470  31.357  36.361  1.00  0.00     0.173 A 
ATOM     69  C   UNL A   1      39.702  33.233  35.503  1.00  0.00     0.173 A 
ATOM     70  F   UNL A   1      38.074  30.077  36.288  1.00  0.00    -0.203 F 
ATOM     71  C   UNL A   1      37.975  32.155  37.389  1.00  0.00     0.198 A 
ATOM     72  C   UNL A   1      39.231  34.020  36.550  1.00  0.00     0.198 A 
ATOM     73  F   UNL A   1      40.529  33.787  34.603  1.00  0.00    -0.203 F 
ATOM     74  F   UNL A   1      37.115  31.641  38.279  1.00  0.00    -0.200 F 
ATOM     75  C   UNL A   1      38.366  33.482  37.490  1.00  0.00     0.200 A 
ATOM     76  F   UNL A   1      39.619  35.299  36.652  1.00  0.00    -0.200 F 
ATOM     77  F   UNL A   1      37.904  34.243  38.491  1.00  0.00    -0.200 F 
ENDBRANCH  53  67
BRANCH  54  78
ATOM     78  C   UNL A   1      42.763  26.178  27.935  1.00  0.00     0.064 A 
ATOM     79  C   UNL A   1      42.403  24.827  27.837  1.00  0.00     0.173 A 
ATOM     80  C   UNL A   1      43.638  26.691  26.965  1.00  0.00     0.173 A 
ATOM     81  F   UNL A   1      41.595  24.282  28.758  1.00  0.00    -0.203 F 
ATOM     82  C   UNL A   1      42.904  24.020  26.817  1.00  0.00     0.198 A 
ATOM     83  C   UNL A   1      44.113  25.890  25.928  1.00  0.00     0.198 A 
ATOM     84  F   UNL A   1      44.023  27.974  27.017  1.00  0.00    -0.203 F 
ATOM     85  F   UNL A   1      42.577  22.721  26.773  1.00  0.00    -0.200 F 
ATOM     86  C   UNL A   1      43.751  24.554  25.858  1.00  0.00     0.200 A 
ATOM     87  F   UNL A   1      44.923  26.413  24.997  1.00  0.00    -0.200 F 
ATOM     88  F   UNL A   1      44.222  23.780  24.872  1.00  0.00    -0.200 F 
ENDBRANCH  54  78
BRANCH  66  89
ATOM     89  C   UNL A   1      45.066  27.631  34.363  1.00  0.00     0.064 A 
ATOM     90  C   UNL A   1      45.058  26.458  35.132  1.00  0.00     0.173 A 
ATOM     91  C   UNL A   1      46.265  28.357  34.289  1.00  0.00     0.173 A 
ATOM     92  F   UNL A   1      43.936  25.730  35.244  1.00  0.00    -0.203 F 
ATOM     93  C   UNL A   1      46.195  26.045  35.822  1.00  0.00     0.198 A 
ATOM     94  C   UNL A   1      47.410  27.922  34.950  1.00  0.00     0.198 A 
ATOM     95  F   UNL A   1      46.333  29.480  33.558  1.00  0.00    -0.203 F 
ATOM     96  F   UNL A   1      46.148  24.949  36.591  1.00  0.00    -0.200 F 
ATOM     97  C   UNL A   1      47.373  26.772  35.724  1.00  0.00     0.200 A 
ATOM     98  F   UNL A   1      48.552  28.614  34.836  1.00  0.00    -0.200 F 
ATOM     99  F   UNL A   1      48.468  26.367  36.379  1.00  0.00    -0.200 F 
ENDBRANCH  66  89
ENDBRANCH  40  41
ENDBRANCH  33  35
ENDBRANCH  32  33
ENDBRANCH  31  32
ENDBRANCH  30  31
ENDBRANCH  29  30
ENDBRANCH  28  29
ENDBRANCH   1  28
TORSDOF 21
ENDMDL
MODEL 3
REMARK VINA RESULT:     -10.7      2.432      7.899
REMARK SMILES Cc1cc2c(c(C)c1Br)C=C(C(=O)OCCOCCOCCOCCOC(=O)c1ccc(-c3c4nc(c(-c5c(F)c(F)c(F)c(F)c5F)c5ccc([nH]5)c(-c5c(F)c(F)c(F)c(F)c5F)c5nc(c(-c6c(F)c(F)c(F)c(F)c6F)c6ccc3[nH]6)C=C5)C=C4)cc1)[C@@H](C(F)(F)F)O2
REMARK SMILES IDX 21 1 20 2 19 3 18 4 17 5 16 6 15 7 14 8 12 9 13 10 11 11
REMARK SMILES IDX 1 12 2 13 3 14 8 15 4 16 6 17 9 18 5 19 97 20 7 21 10 22
REMARK SMILES IDX 92 23 93 24 94 25 95 26 96 27 22 28 23 29 24 30 25 31 26 32
REMARK SMILES IDX 27 33 28 34 29 35 30 36 91 37 31 38 90 39 32 40 33 41 34 42
REMARK SMILES IDX 84 43 35 44 89 45 83 46 85 47 36 48 88 49 82 50 81 51 37 53
REMARK SMILES IDX 69 54 49 55 68 56 50 57 53 58 67 59 86 60 51 61 52 62 66 64
REMARK SMILES IDX 87 65 54 66 38 67 39 68 47 69 40 70 41 71 45 72 48 73 42 74
REMARK SMILES IDX 43 75 46 76 44 77 70 78 71 79 79 80 72 81 73 82 77 83 80 84
REMARK SMILES IDX 74 85 75 86 78 87 76 88 55 89 56 90 64 91 57 92 58 93 62 94
REMARK SMILES IDX 65 95 59 96 60 97 63 98 61 99
REMARK H PARENT 85 52 53 63
REMARK Flexibility Score: inf
ROOT
ATOM      1  C   UNL A   1      34.676  31.834  27.925  1.00  0.00     0.188 C 
ENDROOT
BRANCH   1   2
ATOM      2  O   UNL A   1      35.039  30.453  27.866  1.00  0.00    -0.377 OA
BRANCH   2   3
ATOM      3  C   UNL A   1      34.138  29.552  27.239  1.00  0.00     0.188 C 
BRANCH   3   4
ATOM      4  C   UNL A   1      32.711  30.117  27.084  1.00  0.00     0.188 C 
BRANCH   4   5
ATOM      5  O   UNL A   1      32.357  30.378  25.737  1.00  0.00    -0.376 OA
BRANCH   5   6
ATOM      6  C   UNL A   1      31.499  29.510  25.019  1.00  0.00     0.202 C 
BRANCH   6   7
ATOM      7  C   UNL A   1      31.971  28.568  23.895  1.00  0.00     0.261 C 
BRANCH   7   8
ATOM      8  O   UNL A   1      32.929  27.566  24.236  1.00  0.00    -0.460 OA
BRANCH   8   9
ATOM      9  C   UNL A   1      33.345  26.746  23.256  1.00  0.00     0.338 C 
ATOM     10  O   UNL A   1      33.827  27.071  22.186  1.00  0.00    -0.246 OA
BRANCH   9  11
ATOM     11  C   UNL A   1      33.284  25.362  23.775  1.00  0.00     0.087 C 
ATOM     12  C   UNL A   1      34.099  19.075  24.909  1.00  0.00     0.046 C 
ATOM     13  C   UNL A   1      34.274  20.569  24.842  1.00  0.00    -0.033 A 
ATOM     14  C   UNL A   1      33.124  21.368  24.846  1.00  0.00     0.051 A 
ATOM     15  C   UNL A   1      35.536  21.188  24.716  1.00  0.00     0.024 A 
ATOM     16  C   UNL A   1      33.207  22.737  24.614  1.00  0.00     0.128 A 
ATOM     17  C   UNL A   1      35.641  22.587  24.529  1.00  0.00    -0.026 A 
ATOM     18  Br  UNL A   1      37.099  20.083  24.742  1.00  0.00    -0.050 Br
ATOM     19  C   UNL A   1      34.448  23.342  24.393  1.00  0.00     0.021 A 
ATOM     20  O   UNL A   1      32.010  23.392  24.597  1.00  0.00    -0.475 OA
ATOM     21  C   UNL A   1      36.974  23.299  24.466  1.00  0.00     0.046 C 
ATOM     22  C   UNL A   1      34.452  24.725  23.925  1.00  0.00     0.027 C 
ATOM     23  C   UNL A   1      31.957  24.779  24.175  1.00  0.00     0.316 C 
BRANCH  23  24
ATOM     24  C   UNL A   1      30.906  24.894  23.063  1.00  0.00     0.430 C 
ATOM     25  F   UNL A   1      31.489  25.088  21.855  1.00  0.00    -0.167 F 
ATOM     26  F   UNL A   1      30.156  23.774  22.953  1.00  0.00    -0.167 F 
ATOM     27  F   UNL A   1      30.062  25.928  23.277  1.00  0.00    -0.167 F 
ENDBRANCH  23  24
ENDBRANCH   9  11
ENDBRANCH   8   9
ENDBRANCH   7   8
ENDBRANCH   6   7
ENDBRANCH   5   6
ENDBRANCH   4   5
ENDBRANCH   3   4
ENDBRANCH   2   3
ENDBRANCH   1   2
BRANCH   1  28
ATOM     28  C   UNL A   1      35.651  32.926  28.435  1.00  0.00     0.188 C 
BRANCH  28  29
ATOM     29  O   UNL A   1      35.034  33.972  29.171  1.00  0.00    -0.376 OA
BRANCH  29  30
ATOM     30  C   UNL A   1      34.159  34.853  28.488  1.00  0.00     0.202 C 
BRANCH  30  31
ATOM     31  C   UNL A   1      33.282  35.752  29.370  1.00  0.00     0.261 C 
BRANCH  31  32
ATOM     32  O   UNL A   1      32.576  35.085  30.427  1.00  0.00    -0.460 OA
BRANCH  32  33
ATOM     33  C   UNL A   1      32.659  35.626  31.659  1.00  0.00     0.338 C 
ATOM     34  O   UNL A   1      31.871  36.394  32.186  1.00  0.00    -0.246 OA
BRANCH  33  35
ATOM     35  C   UNL A   1      33.785  34.979  32.360  1.00  0.00     0.060 A 
ATOM     36  C   UNL A   1      35.004  35.663  32.462  1.00  0.00     0.016 A 
ATOM     37  C   UNL A   1      33.640  33.702  32.907  1.00  0.00     0.016 A 
ATOM     38  C   UNL A   1      36.099  35.051  33.070  1.00  0.00     0.010 A 
ATOM     39  C   UNL A   1      34.745  33.078  33.488  1.00  0.00     0.010 A 
ATOM     40  C   UNL A   1      35.988  33.733  33.531  1.00  0.00    -0.014 A 
BRANCH  40  41
ATOM     41  C   UNL A   1      37.218  32.954  33.804  1.00  0.00     0.031 A 
ATOM     42  C   UNL A   1      37.940  33.221  35.097  1.00  0.00     0.074 A 
ATOM     43  C   UNL A   1      37.667  32.015  32.956  1.00  0.00     0.049 A 
ATOM     44  N   UNL A   1      39.074  32.739  35.535  1.00  0.00    -0.248 NA
ATOM     45  C   UNL A   1      37.290  34.164  36.024  1.00  0.00     0.031 C 
ATOM     46  C   UNL A   1      37.014  31.614  31.714  1.00  0.00     0.029 A 
ATOM     47  N   UNL A   1      38.790  31.228  33.019  1.00  0.00    -0.354 N 
ATOM     48  C   UNL A   1      39.271  33.319  36.780  1.00  0.00     0.074 A 
ATOM     49  C   UNL A   1      38.161  34.213  37.019  1.00  0.00     0.031 C 
ATOM     50  C   UNL A   1      37.756  30.661  31.122  1.00  0.00     0.029 A 
ATOM     51  C   UNL A   1      38.955  30.416  31.924  1.00  0.00     0.049 A 
ATOM     52  H   UNL A   1      39.418  31.245  33.776  1.00  0.00     0.167 HD
ATOM     53  C   UNL A   1      40.286  33.117  37.652  1.00  0.00     0.037 A 
ATOM     54  C   UNL A   1      39.972  29.594  31.601  1.00  0.00     0.037 A 
ATOM     55  C   UNL A   1      41.392  32.230  37.410  1.00  0.00     0.049 A 
ATOM     56  C   UNL A   1      41.145  29.465  32.542  1.00  0.00     0.074 A 
ATOM     57  C   UNL A   1      42.476  31.962  38.225  1.00  0.00     0.029 A 
ATOM     58  N   UNL A   1      41.554  31.469  36.261  1.00  0.00    -0.354 N 
ATOM     59  N   UNL A   1      41.334  30.024  33.713  1.00  0.00    -0.248 NA
ATOM     60  C   UNL A   1      42.247  28.592  32.112  1.00  0.00     0.031 C 
ATOM     61  C   UNL A   1      43.323  31.081  37.546  1.00  0.00     0.029 A 
ATOM     62  C   UNL A   1      42.736  30.751  36.335  1.00  0.00     0.049 A 
ATOM     63  H   UNL A   1      40.923  31.443  35.505  1.00  0.00     0.167 HD
ATOM     64  C   UNL A   1      42.561  29.555  34.169  1.00  0.00     0.074 A 
ATOM     65  C   UNL A   1      43.059  28.646  33.157  1.00  0.00     0.031 C 
ATOM     66  C   UNL A   1      43.219  29.852  35.318  1.00  0.00     0.037 A 
BRANCH  53  67
ATOM     67  C   UNL A   1      40.263  33.886  38.940  1.00  0.00     0.064 A 
ATOM     68  C   UNL A   1      40.905  35.127  39.070  1.00  0.00     0.173 A 
ATOM     69  C   UNL A   1      39.543  33.402  40.042  1.00  0.00     0.173 A 
ATOM     70  F   UNL A   1      41.625  35.624  38.053  1.00  0.00    -0.203 F 
ATOM     71  C   UNL A   1      40.836  35.848  40.259  1.00  0.00     0.198 A 
ATOM     72  C   UNL A   1      39.450  34.140  41.218  1.00  0.00     0.198 A 
ATOM     73  F   UNL A   1      38.913  32.219  39.971  1.00  0.00    -0.203 F 
ATOM     74  F   UNL A   1      41.489  37.013  40.373  1.00  0.00    -0.200 F 
ATOM     75  C   UNL A   1      40.099  35.360  41.328  1.00  0.00     0.200 A 
ATOM     76  F   UNL A   1      38.727  33.671  42.245  1.00  0.00    -0.200 F 
ATOM     77  F   UNL A   1      40.017  36.064  42.465  1.00  0.00    -0.200 F 
ENDBRANCH  53  67
BRANCH  54  78
ATOM     78  C   UNL A   1      39.935  28.834  30.323  1.00  0.00     0.064 A 
ATOM     79  C   UNL A   1      39.374  27.551  30.260  1.00  0.00     0.173 A 
ATOM     80  C   UNL A   1      40.468  29.370  29.140  1.00  0.00     0.173 A 
ATOM     81  F   UNL A   1      38.880  26.982  31.369  1.00  0.00    -0.203 F 
ATOM     82  C   UNL A   1      39.356  26.830  29.068  1.00  0.00     0.198 A 
ATOM     83  C   UNL A   1      40.421  28.660  27.942  1.00  0.00     0.198 A 
ATOM     84  F   UNL A   1      41.026  30.589  29.145  1.00  0.00    -0.203 F 
ATOM     85  F   UNL A   1      38.852  25.588  29.046  1.00  0.00    -0.200 F 
ATOM     86  C   UNL A   1      39.870  27.389  27.907  1.00  0.00     0.200 A 
ATOM     87  F   UNL A   1      40.910  29.208  26.821  1.00  0.00    -0.200 F 
ATOM     88  F   UNL A   1      39.842  26.698  26.760  1.00  0.00    -0.200 F 
ENDBRANCH  54  78
BRANCH  66  89
ATOM     89  C   UNL A   1      44.541  29.178  35.556  1.00  0.00     0.064 A 
ATOM     90  C   UNL A   1      45.750  29.767  35.156  1.00  0.00     0.173 A 
ATOM     91  C   UNL A   1      44.605  27.955  36.244  1.00  0.00     0.173 A 
ATOM     92  F   UNL A   1      45.746  30.931  34.489  1.00  0.00    -0.203 F 
ATOM     93  C   UNL A   1      46.969  29.143  35.406  1.00  0.00     0.198 A 
ATOM     94  C   UNL A   1      45.828  27.353  36.524  1.00  0.00     0.198 A 
ATOM     95  F   UNL A   1      43.482  27.353  36.662  1.00  0.00    -0.203 F 
ATOM     96  F   UNL A   1      48.107  29.700  34.968  1.00  0.00    -0.200 F 
ATOM     97  C   UNL A   1      47.009  27.941  36.098  1.00  0.00     0.200 A 
ATOM     98  F   UNL A   1      45.865  26.202  37.211  1.00  0.00    -0.200 F 
ATOM     99  F   UNL A   1      48.184  27.349  36.347  1.00  0.00    -0.200 F 
ENDBRANCH  66  89
ENDBRANCH  40  41
ENDBRANCH  33  35
ENDBRANCH  32  33
ENDBRANCH  31  32
ENDBRANCH  30  31
ENDBRANCH  29  30
ENDBRANCH  28  29
ENDBRANCH   1  28
TORSDOF 21
ENDMDL
