MODEL 1
REMARK VINA RESULT:      -9.4      0.000      0.000
REMARK SMILES CC[C@H](C)[NH2+]CCc1ccc(C(=O)OCCOCCOCCOCCOC(=O)c2ccc(-c3c4nc(c(-c5c(F)c(F)c(F)c(F)c5F)c5ccc([nH]5)c(-c5c(F)c(F)c(F)c(F)c5F)c5nc(c(-c6c(F)c(F)c(F)c(F)c6F)c6ccc3[nH]6)C=C5)C=C4)cc2)cc1
REMARK SMILES IDX 18 1 17 2 16 3 15 4 14 5 12 6 13 7 11 8 8 9 9 10 93 11 10 12
REMARK SMILES IDX 92 13 7 14 6 15 5 16 3 19 4 20 2 21 1 22 19 23 20 24 21 25
REMARK SMILES IDX 22 26 23 27 24 28 25 29 26 30 27 31 28 32 29 33 30 34 91 35
REMARK SMILES IDX 31 36 90 37 32 38 33 39 34 40 84 41 35 42 89 43 83 44 85 45
REMARK SMILES IDX 36 46 88 47 82 48 81 49 37 51 69 52 49 53 68 54 50 55 53 56
REMARK SMILES IDX 67 57 86 58 51 59 52 60 66 62 87 63 54 64 38 65 39 66 47 67
REMARK SMILES IDX 40 68 41 69 45 70 48 71 42 72 43 73 46 74 44 75 70 76 71 77
REMARK SMILES IDX 79 78 72 79 73 80 77 81 80 82 74 83 75 84 78 85 76 86 55 87
REMARK SMILES IDX 56 88 64 89 57 90 58 91 62 92 65 93 59 94 60 95 63 96 61 97
REMARK H PARENT 5 17 5 18 85 50 53 61
REMARK Flexibility Score: inf
ROOT
ATOM      1  C   UNL A   1      34.307  24.294  22.385  1.00  0.00     0.188 C 
ENDROOT
BRANCH   1   2
ATOM      2  O   UNL A   1      32.971  24.690  22.120  1.00  0.00    -0.376 OA
BRANCH   2   3
ATOM      3  C   UNL A   1      32.635  26.065  22.150  1.00  0.00     0.202 C 
BRANCH   3   4
ATOM      4  C   UNL A   1      31.188  26.474  22.465  1.00  0.00     0.261 C 
BRANCH   4   5
ATOM      5  O   UNL A   1      30.454  25.566  23.285  1.00  0.00    -0.460 OA
BRANCH   5   6
ATOM      6  C   UNL A   1      30.515  25.750  24.621  1.00  0.00     0.338 C 
ATOM      7  O   UNL A   1      29.989  26.645  25.257  1.00  0.00    -0.246 OA
BRANCH   6   8
ATOM      8  C   UNL A   1      31.156  24.548  25.211  1.00  0.00     0.060 A 
ATOM      9  C   UNL A   1      32.375  22.318  26.384  1.00  0.00    -0.042 A 
ATOM     10  C   UNL A   1      32.361  23.553  27.053  1.00  0.00     0.005 A 
ATOM     11  C   UNL A   1      31.631  22.177  25.207  1.00  0.00     0.005 A 
ATOM     12  C   UNL A   1      31.763  24.667  26.464  1.00  0.00     0.016 A 
ATOM     13  C   UNL A   1      31.063  23.294  24.597  1.00  0.00     0.016 A 
BRANCH   9  14
ATOM     14  C   UNL A   1      33.271  21.212  26.902  1.00  0.00     0.097 C 
BRANCH  14  15
ATOM     15  C   UNL A   1      33.464  19.989  25.970  1.00  0.00     0.265 C 
BRANCH  15  16
ATOM     16  N   UNL A   1      32.994  18.671  26.410  1.00  0.00    -0.344 N 
ATOM     17  H   UNL A   1      33.750  18.242  26.946  1.00  0.00     0.346 HD
ATOM     18  H   UNL A   1      32.138  18.864  26.931  1.00  0.00     0.346 HD
BRANCH  16  19
ATOM     19  C   UNL A   1      32.590  17.711  25.381  1.00  0.00     0.178 C 
ATOM     20  C   UNL A   1      32.369  18.553  24.116  1.00  0.00     0.075 C 
BRANCH  19  21
ATOM     21  C   UNL A   1      33.578  16.546  25.145  1.00  0.00     0.061 C 
ATOM     22  C   UNL A   1      34.150  16.387  23.741  1.00  0.00     0.010 C 
ENDBRANCH  19  21
ENDBRANCH  16  19
ENDBRANCH  15  16
ENDBRANCH  14  15
ENDBRANCH   9  14
ENDBRANCH   6   8
ENDBRANCH   5   6
ENDBRANCH   4   5
ENDBRANCH   3   4
ENDBRANCH   2   3
ENDBRANCH   1   2
BRANCH   1  23
ATOM     23  C   UNL A   1      34.691  24.397  23.876  1.00  0.00     0.188 C 
BRANCH  23  24
ATOM     24  O   UNL A   1      34.838  23.190  24.610  1.00  0.00    -0.377 OA
BRANCH  24  25
ATOM     25  C   UNL A   1      35.951  22.338  24.344  1.00  0.00     0.188 C 
BRANCH  25  26
ATOM     26  C   UNL A   1      36.980  21.952  25.438  1.00  0.00     0.188 C 
BRANCH  26  27
ATOM     27  O   UNL A   1      38.014  21.082  25.015  1.00  0.00    -0.376 OA
BRANCH  27  28
ATOM     28  C   UNL A   1      39.206  21.045  25.779  1.00  0.00     0.202 C 
BRANCH  28  29
ATOM     29  C   UNL A   1      39.779  19.658  26.103  1.00  0.00     0.261 C 
BRANCH  29  30
ATOM     30  O   UNL A   1      40.946  19.270  25.364  1.00  0.00    -0.460 OA
BRANCH  30  31
ATOM     31  C   UNL A   1      42.094  19.117  26.057  1.00  0.00     0.338 C 
ATOM     32  O   UNL A   1      42.696  18.078  26.275  1.00  0.00    -0.246 OA
BRANCH  31  33
ATOM     33  C   UNL A   1      42.613  20.465  26.359  1.00  0.00     0.060 A 
ATOM     34  C   UNL A   1      42.550  20.947  27.674  1.00  0.00     0.016 A 
ATOM     35  C   UNL A   1      43.177  21.244  25.346  1.00  0.00     0.016 A 
ATOM     36  C   UNL A   1      43.022  22.226  27.971  1.00  0.00     0.010 A 
ATOM     37  C   UNL A   1      43.629  22.533  25.641  1.00  0.00     0.010 A 
ATOM     38  C   UNL A   1      43.522  23.042  26.948  1.00  0.00    -0.014 A 
BRANCH  38  39
ATOM     39  C   UNL A   1      43.745  24.486  27.197  1.00  0.00     0.031 A 
ATOM     40  C   UNL A   1      45.125  25.040  26.971  1.00  0.00     0.074 A 
ATOM     41  C   UNL A   1      42.749  25.293  27.601  1.00  0.00     0.049 A 
ATOM     42  N   UNL A   1      45.583  26.247  27.178  1.00  0.00    -0.248 NA
ATOM     43  C   UNL A   1      46.125  24.097  26.442  1.00  0.00     0.031 C 
ATOM     44  C   UNL A   1      41.363  24.885  27.812  1.00  0.00     0.029 A 
ATOM     45  N   UNL A   1      42.761  26.629  27.916  1.00  0.00    -0.354 N 
ATOM     46  C   UNL A   1      46.923  26.207  26.813  1.00  0.00     0.074 A 
ATOM     47  C   UNL A   1      47.213  24.849  26.404  1.00  0.00     0.031 C 
ATOM     48  C   UNL A   1      40.658  25.948  28.237  1.00  0.00     0.029 A 
ATOM     49  C   UNL A   1      41.551  27.100  28.362  1.00  0.00     0.049 A 
ATOM     50  H   UNL A   1      43.562  27.197  27.830  1.00  0.00     0.167 HD
ATOM     51  C   UNL A   1      47.828  27.213  26.810  1.00  0.00     0.037 A 
ATOM     52  C   UNL A   1      41.215  28.314  28.841  1.00  0.00     0.037 A 
ATOM     53  C   UNL A   1      47.537  28.561  27.221  1.00  0.00     0.049 A 
ATOM     54  C   UNL A   1      42.264  29.398  28.909  1.00  0.00     0.074 A 
ATOM     55  C   UNL A   1      48.379  29.659  27.240  1.00  0.00     0.029 A 
ATOM     56  N   UNL A   1      46.308  28.992  27.701  1.00  0.00    -0.354 N 
ATOM     57  N   UNL A   1      43.521  29.363  28.536  1.00  0.00    -0.248 NA
ATOM     58  C   UNL A   1      41.843  30.693  29.463  1.00  0.00     0.031 C 
ATOM     59  C   UNL A   1      47.680  30.737  27.791  1.00  0.00     0.029 A 
ATOM     60  C   UNL A   1      46.380  30.331  28.048  1.00  0.00     0.049 A 
ATOM     61  H   UNL A   1      45.504  28.430  27.781  1.00  0.00     0.167 HD
ATOM     62  C   UNL A   1      44.029  30.634  28.779  1.00  0.00     0.074 A 
ATOM     63  C   UNL A   1      42.941  31.421  29.318  1.00  0.00     0.031 C 
ATOM     64  C   UNL A   1      45.285  31.106  28.576  1.00  0.00     0.037 A 
BRANCH  51  65
ATOM     65  C   UNL A   1      49.229  26.885  26.381  1.00  0.00     0.064 A 
ATOM     66  C   UNL A   1      50.196  26.429  27.291  1.00  0.00     0.173 A 
ATOM     67  C   UNL A   1      49.603  27.004  25.033  1.00  0.00     0.173 A 
ATOM     68  F   UNL A   1      49.897  26.313  28.593  1.00  0.00    -0.203 F 
ATOM     69  C   UNL A   1      51.491  26.132  26.872  1.00  0.00     0.198 A 
ATOM     70  C   UNL A   1      50.888  26.673  24.613  1.00  0.00     0.198 A 
ATOM     71  F   UNL A   1      48.718  27.434  24.122  1.00  0.00    -0.203 F 
ATOM     72  F   UNL A   1      52.411  25.751  27.767  1.00  0.00    -0.200 F 
ATOM     73  C   UNL A   1      51.834  26.247  25.533  1.00  0.00     0.200 A 
ATOM     74  F   UNL A   1      51.213  26.771  23.316  1.00  0.00    -0.200 F 
ATOM     75  F   UNL A   1      53.077  25.953  25.130  1.00  0.00    -0.200 F 
ENDBRANCH  51  65
BRANCH  52  76
ATOM     76  C   UNL A   1      39.828  28.573  29.315  1.00  0.00     0.064 A 
ATOM     77  C   UNL A   1      38.859  29.113  28.458  1.00  0.00     0.173 A 
ATOM     78  C   UNL A   1      39.452  28.317  30.642  1.00  0.00     0.173 A 
ATOM     79  F   UNL A   1      39.175  29.403  27.187  1.00  0.00    -0.203 F 
ATOM     80  C   UNL A   1      37.576  29.408  28.916  1.00  0.00     0.198 A 
ATOM     81  C   UNL A   1      38.160  28.581  31.089  1.00  0.00     0.198 A 
ATOM     82  F   UNL A   1      40.343  27.806  31.505  1.00  0.00    -0.203 F 
ATOM     83  F   UNL A   1      36.686  29.976  28.090  1.00  0.00    -0.200 F 
ATOM     84  C   UNL A   1      37.225  29.135  30.229  1.00  0.00     0.200 A 
ATOM     85  F   UNL A   1      37.823  28.305  32.357  1.00  0.00    -0.200 F 
ATOM     86  F   UNL A   1      35.991  29.417  30.669  1.00  0.00    -0.200 F 
ENDBRANCH  52  76
BRANCH  64  87
ATOM     87  C   UNL A   1      45.542  32.553  28.891  1.00  0.00     0.064 A 
ATOM     88  C   UNL A   1      45.297  33.571  27.958  1.00  0.00     0.173 A 
ATOM     89  C   UNL A   1      45.999  32.930  30.166  1.00  0.00     0.173 A 
ATOM     90  F   UNL A   1      44.871  33.266  26.723  1.00  0.00    -0.203 F 
ATOM     91  C   UNL A   1      45.528  34.908  28.277  1.00  0.00     0.198 A 
ATOM     92  C   UNL A   1      46.193  34.269  30.492  1.00  0.00     0.198 A 
ATOM     93  F   UNL A   1      46.240  31.999  31.101  1.00  0.00    -0.203 F 
ATOM     94  F   UNL A   1      45.338  35.858  27.351  1.00  0.00    -0.200 F 
ATOM     95  C   UNL A   1      45.968  35.256  29.545  1.00  0.00     0.200 A 
ATOM     96  F   UNL A   1      46.600  34.604  31.725  1.00  0.00    -0.200 F 
ATOM     97  F   UNL A   1      46.180  36.542  29.853  1.00  0.00    -0.200 F 
ENDBRANCH  64  87
ENDBRANCH  38  39
ENDBRANCH  31  33
ENDBRANCH  30  31
ENDBRANCH  29  30
ENDBRANCH  28  29
ENDBRANCH  27  28
ENDBRANCH  26  27
ENDBRANCH  25  26
ENDBRANCH  24  25
ENDBRANCH  23  24
ENDBRANCH   1  23
TORSDOF 25
ENDMDL
MODEL 2
REMARK VINA RESULT:      -9.2      3.420      8.897
REMARK SMILES CC[C@H](C)[NH2+]CCc1ccc(C(=O)OCCOCCOCCOCCOC(=O)c2ccc(-c3c4nc(c(-c5c(F)c(F)c(F)c(F)c5F)c5ccc([nH]5)c(-c5c(F)c(F)c(F)c(F)c5F)c5nc(c(-c6c(F)c(F)c(F)c(F)c6F)c6ccc3[nH]6)C=C5)C=C4)cc2)cc1
REMARK SMILES IDX 18 1 17 2 16 3 15 4 14 5 12 6 13 7 11 8 8 9 9 10 93 11 10 12
REMARK SMILES IDX 92 13 7 14 6 15 5 16 3 19 4 20 2 21 1 22 19 23 20 24 21 25
REMARK SMILES IDX 22 26 23 27 24 28 25 29 26 30 27 31 28 32 29 33 30 34 91 35
REMARK SMILES IDX 31 36 90 37 32 38 33 39 34 40 84 41 35 42 89 43 83 44 85 45
REMARK SMILES IDX 36 46 88 47 82 48 81 49 37 51 69 52 49 53 68 54 50 55 53 56
REMARK SMILES IDX 67 57 86 58 51 59 52 60 66 62 87 63 54 64 38 65 39 66 47 67
REMARK SMILES IDX 40 68 41 69 45 70 48 71 42 72 43 73 46 74 44 75 70 76 71 77
REMARK SMILES IDX 79 78 72 79 73 80 77 81 80 82 74 83 75 84 78 85 76 86 55 87
REMARK SMILES IDX 56 88 64 89 57 90 58 91 62 92 65 93 59 94 60 95 63 96 61 97
REMARK H PARENT 5 17 5 18 85 50 53 61
REMARK Flexibility Score: inf
ROOT
ATOM      1  C   UNL A   1      34.757  29.452  27.745  1.00  0.00     0.188 C 
ENDROOT
BRANCH   1   2
ATOM      2  O   UNL A   1      34.462  29.288  26.367  1.00  0.00    -0.376 OA
BRANCH   2   3
ATOM      3  C   UNL A   1      33.137  29.488  25.912  1.00  0.00     0.202 C 
BRANCH   3   4
ATOM      4  C   UNL A   1      32.759  29.041  24.491  1.00  0.00     0.261 C 
BRANCH   4   5
ATOM      5  O   UNL A   1      33.654  28.115  23.876  1.00  0.00    -0.460 OA
BRANCH   5   6
ATOM      6  C   UNL A   1      33.113  27.023  23.296  1.00  0.00     0.338 C 
ATOM      7  O   UNL A   1      32.779  26.908  22.131  1.00  0.00    -0.246 OA
BRANCH   6   8
ATOM      8  C   UNL A   1      33.194  25.908  24.273  1.00  0.00     0.060 A 
ATOM      9  C   UNL A   1      33.282  23.784  26.094  1.00  0.00    -0.042 A 
ATOM     10  C   UNL A   1      32.118  24.032  25.349  1.00  0.00     0.005 A 
ATOM     11  C   UNL A   1      34.445  24.505  25.794  1.00  0.00     0.005 A 
ATOM     12  C   UNL A   1      32.070  25.097  24.450  1.00  0.00     0.016 A 
ATOM     13  C   UNL A   1      34.392  25.592  24.923  1.00  0.00     0.016 A 
BRANCH   9  14
ATOM     14  C   UNL A   1      33.217  22.819  27.259  1.00  0.00     0.097 C 
BRANCH  14  15
ATOM     15  C   UNL A   1      33.975  21.478  27.086  1.00  0.00     0.265 C 
BRANCH  15  16
ATOM     16  N   UNL A   1      33.230  20.280  26.688  1.00  0.00    -0.344 N 
ATOM     17  H   UNL A   1      33.585  19.502  27.245  1.00  0.00     0.346 HD
ATOM     18  H   UNL A   1      32.251  20.522  26.844  1.00  0.00     0.346 HD
BRANCH  16  19
ATOM     19  C   UNL A   1      33.289  19.873  25.284  1.00  0.00     0.178 C 
ATOM     20  C   UNL A   1      34.355  20.779  24.651  1.00  0.00     0.075 C 
BRANCH  19  21
ATOM     21  C   UNL A   1      33.575  18.373  25.044  1.00  0.00     0.061 C 
ATOM     22  C   UNL A   1      32.375  17.450  24.871  1.00  0.00     0.010 C 
ENDBRANCH  19  21
ENDBRANCH  16  19
ENDBRANCH  15  16
ENDBRANCH  14  15
ENDBRANCH   9  14
ENDBRANCH   6   8
ENDBRANCH   5   6
ENDBRANCH   4   5
ENDBRANCH   3   4
ENDBRANCH   2   3
ENDBRANCH   1   2
BRANCH   1  23
ATOM     23  C   UNL A   1      35.700  30.639  28.031  1.00  0.00     0.188 C 
BRANCH  23  24
ATOM     24  O   UNL A   1      35.265  31.938  27.656  1.00  0.00    -0.377 OA
BRANCH  24  25
ATOM     25  C   UNL A   1      34.086  32.482  28.248  1.00  0.00     0.188 C 
BRANCH  25  26
ATOM     26  C   UNL A   1      34.101  33.796  29.071  1.00  0.00     0.188 C 
BRANCH  26  27
ATOM     27  O   UNL A   1      34.787  33.725  30.308  1.00  0.00    -0.376 OA
BRANCH  27  28
ATOM     28  C   UNL A   1      34.398  32.720  31.227  1.00  0.00     0.202 C 
BRANCH  28  29
ATOM     29  C   UNL A   1      35.066  32.747  32.609  1.00  0.00     0.261 C 
BRANCH  29  30
ATOM     30  O   UNL A   1      36.487  32.950  32.618  1.00  0.00    -0.460 OA
BRANCH  30  31
ATOM     31  C   UNL A   1      37.231  32.081  33.333  1.00  0.00     0.338 C 
ATOM     32  O   UNL A   1      37.051  31.724  34.486  1.00  0.00    -0.246 OA
BRANCH  31  33
ATOM     33  C   UNL A   1      38.215  31.477  32.413  1.00  0.00     0.060 A 
ATOM     34  C   UNL A   1      39.303  30.767  32.941  1.00  0.00     0.016 A 
ATOM     35  C   UNL A   1      38.052  31.600  31.032  1.00  0.00     0.016 A 
ATOM     36  C   UNL A   1      40.250  30.205  32.084  1.00  0.00     0.010 A 
ATOM     37  C   UNL A   1      39.013  31.057  30.176  1.00  0.00     0.010 A 
ATOM     38  C   UNL A   1      40.134  30.387  30.700  1.00  0.00    -0.014 A 
BRANCH  38  39
ATOM     39  C   UNL A   1      41.275  30.055  29.813  1.00  0.00     0.031 A 
ATOM     40  C   UNL A   1      41.333  28.676  29.217  1.00  0.00     0.074 A 
ATOM     41  C   UNL A   1      42.232  30.956  29.530  1.00  0.00     0.049 A 
ATOM     42  N   UNL A   1      42.255  28.129  28.467  1.00  0.00    -0.248 NA
ATOM     43  C   UNL A   1      40.194  27.792  29.512  1.00  0.00     0.031 C 
ATOM     44  C   UNL A   1      42.264  32.335  30.010  1.00  0.00     0.029 A 
ATOM     45  N   UNL A   1      43.371  30.834  28.774  1.00  0.00    -0.354 N 
ATOM     46  C   UNL A   1      41.812  26.838  28.209  1.00  0.00     0.074 A 
ATOM     47  C   UNL A   1      40.556  26.671  28.909  1.00  0.00     0.031 C 
ATOM     48  C   UNL A   1      43.377  32.930  29.547  1.00  0.00     0.029 A 
ATOM     49  C   UNL A   1      44.152  31.963  28.770  1.00  0.00     0.049 A 
ATOM     50  H   UNL A   1      43.605  30.015  28.280  1.00  0.00     0.167 HD
ATOM     51  C   UNL A   1      42.394  25.881  27.450  1.00  0.00     0.037 A 
ATOM     52  C   UNL A   1      45.366  32.177  28.225  1.00  0.00     0.037 A 
ATOM     53  C   UNL A   1      43.645  26.050  26.759  1.00  0.00     0.049 A 
ATOM     54  C   UNL A   1      46.036  31.066  27.454  1.00  0.00     0.074 A 
ATOM     55  C   UNL A   1      44.313  25.148  25.950  1.00  0.00     0.029 A 
ATOM     56  N   UNL A   1      44.426  27.196  26.809  1.00  0.00    -0.354 N 
ATOM     57  N   UNL A   1      45.600  29.857  27.189  1.00  0.00    -0.248 NA
ATOM     58  C   UNL A   1      47.369  31.351  26.903  1.00  0.00     0.031 C 
ATOM     59  C   UNL A   1      45.526  25.723  25.563  1.00  0.00     0.029 A 
ATOM     60  C   UNL A   1      45.584  27.011  26.070  1.00  0.00     0.049 A 
ATOM     61  H   UNL A   1      44.191  28.019  27.295  1.00  0.00     0.167 HD
ATOM     62  C   UNL A   1      46.586  29.254  26.417  1.00  0.00     0.074 A 
ATOM     63  C   UNL A   1      47.637  30.234  26.243  1.00  0.00     0.031 C 
ATOM     64  C   UNL A   1      46.619  28.000  25.898  1.00  0.00     0.037 A 
BRANCH  51  65
ATOM     65  C   UNL A   1      41.701  24.552  27.356  1.00  0.00     0.064 A 
ATOM     66  C   UNL A   1      40.514  24.387  26.625  1.00  0.00     0.173 A 
ATOM     67  C   UNL A   1      42.247  23.423  27.984  1.00  0.00     0.173 A 
ATOM     68  F   UNL A   1      39.941  25.436  26.019  1.00  0.00    -0.203 F 
ATOM     69  C   UNL A   1      39.886  23.145  26.552  1.00  0.00     0.198 A 
ATOM     70  C   UNL A   1      41.634  22.177  27.879  1.00  0.00     0.198 A 
ATOM     71  F   UNL A   1      43.381  23.525  28.694  1.00  0.00    -0.203 F 
ATOM     72  F   UNL A   1      38.725  23.022  25.894  1.00  0.00    -0.200 F 
ATOM     73  C   UNL A   1      40.450  22.041  27.172  1.00  0.00     0.200 A 
ATOM     74  F   UNL A   1      42.190  21.108  28.467  1.00  0.00    -0.200 F 
ATOM     75  F   UNL A   1      39.849  20.846  27.093  1.00  0.00    -0.200 F 
ENDBRANCH  51  65
BRANCH  52  76
ATOM     76  C   UNL A   1      46.043  33.491  28.400  1.00  0.00     0.064 A 
ATOM     77  C   UNL A   1      45.834  34.539  27.493  1.00  0.00     0.173 A 
ATOM     78  C   UNL A   1      46.938  33.714  29.457  1.00  0.00     0.173 A 
ATOM     79  F   UNL A   1      45.011  34.368  26.448  1.00  0.00    -0.203 F 
ATOM     80  C   UNL A   1      46.510  35.751  27.625  1.00  0.00     0.198 A 
ATOM     81  C   UNL A   1      47.587  34.937  29.606  1.00  0.00     0.198 A 
ATOM     82  F   UNL A   1      47.178  32.742  30.350  1.00  0.00    -0.203 F 
ATOM     83  F   UNL A   1      46.334  36.717  26.711  1.00  0.00    -0.200 F 
ATOM     84  C   UNL A   1      47.381  35.952  28.685  1.00  0.00     0.200 A 
ATOM     85  F   UNL A   1      48.419  35.129  30.639  1.00  0.00    -0.200 F 
ATOM     86  F   UNL A   1      48.030  37.118  28.812  1.00  0.00    -0.200 F 
ENDBRANCH  52  76
BRANCH  64  87
ATOM     87  C   UNL A   1      47.806  27.628  25.055  1.00  0.00     0.064 A 
ATOM     88  C   UNL A   1      48.970  27.079  25.613  1.00  0.00     0.173 A 
ATOM     89  C   UNL A   1      47.759  27.781  23.659  1.00  0.00     0.173 A 
ATOM     90  F   UNL A   1      49.072  26.922  26.941  1.00  0.00    -0.203 F 
ATOM     91  C   UNL A   1      50.053  26.727  24.809  1.00  0.00     0.198 A 
ATOM     92  C   UNL A   1      48.829  27.395  22.857  1.00  0.00     0.198 A 
ATOM     93  F   UNL A   1      46.666  28.291  23.071  1.00  0.00    -0.203 F 
ATOM     94  F   UNL A   1      51.175  26.256  25.371  1.00  0.00    -0.200 F 
ATOM     95  C   UNL A   1      49.979  26.878  23.433  1.00  0.00     0.200 A 
ATOM     96  F   UNL A   1      48.746  27.523  21.525  1.00  0.00    -0.200 F 
ATOM     97  F   UNL A   1      51.017  26.529  22.663  1.00  0.00    -0.200 F 
ENDBRANCH  64  87
ENDBRANCH  38  39
ENDBRANCH  31  33
ENDBRANCH  30  31
ENDBRANCH  29  30
ENDBRANCH  28  29
ENDBRANCH  27  28
ENDBRANCH  26  27
ENDBRANCH  25  26
ENDBRANCH  24  25
ENDBRANCH  23  24
ENDBRANCH   1  23
TORSDOF 25
ENDMDL
MODEL 3
REMARK VINA RESULT:      -9.1      2.863      5.853
REMARK SMILES CC[C@H](C)[NH2+]CCc1ccc(C(=O)OCCOCCOCCOCCOC(=O)c2ccc(-c3c4nc(c(-c5c(F)c(F)c(F)c(F)c5F)c5ccc([nH]5)c(-c5c(F)c(F)c(F)c(F)c5F)c5nc(c(-c6c(F)c(F)c(F)c(F)c6F)c6ccc3[nH]6)C=C5)C=C4)cc2)cc1
REMARK SMILES IDX 18 1 17 2 16 3 15 4 14 5 12 6 13 7 11 8 8 9 9 10 93 11 10 12
REMARK SMILES IDX 92 13 7 14 6 15 5 16 3 19 4 20 2 21 1 22 19 23 20 24 21 25
REMARK SMILES IDX 22 26 23 27 24 28 25 29 26 30 27 31 28 32 29 33 30 34 91 35
REMARK SMILES IDX 31 36 90 37 32 38 33 39 34 40 84 41 35 42 89 43 83 44 85 45
REMARK SMILES IDX 36 46 88 47 82 48 81 49 37 51 69 52 49 53 68 54 50 55 53 56
REMARK SMILES IDX 67 57 86 58 51 59 52 60 66 62 87 63 54 64 38 65 39 66 47 67
REMARK SMILES IDX 40 68 41 69 45 70 48 71 42 72 43 73 46 74 44 75 70 76 71 77
REMARK SMILES IDX 79 78 72 79 73 80 77 81 80 82 74 83 75 84 78 85 76 86 55 87
REMARK SMILES IDX 56 88 64 89 57 90 58 91 62 92 65 93 59 94 60 95 63 96 61 97
REMARK H PARENT 5 17 5 18 85 50 53 61
REMARK Flexibility Score: inf
ROOT
ATOM      1  C   UNL A   1      34.157  25.052  23.840  1.00  0.00     0.188 C 
ENDROOT
BRANCH   1   2
ATOM      2  O   UNL A   1      33.223  26.093  24.075  1.00  0.00    -0.376 OA
BRANCH   2   3
ATOM      3  C   UNL A   1      33.656  27.440  24.027  1.00  0.00     0.202 C 
BRANCH   3   4
ATOM      4  C   UNL A   1      32.738  28.541  24.580  1.00  0.00     0.261 C 
BRANCH   4   5
ATOM      5  O   UNL A   1      33.260  29.288  25.678  1.00  0.00    -0.460 OA
BRANCH   5   6
ATOM      6  C   UNL A   1      32.400  29.626  26.662  1.00  0.00     0.338 C 
ATOM      7  O   UNL A   1      31.592  28.894  27.206  1.00  0.00    -0.246 OA
BRANCH   6   8
ATOM      8  C   UNL A   1      32.756  30.991  27.123  1.00  0.00     0.060 A 
ATOM      9  C   UNL A   1      33.365  33.587  27.972  1.00  0.00    -0.042 A 
ATOM     10  C   UNL A   1      32.149  33.320  27.322  1.00  0.00     0.005 A 
ATOM     11  C   UNL A   1      34.188  32.515  28.336  1.00  0.00     0.005 A 
ATOM     12  C   UNL A   1      31.850  32.029  26.889  1.00  0.00     0.016 A 
ATOM     13  C   UNL A   1      33.913  31.229  27.875  1.00  0.00     0.016 A 
BRANCH   9  14
ATOM     14  C   UNL A   1      33.791  35.027  28.170  1.00  0.00     0.097 C 
BRANCH  14  15
ATOM     15  C   UNL A   1      33.408  35.679  29.523  1.00  0.00     0.265 C 
BRANCH  15  16
ATOM     16  N   UNL A   1      34.165  35.326  30.729  1.00  0.00    -0.344 N 
ATOM     17  H   UNL A   1      34.057  34.321  30.872  1.00  0.00     0.346 HD
ATOM     18  H   UNL A   1      35.115  35.644  30.539  1.00  0.00     0.346 HD
BRANCH  16  19
ATOM     19  C   UNL A   1      33.799  35.987  31.983  1.00  0.00     0.178 C 
ATOM     20  C   UNL A   1      32.265  35.936  32.027  1.00  0.00     0.075 C 
BRANCH  19  21
ATOM     21  C   UNL A   1      34.443  35.387  33.254  1.00  0.00     0.061 C 
ATOM     22  C   UNL A   1      34.403  33.872  33.411  1.00  0.00     0.010 C 
ENDBRANCH  19  21
ENDBRANCH  16  19
ENDBRANCH  15  16
ENDBRANCH  14  15
ENDBRANCH   9  14
ENDBRANCH   6   8
ENDBRANCH   5   6
ENDBRANCH   4   5
ENDBRANCH   3   4
ENDBRANCH   2   3
ENDBRANCH   1   2
BRANCH   1  23
ATOM     23  C   UNL A   1      34.692  24.407  25.136  1.00  0.00     0.188 C 
BRANCH  23  24
ATOM     24  O   UNL A   1      34.562  23.000  25.280  1.00  0.00    -0.377 OA
BRANCH  24  25
ATOM     25  C   UNL A   1      35.597  22.146  24.793  1.00  0.00     0.188 C 
BRANCH  25  26
ATOM     26  C   UNL A   1      36.679  21.540  25.724  1.00  0.00     0.188 C 
BRANCH  26  27
ATOM     27  O   UNL A   1      37.850  21.083  25.071  1.00  0.00    -0.376 OA
BRANCH  27  28
ATOM     28  C   UNL A   1      39.069  21.123  25.789  1.00  0.00     0.202 C 
BRANCH  28  29
ATOM     29  C   UNL A   1      39.723  19.775  26.122  1.00  0.00     0.261 C 
BRANCH  29  30
ATOM     30  O   UNL A   1      40.903  19.445  25.374  1.00  0.00    -0.460 OA
BRANCH  30  31
ATOM     31  C   UNL A   1      42.042  19.251  26.070  1.00  0.00     0.338 C 
ATOM     32  O   UNL A   1      42.622  18.195  26.265  1.00  0.00    -0.246 OA
BRANCH  31  33
ATOM     33  C   UNL A   1      42.586  20.580  26.411  1.00  0.00     0.060 A 
ATOM     34  C   UNL A   1      42.482  21.048  27.728  1.00  0.00     0.016 A 
ATOM     35  C   UNL A   1      43.212  21.354  25.431  1.00  0.00     0.016 A 
ATOM     36  C   UNL A   1      42.978  22.310  28.061  1.00  0.00     0.010 A 
ATOM     37  C   UNL A   1      43.687  22.626  25.761  1.00  0.00     0.010 A 
ATOM     38  C   UNL A   1      43.541  23.122  27.069  1.00  0.00    -0.014 A 
BRANCH  38  39
ATOM     39  C   UNL A   1      43.794  24.556  27.346  1.00  0.00     0.031 A 
ATOM     40  C   UNL A   1      45.213  25.051  27.287  1.00  0.00     0.074 A 
ATOM     41  C   UNL A   1      42.792  25.407  27.630  1.00  0.00     0.049 A 
ATOM     42  N   UNL A   1      45.695  26.238  27.549  1.00  0.00    -0.248 NA
ATOM     43  C   UNL A   1      46.228  24.065  26.879  1.00  0.00     0.031 C 
ATOM     44  C   UNL A   1      41.375  25.059  27.673  1.00  0.00     0.029 A 
ATOM     45  N   UNL A   1      42.823  26.742  27.947  1.00  0.00    -0.354 N 
ATOM     46  C   UNL A   1      47.066  26.140  27.347  1.00  0.00     0.074 A 
ATOM     47  C   UNL A   1      47.344  24.771  26.973  1.00  0.00     0.031 C 
ATOM     48  C   UNL A   1      40.670  26.152  28.013  1.00  0.00     0.029 A 
ATOM     49  C   UNL A   1      41.590  27.265  28.245  1.00  0.00     0.049 A 
ATOM     50  H   UNL A   1      43.652  27.275  27.957  1.00  0.00     0.167 HD
ATOM     51  C   UNL A   1      48.006  27.107  27.454  1.00  0.00     0.037 A 
ATOM     52  C   UNL A   1      41.251  28.494  28.684  1.00  0.00     0.037 A 
ATOM     53  C   UNL A   1      47.725  28.468  27.830  1.00  0.00     0.049 A 
ATOM     54  C   UNL A   1      42.329  29.533  28.879  1.00  0.00     0.074 A 
ATOM     55  C   UNL A   1      48.606  29.529  27.951  1.00  0.00     0.029 A 
ATOM     56  N   UNL A   1      46.468  28.952  28.160  1.00  0.00    -0.354 N 
ATOM     57  N   UNL A   1      43.619  29.443  28.658  1.00  0.00    -0.248 NA
ATOM     58  C   UNL A   1      41.901  30.846  29.381  1.00  0.00     0.031 C 
ATOM     59  C   UNL A   1      47.892  30.637  28.417  1.00  0.00     0.029 A 
ATOM     60  C   UNL A   1      46.554  30.288  28.516  1.00  0.00     0.049 A 
ATOM     61  H   UNL A   1      45.637  28.424  28.143  1.00  0.00     0.167 HD
ATOM     62  C   UNL A   1      44.148  30.692  28.963  1.00  0.00     0.074 A 
ATOM     63  C   UNL A   1      43.038  31.527  29.369  1.00  0.00     0.031 C 
ATOM     64  C   UNL A   1      45.438  31.110  28.911  1.00  0.00     0.037 A 
BRANCH  51  65
ATOM     65  C   UNL A   1      49.434  26.719  27.195  1.00  0.00     0.064 A 
ATOM     66  C   UNL A   1      49.946  26.609  25.893  1.00  0.00     0.173 A 
ATOM     67  C   UNL A   1      50.308  26.480  28.266  1.00  0.00     0.173 A 
ATOM     68  F   UNL A   1      49.150  26.810  24.833  1.00  0.00    -0.203 F 
ATOM     69  C   UNL A   1      51.274  26.245  25.674  1.00  0.00     0.198 A 
ATOM     70  C   UNL A   1      51.643  26.151  28.043  1.00  0.00     0.198 A 
ATOM     71  F   UNL A   1      49.870  26.574  29.530  1.00  0.00    -0.203 F 
ATOM     72  F   UNL A   1      51.726  26.093  24.422  1.00  0.00    -0.200 F 
ATOM     73  C   UNL A   1      52.122  26.024  26.749  1.00  0.00     0.200 A 
ATOM     74  F   UNL A   1      52.464  25.953  29.083  1.00  0.00    -0.200 F 
ATOM     75  F   UNL A   1      53.400  25.683  26.536  1.00  0.00    -0.200 F 
ENDBRANCH  51  65
BRANCH  52  76
ATOM     76  C   UNL A   1      39.830  28.813  28.989  1.00  0.00     0.064 A 
ATOM     77  C   UNL A   1      39.305  28.623  30.276  1.00  0.00     0.173 A 
ATOM     78  C   UNL A   1      38.958  29.282  27.995  1.00  0.00     0.173 A 
ATOM     79  F   UNL A   1      40.089  28.149  31.255  1.00  0.00    -0.203 F 
ATOM     80  C   UNL A   1      37.960  28.868  30.549  1.00  0.00     0.198 A 
ATOM     81  C   UNL A   1      37.623  29.559  28.277  1.00  0.00     0.198 A 
ATOM     82  F   UNL A   1      39.408  29.476  26.746  1.00  0.00    -0.203 F 
ATOM     83  F   UNL A   1      37.472  28.624  31.773  1.00  0.00    -0.200 F 
ATOM     84  C   UNL A   1      37.122  29.343  29.551  1.00  0.00     0.200 A 
ATOM     85  F   UNL A   1      36.820  30.027  27.313  1.00  0.00    -0.200 F 
ATOM     86  F   UNL A   1      35.830  29.580  29.815  1.00  0.00    -0.200 F 
ENDBRANCH  52  76
BRANCH  64  87
ATOM     87  C   UNL A   1      45.717  32.546  29.258  1.00  0.00     0.064 A 
ATOM     88  C   UNL A   1      45.652  33.568  28.298  1.00  0.00     0.173 A 
ATOM     89  C   UNL A   1      46.010  32.911  30.583  1.00  0.00     0.173 A 
ATOM     90  F   UNL A   1      45.387  33.273  27.016  1.00  0.00    -0.203 F 
ATOM     91  C   UNL A   1      45.899  34.894  28.645  1.00  0.00     0.198 A 
ATOM     92  C   UNL A   1      46.220  34.242  30.932  1.00  0.00     0.198 A 
ATOM     93  F   UNL A   1      46.075  31.977  31.543  1.00  0.00    -0.203 F 
ATOM     94  F   UNL A   1      45.884  35.845  27.700  1.00  0.00    -0.200 F 
ATOM     95  C   UNL A   1      46.175  35.231  29.962  1.00  0.00     0.200 A 
ATOM     96  F   UNL A   1      46.468  34.567  32.209  1.00  0.00    -0.200 F 
ATOM     97  F   UNL A   1      46.402  36.508  30.294  1.00  0.00    -0.200 F 
ENDBRANCH  64  87
ENDBRANCH  38  39
ENDBRANCH  31  33
ENDBRANCH  30  31
ENDBRANCH  29  30
ENDBRANCH  28  29
ENDBRANCH  27  28
ENDBRANCH  26  27
ENDBRANCH  25  26
ENDBRANCH  24  25
ENDBRANCH  23  24
ENDBRANCH   1  23
TORSDOF 25
ENDMDL
