MODEL 1
REMARK VINA RESULT:     -11.0      0.000      0.000
REMARK SMILES Cc1cc2c(c(C)c1Cl)C=C(C(=O)OCCOCCOCCOCCOC(=O)c1ccc(-c3c4nc(c(-c5c(F)c(F)c(F)c(F)c5F)c5ccc([nH]5)c(-c5c(F)c(F)c(F)c(F)c5F)c5nc(c(-c6c(F)c(F)c(F)c(F)c6F)c6ccc3[nH]6)C=C5)C=C4)cc1)[C@H](C(F)(F)F)O2
REMARK SMILES IDX 21 1 20 2 19 3 18 4 17 5 16 6 15 7 14 8 12 9 13 10 11 11
REMARK SMILES IDX 1 12 2 13 3 14 8 15 4 16 6 17 9 18 5 19 97 20 7 21 10 22
REMARK SMILES IDX 92 23 93 24 94 25 95 26 96 27 22 28 23 29 24 30 25 31 26 32
REMARK SMILES IDX 27 33 28 34 29 35 30 36 91 37 31 38 90 39 32 40 33 41 34 42
REMARK SMILES IDX 84 43 35 44 89 45 83 46 85 47 36 48 88 49 82 50 81 51 37 53
REMARK SMILES IDX 69 54 49 55 68 56 50 57 53 58 67 59 86 60 51 61 52 62 66 64
REMARK SMILES IDX 87 65 54 66 38 67 39 68 47 69 40 70 41 71 45 72 48 73 42 74
REMARK SMILES IDX 43 75 46 76 44 77 70 78 71 79 79 80 72 81 73 82 77 83 80 84
REMARK SMILES IDX 74 85 75 86 78 87 76 88 55 89 56 90 64 91 57 92 58 93 62 94
REMARK SMILES IDX 65 95 59 96 60 97 63 98 61 99
REMARK H PARENT 85 52 53 63
REMARK Flexibility Score: inf
ROOT
ATOM      1  C   UNL A   1      29.597  26.091  25.004  1.00  0.00     0.188 C 
ENDROOT
BRANCH   1   2
ATOM      2  O   UNL A   1      29.176  26.921  23.924  1.00  0.00    -0.377 OA
BRANCH   2   3
ATOM      3  C   UNL A   1      29.856  28.136  23.670  1.00  0.00     0.188 C 
BRANCH   3   4
ATOM      4  C   UNL A   1      30.616  28.190  22.335  1.00  0.00     0.188 C 
BRANCH   4   5
ATOM      5  O   UNL A   1      31.609  27.191  22.225  1.00  0.00    -0.376 OA
BRANCH   5   6
ATOM      6  C   UNL A   1      32.955  27.463  22.573  1.00  0.00     0.202 C 
BRANCH   6   7
ATOM      7  C   UNL A   1      33.684  26.856  23.790  1.00  0.00     0.261 C 
BRANCH   7   8
ATOM      8  O   UNL A   1      33.837  25.435  23.839  1.00  0.00    -0.460 OA
BRANCH   8   9
ATOM      9  C   UNL A   1      34.143  24.892  25.028  1.00  0.00     0.338 C 
ATOM     10  O   UNL A   1      34.023  25.425  26.118  1.00  0.00    -0.246 OA
BRANCH   9  11
ATOM     11  C   UNL A   1      34.496  23.473  24.841  1.00  0.00     0.087 C 
ATOM     12  C   UNL A   1      34.136  17.015  24.504  1.00  0.00     0.046 C 
ATOM     13  C   UNL A   1      34.012  18.501  24.299  1.00  0.00    -0.028 A 
ATOM     14  C   UNL A   1      34.885  19.348  24.994  1.00  0.00     0.052 A 
ATOM     15  C   UNL A   1      33.045  19.066  23.443  1.00  0.00     0.047 A 
ATOM     16  C   UNL A   1      34.760  20.731  24.899  1.00  0.00     0.128 A 
ATOM     17  C   UNL A   1      32.909  20.469  23.325  1.00  0.00    -0.021 A 
ATOM     18  Cl  UNL A   1      32.000  17.996  22.558  1.00  0.00    -0.084 Cl
ATOM     19  C   UNL A   1      33.765  21.299  24.093  1.00  0.00     0.022 A 
ATOM     20  O   UNL A   1      35.602  21.451  25.706  1.00  0.00    -0.475 OA
ATOM     21  C   UNL A   1      31.874  21.094  22.416  1.00  0.00     0.047 C 
ATOM     22  C   UNL A   1      33.584  22.745  24.180  1.00  0.00     0.027 C 
ATOM     23  C   UNL A   1      35.721  22.885  25.479  1.00  0.00     0.316 C 
BRANCH  23  24
ATOM     24  C   UNL A   1      37.077  23.161  24.795  1.00  0.00     0.430 C 
ATOM     25  F   UNL A   1      36.942  23.597  23.524  1.00  0.00    -0.167 F 
ATOM     26  F   UNL A   1      37.830  24.046  25.483  1.00  0.00    -0.167 F 
ATOM     27  F   UNL A   1      37.815  22.019  24.738  1.00  0.00    -0.167 F 
ENDBRANCH  23  24
ENDBRANCH   9  11
ENDBRANCH   8   9
ENDBRANCH   7   8
ENDBRANCH   6   7
ENDBRANCH   5   6
ENDBRANCH   4   5
ENDBRANCH   3   4
ENDBRANCH   2   3
ENDBRANCH   1   2
BRANCH   1  28
ATOM     28  C   UNL A   1      30.902  26.349  25.794  1.00  0.00     0.188 C 
BRANCH  28  29
ATOM     29  O   UNL A   1      30.780  27.262  26.871  1.00  0.00    -0.376 OA
BRANCH  29  30
ATOM     30  C   UNL A   1      31.882  28.116  27.134  1.00  0.00     0.202 C 
BRANCH  30  31
ATOM     31  C   UNL A   1      31.778  29.551  26.598  1.00  0.00     0.261 C 
BRANCH  31  32
ATOM     32  O   UNL A   1      33.019  30.203  26.290  1.00  0.00    -0.460 OA
BRANCH  32  33
ATOM     33  C   UNL A   1      33.370  31.283  27.027  1.00  0.00     0.338 C 
ATOM     34  O   UNL A   1      32.708  32.266  27.260  1.00  0.00    -0.246 OA
BRANCH  33  35
ATOM     35  C   UNL A   1      34.662  30.957  27.678  1.00  0.00     0.060 A 
ATOM     36  C   UNL A   1      34.990  29.612  27.897  1.00  0.00     0.016 A 
ATOM     37  C   UNL A   1      35.553  31.970  28.037  1.00  0.00     0.016 A 
ATOM     38  C   UNL A   1      36.205  29.280  28.496  1.00  0.00     0.010 A 
ATOM     39  C   UNL A   1      36.757  31.639  28.663  1.00  0.00     0.010 A 
ATOM     40  C   UNL A   1      37.075  30.293  28.923  1.00  0.00    -0.014 A 
BRANCH  40  41
ATOM     41  C   UNL A   1      38.185  29.950  29.847  1.00  0.00     0.031 A 
ATOM     42  C   UNL A   1      39.254  29.020  29.344  1.00  0.00     0.074 A 
ATOM     43  C   UNL A   1      38.280  30.484  31.078  1.00  0.00     0.049 A 
ATOM     44  N   UNL A   1      40.330  28.584  29.946  1.00  0.00    -0.248 NA
ATOM     45  C   UNL A   1      39.087  28.518  27.970  1.00  0.00     0.031 C 
ATOM     46  C   UNL A   1      37.336  31.431  31.665  1.00  0.00     0.029 A 
ATOM     47  N   UNL A   1      39.230  30.305  32.055  1.00  0.00    -0.354 N 
ATOM     48  C   UNL A   1      40.970  27.769  29.022  1.00  0.00     0.074 A 
ATOM     49  C   UNL A   1      40.143  27.730  27.837  1.00  0.00     0.031 C 
ATOM     50  C   UNL A   1      37.756  31.754  32.902  1.00  0.00     0.029 A 
ATOM     51  C   UNL A   1      38.983  31.016  33.204  1.00  0.00     0.049 A 
ATOM     52  H   UNL A   1      40.014  29.720  31.942  1.00  0.00     0.167 HD
ATOM     53  C   UNL A   1      42.155  27.128  29.141  1.00  0.00     0.037 A 
ATOM     54  C   UNL A   1      39.666  31.055  34.367  1.00  0.00     0.037 A 
ATOM     55  C   UNL A   1      42.978  27.162  30.317  1.00  0.00     0.049 A 
ATOM     56  C   UNL A   1      40.929  30.238  34.515  1.00  0.00     0.074 A 
ATOM     57  C   UNL A   1      44.202  26.554  30.527  1.00  0.00     0.029 A 
ATOM     58  N   UNL A   1      42.655  27.833  31.486  1.00  0.00    -0.354 N 
ATOM     59  N   UNL A   1      41.550  29.504  33.624  1.00  0.00    -0.248 NA
ATOM     60  C   UNL A   1      41.582  30.251  35.834  1.00  0.00     0.031 C 
ATOM     61  C   UNL A   1      44.594  26.810  31.843  1.00  0.00     0.029 A 
ATOM     62  C   UNL A   1      43.639  27.620  32.437  1.00  0.00     0.049 A 
ATOM     63  H   UNL A   1      41.847  28.379  31.621  1.00  0.00     0.167 HD
ATOM     64  C   UNL A   1      42.668  28.985  34.265  1.00  0.00     0.074 A 
ATOM     65  C   UNL A   1      42.655  29.504  35.615  1.00  0.00     0.031 C 
ATOM     66  C   UNL A   1      43.616  28.147  33.778  1.00  0.00     0.037 A 
BRANCH  53  67
ATOM     67  C   UNL A   1      42.633  26.327  27.966  1.00  0.00     0.064 A 
ATOM     68  C   UNL A   1      43.476  26.885  26.994  1.00  0.00     0.173 A 
ATOM     69  C   UNL A   1      42.290  24.972  27.842  1.00  0.00     0.173 A 
ATOM     70  F   UNL A   1      43.819  28.181  27.061  1.00  0.00    -0.203 F 
ATOM     71  C   UNL A   1      43.944  26.120  25.930  1.00  0.00     0.198 A 
ATOM     72  C   UNL A   1      42.785  24.203  26.793  1.00  0.00     0.198 A 
ATOM     73  F   UNL A   1      41.489  24.391  28.747  1.00  0.00    -0.203 F 
ATOM     74  F   UNL A   1      44.717  26.684  24.992  1.00  0.00    -0.200 F 
ATOM     75  C   UNL A   1      43.608  24.778  25.836  1.00  0.00     0.200 A 
ATOM     76  F   UNL A   1      42.470  22.903  26.711  1.00  0.00    -0.200 F 
ATOM     77  F   UNL A   1      44.074  24.039  24.820  1.00  0.00    -0.200 F 
ENDBRANCH  53  67
BRANCH  54  78
ATOM     78  C   UNL A   1      39.176  31.897  35.492  1.00  0.00     0.064 A 
ATOM     79  C   UNL A   1      38.349  31.361  36.488  1.00  0.00     0.173 A 
ATOM     80  C   UNL A   1      39.513  33.256  35.588  1.00  0.00     0.173 A 
ATOM     81  F   UNL A   1      37.972  30.075  36.425  1.00  0.00    -0.203 F 
ATOM     82  C   UNL A   1      37.872  32.151  37.533  1.00  0.00     0.198 A 
ATOM     83  C   UNL A   1      39.059  34.038  36.650  1.00  0.00     0.198 A 
ATOM     84  F   UNL A   1      40.292  33.824  34.656  1.00  0.00    -0.203 F 
ATOM     85  F   UNL A   1      37.051  31.621  38.450  1.00  0.00    -0.200 F 
ATOM     86  C   UNL A   1      38.235  33.486  37.618  1.00  0.00     0.200 A 
ATOM     87  F   UNL A   1      39.420  35.326  36.732  1.00  0.00    -0.200 F 
ATOM     88  F   UNL A   1      37.784  34.243  38.627  1.00  0.00    -0.200 F 
ENDBRANCH  54  78
BRANCH  66  89
ATOM     89  C   UNL A   1      44.725  27.718  34.697  1.00  0.00     0.064 A 
ATOM     90  C   UNL A   1      45.909  28.461  34.801  1.00  0.00     0.173 A 
ATOM     91  C   UNL A   1      44.550  26.632  35.569  1.00  0.00     0.173 A 
ATOM     92  F   UNL A   1      46.128  29.502  33.983  1.00  0.00    -0.203 F 
ATOM     93  C   UNL A   1      46.878  28.133  35.747  1.00  0.00     0.198 A 
ATOM     94  C   UNL A   1      45.508  26.326  36.532  1.00  0.00     0.198 A 
ATOM     95  F   UNL A   1      43.430  25.896  35.517  1.00  0.00    -0.203 F 
ATOM     96  F   UNL A   1      48.010  28.847  35.817  1.00  0.00    -0.200 F 
ATOM     97  C   UNL A   1      46.670  27.077  36.621  1.00  0.00     0.200 A 
ATOM     98  F   UNL A   1      45.295  25.318  37.390  1.00  0.00    -0.200 F 
ATOM     99  F   UNL A   1      47.589  26.784  37.551  1.00  0.00    -0.200 F 
ENDBRANCH  66  89
ENDBRANCH  40  41
ENDBRANCH  33  35
ENDBRANCH  32  33
ENDBRANCH  31  32
ENDBRANCH  30  31
ENDBRANCH  29  30
ENDBRANCH  28  29
ENDBRANCH   1  28
TORSDOF 21
ENDMDL
MODEL 2
REMARK VINA RESULT:     -10.9      4.287      8.587
REMARK SMILES Cc1cc2c(c(C)c1Cl)C=C(C(=O)OCCOCCOCCOCCOC(=O)c1ccc(-c3c4nc(c(-c5c(F)c(F)c(F)c(F)c5F)c5ccc([nH]5)c(-c5c(F)c(F)c(F)c(F)c5F)c5nc(c(-c6c(F)c(F)c(F)c(F)c6F)c6ccc3[nH]6)C=C5)C=C4)cc1)[C@H](C(F)(F)F)O2
REMARK SMILES IDX 21 1 20 2 19 3 18 4 17 5 16 6 15 7 14 8 12 9 13 10 11 11
REMARK SMILES IDX 1 12 2 13 3 14 8 15 4 16 6 17 9 18 5 19 97 20 7 21 10 22
REMARK SMILES IDX 92 23 93 24 94 25 95 26 96 27 22 28 23 29 24 30 25 31 26 32
REMARK SMILES IDX 27 33 28 34 29 35 30 36 91 37 31 38 90 39 32 40 33 41 34 42
REMARK SMILES IDX 84 43 35 44 89 45 83 46 85 47 36 48 88 49 82 50 81 51 37 53
REMARK SMILES IDX 69 54 49 55 68 56 50 57 53 58 67 59 86 60 51 61 52 62 66 64
REMARK SMILES IDX 87 65 54 66 38 67 39 68 47 69 40 70 41 71 45 72 48 73 42 74
REMARK SMILES IDX 43 75 46 76 44 77 70 78 71 79 79 80 72 81 73 82 77 83 80 84
REMARK SMILES IDX 74 85 75 86 78 87 76 88 55 89 56 90 64 91 57 92 58 93 62 94
REMARK SMILES IDX 65 95 59 96 60 97 63 98 61 99
REMARK H PARENT 85 52 53 63
REMARK Flexibility Score: inf
ROOT
ATOM      1  C   UNL A   1      34.408  32.890  28.156  1.00  0.00     0.188 C 
ENDROOT
BRANCH   1   2
ATOM      2  O   UNL A   1      33.902  31.582  27.898  1.00  0.00    -0.377 OA
BRANCH   2   3
ATOM      3  C   UNL A   1      34.805  30.520  27.648  1.00  0.00     0.188 C 
BRANCH   3   4
ATOM      4  C   UNL A   1      34.150  29.191  27.240  1.00  0.00     0.188 C 
BRANCH   4   5
ATOM      5  O   UNL A   1      34.403  28.843  25.894  1.00  0.00    -0.376 OA
BRANCH   5   6
ATOM      6  C   UNL A   1      33.658  27.821  25.256  1.00  0.00     0.202 C 
BRANCH   6   7
ATOM      7  C   UNL A   1      33.524  26.376  25.782  1.00  0.00     0.261 C 
BRANCH   7   8
ATOM      8  O   UNL A   1      34.357  25.371  25.200  1.00  0.00    -0.460 OA
BRANCH   8   9
ATOM      9  C   UNL A   1      33.927  24.803  24.062  1.00  0.00     0.338 C 
ATOM     10  O   UNL A   1      34.028  25.268  22.939  1.00  0.00    -0.246 OA
BRANCH   9  11
ATOM     11  C   UNL A   1      33.455  23.436  24.345  1.00  0.00     0.087 C 
ATOM     12  C   UNL A   1      32.720  17.003  24.194  1.00  0.00     0.046 C 
ATOM     13  C   UNL A   1      33.204  18.417  24.365  1.00  0.00    -0.028 A 
ATOM     14  C   UNL A   1      32.277  19.462  24.247  1.00  0.00     0.052 A 
ATOM     15  C   UNL A   1      34.554  18.725  24.631  1.00  0.00     0.047 A 
ATOM     16  C   UNL A   1      32.689  20.789  24.320  1.00  0.00     0.128 A 
ATOM     17  C   UNL A   1      34.990  20.067  24.719  1.00  0.00    -0.021 A 
ATOM     18  Cl  UNL A   1      35.679  17.413  24.817  1.00  0.00    -0.084 Cl
ATOM     19  C   UNL A   1      34.038  21.102  24.529  1.00  0.00     0.022 A 
ATOM     20  O   UNL A   1      31.710  21.719  24.085  1.00  0.00    -0.475 OA
ATOM     21  C   UNL A   1      36.435  20.418  24.998  1.00  0.00     0.047 C 
ATOM     22  C   UNL A   1      34.419  22.508  24.420  1.00  0.00     0.027 C 
ATOM     23  C   UNL A   1      31.989  23.114  24.398  1.00  0.00     0.316 C 
BRANCH  23  24
ATOM     24  C   UNL A   1      31.229  23.488  25.687  1.00  0.00     0.430 C 
ATOM     25  F   UNL A   1      30.254  22.604  25.995  1.00  0.00    -0.167 F 
ATOM     26  F   UNL A   1      32.051  23.618  26.750  1.00  0.00    -0.167 F 
ATOM     27  F   UNL A   1      30.624  24.698  25.542  1.00  0.00    -0.167 F 
ENDBRANCH  23  24
ENDBRANCH   9  11
ENDBRANCH   8   9
ENDBRANCH   7   8
ENDBRANCH   6   7
ENDBRANCH   5   6
ENDBRANCH   4   5
ENDBRANCH   3   4
ENDBRANCH   2   3
ENDBRANCH   1   2
BRANCH   1  28
ATOM     28  C   UNL A   1      33.548  34.005  28.796  1.00  0.00     0.188 C 
BRANCH  28  29
ATOM     29  O   UNL A   1      34.274  34.969  29.541  1.00  0.00    -0.376 OA
BRANCH  29  30
ATOM     30  C   UNL A   1      33.971  35.093  30.921  1.00  0.00     0.202 C 
BRANCH  30  31
ATOM     31  C   UNL A   1      34.404  33.928  31.823  1.00  0.00     0.261 C 
BRANCH  31  32
ATOM     32  O   UNL A   1      35.803  33.603  31.809  1.00  0.00    -0.460 OA
BRANCH  32  33
ATOM     33  C   UNL A   1      36.236  32.621  32.635  1.00  0.00     0.338 C 
ATOM     34  O   UNL A   1      35.801  32.325  33.722  1.00  0.00    -0.246 OA
BRANCH  33  35
ATOM     35  C   UNL A   1      37.229  31.827  31.873  1.00  0.00     0.060 A 
ATOM     36  C   UNL A   1      38.229  31.140  32.574  1.00  0.00     0.016 A 
ATOM     37  C   UNL A   1      37.151  31.739  30.481  1.00  0.00     0.016 A 
ATOM     38  C   UNL A   1      39.169  30.377  31.878  1.00  0.00     0.010 A 
ATOM     39  C   UNL A   1      38.109  30.998  29.784  1.00  0.00     0.010 A 
ATOM     40  C   UNL A   1      39.140  30.338  30.477  1.00  0.00    -0.014 A 
BRANCH  40  41
ATOM     41  C   UNL A   1      40.321  29.815  29.745  1.00  0.00     0.031 A 
ATOM     42  C   UNL A   1      41.504  30.728  29.580  1.00  0.00     0.074 A 
ATOM     43  C   UNL A   1      40.373  28.552  29.285  1.00  0.00     0.049 A 
ATOM     44  N   UNL A   1      42.655  30.504  29.001  1.00  0.00    -0.248 NA
ATOM     45  C   UNL A   1      41.370  32.078  30.152  1.00  0.00     0.031 C 
ATOM     46  C   UNL A   1      39.313  27.557  29.421  1.00  0.00     0.029 A 
ATOM     47  N   UNL A   1      41.372  27.891  28.611  1.00  0.00    -0.354 N 
ATOM     48  C   UNL A   1      43.382  31.677  29.150  1.00  0.00     0.074 A 
ATOM     49  C   UNL A   1      42.532  32.627  29.829  1.00  0.00     0.031 C 
ATOM     50  C   UNL A   1      39.720  26.408  28.852  1.00  0.00     0.029 A 
ATOM     51  C   UNL A   1      41.057  26.595  28.286  1.00  0.00     0.049 A 
ATOM     52  H   UNL A   1      42.234  28.309  28.382  1.00  0.00     0.167 HD
ATOM     53  C   UNL A   1      44.657  31.933  28.775  1.00  0.00     0.037 A 
ATOM     54  C   UNL A   1      41.766  25.672  27.602  1.00  0.00     0.037 A 
ATOM     55  C   UNL A   1      45.504  30.993  28.097  1.00  0.00     0.049 A 
ATOM     56  C   UNL A   1      43.144  26.021  27.092  1.00  0.00     0.074 A 
ATOM     57  C   UNL A   1      46.814  31.157  27.687  1.00  0.00     0.029 A 
ATOM     58  N   UNL A   1      45.120  29.715  27.719  1.00  0.00    -0.354 N 
ATOM     59  N   UNL A   1      43.841  27.117  27.274  1.00  0.00    -0.248 NA
ATOM     60  C   UNL A   1      43.832  25.007  26.278  1.00  0.00     0.031 C 
ATOM     61  C   UNL A   1      47.207  29.999  27.011  1.00  0.00     0.029 A 
ATOM     62  C   UNL A   1      46.157  29.094  27.044  1.00  0.00     0.049 A 
ATOM     63  H   UNL A   1      44.242  29.310  27.903  1.00  0.00     0.167 HD
ATOM     64  C   UNL A   1      45.049  26.918  26.614  1.00  0.00     0.074 A 
ATOM     65  C   UNL A   1      45.001  25.589  26.046  1.00  0.00     0.031 C 
ATOM     66  C   UNL A   1      46.099  27.766  26.487  1.00  0.00     0.037 A 
BRANCH  53  67
ATOM     67  C   UNL A   1      45.213  33.290  29.085  1.00  0.00     0.064 A 
ATOM     68  C   UNL A   1      45.925  33.537  30.268  1.00  0.00     0.173 A 
ATOM     69  C   UNL A   1      45.081  34.342  28.164  1.00  0.00     0.173 A 
ATOM     70  F   UNL A   1      46.064  32.568  31.186  1.00  0.00    -0.203 F 
ATOM     71  C   UNL A   1      46.471  34.791  30.526  1.00  0.00     0.198 A 
ATOM     72  C   UNL A   1      45.654  35.584  28.412  1.00  0.00     0.198 A 
ATOM     73  F   UNL A   1      44.411  34.156  27.017  1.00  0.00    -0.203 F 
ATOM     74  F   UNL A   1      47.113  35.014  31.680  1.00  0.00    -0.200 F 
ATOM     75  C   UNL A   1      46.344  35.810  29.594  1.00  0.00     0.200 A 
ATOM     76  F   UNL A   1      45.543  36.565  27.505  1.00  0.00    -0.200 F 
ATOM     77  F   UNL A   1      46.885  37.012  29.836  1.00  0.00    -0.200 F 
ENDBRANCH  53  67
BRANCH  54  78
ATOM     78  C   UNL A   1      41.188  24.323  27.354  1.00  0.00     0.064 A 
ATOM     79  C   UNL A   1      40.115  24.149  26.469  1.00  0.00     0.173 A 
ATOM     80  C   UNL A   1      41.687  23.184  28.003  1.00  0.00     0.173 A 
ATOM     81  F   UNL A   1      39.582  25.210  25.846  1.00  0.00    -0.203 F 
ATOM     82  C   UNL A   1      39.560  22.890  26.247  1.00  0.00     0.198 A 
ATOM     83  C   UNL A   1      41.149  21.921  27.759  1.00  0.00     0.198 A 
ATOM     84  F   UNL A   1      42.705  23.295  28.869  1.00  0.00    -0.203 F 
ATOM     85  F   UNL A   1      38.509  22.758  25.426  1.00  0.00    -0.200 F 
ATOM     86  C   UNL A   1      40.083  21.776  26.886  1.00  0.00     0.200 A 
ATOM     87  F   UNL A   1      41.664  20.846  28.373  1.00  0.00    -0.200 F 
ATOM     88  F   UNL A   1      39.555  20.564  26.666  1.00  0.00    -0.200 F 
ENDBRANCH  54  78
BRANCH  66  89
ATOM     89  C   UNL A   1      47.291  27.306  25.698  1.00  0.00     0.064 A 
ATOM     90  C   UNL A   1      47.393  27.558  24.322  1.00  0.00     0.173 A 
ATOM     91  C   UNL A   1      48.394  26.724  26.343  1.00  0.00     0.173 A 
ATOM     92  F   UNL A   1      46.362  28.104  23.658  1.00  0.00    -0.203 F 
ATOM     93  C   UNL A   1      48.555  27.246  23.621  1.00  0.00     0.198 A 
ATOM     94  C   UNL A   1      49.564  26.440  25.644  1.00  0.00     0.198 A 
ATOM     95  F   UNL A   1      48.352  26.472  27.659  1.00  0.00    -0.203 F 
ATOM     96  F   UNL A   1      48.623  27.480  22.303  1.00  0.00    -0.200 F 
ATOM     97  C   UNL A   1      49.644  26.702  24.285  1.00  0.00     0.200 A 
ATOM     98  F   UNL A   1      50.623  25.934  26.291  1.00  0.00    -0.200 F 
ATOM     99  F   UNL A   1      50.772  26.432  23.615  1.00  0.00    -0.200 F 
ENDBRANCH  66  89
ENDBRANCH  40  41
ENDBRANCH  33  35
ENDBRANCH  32  33
ENDBRANCH  31  32
ENDBRANCH  30  31
ENDBRANCH  29  30
ENDBRANCH  28  29
ENDBRANCH   1  28
TORSDOF 21
ENDMDL
MODEL 3
REMARK VINA RESULT:     -10.9      1.497      2.165
REMARK SMILES Cc1cc2c(c(C)c1Cl)C=C(C(=O)OCCOCCOCCOCCOC(=O)c1ccc(-c3c4nc(c(-c5c(F)c(F)c(F)c(F)c5F)c5ccc([nH]5)c(-c5c(F)c(F)c(F)c(F)c5F)c5nc(c(-c6c(F)c(F)c(F)c(F)c6F)c6ccc3[nH]6)C=C5)C=C4)cc1)[C@H](C(F)(F)F)O2
REMARK SMILES IDX 21 1 20 2 19 3 18 4 17 5 16 6 15 7 14 8 12 9 13 10 11 11
REMARK SMILES IDX 1 12 2 13 3 14 8 15 4 16 6 17 9 18 5 19 97 20 7 21 10 22
REMARK SMILES IDX 92 23 93 24 94 25 95 26 96 27 22 28 23 29 24 30 25 31 26 32
REMARK SMILES IDX 27 33 28 34 29 35 30 36 91 37 31 38 90 39 32 40 33 41 34 42
REMARK SMILES IDX 84 43 35 44 89 45 83 46 85 47 36 48 88 49 82 50 81 51 37 53
REMARK SMILES IDX 69 54 49 55 68 56 50 57 53 58 67 59 86 60 51 61 52 62 66 64
REMARK SMILES IDX 87 65 54 66 38 67 39 68 47 69 40 70 41 71 45 72 48 73 42 74
REMARK SMILES IDX 43 75 46 76 44 77 70 78 71 79 79 80 72 81 73 82 77 83 80 84
REMARK SMILES IDX 74 85 75 86 78 87 76 88 55 89 56 90 64 91 57 92 58 93 62 94
REMARK SMILES IDX 65 95 59 96 60 97 63 98 61 99
REMARK H PARENT 85 52 53 63
REMARK Flexibility Score: inf
ROOT
ATOM      1  C   UNL A   1      30.709  27.407  24.487  1.00  0.00     0.188 C 
ENDROOT
BRANCH   1   2
ATOM      2  O   UNL A   1      31.673  28.164  23.759  1.00  0.00    -0.377 OA
BRANCH   2   3
ATOM      3  C   UNL A   1      33.014  27.715  23.700  1.00  0.00     0.188 C 
BRANCH   3   4
ATOM      4  C   UNL A   1      33.719  27.942  22.353  1.00  0.00     0.188 C 
BRANCH   4   5
ATOM      5  O   UNL A   1      33.717  26.795  21.530  1.00  0.00    -0.376 OA
BRANCH   5   6
ATOM      6  C   UNL A   1      32.811  25.732  21.766  1.00  0.00     0.202 C 
BRANCH   6   7
ATOM      7  C   UNL A   1      33.206  24.354  22.340  1.00  0.00     0.261 C 
BRANCH   7   8
ATOM      8  O   UNL A   1      33.358  24.238  23.756  1.00  0.00    -0.460 OA
BRANCH   8   9
ATOM      9  C   UNL A   1      34.381  23.492  24.204  1.00  0.00     0.338 C 
ATOM     10  O   UNL A   1      35.544  23.845  24.300  1.00  0.00    -0.246 OA
BRANCH   9  11
ATOM     11  C   UNL A   1      33.863  22.216  24.728  1.00  0.00     0.087 C 
ATOM     12  C   UNL A   1      32.362  15.944  25.330  1.00  0.00     0.046 C 
ATOM     13  C   UNL A   1      33.039  17.284  25.230  1.00  0.00    -0.028 A 
ATOM     14  C   UNL A   1      32.253  18.441  25.317  1.00  0.00     0.052 A 
ATOM     15  C   UNL A   1      34.431  17.414  25.043  1.00  0.00     0.047 A 
ATOM     16  C   UNL A   1      32.821  19.700  25.153  1.00  0.00     0.128 A 
ATOM     17  C   UNL A   1      35.029  18.685  24.885  1.00  0.00    -0.021 A 
ATOM     18  Cl  UNL A   1      35.393  15.968  24.980  1.00  0.00    -0.084 Cl
ATOM     19  C   UNL A   1      34.194  19.833  24.912  1.00  0.00     0.022 A 
ATOM     20  O   UNL A   1      31.935  20.746  25.155  1.00  0.00    -0.475 OA
ATOM     21  C   UNL A   1      36.519  18.845  24.678  1.00  0.00     0.047 C 
ATOM     22  C   UNL A   1      34.685  21.167  24.578  1.00  0.00     0.027 C 
ATOM     23  C   UNL A   1      32.461  22.101  25.253  1.00  0.00     0.316 C 
BRANCH  23  24
ATOM     24  C   UNL A   1      32.195  22.627  26.680  1.00  0.00     0.430 C 
ATOM     25  F   UNL A   1      32.902  21.966  27.622  1.00  0.00    -0.167 F 
ATOM     26  F   UNL A   1      32.443  23.949  26.795  1.00  0.00    -0.167 F 
ATOM     27  F   UNL A   1      30.881  22.472  27.000  1.00  0.00    -0.167 F 
ENDBRANCH  23  24
ENDBRANCH   9  11
ENDBRANCH   8   9
ENDBRANCH   7   8
ENDBRANCH   6   7
ENDBRANCH   5   6
ENDBRANCH   4   5
ENDBRANCH   3   4
ENDBRANCH   2   3
ENDBRANCH   1   2
BRANCH   1  28
ATOM     28  C   UNL A   1      31.063  26.620  25.771  1.00  0.00     0.188 C 
BRANCH  28  29
ATOM     29  O   UNL A   1      30.891  27.339  26.981  1.00  0.00    -0.376 OA
BRANCH  29  30
ATOM     30  C   UNL A   1      31.949  28.191  27.391  1.00  0.00     0.202 C 
BRANCH  30  31
ATOM     31  C   UNL A   1      31.827  29.670  26.999  1.00  0.00     0.261 C 
BRANCH  31  32
ATOM     32  O   UNL A   1      33.020  30.293  26.500  1.00  0.00    -0.460 OA
BRANCH  32  33
ATOM     33  C   UNL A   1      33.461  31.412  27.122  1.00  0.00     0.338 C 
ATOM     34  O   UNL A   1      32.864  32.448  27.291  1.00  0.00    -0.246 OA
BRANCH  33  35
ATOM     35  C   UNL A   1      34.762  31.070  27.747  1.00  0.00     0.060 A 
ATOM     36  C   UNL A   1      35.070  29.723  27.976  1.00  0.00     0.016 A 
ATOM     37  C   UNL A   1      35.679  32.072  28.071  1.00  0.00     0.016 A 
ATOM     38  C   UNL A   1      36.294  29.377  28.552  1.00  0.00     0.010 A 
ATOM     39  C   UNL A   1      36.892  31.727  28.674  1.00  0.00     0.010 A 
ATOM     40  C   UNL A   1      37.192  30.379  28.945  1.00  0.00    -0.014 A 
BRANCH  40  41
ATOM     41  C   UNL A   1      38.316  30.028  29.848  1.00  0.00     0.031 A 
ATOM     42  C   UNL A   1      39.368  29.090  29.324  1.00  0.00     0.074 A 
ATOM     43  C   UNL A   1      38.438  30.561  31.076  1.00  0.00     0.049 A 
ATOM     44  N   UNL A   1      40.453  28.646  29.905  1.00  0.00    -0.248 NA
ATOM     45  C   UNL A   1      39.172  28.589  27.953  1.00  0.00     0.031 C 
ATOM     46  C   UNL A   1      37.512  31.515  31.682  1.00  0.00     0.029 A 
ATOM     47  N   UNL A   1      39.406  30.375  32.036  1.00  0.00    -0.354 N 
ATOM     48  C   UNL A   1      41.069  27.827  28.969  1.00  0.00     0.074 A 
ATOM     49  C   UNL A   1      40.220  27.794  27.801  1.00  0.00     0.031 C 
ATOM     50  C   UNL A   1      37.958  31.834  32.910  1.00  0.00     0.029 A 
ATOM     51  C   UNL A   1      39.186  31.087  33.188  1.00  0.00     0.049 A 
ATOM     52  H   UNL A   1      40.183  29.785  31.907  1.00  0.00     0.167 HD
ATOM     53  C   UNL A   1      42.252  27.177  29.065  1.00  0.00     0.037 A 
ATOM     54  C   UNL A   1      39.892  31.121  34.339  1.00  0.00     0.037 A 
ATOM     55  C   UNL A   1      43.097  27.205  30.226  1.00  0.00     0.049 A 
ATOM     56  C   UNL A   1      41.150  30.296  34.463  1.00  0.00     0.074 A 
ATOM     57  C   UNL A   1      44.321  26.588  30.413  1.00  0.00     0.029 A 
ATOM     58  N   UNL A   1      42.801  27.879  31.401  1.00  0.00    -0.354 N 
ATOM     59  N   UNL A   1      41.749  29.557  33.559  1.00  0.00    -0.248 NA
ATOM     60  C   UNL A   1      41.829  30.303  35.769  1.00  0.00     0.031 C 
ATOM     61  C   UNL A   1      44.740  26.841  31.721  1.00  0.00     0.029 A 
ATOM     62  C   UNL A   1      43.802  27.658  32.333  1.00  0.00     0.049 A 
ATOM     63  H   UNL A   1      42.000  28.431  31.551  1.00  0.00     0.167 HD
ATOM     64  C   UNL A   1      42.876  29.030  34.179  1.00  0.00     0.074 A 
ATOM     65  C   UNL A   1      42.892  29.548  35.529  1.00  0.00     0.031 C 
ATOM     66  C   UNL A   1      43.808  28.185  33.674  1.00  0.00     0.037 A 
BRANCH  53  67
ATOM     67  C   UNL A   1      42.701  26.373  27.882  1.00  0.00     0.064 A 
ATOM     68  C   UNL A   1      43.541  26.921  26.901  1.00  0.00     0.173 A 
ATOM     69  C   UNL A   1      42.334  25.024  27.757  1.00  0.00     0.173 A 
ATOM     70  F   UNL A   1      43.906  28.210  26.969  1.00  0.00    -0.203 F 
ATOM     71  C   UNL A   1      43.983  26.152  25.828  1.00  0.00     0.198 A 
ATOM     72  C   UNL A   1      42.803  24.252  26.700  1.00  0.00     0.198 A 
ATOM     73  F   UNL A   1      41.534  24.453  28.670  1.00  0.00    -0.203 F 
ATOM     74  F   UNL A   1      44.753  26.707  24.883  1.00  0.00    -0.200 F 
ATOM     75  C   UNL A   1      43.623  24.816  25.734  1.00  0.00     0.200 A 
ATOM     76  F   UNL A   1      42.465  22.957  26.616  1.00  0.00    -0.200 F 
ATOM     77  F   UNL A   1      44.064  24.074  24.710  1.00  0.00    -0.200 F 
ENDBRANCH  53  67
BRANCH  54  78
ATOM     78  C   UNL A   1      39.429  31.967  35.472  1.00  0.00     0.064 A 
ATOM     79  C   UNL A   1      38.548  31.460  36.438  1.00  0.00     0.173 A 
ATOM     80  C   UNL A   1      39.846  33.300  35.608  1.00  0.00     0.173 A 
ATOM     81  F   UNL A   1      38.095  30.202  36.337  1.00  0.00    -0.203 F 
ATOM     82  C   UNL A   1      38.098  32.255  37.491  1.00  0.00     0.198 A 
ATOM     83  C   UNL A   1      39.417  34.084  36.678  1.00  0.00     0.198 A 
ATOM     84  F   UNL A   1      40.679  33.839  34.706  1.00  0.00    -0.203 F 
ATOM     85  F   UNL A   1      37.225  31.757  38.378  1.00  0.00    -0.200 F 
ATOM     86  C   UNL A   1      38.539  33.563  37.615  1.00  0.00     0.200 A 
ATOM     87  F   UNL A   1      39.854  35.346  36.798  1.00  0.00    -0.200 F 
ATOM     88  F   UNL A   1      38.114  34.324  38.633  1.00  0.00    -0.200 F 
ENDBRANCH  54  78
BRANCH  66  89
ATOM     89  C   UNL A   1      44.931  27.748  34.571  1.00  0.00     0.064 A 
ATOM     90  C   UNL A   1      44.842  26.567  35.322  1.00  0.00     0.173 A 
ATOM     91  C   UNL A   1      46.150  28.444  34.583  1.00  0.00     0.173 A 
ATOM     92  F   UNL A   1      43.696  25.871  35.352  1.00  0.00    -0.203 F 
ATOM     93  C   UNL A   1      45.933  26.098  36.051  1.00  0.00     0.198 A 
ATOM     94  C   UNL A   1      47.246  27.957  35.289  1.00  0.00     0.198 A 
ATOM     95  F   UNL A   1      46.290  29.574  33.873  1.00  0.00    -0.203 F 
ATOM     96  F   UNL A   1      45.819  24.976  36.775  1.00  0.00    -0.200 F 
ATOM     97  C   UNL A   1      47.137  26.785  36.022  1.00  0.00     0.200 A 
ATOM     98  F   UNL A   1      48.416  28.610  35.242  1.00  0.00    -0.200 F 
ATOM     99  F   UNL A   1      48.194  26.315  36.697  1.00  0.00    -0.200 F 
ENDBRANCH  66  89
ENDBRANCH  40  41
ENDBRANCH  33  35
ENDBRANCH  32  33
ENDBRANCH  31  32
ENDBRANCH  30  31
ENDBRANCH  29  30
ENDBRANCH  28  29
ENDBRANCH   1  28
TORSDOF 21
ENDMDL
