MODEL 1
REMARK VINA RESULT:      -9.5      0.000      0.000
REMARK SMILES CC[C@@](C)([NH2+]CC(=O)N[C@@H](C)C(C)C)C(=O)OCCOCCOCCOCCOC(=O)c1ccc(-c2c3nc(c(-c4c(F)c(F)c(F)c(F)c4F)c4ccc([nH]4)c(-c4c(F)c(F)c(F)c(F)c4F)c4nc(c(-c5c(F)c(F)c(F)c(F)c5F)c5ccc2[nH]5)C=C4)C=C3)cc1
REMARK SMILES IDX 21 1 20 2 19 3 18 4 17 5 15 6 16 7 3 8 4 9 2 10 1 11 5 12
REMARK SMILES IDX 6 15 7 16 8 17 9 18 10 20 11 21 12 22 13 23 14 24 22 25
REMARK SMILES IDX 23 26 24 27 25 28 26 29 27 30 28 31 29 32 30 33 31 34 32 35
REMARK SMILES IDX 33 36 94 37 34 38 93 39 35 40 36 41 37 42 87 43 38 44 92 45
REMARK SMILES IDX 86 46 88 47 39 48 91 49 85 50 84 51 40 53 72 54 52 55 71 56
REMARK SMILES IDX 53 57 56 58 70 59 89 60 54 61 55 62 69 64 90 65 57 66 41 67
REMARK SMILES IDX 42 68 50 69 43 70 44 71 48 72 51 73 45 74 46 75 49 76 47 77
REMARK SMILES IDX 73 78 74 79 82 80 75 81 76 82 80 83 83 84 77 85 78 86 81 87
REMARK SMILES IDX 79 88 58 89 59 90 67 91 60 92 61 93 65 94 68 95 62 96 63 97
REMARK SMILES IDX 66 98 64 99
REMARK H PARENT 5 13 5 14 9 19 88 52 56 63
REMARK Flexibility Score: inf
ROOT
ATOM      1  C   UNL A   1      31.945  22.974  23.649  1.00  0.00     0.188 C 
ENDROOT
BRANCH   1   2
ATOM      2  O   UNL A   1      32.910  24.016  23.570  1.00  0.00    -0.376 OA
BRANCH   2   3
ATOM      3  C   UNL A   1      32.490  25.240  22.991  1.00  0.00     0.202 C 
BRANCH   3   4
ATOM      4  C   UNL A   1      30.996  25.523  22.837  1.00  0.00     0.261 C 
BRANCH   4   5
ATOM      5  O   UNL A   1      30.635  26.897  22.615  1.00  0.00    -0.459 OA
BRANCH   5   6
ATOM      6  C   UNL A   1      29.598  27.557  23.192  1.00  0.00     0.367 C 
ATOM      7  O   UNL A   1      28.729  27.004  23.852  1.00  0.00    -0.245 OA
BRANCH   6   8
ATOM      8  C   UNL A   1      29.694  29.110  22.885  1.00  0.00     0.191 C 
ATOM      9  C   UNL A   1      30.418  29.616  21.626  1.00  0.00     0.092 C 
BRANCH   8  10
ATOM     10  C   UNL A   1      28.208  29.562  22.693  1.00  0.00     0.077 C 
ATOM     11  C   UNL A   1      27.814  30.767  23.566  1.00  0.00     0.011 C 
ENDBRANCH   8  10
BRANCH   8  12
ATOM     12  N   UNL A   1      30.385  29.833  24.005  1.00  0.00    -0.325 N 
ATOM     13  H   UNL A   1      29.659  30.195  24.623  1.00  0.00     0.347 HD
ATOM     14  H   UNL A   1      30.964  30.528  23.534  1.00  0.00     0.347 HD
BRANCH  12  15
ATOM     15  C   UNL A   1      31.350  29.072  24.858  1.00  0.00     0.362 C 
BRANCH  15  16
ATOM     16  C   UNL A   1      32.851  29.161  24.506  1.00  0.00     0.275 C 
ATOM     17  O   UNL A   1      33.259  28.755  23.413  1.00  0.00    -0.268 OA
ATOM     18  N   UNL A   1      33.777  29.717  25.367  1.00  0.00    -0.349 N 
ATOM     19  H   UNL A   1      34.630  29.978  24.950  1.00  0.00     0.163 HD
BRANCH  18  20
ATOM     20  C   UNL A   1      33.683  29.977  26.805  1.00  0.00     0.081 C 
ATOM     21  C   UNL A   1      33.627  28.667  27.612  1.00  0.00     0.031 C 
BRANCH  20  22
ATOM     22  C   UNL A   1      34.758  30.922  27.388  1.00  0.00     0.005 C 
ATOM     23  C   UNL A   1      34.133  31.992  28.283  1.00  0.00     0.009 C 
ATOM     24  C   UNL A   1      35.813  30.114  28.173  1.00  0.00     0.009 C 
ENDBRANCH  20  22
ENDBRANCH  18  20
ENDBRANCH  15  16
ENDBRANCH  12  15
ENDBRANCH   8  12
ENDBRANCH   6   8
ENDBRANCH   5   6
ENDBRANCH   4   5
ENDBRANCH   3   4
ENDBRANCH   2   3
ENDBRANCH   1   2
BRANCH   1  25
ATOM     25  C   UNL A   1      31.650  22.536  25.098  1.00  0.00     0.188 C 
BRANCH  25  26
ATOM     26  O   UNL A   1      31.466  21.144  25.294  1.00  0.00    -0.377 OA
BRANCH  26  27
ATOM     27  C   UNL A   1      32.292  20.228  24.592  1.00  0.00     0.188 C 
BRANCH  27  28
ATOM     28  C   UNL A   1      33.671  19.780  25.125  1.00  0.00     0.188 C 
BRANCH  28  29
ATOM     29  O   UNL A   1      34.794  20.403  24.525  1.00  0.00    -0.376 OA
BRANCH  29  30
ATOM     30  C   UNL A   1      35.663  21.179  25.335  1.00  0.00     0.202 C 
BRANCH  30  31
ATOM     31  C   UNL A   1      37.159  20.831  25.302  1.00  0.00     0.261 C 
BRANCH  31  32
ATOM     32  O   UNL A   1      38.065  21.928  25.478  1.00  0.00    -0.460 OA
BRANCH  32  33
ATOM     33  C   UNL A   1      39.214  21.681  26.151  1.00  0.00     0.338 C 
ATOM     34  O   UNL A   1      39.871  20.671  26.149  1.00  0.00    -0.246 OA
BRANCH  33  35
ATOM     35  C   UNL A   1      39.635  22.955  26.773  1.00  0.00     0.060 A 
ATOM     36  C   UNL A   1      38.904  24.119  26.496  1.00  0.00     0.016 A 
ATOM     37  C   UNL A   1      40.744  22.994  27.618  1.00  0.00     0.016 A 
ATOM     38  C   UNL A   1      39.310  25.339  27.032  1.00  0.00     0.010 A 
ATOM     39  C   UNL A   1      41.167  24.219  28.132  1.00  0.00     0.010 A 
ATOM     40  C   UNL A   1      40.475  25.400  27.808  1.00  0.00    -0.014 A 
BRANCH  40  41
ATOM     41  C   UNL A   1      41.110  26.712  28.074  1.00  0.00     0.031 A 
ATOM     42  C   UNL A   1      42.545  26.891  27.663  1.00  0.00     0.074 A 
ATOM     43  C   UNL A   1      40.436  27.718  28.655  1.00  0.00     0.049 A 
ATOM     44  N   UNL A   1      43.350  27.901  27.862  1.00  0.00    -0.248 NA
ATOM     45  C   UNL A   1      43.155  25.769  26.928  1.00  0.00     0.031 C 
ATOM     46  C   UNL A   1      39.030  27.681  29.047  1.00  0.00     0.029 A 
ATOM     47  N   UNL A   1      40.862  28.969  29.030  1.00  0.00    -0.354 N 
ATOM     48  C   UNL A   1      44.561  27.534  27.288  1.00  0.00     0.074 A 
ATOM     49  C   UNL A   1      44.395  26.199  26.758  1.00  0.00     0.031 C 
ATOM     50  C   UNL A   1      38.712  28.852  29.628  1.00  0.00     0.029 A 
ATOM     51  C   UNL A   1      39.902  29.701  29.682  1.00  0.00     0.049 A 
ATOM     52  H   UNL A   1      41.768  29.307  28.848  1.00  0.00     0.167 HD
ATOM     53  C   UNL A   1      45.706  28.249  27.206  1.00  0.00     0.037 A 
ATOM     54  C   UNL A   1      39.990  30.905  30.281  1.00  0.00     0.037 A 
ATOM     55  C   UNL A   1      45.866  29.574  27.741  1.00  0.00     0.049 A 
ATOM     56  C   UNL A   1      41.305  31.646  30.257  1.00  0.00     0.074 A 
ATOM     57  C   UNL A   1      46.982  30.391  27.703  1.00  0.00     0.029 A 
ATOM     58  N   UNL A   1      44.882  30.271  28.427  1.00  0.00    -0.354 N 
ATOM     59  N   UNL A   1      42.441  31.305  29.698  1.00  0.00    -0.248 NA
ATOM     60  C   UNL A   1      41.350  32.940  30.953  1.00  0.00     0.031 C 
ATOM     61  C   UNL A   1      46.692  31.558  28.417  1.00  0.00     0.029 A 
ATOM     62  C   UNL A   1      45.374  31.497  28.843  1.00  0.00     0.049 A 
ATOM     63  H   UNL A   1      43.968  29.943  28.593  1.00  0.00     0.167 HD
ATOM     64  C   UNL A   1      43.321  32.353  29.943  1.00  0.00     0.074 A 
ATOM     65  C   UNL A   1      42.585  33.347  30.693  1.00  0.00     0.031 C 
ATOM     66  C   UNL A   1      44.621  32.482  29.579  1.00  0.00     0.037 A 
BRANCH  53  67
ATOM     67  C   UNL A   1      46.884  27.596  26.544  1.00  0.00     0.064 A 
ATOM     68  C   UNL A   1      47.136  27.741  25.171  1.00  0.00     0.173 A 
ATOM     69  C   UNL A   1      47.788  26.834  27.300  1.00  0.00     0.173 A 
ATOM     70  F   UNL A   1      46.293  28.443  24.400  1.00  0.00    -0.203 F 
ATOM     71  C   UNL A   1      48.233  27.123  24.575  1.00  0.00     0.198 A 
ATOM     72  C   UNL A   1      48.901  26.246  26.708  1.00  0.00     0.198 A 
ATOM     73  F   UNL A   1      47.594  26.665  28.617  1.00  0.00    -0.203 F 
ATOM     74  F   UNL A   1      48.424  27.231  23.254  1.00  0.00    -0.200 F 
ATOM     75  C   UNL A   1      49.119  26.384  25.345  1.00  0.00     0.200 A 
ATOM     76  F   UNL A   1      49.763  25.543  27.455  1.00  0.00    -0.200 F 
ATOM     77  F   UNL A   1      50.178  25.797  24.772  1.00  0.00    -0.200 F 
ENDBRANCH  53  67
BRANCH  54  78
ATOM     78  C   UNL A   1      38.809  31.483  30.975  1.00  0.00     0.064 A 
ATOM     79  C   UNL A   1      37.929  32.348  30.308  1.00  0.00     0.173 A 
ATOM     80  C   UNL A   1      38.549  31.205  32.326  1.00  0.00     0.173 A 
ATOM     81  F   UNL A   1      38.149  32.667  29.024  1.00  0.00    -0.203 F 
ATOM     82  C   UNL A   1      36.848  32.928  30.971  1.00  0.00     0.198 A 
ATOM     83  C   UNL A   1      37.450  31.761  32.978  1.00  0.00     0.198 A 
ATOM     84  F   UNL A   1      39.362  30.388  33.011  1.00  0.00    -0.203 F 
ATOM     85  F   UNL A   1      36.055  33.792  30.324  1.00  0.00    -0.200 F 
ATOM     86  C   UNL A   1      36.607  32.629  32.303  1.00  0.00     0.200 A 
ATOM     87  F   UNL A   1      37.213  31.461  34.262  1.00  0.00    -0.200 F 
ATOM     88  F   UNL A   1      35.566  33.185  32.938  1.00  0.00    -0.200 F 
ENDBRANCH  54  78
BRANCH  66  89
ATOM     89  C   UNL A   1      45.323  33.759  29.943  1.00  0.00     0.064 A 
ATOM     90  C   UNL A   1      45.974  33.921  31.175  1.00  0.00     0.173 A 
ATOM     91  C   UNL A   1      45.394  34.815  29.021  1.00  0.00     0.173 A 
ATOM     92  F   UNL A   1      45.927  32.947  32.096  1.00  0.00    -0.203 F 
ATOM     93  C   UNL A   1      46.647  35.102  31.479  1.00  0.00     0.198 A 
ATOM     94  C   UNL A   1      46.096  35.980  29.315  1.00  0.00     0.198 A 
ATOM     95  F   UNL A   1      44.797  34.709  27.824  1.00  0.00    -0.203 F 
ATOM     96  F   UNL A   1      47.222  35.253  32.681  1.00  0.00    -0.200 F 
ATOM     97  C   UNL A   1      46.716  36.126  30.546  1.00  0.00     0.200 A 
ATOM     98  F   UNL A   1      46.177  36.960  28.404  1.00  0.00    -0.200 F 
ATOM     99  F   UNL A   1      47.375  37.255  30.836  1.00  0.00    -0.200 F 
ENDBRANCH  66  89
ENDBRANCH  40  41
ENDBRANCH  33  35
ENDBRANCH  32  33
ENDBRANCH  31  32
ENDBRANCH  30  31
ENDBRANCH  29  30
ENDBRANCH  28  29
ENDBRANCH  27  28
ENDBRANCH  26  27
ENDBRANCH  25  26
ENDBRANCH   1  25
TORSDOF 26
ENDMDL
MODEL 2
REMARK VINA RESULT:      -9.5      1.095      7.250
REMARK SMILES CC[C@@](C)([NH2+]CC(=O)N[C@@H](C)C(C)C)C(=O)OCCOCCOCCOCCOC(=O)c1ccc(-c2c3nc(c(-c4c(F)c(F)c(F)c(F)c4F)c4ccc([nH]4)c(-c4c(F)c(F)c(F)c(F)c4F)c4nc(c(-c5c(F)c(F)c(F)c(F)c5F)c5ccc2[nH]5)C=C4)C=C3)cc1
REMARK SMILES IDX 21 1 20 2 19 3 18 4 17 5 15 6 16 7 3 8 4 9 2 10 1 11 5 12
REMARK SMILES IDX 6 15 7 16 8 17 9 18 10 20 11 21 12 22 13 23 14 24 22 25
REMARK SMILES IDX 23 26 24 27 25 28 26 29 27 30 28 31 29 32 30 33 31 34 32 35
REMARK SMILES IDX 33 36 94 37 34 38 93 39 35 40 36 41 37 42 87 43 38 44 92 45
REMARK SMILES IDX 86 46 88 47 39 48 91 49 85 50 84 51 40 53 72 54 52 55 71 56
REMARK SMILES IDX 53 57 56 58 70 59 89 60 54 61 55 62 69 64 90 65 57 66 41 67
REMARK SMILES IDX 42 68 50 69 43 70 44 71 48 72 51 73 45 74 46 75 49 76 47 77
REMARK SMILES IDX 73 78 74 79 82 80 75 81 76 82 80 83 83 84 77 85 78 86 81 87
REMARK SMILES IDX 79 88 58 89 59 90 67 91 60 92 61 93 65 94 68 95 62 96 63 97
REMARK SMILES IDX 66 98 64 99
REMARK H PARENT 5 13 5 14 9 19 88 52 56 63
REMARK Flexibility Score: inf
ROOT
ATOM      1  C   UNL A   1      31.801  22.139  23.499  1.00  0.00     0.188 C 
ENDROOT
BRANCH   1   2
ATOM      2  O   UNL A   1      32.847  23.007  23.079  1.00  0.00    -0.376 OA
BRANCH   2   3
ATOM      3  C   UNL A   1      32.589  24.400  23.133  1.00  0.00     0.202 C 
BRANCH   3   4
ATOM      4  C   UNL A   1      32.782  25.246  21.875  1.00  0.00     0.261 C 
BRANCH   4   5
ATOM      5  O   UNL A   1      32.218  26.568  21.914  1.00  0.00    -0.459 OA
BRANCH   5   6
ATOM      6  C   UNL A   1      32.597  27.579  22.738  1.00  0.00     0.367 C 
ATOM      7  O   UNL A   1      33.742  28.006  22.801  1.00  0.00    -0.245 OA
BRANCH   6   8
ATOM      8  C   UNL A   1      31.356  28.100  23.578  1.00  0.00     0.191 C 
ATOM      9  C   UNL A   1      30.958  29.585  23.547  1.00  0.00     0.092 C 
BRANCH   8  10
ATOM     10  C   UNL A   1      30.128  27.349  22.966  1.00  0.00     0.077 C 
ATOM     11  C   UNL A   1      28.781  28.037  23.252  1.00  0.00     0.011 C 
ENDBRANCH   8  10
BRANCH   8  12
ATOM     12  N   UNL A   1      31.546  27.815  25.040  1.00  0.00    -0.325 N 
ATOM     13  H   UNL A   1      32.261  27.092  25.115  1.00  0.00     0.347 HD
ATOM     14  H   UNL A   1      30.614  27.563  25.368  1.00  0.00     0.347 HD
BRANCH  12  15
ATOM     15  C   UNL A   1      31.958  28.938  25.939  1.00  0.00     0.362 C 
BRANCH  15  16
ATOM     16  C   UNL A   1      32.402  28.588  27.376  1.00  0.00     0.275 C 
ATOM     17  O   UNL A   1      31.716  27.832  28.072  1.00  0.00    -0.268 OA
ATOM     18  N   UNL A   1      33.577  29.068  27.920  1.00  0.00    -0.349 N 
ATOM     19  H   UNL A   1      33.902  28.577  28.709  1.00  0.00     0.163 HD
BRANCH  18  20
ATOM     20  C   UNL A   1      34.412  30.196  27.503  1.00  0.00     0.081 C 
ATOM     21  C   UNL A   1      33.663  31.534  27.644  1.00  0.00     0.031 C 
BRANCH  20  22
ATOM     22  C   UNL A   1      35.802  30.286  28.172  1.00  0.00     0.005 C 
ATOM     23  C   UNL A   1      35.862  29.447  29.448  1.00  0.00     0.009 C 
ATOM     24  C   UNL A   1      36.901  29.840  27.184  1.00  0.00     0.009 C 
ENDBRANCH  20  22
ENDBRANCH  18  20
ENDBRANCH  15  16
ENDBRANCH  12  15
ENDBRANCH   8  12
ENDBRANCH   6   8
ENDBRANCH   5   6
ENDBRANCH   4   5
ENDBRANCH   3   4
ENDBRANCH   2   3
ENDBRANCH   1   2
BRANCH   1  25
ATOM     25  C   UNL A   1      31.840  21.837  25.011  1.00  0.00     0.188 C 
BRANCH  25  26
ATOM     26  O   UNL A   1      31.857  20.463  25.362  1.00  0.00    -0.377 OA
BRANCH  26  27
ATOM     27  C   UNL A   1      32.641  19.560  24.598  1.00  0.00     0.188 C 
BRANCH  27  28
ATOM     28  C   UNL A   1      34.175  19.468  24.744  1.00  0.00     0.188 C 
BRANCH  28  29
ATOM     29  O   UNL A   1      34.889  20.669  24.501  1.00  0.00    -0.376 OA
BRANCH  29  30
ATOM     30  C   UNL A   1      35.855  21.095  25.448  1.00  0.00     0.202 C 
BRANCH  30  31
ATOM     31  C   UNL A   1      37.336  20.928  25.073  1.00  0.00     0.261 C 
BRANCH  31  32
ATOM     32  O   UNL A   1      38.214  21.984  25.485  1.00  0.00    -0.460 OA
BRANCH  32  33
ATOM     33  C   UNL A   1      39.290  21.639  26.231  1.00  0.00     0.338 C 
ATOM     34  O   UNL A   1      39.814  20.557  26.319  1.00  0.00    -0.246 OA
BRANCH  33  35
ATOM     35  C   UNL A   1      39.839  22.887  26.804  1.00  0.00     0.060 A 
ATOM     36  C   UNL A   1      39.310  24.116  26.385  1.00  0.00     0.016 A 
ATOM     37  C   UNL A   1      40.869  22.837  27.743  1.00  0.00     0.016 A 
ATOM     38  C   UNL A   1      39.843  25.306  26.876  1.00  0.00     0.010 A 
ATOM     39  C   UNL A   1      41.422  24.028  28.213  1.00  0.00     0.010 A 
ATOM     40  C   UNL A   1      40.937  25.265  27.749  1.00  0.00    -0.014 A 
BRANCH  40  41
ATOM     41  C   UNL A   1      41.731  26.493  27.986  1.00  0.00     0.031 A 
ATOM     42  C   UNL A   1      41.077  27.614  28.744  1.00  0.00     0.074 A 
ATOM     43  C   UNL A   1      42.995  26.612  27.548  1.00  0.00     0.049 A 
ATOM     44  N   UNL A   1      41.521  28.817  29.003  1.00  0.00    -0.248 NA
ATOM     45  C   UNL A   1      39.734  27.338  29.281  1.00  0.00     0.031 C 
ATOM     46  C   UNL A   1      43.751  25.575  26.851  1.00  0.00     0.029 A 
ATOM     47  N   UNL A   1      43.861  27.675  27.618  1.00  0.00    -0.354 N 
ATOM     48  C   UNL A   1      40.510  29.441  29.722  1.00  0.00     0.074 A 
ATOM     49  C   UNL A   1      39.419  28.498  29.834  1.00  0.00     0.031 C 
ATOM     50  C   UNL A   1      44.966  26.062  26.537  1.00  0.00     0.029 A 
ATOM     51  C   UNL A   1      45.054  27.454  26.978  1.00  0.00     0.049 A 
ATOM     52  H   UNL A   1      43.645  28.516  28.083  1.00  0.00     0.167 HD
ATOM     53  C   UNL A   1      40.495  30.689  30.245  1.00  0.00     0.037 A 
ATOM     54  C   UNL A   1      46.083  28.294  26.749  1.00  0.00     0.037 A 
ATOM     55  C   UNL A   1      41.580  31.624  30.124  1.00  0.00     0.049 A 
ATOM     56  C   UNL A   1      46.006  29.711  27.263  1.00  0.00     0.074 A 
ATOM     57  C   UNL A   1      41.672  32.910  30.626  1.00  0.00     0.029 A 
ATOM     58  N   UNL A   1      42.760  31.377  29.438  1.00  0.00    -0.354 N 
ATOM     59  N   UNL A   1      45.058  30.293  27.958  1.00  0.00    -0.248 NA
ATOM     60  C   UNL A   1      47.143  30.590  26.957  1.00  0.00     0.031 C 
ATOM     61  C   UNL A   1      42.881  33.461  30.193  1.00  0.00     0.029 A 
ATOM     62  C   UNL A   1      43.574  32.497  29.478  1.00  0.00     0.049 A 
ATOM     63  H   UNL A   1      42.986  30.530  28.989  1.00  0.00     0.167 HD
ATOM     64  C   UNL A   1      45.498  31.589  28.200  1.00  0.00     0.074 A 
ATOM     65  C   UNL A   1      46.803  31.706  27.587  1.00  0.00     0.031 C 
ATOM     66  C   UNL A   1      44.878  32.592  28.872  1.00  0.00     0.037 A 
BRANCH  53  67
ATOM     67  C   UNL A   1      39.252  31.123  30.965  1.00  0.00     0.064 A 
ATOM     68  C   UNL A   1      39.002  30.760  32.297  1.00  0.00     0.173 A 
ATOM     69  C   UNL A   1      38.307  31.935  30.319  1.00  0.00     0.173 A 
ATOM     70  F   UNL A   1      39.864  29.969  32.954  1.00  0.00    -0.203 F 
ATOM     71  C   UNL A   1      37.839  31.170  32.946  1.00  0.00     0.198 A 
ATOM     72  C   UNL A   1      37.163  32.371  30.980  1.00  0.00     0.198 A 
ATOM     73  F   UNL A   1      38.497  32.312  29.045  1.00  0.00    -0.203 F 
ATOM     74  F   UNL A   1      37.597  30.767  34.200  1.00  0.00    -0.200 F 
ATOM     75  C   UNL A   1      36.926  31.982  32.290  1.00  0.00     0.200 A 
ATOM     76  F   UNL A   1      36.288  33.166  30.349  1.00  0.00    -0.200 F 
ATOM     77  F   UNL A   1      35.812  32.383  32.918  1.00  0.00    -0.200 F 
ENDBRANCH  53  67
BRANCH  54  78
ATOM     78  C   UNL A   1      47.268  27.832  25.979  1.00  0.00     0.064 A 
ATOM     79  C   UNL A   1      47.275  27.859  24.577  1.00  0.00     0.173 A 
ATOM     80  C   UNL A   1      48.407  27.328  26.626  1.00  0.00     0.173 A 
ATOM     81  F   UNL A   1      46.201  28.305  23.910  1.00  0.00    -0.203 F 
ATOM     82  C   UNL A   1      48.367  27.381  23.853  1.00  0.00     0.198 A 
ATOM     83  C   UNL A   1      49.509  26.881  25.902  1.00  0.00     0.198 A 
ATOM     84  F   UNL A   1      48.449  27.276  27.965  1.00  0.00    -0.203 F 
ATOM     85  F   UNL A   1      48.326  27.371  22.513  1.00  0.00    -0.200 F 
ATOM     86  C   UNL A   1      49.485  26.899  24.516  1.00  0.00     0.200 A 
ATOM     87  F   UNL A   1      50.592  26.426  26.546  1.00  0.00    -0.200 F 
ATOM     88  F   UNL A   1      50.535  26.443  23.819  1.00  0.00    -0.200 F 
ENDBRANCH  54  78
BRANCH  66  89
ATOM     89  C   UNL A   1      45.619  33.891  29.022  1.00  0.00     0.064 A 
ATOM     90  C   UNL A   1      46.515  34.114  30.078  1.00  0.00     0.173 A 
ATOM     91  C   UNL A   1      45.472  34.903  28.061  1.00  0.00     0.173 A 
ATOM     92  F   UNL A   1      46.683  33.184  31.029  1.00  0.00    -0.203 F 
ATOM     93  C   UNL A   1      47.216  35.314  30.179  1.00  0.00     0.198 A 
ATOM     94  C   UNL A   1      46.199  36.086  28.147  1.00  0.00     0.198 A 
ATOM     95  F   UNL A   1      44.635  34.737  27.026  1.00  0.00    -0.203 F 
ATOM     96  F   UNL A   1      48.032  35.524  31.222  1.00  0.00    -0.200 F 
ATOM     97  C   UNL A   1      47.066  36.294  29.209  1.00  0.00     0.200 A 
ATOM     98  F   UNL A   1      46.067  37.023  27.198  1.00  0.00    -0.200 F 
ATOM     99  F   UNL A   1      47.751  37.441  29.302  1.00  0.00    -0.200 F 
ENDBRANCH  66  89
ENDBRANCH  40  41
ENDBRANCH  33  35
ENDBRANCH  32  33
ENDBRANCH  31  32
ENDBRANCH  30  31
ENDBRANCH  29  30
ENDBRANCH  28  29
ENDBRANCH  27  28
ENDBRANCH  26  27
ENDBRANCH  25  26
ENDBRANCH   1  25
TORSDOF 26
ENDMDL
MODEL 3
REMARK VINA RESULT:      -9.1      1.139      7.318
REMARK SMILES CC[C@@](C)([NH2+]CC(=O)N[C@@H](C)C(C)C)C(=O)OCCOCCOCCOCCOC(=O)c1ccc(-c2c3nc(c(-c4c(F)c(F)c(F)c(F)c4F)c4ccc([nH]4)c(-c4c(F)c(F)c(F)c(F)c4F)c4nc(c(-c5c(F)c(F)c(F)c(F)c5F)c5ccc2[nH]5)C=C4)C=C3)cc1
REMARK SMILES IDX 21 1 20 2 19 3 18 4 17 5 15 6 16 7 3 8 4 9 2 10 1 11 5 12
REMARK SMILES IDX 6 15 7 16 8 17 9 18 10 20 11 21 12 22 13 23 14 24 22 25
REMARK SMILES IDX 23 26 24 27 25 28 26 29 27 30 28 31 29 32 30 33 31 34 32 35
REMARK SMILES IDX 33 36 94 37 34 38 93 39 35 40 36 41 37 42 87 43 38 44 92 45
REMARK SMILES IDX 86 46 88 47 39 48 91 49 85 50 84 51 40 53 72 54 52 55 71 56
REMARK SMILES IDX 53 57 56 58 70 59 89 60 54 61 55 62 69 64 90 65 57 66 41 67
REMARK SMILES IDX 42 68 50 69 43 70 44 71 48 72 51 73 45 74 46 75 49 76 47 77
REMARK SMILES IDX 73 78 74 79 82 80 75 81 76 82 80 83 83 84 77 85 78 86 81 87
REMARK SMILES IDX 79 88 58 89 59 90 67 91 60 92 61 93 65 94 68 95 62 96 63 97
REMARK SMILES IDX 66 98 64 99
REMARK H PARENT 5 13 5 14 9 19 88 52 56 63
REMARK Flexibility Score: inf
ROOT
ATOM      1  C   UNL A   1      31.922  23.302  24.006  1.00  0.00     0.188 C 
ENDROOT
BRANCH   1   2
ATOM      2  O   UNL A   1      32.498  23.728  22.777  1.00  0.00    -0.376 OA
BRANCH   2   3
ATOM      3  C   UNL A   1      32.846  25.099  22.671  1.00  0.00     0.202 C 
BRANCH   3   4
ATOM      4  C   UNL A   1      32.416  25.888  21.435  1.00  0.00     0.261 C 
BRANCH   4   5
ATOM      5  O   UNL A   1      31.454  26.933  21.659  1.00  0.00    -0.459 OA
BRANCH   5   6
ATOM      6  C   UNL A   1      31.608  28.003  22.480  1.00  0.00     0.367 C 
ATOM      7  O   UNL A   1      32.621  28.688  22.514  1.00  0.00    -0.245 OA
BRANCH   6   8
ATOM      8  C   UNL A   1      30.304  28.218  23.358  1.00  0.00     0.191 C 
ATOM      9  C   UNL A   1      29.304  29.334  23.015  1.00  0.00     0.092 C 
BRANCH   8  10
ATOM     10  C   UNL A   1      29.492  26.892  23.179  1.00  0.00     0.077 C 
ATOM     11  C   UNL A   1      28.133  26.901  23.904  1.00  0.00     0.011 C 
ENDBRANCH   8  10
BRANCH   8  12
ATOM     12  N   UNL A   1      30.665  28.494  24.789  1.00  0.00    -0.325 N 
ATOM     13  H   UNL A   1      29.817  28.374  25.342  1.00  0.00     0.347 HD
ATOM     14  H   UNL A   1      31.062  29.433  24.769  1.00  0.00     0.347 HD
BRANCH  12  15
ATOM     15  C   UNL A   1      31.731  27.662  25.429  1.00  0.00     0.362 C 
BRANCH  15  16
ATOM     16  C   UNL A   1      31.936  27.798  26.953  1.00  0.00     0.275 C 
ATOM     17  O   UNL A   1      31.041  27.458  27.735  1.00  0.00    -0.268 OA
ATOM     18  N   UNL A   1      33.116  28.265  27.499  1.00  0.00    -0.349 N 
ATOM     19  H   UNL A   1      33.248  28.052  28.451  1.00  0.00     0.163 HD
BRANCH  18  20
ATOM     20  C   UNL A   1      34.200  29.027  26.876  1.00  0.00     0.081 C 
ATOM     21  C   UNL A   1      33.672  29.959  25.771  1.00  0.00     0.031 C 
BRANCH  20  22
ATOM     22  C   UNL A   1      35.114  29.809  27.847  1.00  0.00     0.005 C 
ATOM     23  C   UNL A   1      36.582  29.707  27.433  1.00  0.00     0.009 C 
ATOM     24  C   UNL A   1      34.677  31.287  27.920  1.00  0.00     0.009 C 
ENDBRANCH  20  22
ENDBRANCH  18  20
ENDBRANCH  15  16
ENDBRANCH  12  15
ENDBRANCH   8  12
ENDBRANCH   6   8
ENDBRANCH   5   6
ENDBRANCH   4   5
ENDBRANCH   3   4
ENDBRANCH   2   3
ENDBRANCH   1   2
BRANCH   1  25
ATOM     25  C   UNL A   1      32.814  23.606  25.227  1.00  0.00     0.188 C 
BRANCH  25  26
ATOM     26  O   UNL A   1      32.804  22.629  26.254  1.00  0.00    -0.377 OA
BRANCH  26  27
ATOM     27  C   UNL A   1      32.664  21.260  25.909  1.00  0.00     0.188 C 
BRANCH  27  28
ATOM     28  C   UNL A   1      33.874  20.366  25.560  1.00  0.00     0.188 C 
BRANCH  28  29
ATOM     29  O   UNL A   1      34.742  20.871  24.558  1.00  0.00    -0.376 OA
BRANCH  29  30
ATOM     30  C   UNL A   1      35.871  21.634  24.951  1.00  0.00     0.202 C 
BRANCH  30  31
ATOM     31  C   UNL A   1      37.161  20.867  25.283  1.00  0.00     0.261 C 
BRANCH  31  32
ATOM     32  O   UNL A   1      38.375  21.629  25.243  1.00  0.00    -0.460 OA
BRANCH  32  33
ATOM     33  C   UNL A   1      39.341  21.302  26.134  1.00  0.00     0.338 C 
ATOM     34  O   UNL A   1      39.815  20.215  26.347  1.00  0.00    -0.246 OA
BRANCH  33  35
ATOM     35  C   UNL A   1      39.856  22.569  26.699  1.00  0.00     0.060 A 
ATOM     36  C   UNL A   1      39.349  23.783  26.215  1.00  0.00     0.016 A 
ATOM     37  C   UNL A   1      40.835  22.550  27.692  1.00  0.00     0.016 A 
ATOM     38  C   UNL A   1      39.854  24.988  26.698  1.00  0.00     0.010 A 
ATOM     39  C   UNL A   1      41.360  23.756  28.155  1.00  0.00     0.010 A 
ATOM     40  C   UNL A   1      40.900  24.977  27.630  1.00  0.00    -0.014 A 
BRANCH  40  41
ATOM     41  C   UNL A   1      41.679  26.213  27.871  1.00  0.00     0.031 A 
ATOM     42  C   UNL A   1      41.019  27.314  28.655  1.00  0.00     0.074 A 
ATOM     43  C   UNL A   1      42.934  26.357  27.416  1.00  0.00     0.049 A 
ATOM     44  N   UNL A   1      41.448  28.520  28.924  1.00  0.00    -0.248 NA
ATOM     45  C   UNL A   1      39.688  27.010  29.207  1.00  0.00     0.031 C 
ATOM     46  C   UNL A   1      43.695  25.343  26.694  1.00  0.00     0.029 A 
ATOM     47  N   UNL A   1      43.784  27.433  27.489  1.00  0.00    -0.354 N 
ATOM     48  C   UNL A   1      40.438  29.119  29.666  1.00  0.00     0.074 A 
ATOM     49  C   UNL A   1      39.364  28.158  29.781  1.00  0.00     0.031 C 
ATOM     50  C   UNL A   1      44.898  25.852  26.370  1.00  0.00     0.029 A 
ATOM     51  C   UNL A   1      44.971  27.239  26.829  1.00  0.00     0.049 A 
ATOM     52  H   UNL A   1      43.563  28.264  27.968  1.00  0.00     0.167 HD
ATOM     53  C   UNL A   1      40.412  30.358  30.207  1.00  0.00     0.037 A 
ATOM     54  C   UNL A   1      45.984  28.098  26.596  1.00  0.00     0.037 A 
ATOM     55  C   UNL A   1      41.482  31.312  30.082  1.00  0.00     0.049 A 
ATOM     56  C   UNL A   1      45.893  29.507  27.131  1.00  0.00     0.074 A 
ATOM     57  C   UNL A   1      41.561  32.592  30.601  1.00  0.00     0.029 A 
ATOM     58  N   UNL A   1      42.655  31.093  29.375  1.00  0.00    -0.354 N 
ATOM     59  N   UNL A   1      44.946  30.064  27.848  1.00  0.00    -0.248 NA
ATOM     60  C   UNL A   1      47.012  30.407  26.820  1.00  0.00     0.031 C 
ATOM     61  C   UNL A   1      42.756  33.168  30.158  1.00  0.00     0.029 A 
ATOM     62  C   UNL A   1      43.452  32.224  29.420  1.00  0.00     0.049 A 
ATOM     63  H   UNL A   1      42.887  30.255  28.912  1.00  0.00     0.167 HD
ATOM     64  C   UNL A   1      45.370  31.363  28.102  1.00  0.00     0.074 A 
ATOM     65  C   UNL A   1      46.665  31.509  27.471  1.00  0.00     0.031 C 
ATOM     66  C   UNL A   1      44.746  32.347  28.796  1.00  0.00     0.037 A 
BRANCH  53  67
ATOM     67  C   UNL A   1      39.174  30.764  30.951  1.00  0.00     0.064 A 
ATOM     68  C   UNL A   1      38.151  31.504  30.338  1.00  0.00     0.173 A 
ATOM     69  C   UNL A   1      38.998  30.385  32.290  1.00  0.00     0.173 A 
ATOM     70  F   UNL A   1      38.278  31.907  29.065  1.00  0.00    -0.203 F 
ATOM     71  C   UNL A   1      37.011  31.875  31.049  1.00  0.00     0.198 A 
ATOM     72  C   UNL A   1      37.843  30.728  32.987  1.00  0.00     0.198 A 
ATOM     73  F   UNL A   1      39.945  29.676  32.923  1.00  0.00    -0.203 F 
ATOM     74  F   UNL A   1      36.072  32.626  30.459  1.00  0.00    -0.200 F 
ATOM     75  C   UNL A   1      36.855  31.478  32.369  1.00  0.00     0.200 A 
ATOM     76  F   UNL A   1      37.687  30.334  34.259  1.00  0.00    -0.200 F 
ATOM     77  F   UNL A   1      35.753  31.828  33.047  1.00  0.00    -0.200 F 
ENDBRANCH  53  67
BRANCH  54  78
ATOM     78  C   UNL A   1      47.164  27.665  25.802  1.00  0.00     0.064 A 
ATOM     79  C   UNL A   1      48.327  27.198  26.432  1.00  0.00     0.173 A 
ATOM     80  C   UNL A   1      47.166  27.734  24.401  1.00  0.00     0.173 A 
ATOM     81  F   UNL A   1      48.387  27.138  27.770  1.00  0.00    -0.203 F 
ATOM     82  C   UNL A   1      49.452  26.837  25.691  1.00  0.00     0.198 A 
ATOM     83  C   UNL A   1      48.279  27.343  23.661  1.00  0.00     0.198 A 
ATOM     84  F   UNL A   1      46.081  28.178  23.750  1.00  0.00    -0.203 F 
ATOM     85  F   UNL A   1      50.567  26.443  26.320  1.00  0.00    -0.200 F 
ATOM     86  C   UNL A   1      49.424  26.904  24.306  1.00  0.00     0.200 A 
ATOM     87  F   UNL A   1      48.245  27.398  22.323  1.00  0.00    -0.200 F 
ATOM     88  F   UNL A   1      50.504  26.553  23.595  1.00  0.00    -0.200 F 
ENDBRANCH  54  78
BRANCH  66  89
ATOM     89  C   UNL A   1      45.469  33.655  28.953  1.00  0.00     0.064 A 
ATOM     90  C   UNL A   1      45.331  34.693  28.020  1.00  0.00     0.173 A 
ATOM     91  C   UNL A   1      46.264  33.892  30.085  1.00  0.00     0.173 A 
ATOM     92  F   UNL A   1      44.592  34.515  26.915  1.00  0.00    -0.203 F 
ATOM     93  C   UNL A   1      45.984  35.911  28.202  1.00  0.00     0.198 A 
ATOM     94  C   UNL A   1      46.887  35.120  30.281  1.00  0.00     0.198 A 
ATOM     95  F   UNL A   1      46.421  32.936  31.013  1.00  0.00    -0.203 F 
ATOM     96  F   UNL A   1      45.876  36.871  27.274  1.00  0.00    -0.200 F 
ATOM     97  C   UNL A   1      46.753  36.126  29.336  1.00  0.00     0.200 A 
ATOM     98  F   UNL A   1      47.614  35.333  31.387  1.00  0.00    -0.200 F 
ATOM     99  F   UNL A   1      47.369  37.302  29.515  1.00  0.00    -0.200 F 
ENDBRANCH  66  89
ENDBRANCH  40  41
ENDBRANCH  33  35
ENDBRANCH  32  33
ENDBRANCH  31  32
ENDBRANCH  30  31
ENDBRANCH  29  30
ENDBRANCH  28  29
ENDBRANCH  27  28
ENDBRANCH  26  27
ENDBRANCH  25  26
ENDBRANCH   1  25
TORSDOF 26
ENDMDL
