MODEL 1
REMARK VINA RESULT:     -11.3      0.000      0.000
REMARK SMILES C[C@@H]1CC[C@@H](C(=O)OCCOCCOCCOCCOC(=O)c2ccc(-c3c4nc(c(-c5c(F)c(F)c(F)c(F)c5F)c5ccc([nH]5)c(-c5c(F)c(F)c(F)c(F)c5F)c5nc(c(-c6c(F)c(F)c(F)c(F)c6F)c6ccc3[nH]6)C=C5)C=C4)cc2)[C@H]2C(=O)N(c3ccccc3)C(=O)[C@@H]21
REMARK SMILES IDX 15 1 14 2 13 3 12 4 11 5 10 6 9 7 8 8 6 9 7 10 5 11 1 12
REMARK SMILES IDX 2 13 3 14 98 15 4 16 86 17 96 18 87 19 89 20 97 21 88 22
REMARK SMILES IDX 90 23 91 24 95 25 92 26 94 27 93 28 16 29 17 30 18 31 19 32
REMARK SMILES IDX 20 33 21 34 22 35 23 36 24 37 85 38 25 39 84 40 26 41 27 42
REMARK SMILES IDX 28 43 78 44 29 45 83 46 77 47 79 48 30 49 82 50 76 51 75 52
REMARK SMILES IDX 31 54 63 55 43 56 62 57 44 58 47 59 61 60 80 61 45 62 46 63
REMARK SMILES IDX 60 65 81 66 48 67 32 68 33 69 41 70 34 71 35 72 39 73 42 74
REMARK SMILES IDX 36 75 37 76 40 77 38 78 64 79 65 80 73 81 66 82 67 83 71 84
REMARK SMILES IDX 74 85 68 86 69 87 72 88 70 89 49 90 50 91 58 92 51 93 52 94
REMARK SMILES IDX 56 95 59 96 53 97 54 98 57 99 55 100
REMARK H PARENT 79 53 47 64
REMARK Flexibility Score: inf
ROOT
ATOM      1  C   UNL A   1      35.508  22.608  23.869  1.00  0.00     0.188 C 
ENDROOT
BRANCH   1   2
ATOM      2  O   UNL A   1      34.764  22.172  24.976  1.00  0.00    -0.377 OA
BRANCH   2   3
ATOM      3  C   UNL A   1      34.220  20.871  24.890  1.00  0.00     0.188 C 
BRANCH   3   4
ATOM      4  C   UNL A   1      33.066  20.409  25.820  1.00  0.00     0.188 C 
BRANCH   4   5
ATOM      5  O   UNL A   1      31.765  20.771  25.383  1.00  0.00    -0.376 OA
BRANCH   5   6
ATOM      6  C   UNL A   1      31.260  22.065  25.667  1.00  0.00     0.202 C 
BRANCH   6   7
ATOM      7  C   UNL A   1      31.739  22.756  26.956  1.00  0.00     0.261 C 
BRANCH   7   8
ATOM      8  O   UNL A   1      31.378  24.142  27.102  1.00  0.00    -0.463 OA
BRANCH   8   9
ATOM      9  C   UNL A   1      31.784  24.975  26.118  1.00  0.00     0.309 C 
ATOM     10  O   UNL A   1      32.958  25.116  25.803  1.00  0.00    -0.252 OA
BRANCH   9  11
ATOM     11  C   UNL A   1      30.610  25.730  25.467  1.00  0.00     0.112 C 
ATOM     12  C   UNL A   1      30.303  27.978  22.376  1.00  0.00     0.008 C 
ATOM     13  C   UNL A   1      31.413  27.011  22.781  1.00  0.00    -0.001 C 
ATOM     14  C   UNL A   1      30.896  25.555  22.853  1.00  0.00     0.005 C 
ATOM     15  C   UNL A   1      32.029  27.308  24.134  1.00  0.00     0.095 C 
ATOM     16  C   UNL A   1      30.042  25.265  24.106  1.00  0.00     0.016 C 
ATOM     17  C   UNL A   1      31.032  27.170  25.274  1.00  0.00     0.106 C 
ATOM     18  C   UNL A   1      32.712  28.595  24.492  1.00  0.00     0.237 C 
ATOM     19  C   UNL A   1      31.774  27.766  26.423  1.00  0.00     0.238 C 
ATOM     20  N   UNL A   1      32.700  28.633  25.884  1.00  0.00    -0.250 N 
ATOM     21  O   UNL A   1      33.261  29.325  23.686  1.00  0.00    -0.274 OA
ATOM     22  O   UNL A   1      31.470  27.549  27.587  1.00  0.00    -0.274 OA
BRANCH  20  23
ATOM     23  C   UNL A   1      33.524  29.447  26.680  1.00  0.00     0.052 A 
ATOM     24  C   UNL A   1      34.750  28.976  27.148  1.00  0.00     0.027 A 
ATOM     25  C   UNL A   1      33.121  30.752  27.011  1.00  0.00     0.027 A 
ATOM     26  C   UNL A   1      35.579  29.807  27.900  1.00  0.00     0.002 A 
ATOM     27  C   UNL A   1      33.934  31.570  27.791  1.00  0.00     0.002 A 
ATOM     28  C   UNL A   1      35.169  31.099  28.224  1.00  0.00     0.000 A 
ENDBRANCH  20  23
ENDBRANCH   9  11
ENDBRANCH   8   9
ENDBRANCH   7   8
ENDBRANCH   6   7
ENDBRANCH   5   6
ENDBRANCH   4   5
ENDBRANCH   3   4
ENDBRANCH   2   3
ENDBRANCH   1   2
BRANCH   1  29
ATOM     29  C   UNL A   1      37.029  22.525  24.085  1.00  0.00     0.188 C 
BRANCH  29  30
ATOM     30  O   UNL A   1      37.574  21.749  25.137  1.00  0.00    -0.376 OA
BRANCH  30  31
ATOM     31  C   UNL A   1      38.005  20.404  25.001  1.00  0.00     0.202 C 
BRANCH  31  32
ATOM     32  C   UNL A   1      39.286  19.775  25.578  1.00  0.00     0.261 C 
BRANCH  32  33
ATOM     33  O   UNL A   1      39.787  20.268  26.815  1.00  0.00    -0.460 OA
BRANCH  33  34
ATOM     34  C   UNL A   1      41.113  20.507  26.859  1.00  0.00     0.338 C 
ATOM     35  O   UNL A   1      42.015  19.773  26.488  1.00  0.00    -0.246 OA
BRANCH  34  36
ATOM     36  C   UNL A   1      41.298  21.915  27.249  1.00  0.00     0.060 A 
ATOM     37  C   UNL A   1      40.633  22.904  26.509  1.00  0.00     0.016 A 
ATOM     38  C   UNL A   1      42.076  22.255  28.358  1.00  0.00     0.016 A 
ATOM     39  C   UNL A   1      40.737  24.239  26.878  1.00  0.00     0.010 A 
ATOM     40  C   UNL A   1      42.234  23.600  28.689  1.00  0.00     0.010 A 
ATOM     41  C   UNL A   1      41.585  24.593  27.933  1.00  0.00    -0.014 A 
BRANCH  41  42
ATOM     42  C   UNL A   1      42.004  26.004  28.053  1.00  0.00     0.031 A 
ATOM     43  C   UNL A   1      43.308  26.390  27.416  1.00  0.00     0.074 A 
ATOM     44  C   UNL A   1      41.236  26.918  28.667  1.00  0.00     0.049 A 
ATOM     45  N   UNL A   1      43.923  27.542  27.410  1.00  0.00    -0.248 NA
ATOM     46  C   UNL A   1      44.015  25.324  26.684  1.00  0.00     0.031 C 
ATOM     47  C   UNL A   1      39.928  26.663  29.263  1.00  0.00     0.029 A 
ATOM     48  N   UNL A   1      41.461  28.251  28.894  1.00  0.00    -0.354 N 
ATOM     49  C   UNL A   1      45.087  27.338  26.682  1.00  0.00     0.074 A 
ATOM     50  C   UNL A   1      45.111  25.948  26.287  1.00  0.00     0.031 C 
ATOM     51  C   UNL A   1      39.472  27.805  29.808  1.00  0.00     0.029 A 
ATOM     52  C   UNL A   1      40.473  28.857  29.627  1.00  0.00     0.049 A 
ATOM     53  H   UNL A   1      42.257  28.728  28.562  1.00  0.00     0.167 HD
ATOM     54  C   UNL A   1      46.049  28.235  26.368  1.00  0.00     0.037 A 
ATOM     55  C   UNL A   1      40.408  30.110  30.116  1.00  0.00     0.037 A 
ATOM     56  C   UNL A   1      46.022  29.612  26.778  1.00  0.00     0.049 A 
ATOM     57  C   UNL A   1      41.540  31.067  29.831  1.00  0.00     0.074 A 
ATOM     58  C   UNL A   1      46.942  30.609  26.511  1.00  0.00     0.029 A 
ATOM     59  N   UNL A   1      45.024  30.182  27.556  1.00  0.00    -0.354 N 
ATOM     60  N   UNL A   1      42.631  30.880  29.125  1.00  0.00    -0.248 NA
ATOM     61  C   UNL A   1      41.430  32.414  30.408  1.00  0.00     0.031 C 
ATOM     62  C   UNL A   1      46.535  31.766  27.181  1.00  0.00     0.029 A 
ATOM     63  C   UNL A   1      45.324  31.511  27.805  1.00  0.00     0.049 A 
ATOM     64  H   UNL A   1      44.224  29.712  27.882  1.00  0.00     0.167 HD
ATOM     65  C   UNL A   1      43.315  32.090  29.144  1.00  0.00     0.074 A 
ATOM     66  C   UNL A   1      42.509  33.008  29.921  1.00  0.00     0.031 C 
ATOM     67  C   UNL A   1      44.500  32.413  28.571  1.00  0.00     0.037 A 
BRANCH  54  68
ATOM     68  C   UNL A   1      47.224  27.740  25.579  1.00  0.00     0.064 A 
ATOM     69  C   UNL A   1      47.241  27.765  24.176  1.00  0.00     0.173 A 
ATOM     70  C   UNL A   1      48.361  27.249  26.239  1.00  0.00     0.173 A 
ATOM     71  F   UNL A   1      46.171  28.204  23.496  1.00  0.00    -0.203 F 
ATOM     72  C   UNL A   1      48.342  27.295  23.464  1.00  0.00     0.198 A 
ATOM     73  C   UNL A   1      49.472  26.811  25.526  1.00  0.00     0.198 A 
ATOM     74  F   UNL A   1      48.396  27.199  27.580  1.00  0.00    -0.203 F 
ATOM     75  F   UNL A   1      48.314  27.279  22.125  1.00  0.00    -0.200 F 
ATOM     76  C   UNL A   1      49.460  26.827  24.139  1.00  0.00     0.200 A 
ATOM     77  F   UNL A   1      50.557  26.371  26.180  1.00  0.00    -0.200 F 
ATOM     78  F   UNL A   1      50.522  26.384  23.453  1.00  0.00    -0.200 F 
ENDBRANCH  54  68
BRANCH  55  79
ATOM     79  C   UNL A   1      39.246  30.533  30.941  1.00  0.00     0.064 A 
ATOM     80  C   UNL A   1      38.228  31.335  30.406  1.00  0.00     0.173 A 
ATOM     81  C   UNL A   1      39.145  30.171  32.294  1.00  0.00     0.173 A 
ATOM     82  F   UNL A   1      38.291  31.729  29.125  1.00  0.00    -0.203 F 
ATOM     83  C   UNL A   1      37.171  31.781  31.196  1.00  0.00     0.198 A 
ATOM     84  C   UNL A   1      38.070  30.591  33.074  1.00  0.00     0.198 A 
ATOM     85  F   UNL A   1      40.092  29.409  32.858  1.00  0.00    -0.203 F 
ATOM     86  F   UNL A   1      36.243  32.594  30.673  1.00  0.00    -0.200 F 
ATOM     87  C   UNL A   1      37.089  31.404  32.528  1.00  0.00     0.200 A 
ATOM     88  F   UNL A   1      37.989  30.214  34.357  1.00  0.00    -0.200 F 
ATOM     89  F   UNL A   1      36.071  31.833  33.287  1.00  0.00    -0.200 F 
ENDBRANCH  55  79
BRANCH  67  90
ATOM     90  C   UNL A   1      44.977  33.831  28.714  1.00  0.00     0.064 A 
ATOM     91  C   UNL A   1      45.841  34.224  29.747  1.00  0.00     0.173 A 
ATOM     92  C   UNL A   1      44.603  34.801  27.768  1.00  0.00     0.173 A 
ATOM     93  F   UNL A   1      46.220  33.340  30.683  1.00  0.00    -0.203 F 
ATOM     94  C   UNL A   1      46.286  35.540  29.847  1.00  0.00     0.198 A 
ATOM     95  C   UNL A   1      45.080  36.105  27.851  1.00  0.00     0.198 A 
ATOM     96  F   UNL A   1      43.788  34.478  26.753  1.00  0.00    -0.203 F 
ATOM     97  F   UNL A   1      47.067  35.904  30.873  1.00  0.00    -0.200 F 
ATOM     98  C   UNL A   1      45.914  36.476  28.894  1.00  0.00     0.200 A 
ATOM     99  F   UNL A   1      44.736  37.003  26.918  1.00  0.00    -0.200 F 
ATOM    100  F   UNL A   1      46.353  37.739  28.986  1.00  0.00    -0.200 F 
ENDBRANCH  67  90
ENDBRANCH  41  42
ENDBRANCH  34  36
ENDBRANCH  33  34
ENDBRANCH  32  33
ENDBRANCH  31  32
ENDBRANCH  30  31
ENDBRANCH  29  30
ENDBRANCH   1  29
TORSDOF 21
ENDMDL
MODEL 2
REMARK VINA RESULT:     -11.0      5.053     11.079
REMARK SMILES C[C@@H]1CC[C@@H](C(=O)OCCOCCOCCOCCOC(=O)c2ccc(-c3c4nc(c(-c5c(F)c(F)c(F)c(F)c5F)c5ccc([nH]5)c(-c5c(F)c(F)c(F)c(F)c5F)c5nc(c(-c6c(F)c(F)c(F)c(F)c6F)c6ccc3[nH]6)C=C5)C=C4)cc2)[C@H]2C(=O)N(c3ccccc3)C(=O)[C@@H]21
REMARK SMILES IDX 15 1 14 2 13 3 12 4 11 5 10 6 9 7 8 8 6 9 7 10 5 11 1 12
REMARK SMILES IDX 2 13 3 14 98 15 4 16 86 17 96 18 87 19 89 20 97 21 88 22
REMARK SMILES IDX 90 23 91 24 95 25 92 26 94 27 93 28 16 29 17 30 18 31 19 32
REMARK SMILES IDX 20 33 21 34 22 35 23 36 24 37 85 38 25 39 84 40 26 41 27 42
REMARK SMILES IDX 28 43 78 44 29 45 83 46 77 47 79 48 30 49 82 50 76 51 75 52
REMARK SMILES IDX 31 54 63 55 43 56 62 57 44 58 47 59 61 60 80 61 45 62 46 63
REMARK SMILES IDX 60 65 81 66 48 67 32 68 33 69 41 70 34 71 35 72 39 73 42 74
REMARK SMILES IDX 36 75 37 76 40 77 38 78 64 79 65 80 73 81 66 82 67 83 71 84
REMARK SMILES IDX 74 85 68 86 69 87 72 88 70 89 49 90 50 91 58 92 51 93 52 94
REMARK SMILES IDX 56 95 59 96 53 97 54 98 57 99 55 100
REMARK H PARENT 79 53 47 64
REMARK Flexibility Score: inf
ROOT
ATOM      1  C   UNL A   1      35.126  31.574  27.983  1.00  0.00     0.188 C 
ENDROOT
BRANCH   1   2
ATOM      2  O   UNL A   1      33.736  31.518  27.793  1.00  0.00    -0.377 OA
BRANCH   2   3
ATOM      3  C   UNL A   1      33.228  30.321  27.242  1.00  0.00     0.188 C 
BRANCH   3   4
ATOM      4  C   UNL A   1      34.155  29.119  26.916  1.00  0.00     0.188 C 
BRANCH   4   5
ATOM      5  O   UNL A   1      33.499  27.996  26.347  1.00  0.00    -0.376 OA
BRANCH   5   6
ATOM      6  C   UNL A   1      32.677  28.163  25.203  1.00  0.00     0.202 C 
BRANCH   6   7
ATOM      7  C   UNL A   1      33.203  27.634  23.857  1.00  0.00     0.261 C 
BRANCH   7   8
ATOM      8  O   UNL A   1      33.554  26.239  23.820  1.00  0.00    -0.463 OA
BRANCH   8   9
ATOM      9  C   UNL A   1      33.303  25.587  22.662  1.00  0.00     0.309 C 
ATOM     10  O   UNL A   1      33.792  25.918  21.591  1.00  0.00    -0.252 OA
BRANCH   9  11
ATOM     11  C   UNL A   1      32.326  24.413  22.850  1.00  0.00     0.112 C 
ATOM     12  C   UNL A   1      30.636  22.846  25.915  1.00  0.00     0.008 C 
ATOM     13  C   UNL A   1      31.334  24.194  25.761  1.00  0.00    -0.001 C 
ATOM     14  C   UNL A   1      30.609  25.092  24.731  1.00  0.00     0.005 C 
ATOM     15  C   UNL A   1      32.775  24.096  25.295  1.00  0.00     0.095 C 
ATOM     16  C   UNL A   1      30.859  24.677  23.266  1.00  0.00     0.016 C 
ATOM     17  C   UNL A   1      32.900  23.493  23.905  1.00  0.00     0.106 C 
ATOM     18  C   UNL A   1      33.857  23.366  26.033  1.00  0.00     0.237 C 
ATOM     19  C   UNL A   1      34.367  23.248  23.793  1.00  0.00     0.238 C 
ATOM     20  N   UNL A   1      34.844  23.127  25.080  1.00  0.00    -0.250 N 
ATOM     21  O   UNL A   1      33.863  23.188  27.239  1.00  0.00    -0.274 OA
ATOM     22  O   UNL A   1      34.928  23.090  22.718  1.00  0.00    -0.274 OA
BRANCH  20  23
ATOM     23  C   UNL A   1      36.181  22.800  25.363  1.00  0.00     0.052 A 
ATOM     24  C   UNL A   1      36.671  21.520  25.103  1.00  0.00     0.027 A 
ATOM     25  C   UNL A   1      37.044  23.765  25.910  1.00  0.00     0.027 A 
ATOM     26  C   UNL A   1      38.009  21.220  25.346  1.00  0.00     0.002 A 
ATOM     27  C   UNL A   1      38.373  23.454  26.186  1.00  0.00     0.002 A 
ATOM     28  C   UNL A   1      38.857  22.184  25.891  1.00  0.00     0.000 A 
ENDBRANCH  20  23
ENDBRANCH   9  11
ENDBRANCH   8   9
ENDBRANCH   7   8
ENDBRANCH   6   7
ENDBRANCH   5   6
ENDBRANCH   4   5
ENDBRANCH   3   4
ENDBRANCH   2   3
ENDBRANCH   1   2
BRANCH   1  29
ATOM     29  C   UNL A   1      35.677  33.009  28.040  1.00  0.00     0.188 C 
BRANCH  29  30
ATOM     30  O   UNL A   1      35.113  33.973  28.912  1.00  0.00    -0.376 OA
BRANCH  30  31
ATOM     31  C   UNL A   1      34.317  35.067  28.489  1.00  0.00     0.202 C 
BRANCH  31  32
ATOM     32  C   UNL A   1      33.056  35.621  29.179  1.00  0.00     0.261 C 
BRANCH  32  33
ATOM     33  O   UNL A   1      32.576  34.965  30.346  1.00  0.00    -0.460 OA
BRANCH  33  34
ATOM     34  C   UNL A   1      32.837  35.580  31.516  1.00  0.00     0.338 C 
ATOM     35  O   UNL A   1      32.172  36.441  32.070  1.00  0.00    -0.246 OA
BRANCH  34  36
ATOM     36  C   UNL A   1      33.978  34.888  32.137  1.00  0.00     0.060 A 
ATOM     37  C   UNL A   1      35.232  35.518  32.118  1.00  0.00     0.016 A 
ATOM     38  C   UNL A   1      33.809  33.656  32.774  1.00  0.00     0.016 A 
ATOM     39  C   UNL A   1      36.321  34.924  32.742  1.00  0.00     0.010 A 
ATOM     40  C   UNL A   1      34.917  33.027  33.342  1.00  0.00     0.010 A 
ATOM     41  C   UNL A   1      36.177  33.650  33.302  1.00  0.00    -0.014 A 
BRANCH  41  42
ATOM     42  C   UNL A   1      37.396  32.867  33.586  1.00  0.00     0.031 A 
ATOM     43  C   UNL A   1      38.111  33.152  34.876  1.00  0.00     0.074 A 
ATOM     44  C   UNL A   1      37.830  31.909  32.751  1.00  0.00     0.049 A 
ATOM     45  N   UNL A   1      39.219  32.642  35.344  1.00  0.00    -0.248 NA
ATOM     46  C   UNL A   1      37.486  34.153  35.758  1.00  0.00     0.031 C 
ATOM     47  C   UNL A   1      37.178  31.510  31.508  1.00  0.00     0.029 A 
ATOM     48  N   UNL A   1      38.936  31.103  32.831  1.00  0.00    -0.354 N 
ATOM     49  C   UNL A   1      39.424  33.263  36.569  1.00  0.00     0.074 A 
ATOM     50  C   UNL A   1      38.348  34.208  36.760  1.00  0.00     0.031 C 
ATOM     51  C   UNL A   1      37.911  30.544  30.927  1.00  0.00     0.029 A 
ATOM     52  C   UNL A   1      39.096  30.283  31.743  1.00  0.00     0.049 A 
ATOM     53  H   UNL A   1      39.556  31.111  33.597  1.00  0.00     0.167 HD
ATOM     54  C   UNL A   1      40.423  33.057  37.457  1.00  0.00     0.037 A 
ATOM     55  C   UNL A   1      40.105  29.445  31.437  1.00  0.00     0.037 A 
ATOM     56  C   UNL A   1      41.497  32.125  37.251  1.00  0.00     0.049 A 
ATOM     57  C   UNL A   1      41.257  29.302  32.402  1.00  0.00     0.074 A 
ATOM     58  C   UNL A   1      42.558  31.834  38.087  1.00  0.00     0.029 A 
ATOM     59  N   UNL A   1      41.650  31.340  36.116  1.00  0.00    -0.354 N 
ATOM     60  N   UNL A   1      41.442  29.874  33.569  1.00  0.00    -0.248 NA
ATOM     61  C   UNL A   1      42.342  28.393  32.008  1.00  0.00     0.031 C 
ATOM     62  C   UNL A   1      43.389  30.920  37.432  1.00  0.00     0.029 A 
ATOM     63  C   UNL A   1      42.808  30.586  36.219  1.00  0.00     0.049 A 
ATOM     64  H   UNL A   1      41.029  31.321  35.354  1.00  0.00     0.167 HD
ATOM     65  C   UNL A   1      42.639  29.369  34.062  1.00  0.00     0.074 A 
ATOM     66  C   UNL A   1      43.132  28.434  33.072  1.00  0.00     0.031 C 
ATOM     67  C   UNL A   1      43.274  29.650  35.226  1.00  0.00     0.037 A 
BRANCH  54  68
ATOM     68  C   UNL A   1      40.418  33.887  38.706  1.00  0.00     0.064 A 
ATOM     69  C   UNL A   1      39.754  33.471  39.871  1.00  0.00     0.173 A 
ATOM     70  C   UNL A   1      41.105  35.110  38.745  1.00  0.00     0.173 A 
ATOM     71  F   UNL A   1      39.064  32.321  39.880  1.00  0.00    -0.203 F 
ATOM     72  C   UNL A   1      39.758  34.261  41.018  1.00  0.00     0.198 A 
ATOM     73  C   UNL A   1      41.136  35.880  39.903  1.00  0.00     0.198 A 
ATOM     74  F   UNL A   1      41.753  35.556  37.658  1.00  0.00    -0.203 F 
ATOM     75  F   UNL A   1      39.073  33.869  42.101  1.00  0.00    -0.200 F 
ATOM     76  C   UNL A   1      40.456  35.459  41.037  1.00  0.00     0.200 A 
ATOM     77  F   UNL A   1      41.821  37.032  39.923  1.00  0.00    -0.200 F 
ATOM     78  F   UNL A   1      40.467  36.213  42.144  1.00  0.00    -0.200 F 
ENDBRANCH  54  68
BRANCH  55  79
ATOM     79  C   UNL A   1      40.089  28.689  30.158  1.00  0.00     0.064 A 
ATOM     80  C   UNL A   1      40.663  29.219  28.994  1.00  0.00     0.173 A 
ATOM     81  C   UNL A   1      39.467  27.433  30.062  1.00  0.00     0.173 A 
ATOM     82  F   UNL A   1      41.246  30.426  29.026  1.00  0.00    -0.203 F 
ATOM     83  C   UNL A   1      40.594  28.537  27.780  1.00  0.00     0.198 A 
ATOM     84  C   UNL A   1      39.428  26.738  28.856  1.00  0.00     0.198 A 
ATOM     85  F   UNL A   1      38.898  26.881  31.143  1.00  0.00    -0.203 F 
ATOM     86  F   UNL A   1      41.101  29.093  26.673  1.00  0.00    -0.200 F 
ATOM     87  C   UNL A   1      39.982  27.295  27.714  1.00  0.00     0.200 A 
ATOM     88  F   UNL A   1      38.847  25.532  28.799  1.00  0.00    -0.200 F 
ATOM     89  F   UNL A   1      39.917  26.639  26.546  1.00  0.00    -0.200 F 
ENDBRANCH  55  79
BRANCH  67  90
ATOM     90  C   UNL A   1      44.543  28.903  35.524  1.00  0.00     0.064 A 
ATOM     91  C   UNL A   1      45.802  29.400  35.156  1.00  0.00     0.173 A 
ATOM     92  C   UNL A   1      44.500  27.693  36.236  1.00  0.00     0.173 A 
ATOM     93  F   UNL A   1      45.899  30.547  34.465  1.00  0.00    -0.203 F 
ATOM     94  C   UNL A   1      46.966  28.700  35.461  1.00  0.00     0.198 A 
ATOM     95  C   UNL A   1      45.667  27.015  36.572  1.00  0.00     0.198 A 
ATOM     96  F   UNL A   1      43.324  27.177  36.623  1.00  0.00    -0.203 F 
ATOM     97  F   UNL A   1      48.153  29.167  35.052  1.00  0.00    -0.200 F 
ATOM     98  C   UNL A   1      46.899  27.513  36.177  1.00  0.00     0.200 A 
ATOM     99  F   UNL A   1      45.601  25.880  37.281  1.00  0.00    -0.200 F 
ATOM    100  F   UNL A   1      48.022  26.847  36.479  1.00  0.00    -0.200 F 
ENDBRANCH  67  90
ENDBRANCH  41  42
ENDBRANCH  34  36
ENDBRANCH  33  34
ENDBRANCH  32  33
ENDBRANCH  31  32
ENDBRANCH  30  31
ENDBRANCH  29  30
ENDBRANCH   1  29
TORSDOF 21
ENDMDL
MODEL 3
REMARK VINA RESULT:     -10.8      5.126     11.156
REMARK SMILES C[C@@H]1CC[C@@H](C(=O)OCCOCCOCCOCCOC(=O)c2ccc(-c3c4nc(c(-c5c(F)c(F)c(F)c(F)c5F)c5ccc([nH]5)c(-c5c(F)c(F)c(F)c(F)c5F)c5nc(c(-c6c(F)c(F)c(F)c(F)c6F)c6ccc3[nH]6)C=C5)C=C4)cc2)[C@H]2C(=O)N(c3ccccc3)C(=O)[C@@H]21
REMARK SMILES IDX 15 1 14 2 13 3 12 4 11 5 10 6 9 7 8 8 6 9 7 10 5 11 1 12
REMARK SMILES IDX 2 13 3 14 98 15 4 16 86 17 96 18 87 19 89 20 97 21 88 22
REMARK SMILES IDX 90 23 91 24 95 25 92 26 94 27 93 28 16 29 17 30 18 31 19 32
REMARK SMILES IDX 20 33 21 34 22 35 23 36 24 37 85 38 25 39 84 40 26 41 27 42
REMARK SMILES IDX 28 43 78 44 29 45 83 46 77 47 79 48 30 49 82 50 76 51 75 52
REMARK SMILES IDX 31 54 63 55 43 56 62 57 44 58 47 59 61 60 80 61 45 62 46 63
REMARK SMILES IDX 60 65 81 66 48 67 32 68 33 69 41 70 34 71 35 72 39 73 42 74
REMARK SMILES IDX 36 75 37 76 40 77 38 78 64 79 65 80 73 81 66 82 67 83 71 84
REMARK SMILES IDX 74 85 68 86 69 87 72 88 70 89 49 90 50 91 58 92 51 93 52 94
REMARK SMILES IDX 56 95 59 96 53 97 54 98 57 99 55 100
REMARK H PARENT 79 53 47 64
REMARK Flexibility Score: inf
ROOT
ATOM      1  C   UNL A   1      35.951  31.893  28.156  1.00  0.00     0.188 C 
ENDROOT
BRANCH   1   2
ATOM      2  O   UNL A   1      34.711  31.313  28.466  1.00  0.00    -0.377 OA
BRANCH   2   3
ATOM      3  C   UNL A   1      34.150  30.474  27.478  1.00  0.00     0.188 C 
BRANCH   3   4
ATOM      4  C   UNL A   1      34.845  29.156  27.040  1.00  0.00     0.188 C 
BRANCH   4   5
ATOM      5  O   UNL A   1      34.021  28.262  26.306  1.00  0.00    -0.376 OA
BRANCH   5   6
ATOM      6  C   UNL A   1      33.283  28.736  25.191  1.00  0.00     0.202 C 
BRANCH   6   7
ATOM      7  C   UNL A   1      33.546  28.078  23.824  1.00  0.00     0.261 C 
BRANCH   7   8
ATOM      8  O   UNL A   1      33.689  26.646  23.830  1.00  0.00    -0.463 OA
BRANCH   8   9
ATOM      9  C   UNL A   1      33.332  26.002  22.696  1.00  0.00     0.309 C 
ATOM     10  O   UNL A   1      33.857  26.218  21.612  1.00  0.00    -0.252 OA
BRANCH   9  11
ATOM     11  C   UNL A   1      32.187  24.998  22.926  1.00  0.00     0.112 C 
ATOM     12  C   UNL A   1      30.447  23.651  26.066  1.00  0.00     0.008 C 
ATOM     13  C   UNL A   1      31.346  24.871  25.889  1.00  0.00    -0.001 C 
ATOM     14  C   UNL A   1      30.719  25.901  24.920  1.00  0.00     0.005 C 
ATOM     15  C   UNL A   1      32.721  24.551  25.333  1.00  0.00     0.095 C 
ATOM     16  C   UNL A   1      30.811  25.488  23.436  1.00  0.00     0.016 C 
ATOM     17  C   UNL A   1      32.663  23.971  23.929  1.00  0.00     0.106 C 
ATOM     18  C   UNL A   1      33.711  23.636  25.991  1.00  0.00     0.237 C 
ATOM     19  C   UNL A   1      34.062  23.493  23.722  1.00  0.00     0.238 C 
ATOM     20  N   UNL A   1      34.586  23.263  24.975  1.00  0.00    -0.250 N 
ATOM     21  O   UNL A   1      33.758  23.429  27.192  1.00  0.00    -0.274 OA
ATOM     22  O   UNL A   1      34.525  23.272  22.612  1.00  0.00    -0.274 OA
BRANCH  20  23
ATOM     23  C   UNL A   1      35.867  22.716  25.169  1.00  0.00     0.052 A 
ATOM     24  C   UNL A   1      36.108  21.365  24.917  1.00  0.00     0.027 A 
ATOM     25  C   UNL A   1      36.922  23.528  25.618  1.00  0.00     0.027 A 
ATOM     26  C   UNL A   1      37.390  20.843  25.071  1.00  0.00     0.002 A 
ATOM     27  C   UNL A   1      38.196  22.997  25.805  1.00  0.00     0.002 A 
ATOM     28  C   UNL A   1      38.431  21.657  25.518  1.00  0.00     0.000 A 
ENDBRANCH  20  23
ENDBRANCH   9  11
ENDBRANCH   8   9
ENDBRANCH   7   8
ENDBRANCH   6   7
ENDBRANCH   5   6
ENDBRANCH   4   5
ENDBRANCH   3   4
ENDBRANCH   2   3
ENDBRANCH   1   2
BRANCH   1  29
ATOM     29  C   UNL A   1      35.926  33.431  28.172  1.00  0.00     0.188 C 
BRANCH  29  30
ATOM     30  O   UNL A   1      35.106  34.137  29.087  1.00  0.00    -0.376 OA
BRANCH  30  31
ATOM     31  C   UNL A   1      33.968  34.900  28.719  1.00  0.00     0.202 C 
BRANCH  31  32
ATOM     32  C   UNL A   1      33.079  35.749  29.646  1.00  0.00     0.261 C 
BRANCH  32  33
ATOM     33  O   UNL A   1      32.533  35.139  30.810  1.00  0.00    -0.460 OA
BRANCH  33  34
ATOM     34  C   UNL A   1      32.838  35.731  31.982  1.00  0.00     0.338 C 
ATOM     35  O   UNL A   1      32.202  36.590  32.570  1.00  0.00    -0.246 OA
BRANCH  34  36
ATOM     36  C   UNL A   1      33.988  35.013  32.556  1.00  0.00     0.060 A 
ATOM     37  C   UNL A   1      35.244  35.637  32.530  1.00  0.00     0.016 A 
ATOM     38  C   UNL A   1      33.824  33.762  33.157  1.00  0.00     0.016 A 
ATOM     39  C   UNL A   1      36.343  35.016  33.111  1.00  0.00     0.010 A 
ATOM     40  C   UNL A   1      34.940  33.110  33.682  1.00  0.00     0.010 A 
ATOM     41  C   UNL A   1      36.203  33.727  33.634  1.00  0.00    -0.014 A 
BRANCH  41  42
ATOM     42  C   UNL A   1      37.423  32.929  33.867  1.00  0.00     0.031 A 
ATOM     43  C   UNL A   1      38.180  33.185  35.138  1.00  0.00     0.074 A 
ATOM     44  C   UNL A   1      37.822  31.981  33.003  1.00  0.00     0.049 A 
ATOM     45  N   UNL A   1      39.297  32.658  35.563  1.00  0.00    -0.248 NA
ATOM     46  C   UNL A   1      37.593  34.178  36.055  1.00  0.00     0.031 C 
ATOM     47  C   UNL A   1      37.128  31.608  31.775  1.00  0.00     0.029 A 
ATOM     48  N   UNL A   1      38.922  31.163  33.036  1.00  0.00    -0.354 N 
ATOM     49  C   UNL A   1      39.547  33.257  36.791  1.00  0.00     0.074 A 
ATOM     50  C   UNL A   1      38.486  34.209  37.031  1.00  0.00     0.031 C 
ATOM     51  C   UNL A   1      37.832  30.645  31.155  1.00  0.00     0.029 A 
ATOM     52  C   UNL A   1      39.041  30.360  31.930  1.00  0.00     0.049 A 
ATOM     53  H   UNL A   1      39.565  31.154  33.782  1.00  0.00     0.167 HD
ATOM     54  C   UNL A   1      40.571  33.028  37.643  1.00  0.00     0.037 A 
ATOM     55  C   UNL A   1      40.031  29.518  31.579  1.00  0.00     0.037 A 
ATOM     56  C   UNL A   1      41.629  32.090  37.389  1.00  0.00     0.049 A 
ATOM     57  C   UNL A   1      41.212  29.350  32.505  1.00  0.00     0.074 A 
ATOM     58  C   UNL A   1      42.713  31.776  38.187  1.00  0.00     0.029 A 
ATOM     59  N   UNL A   1      41.740  31.322  36.238  1.00  0.00    -0.354 N 
ATOM     60  N   UNL A   1      41.438  29.901  33.675  1.00  0.00    -0.248 NA
ATOM     61  C   UNL A   1      42.275  28.438  32.063  1.00  0.00     0.031 C 
ATOM     62  C   UNL A   1      43.515  30.866  37.491  1.00  0.00     0.029 A 
ATOM     63  C   UNL A   1      42.893  30.557  36.292  1.00  0.00     0.049 A 
ATOM     64  H   UNL A   1      41.094  31.322  35.494  1.00  0.00     0.167 HD
ATOM     65  C   UNL A   1      42.645  29.377  34.121  1.00  0.00     0.074 A 
ATOM     66  C   UNL A   1      43.098  28.454  33.102  1.00  0.00     0.031 C 
ATOM     67  C   UNL A   1      43.319  29.633  35.270  1.00  0.00     0.037 A 
BRANCH  54  68
ATOM     68  C   UNL A   1      40.612  33.837  38.906  1.00  0.00     0.064 A 
ATOM     69  C   UNL A   1      39.935  33.436  40.068  1.00  0.00     0.173 A 
ATOM     70  C   UNL A   1      41.358  35.025  38.959  1.00  0.00     0.173 A 
ATOM     71  F   UNL A   1      39.190  32.320  40.063  1.00  0.00    -0.203 F 
ATOM     72  C   UNL A   1      39.983  34.206  41.227  1.00  0.00     0.198 A 
ATOM     73  C   UNL A   1      41.432  35.774  40.129  1.00  0.00     0.198 A 
ATOM     74  F   UNL A   1      42.022  35.456  37.875  1.00  0.00    -0.203 F 
ATOM     75  F   UNL A   1      39.286  33.831  42.308  1.00  0.00    -0.200 F 
ATOM     76  C   UNL A   1      40.739  35.368  41.260  1.00  0.00     0.200 A 
ATOM     77  F   UNL A   1      42.173  36.891  40.163  1.00  0.00    -0.200 F 
ATOM     78  F   UNL A   1      40.793  36.103  42.379  1.00  0.00    -0.200 F 
ENDBRANCH  54  68
BRANCH  55  79
ATOM     79  C   UNL A   1      39.968  28.784  30.289  1.00  0.00     0.064 A 
ATOM     80  C   UNL A   1      39.387  27.511  30.205  1.00  0.00     0.173 A 
ATOM     81  C   UNL A   1      40.519  29.325  29.116  1.00  0.00     0.173 A 
ATOM     82  F   UNL A   1      38.869  26.938  31.302  1.00  0.00    -0.203 F 
ATOM     83  C   UNL A   1      39.382  26.797  29.008  1.00  0.00     0.198 A 
ATOM     84  C   UNL A   1      40.484  28.624  27.912  1.00  0.00     0.198 A 
ATOM     85  F   UNL A   1      41.091  30.537  29.140  1.00  0.00    -0.203 F 
ATOM     86  F   UNL A   1      38.870  25.560  28.971  1.00  0.00    -0.200 F 
ATOM     87  C   UNL A   1      39.925  27.357  27.862  1.00  0.00     0.200 A 
ATOM     88  F   UNL A   1      40.999  29.174  26.805  1.00  0.00    -0.200 F 
ATOM     89  F   UNL A   1      39.919  26.670  26.710  1.00  0.00    -0.200 F 
ENDBRANCH  55  79
BRANCH  67  90
ATOM     90  C   UNL A   1      44.590  28.870  35.516  1.00  0.00     0.064 A 
ATOM     91  C   UNL A   1      44.596  27.628  36.167  1.00  0.00     0.173 A 
ATOM     92  C   UNL A   1      45.816  29.370  35.046  1.00  0.00     0.173 A 
ATOM     93  F   UNL A   1      43.454  27.110  36.646  1.00  0.00    -0.203 F 
ATOM     94  C   UNL A   1      45.784  26.930  36.366  1.00  0.00     0.198 A 
ATOM     95  C   UNL A   1      46.996  28.651  35.213  1.00  0.00     0.198 A 
ATOM     96  F   UNL A   1      45.866  30.548  34.407  1.00  0.00    -0.203 F 
ATOM     97  F   UNL A   1      45.773  25.770  37.038  1.00  0.00    -0.200 F 
ATOM     98  C   UNL A   1      46.981  27.437  35.880  1.00  0.00     0.200 A 
ATOM     99  F   UNL A   1      48.147  29.133  34.726  1.00  0.00    -0.200 F 
ATOM    100  F   UNL A   1      48.122  26.757  36.063  1.00  0.00    -0.200 F 
ENDBRANCH  67  90
ENDBRANCH  41  42
ENDBRANCH  34  36
ENDBRANCH  33  34
ENDBRANCH  32  33
ENDBRANCH  31  32
ENDBRANCH  30  31
ENDBRANCH  29  30
ENDBRANCH   1  29
TORSDOF 21
ENDMDL
