MODEL 1
REMARK VINA RESULT:      -9.2      0.000      0.000
REMARK SMILES Cc1ccc(S(=O)(=O)n2cc(C(=O)C(=O)N[C@@H](Cc3c[nH]c4ccccc34)C(=O)NCC(=O)OCCOCCOCCOCCOC(=O)c3ccc(-c4c5nc(c(-c6c(F)c(F)c(F)c(F)c6F)c6ccc([nH]6)c(-c6c(F)c(F)c(F)c(F)c6F)c6nc(c(-c7c(F)c(F)c(F)c(F)c7F)c7ccc4[nH]7)C=C6)C=C5)cc3)c3ccccc32)cc1
REMARK SMILES IDX 38 1 37 2 36 3 35 4 34 5 32 6 33 7 31 8 30 9 28 10 29 11
REMARK SMILES IDX 17 13 16 14 14 15 15 16 12 18 13 19 11 20 9 21 10 22 117 23
REMARK SMILES IDX 112 24 116 25 113 26 115 27 114 28 6 29 7 30 8 31 5 32 1 33
REMARK SMILES IDX 2 34 3 35 119 36 4 37 118 38 18 39 19 40 20 41 27 42 21 43
REMARK SMILES IDX 22 44 26 45 23 47 25 48 24 49 39 50 40 51 41 52 42 53 43 54
REMARK SMILES IDX 44 55 45 56 46 57 47 58 48 59 49 60 50 61 111 62 51 63
REMARK SMILES IDX 110 64 52 65 53 66 54 67 104 68 55 69 109 70 103 71 105 72
REMARK SMILES IDX 56 73 108 74 102 75 101 76 57 78 89 79 69 80 88 81 70 82
REMARK SMILES IDX 73 83 87 84 106 85 71 86 72 87 86 89 107 90 74 91 58 92
REMARK SMILES IDX 59 93 67 94 60 95 61 96 65 97 68 98 62 99 63 100 66 101
REMARK SMILES IDX 64 102 90 103 91 104 99 105 92 106 93 107 97 108 100 109
REMARK SMILES IDX 94 110 95 111 98 112 96 113 75 114 76 115 84 116 77 117
REMARK SMILES IDX 78 118 82 119 85 120 79 121 80 122 83 123 81 124
REMARK H PARENT 30 12 16 17 21 46 105 77 73 88
REMARK Flexibility Score: inf
ROOT
ATOM      1  C   UNL A   1      36.895  33.408  32.999  1.00  0.00     0.188 C 
ENDROOT
BRANCH   1   2
ATOM      2  O   UNL A   1      37.574  34.106  31.837  1.00  0.00    -0.376 OA
BRANCH   2   3
ATOM      3  C   UNL A   1      37.354  34.109  30.241  1.00  0.00     0.202 C 
BRANCH   3   4
ATOM      4  C   UNL A   1      37.255  32.900  28.830  1.00  0.00     0.261 C 
BRANCH   4   5
ATOM      5  O   UNL A   1      36.127  31.643  28.409  1.00  0.00    -0.462 OA
BRANCH   5   6
ATOM      6  C   UNL A   1      35.192  31.047  27.512  1.00  0.00     0.325 C 
ATOM      7  O   UNL A   1      35.445  30.323  26.535  1.00  0.00    -0.250 OA
BRANCH   6   8
ATOM      8  C   UNL A   1      33.605  30.976  27.925  1.00  0.00     0.238 C 
BRANCH   8   9
ATOM      9  N   UNL A   1      32.776  29.668  27.673  1.00  0.00    -0.343 N 
ATOM     10  C   UNL A   1      31.770  29.225  26.821  1.00  0.00     0.243 C 
ATOM     11  O   UNL A   1      30.987  28.379  27.291  1.00  0.00    -0.273 OA
ATOM     12  H   UNL A   1      33.044  28.957  28.298  1.00  0.00     0.164 HD
BRANCH  10  13
ATOM     13  C   UNL A   1      31.653  29.547  25.276  1.00  0.00     0.176 C 
BRANCH  13  14
ATOM     14  N   UNL A   1      32.834  29.242  24.416  1.00  0.00    -0.337 N 
ATOM     15  C   UNL A   1      33.863  28.292  24.453  1.00  0.00     0.293 C 
ATOM     16  O   UNL A   1      34.730  28.318  23.579  1.00  0.00    -0.265 OA
ATOM     17  H   UNL A   1      32.906  29.849  23.644  1.00  0.00     0.164 HD
BRANCH  15  18
ATOM     18  C   UNL A   1      33.961  27.186  25.524  1.00  0.00     0.252 C 
ATOM     19  O   UNL A   1      34.809  27.367  26.397  1.00  0.00    -0.283 OA
BRANCH  18  20
ATOM     20  C   UNL A   1      33.206  25.893  25.446  1.00  0.00     0.054 A 
ATOM     21  N   UNL A   1      31.757  24.124  25.577  1.00  0.00    -0.240 N 
ATOM     22  C   UNL A   1      32.267  25.238  26.275  1.00  0.00     0.117 A 
ATOM     23  C   UNL A   1      32.305  24.181  24.282  1.00  0.00     0.065 A 
ATOM     24  C   UNL A   1      33.447  24.967  24.385  1.00  0.00     0.012 A 
ATOM     25  C   UNL A   1      32.054  23.408  23.132  1.00  0.00     0.028 A 
ATOM     26  C   UNL A   1      34.478  24.780  23.443  1.00  0.00     0.011 A 
ATOM     27  C   UNL A   1      33.105  23.199  22.243  1.00  0.00     0.002 A 
ATOM     28  C   UNL A   1      34.325  23.833  22.427  1.00  0.00     0.001 A 
BRANCH  21  29
ATOM     29  S   UNL A   1      31.606  22.450  26.126  1.00  0.00     0.268 S 
ATOM     30  O   UNL A   1      30.201  22.158  25.919  1.00  0.00    -0.201 OA
ATOM     31  O   UNL A   1      32.159  22.554  27.477  1.00  0.00    -0.201 OA
BRANCH  29  32
ATOM     32  C   UNL A   1      32.461  21.001  25.586  1.00  0.00     0.088 A 
ATOM     33  C   UNL A   1      35.375  18.046  24.306  1.00  0.00     0.044 C 
ATOM     34  C   UNL A   1      34.343  19.032  24.781  1.00  0.00    -0.051 A 
ATOM     35  C   UNL A   1      34.791  20.285  25.167  1.00  0.00     0.005 A 
ATOM     36  C   UNL A   1      32.954  18.769  24.818  1.00  0.00     0.005 A 
ATOM     37  C   UNL A   1      33.866  21.235  25.573  1.00  0.00     0.022 A 
ATOM     38  C   UNL A   1      32.000  19.750  25.218  1.00  0.00     0.022 A 
ENDBRANCH  29  32
ENDBRANCH  21  29
ENDBRANCH  18  20
ENDBRANCH  15  18
ENDBRANCH  13  14
BRANCH  13  39
ATOM     39  C   UNL A   1      30.318  28.824  24.839  1.00  0.00     0.072 C 
BRANCH  39  40
ATOM     40  C   UNL A   1      29.962  29.137  23.401  1.00  0.00    -0.020 A 
ATOM     41  C   UNL A   1      30.735  28.881  22.279  1.00  0.00     0.087 A 
ATOM     42  C   UNL A   1      28.982  30.101  23.022  1.00  0.00     0.003 A 
ATOM     43  N   UNL A   1      30.360  29.770  21.299  1.00  0.00    -0.361 N 
ATOM     44  C   UNL A   1      29.365  30.595  21.776  1.00  0.00     0.046 A 
ATOM     45  C   UNL A   1      27.984  30.765  23.757  1.00  0.00     0.010 A 
ATOM     46  H   UNL A   1      30.743  29.812  20.393  1.00  0.00     0.166 HD
ATOM     47  C   UNL A   1      28.859  31.793  21.267  1.00  0.00     0.026 A 
ATOM     48  C   UNL A   1      27.535  32.003  23.309  1.00  0.00     0.001 A 
ATOM     49  C   UNL A   1      27.966  32.500  22.082  1.00  0.00     0.002 A 
ENDBRANCH  39  40
ENDBRANCH  13  39
ENDBRANCH  10  13
ENDBRANCH   8   9
ENDBRANCH   6   8
ENDBRANCH   5   6
ENDBRANCH   4   5
ENDBRANCH   3   4
ENDBRANCH   2   3
ENDBRANCH   1   2
BRANCH   1  50
ATOM     50  C   UNL A   1      37.422  32.006  33.502  1.00  0.00     0.188 C 
BRANCH  50  51
ATOM     51  O   UNL A   1      36.763  30.974  32.807  1.00  0.00    -0.377 OA
BRANCH  51  52
ATOM     52  C   UNL A   1      37.430  29.721  32.952  1.00  0.00     0.188 C 
BRANCH  52  53
ATOM     53  C   UNL A   1      38.259  29.262  31.731  1.00  0.00     0.188 C 
BRANCH  53  54
ATOM     54  O   UNL A   1      37.383  28.792  30.701  1.00  0.00    -0.376 OA
BRANCH  54  55
ATOM     55  C   UNL A   1      37.568  29.187  29.360  1.00  0.00     0.202 C 
BRANCH  55  56
ATOM     56  C   UNL A   1      39.027  29.219  28.898  1.00  0.00     0.261 C 
BRANCH  56  57
ATOM     57  O   UNL A   1      39.230  28.220  27.880  1.00  0.00    -0.460 OA
BRANCH  57  58
ATOM     58  C   UNL A   1      39.800  27.040  28.248  1.00  0.00     0.338 C 
ATOM     59  O   UNL A   1      39.431  26.314  29.146  1.00  0.00    -0.246 OA
BRANCH  58  60
ATOM     60  C   UNL A   1      41.124  26.943  27.549  1.00  0.00     0.060 A 
ATOM     61  C   UNL A   1      42.275  26.595  28.255  1.00  0.00     0.016 A 
ATOM     62  C   UNL A   1      41.273  27.567  26.309  1.00  0.00     0.016 A 
ATOM     63  C   UNL A   1      43.515  27.103  27.825  1.00  0.00     0.010 A 
ATOM     64  C   UNL A   1      42.455  28.243  26.035  1.00  0.00     0.010 A 
ATOM     65  C   UNL A   1      43.539  28.180  26.922  1.00  0.00    -0.014 A 
BRANCH  65  66
ATOM     66  C   UNL A   1      44.595  29.349  26.786  1.00  0.00     0.031 A 
ATOM     67  C   UNL A   1      45.924  28.512  26.573  1.00  0.00     0.074 A 
ATOM     68  C   UNL A   1      44.376  30.788  27.065  1.00  0.00     0.049 A 
ATOM     69  N   UNL A   1      47.013  28.508  27.301  1.00  0.00    -0.248 NA
ATOM     70  C   UNL A   1      45.913  27.336  25.680  1.00  0.00     0.031 C 
ATOM     71  C   UNL A   1      44.737  32.050  26.414  1.00  0.00     0.029 A 
ATOM     72  N   UNL A   1      44.056  31.520  28.323  1.00  0.00    -0.354 N 
ATOM     73  C   UNL A   1      47.912  27.627  26.748  1.00  0.00     0.074 A 
ATOM     74  C   UNL A   1      47.097  26.775  25.922  1.00  0.00     0.031 C 
ATOM     75  C   UNL A   1      44.925  33.072  27.334  1.00  0.00     0.029 A 
ATOM     76  C   UNL A   1      44.718  32.664  28.668  1.00  0.00     0.049 A 
ATOM     77  H   UNL A   1      43.352  31.172  28.917  1.00  0.00     0.167 HD
ATOM     78  C   UNL A   1      49.273  27.780  26.839  1.00  0.00     0.037 A 
ATOM     79  C   UNL A   1      45.089  33.164  29.894  1.00  0.00     0.037 A 
ATOM     80  C   UNL A   1      49.690  29.035  27.499  1.00  0.00     0.049 A 
ATOM     81  C   UNL A   1      46.580  33.021  30.355  1.00  0.00     0.074 A 
ATOM     82  C   UNL A   1      50.370  30.140  27.009  1.00  0.00     0.029 A 
ATOM     83  N   UNL A   1      49.265  29.413  28.787  1.00  0.00    -0.354 N 
ATOM     84  N   UNL A   1      47.529  32.316  29.788  1.00  0.00    -0.248 NA
ATOM     85  C   UNL A   1      47.085  33.652  31.583  1.00  0.00     0.031 C 
ATOM     86  C   UNL A   1      50.460  31.113  28.019  1.00  0.00     0.029 A 
ATOM     87  C   UNL A   1      49.742  30.682  29.113  1.00  0.00     0.049 A 
ATOM     88  H   UNL A   1      48.708  28.856  29.378  1.00  0.00     0.167 HD
ATOM     89  C   UNL A   1      48.629  32.200  30.625  1.00  0.00     0.074 A 
ATOM     90  C   UNL A   1      48.341  33.174  31.660  1.00  0.00     0.031 C 
ATOM     91  C   UNL A   1      49.671  31.312  30.432  1.00  0.00     0.037 A 
BRANCH  78  92
ATOM     92  C   UNL A   1      50.179  26.956  25.895  1.00  0.00     0.064 A 
ATOM     93  C   UNL A   1      50.979  25.881  26.333  1.00  0.00     0.173 A 
ATOM     94  C   UNL A   1      50.381  27.279  24.537  1.00  0.00     0.173 A 
ATOM     95  F   UNL A   1      50.710  25.214  27.458  1.00  0.00    -0.203 F 
ATOM     96  C   UNL A   1      52.069  25.398  25.598  1.00  0.00     0.198 A 
ATOM     97  C   UNL A   1      51.494  26.835  23.808  1.00  0.00     0.198 A 
ATOM     98  F   UNL A   1      49.478  28.013  23.869  1.00  0.00    -0.203 F 
ATOM     99  F   UNL A   1      52.830  24.417  26.106  1.00  0.00    -0.200 F 
ATOM    100  C   UNL A   1      52.368  25.924  24.362  1.00  0.00     0.200 A 
ATOM    101  F   UNL A   1      51.718  27.306  22.573  1.00  0.00    -0.200 F 
ATOM    102  F   UNL A   1      53.452  25.515  23.687  1.00  0.00    -0.200 F 
ENDBRANCH  78  92
BRANCH  79 103
ATOM    103  C   UNL A   1      43.952  33.130  30.890  1.00  0.00     0.064 A 
ATOM    104  C   UNL A   1      42.892  34.016  30.627  1.00  0.00     0.173 A 
ATOM    105  C   UNL A   1      43.685  32.102  31.801  1.00  0.00     0.173 A 
ATOM    106  F   UNL A   1      43.132  35.128  29.925  1.00  0.00    -0.203 F 
ATOM    107  C   UNL A   1      41.582  33.739  31.009  1.00  0.00     0.198 A 
ATOM    108  C   UNL A   1      42.360  31.805  32.171  1.00  0.00     0.198 A 
ATOM    109  F   UNL A   1      44.661  31.268  32.192  1.00  0.00    -0.203 F 
ATOM    110  F   UNL A   1      40.587  34.551  30.626  1.00  0.00    -0.200 F 
ATOM    111  C   UNL A   1      41.307  32.590  31.724  1.00  0.00     0.200 A 
ATOM    112  F   UNL A   1      42.097  30.693  32.875  1.00  0.00    -0.200 F 
ATOM    113  F   UNL A   1      40.038  32.238  31.970  1.00  0.00    -0.200 F 
ENDBRANCH  79 103
BRANCH  91 114
ATOM    114  C   UNL A   1      50.920  31.138  31.329  1.00  0.00     0.064 A 
ATOM    115  C   UNL A   1      52.195  31.649  31.052  1.00  0.00     0.173 A 
ATOM    116  C   UNL A   1      50.850  30.422  32.563  1.00  0.00     0.173 A 
ATOM    117  F   UNL A   1      52.388  32.542  30.074  1.00  0.00    -0.203 F 
ATOM    118  C   UNL A   1      53.326  31.317  31.819  1.00  0.00     0.198 A 
ATOM    119  C   UNL A   1      51.970  30.108  33.339  1.00  0.00     0.198 A 
ATOM    120  F   UNL A   1      49.687  30.021  33.095  1.00  0.00    -0.203 F 
ATOM    121  F   UNL A   1      54.530  31.785  31.458  1.00  0.00    -0.200 F 
ATOM    122  C   UNL A   1      53.218  30.526  32.945  1.00  0.00     0.200 A 
ATOM    123  F   UNL A   1      51.822  29.405  34.472  1.00  0.00    -0.200 F 
ATOM    124  F   UNL A   1      54.299  30.208  33.669  1.00  0.00    -0.200 F 
ENDBRANCH  91 114
ENDBRANCH  65  66
ENDBRANCH  58  60
ENDBRANCH  57  58
ENDBRANCH  56  57
ENDBRANCH  55  56
ENDBRANCH  54  55
ENDBRANCH  53  54
ENDBRANCH  52  53
ENDBRANCH  51  52
ENDBRANCH  50  51
ENDBRANCH   1  50
TORSDOF 29
ENDMDL
MODEL 2
REMARK VINA RESULT:      -8.6      6.724     14.684
REMARK SMILES Cc1ccc(S(=O)(=O)n2cc(C(=O)C(=O)N[C@@H](Cc3c[nH]c4ccccc34)C(=O)NCC(=O)OCCOCCOCCOCCOC(=O)c3ccc(-c4c5nc(c(-c6c(F)c(F)c(F)c(F)c6F)c6ccc([nH]6)c(-c6c(F)c(F)c(F)c(F)c6F)c6nc(c(-c7c(F)c(F)c(F)c(F)c7F)c7ccc4[nH]7)C=C6)C=C5)cc3)c3ccccc32)cc1
REMARK SMILES IDX 38 1 37 2 36 3 35 4 34 5 32 6 33 7 31 8 30 9 28 10 29 11
REMARK SMILES IDX 17 13 16 14 14 15 15 16 12 18 13 19 11 20 9 21 10 22 117 23
REMARK SMILES IDX 112 24 116 25 113 26 115 27 114 28 6 29 7 30 8 31 5 32 1 33
REMARK SMILES IDX 2 34 3 35 119 36 4 37 118 38 18 39 19 40 20 41 27 42 21 43
REMARK SMILES IDX 22 44 26 45 23 47 25 48 24 49 39 50 40 51 41 52 42 53 43 54
REMARK SMILES IDX 44 55 45 56 46 57 47 58 48 59 49 60 50 61 111 62 51 63
REMARK SMILES IDX 110 64 52 65 53 66 54 67 104 68 55 69 109 70 103 71 105 72
REMARK SMILES IDX 56 73 108 74 102 75 101 76 57 78 89 79 69 80 88 81 70 82
REMARK SMILES IDX 73 83 87 84 106 85 71 86 72 87 86 89 107 90 74 91 58 92
REMARK SMILES IDX 59 93 67 94 60 95 61 96 65 97 68 98 62 99 63 100 66 101
REMARK SMILES IDX 64 102 90 103 91 104 99 105 92 106 93 107 97 108 100 109
REMARK SMILES IDX 94 110 95 111 98 112 96 113 75 114 76 115 84 116 77 117
REMARK SMILES IDX 78 118 82 119 85 120 79 121 80 122 83 123 81 124
REMARK H PARENT 30 12 16 17 21 46 105 77 73 88
REMARK Flexibility Score: inf
ROOT
ATOM      1  C   UNL A   1      45.212  31.217  27.281  1.00  0.00     0.188 C 
ENDROOT
BRANCH   1   2
ATOM      2  O   UNL A   1      44.680  31.603  25.916  1.00  0.00    -0.376 OA
BRANCH   2   3
ATOM      3  C   UNL A   1      44.108  32.965  25.273  1.00  0.00     0.202 C 
BRANCH   3   4
ATOM      4  C   UNL A   1      43.719  34.711  25.786  1.00  0.00     0.261 C 
BRANCH   4   5
ATOM      5  O   UNL A   1      43.771  35.549  27.311  1.00  0.00    -0.462 OA
BRANCH   5   6
ATOM      6  C   UNL A   1      43.663  36.736  28.094  1.00  0.00     0.325 C 
ATOM      7  O   UNL A   1      42.660  37.147  28.701  1.00  0.00    -0.250 OA
BRANCH   6   8
ATOM      8  C   UNL A   1      45.024  37.519  28.569  1.00  0.00     0.238 C 
BRANCH   8   9
ATOM      9  N   UNL A   1      46.155  37.849  27.533  1.00  0.00    -0.343 N 
ATOM     10  C   UNL A   1      46.789  38.971  27.010  1.00  0.00     0.243 C 
ATOM     11  O   UNL A   1      47.187  38.877  25.834  1.00  0.00    -0.273 OA
ATOM     12  H   UNL A   1      46.521  37.025  27.139  1.00  0.00     0.164 HD
BRANCH  10  13
ATOM     13  C   UNL A   1      47.217  40.260  27.823  1.00  0.00     0.176 C 
BRANCH  13  14
ATOM     14  N   UNL A   1      48.666  40.618  27.837  1.00  0.00    -0.337 N 
ATOM     15  C   UNL A   1      49.849  39.936  28.149  1.00  0.00     0.293 C 
ATOM     16  O   UNL A   1      50.920  40.537  28.080  1.00  0.00    -0.265 OA
ATOM     17  H   UNL A   1      48.827  41.549  27.562  1.00  0.00     0.164 HD
BRANCH  15  18
ATOM     18  C   UNL A   1      49.891  38.447  28.554  1.00  0.00     0.252 C 
ATOM     19  O   UNL A   1      49.972  38.230  29.763  1.00  0.00    -0.283 OA
BRANCH  18  20
ATOM     20  C   UNL A   1      49.989  37.325  27.566  1.00  0.00     0.054 A 
ATOM     21  N   UNL A   1      49.707  35.573  26.118  1.00  0.00    -0.240 N 
ATOM     22  C   UNL A   1      49.247  36.148  27.320  1.00  0.00     0.117 A 
ATOM     23  C   UNL A   1      50.647  36.472  25.582  1.00  0.00     0.065 A 
ATOM     24  C   UNL A   1      51.081  37.252  26.647  1.00  0.00     0.012 A 
ATOM     25  C   UNL A   1      51.330  36.479  24.349  1.00  0.00     0.028 A 
ATOM     26  C   UNL A   1      52.358  37.845  26.570  1.00  0.00     0.011 A 
ATOM     27  C   UNL A   1      52.608  37.027  24.313  1.00  0.00     0.002 A 
ATOM     28  C   UNL A   1      53.142  37.654  25.430  1.00  0.00     0.001 A 
BRANCH  21  29
ATOM     29  S   UNL A   1      50.184  33.899  25.803  1.00  0.00     0.268 S 
ATOM     30  O   UNL A   1      50.780  33.965  24.484  1.00  0.00    -0.201 OA
ATOM     31  O   UNL A   1      48.911  33.209  26.019  1.00  0.00    -0.201 OA
BRANCH  29  32
ATOM     32  C   UNL A   1      51.240  32.831  26.733  1.00  0.00     0.088 A 
ATOM     33  C   UNL A   1      53.336  30.592  29.808  1.00  0.00     0.044 C 
ATOM     34  C   UNL A   1      52.607  31.322  28.713  1.00  0.00    -0.051 A 
ATOM     35  C   UNL A   1      51.548  32.133  29.085  1.00  0.00     0.005 A 
ATOM     36  C   UNL A   1      52.964  31.259  27.346  1.00  0.00     0.005 A 
ATOM     37  C   UNL A   1      50.877  32.854  28.110  1.00  0.00     0.022 A 
ATOM     38  C   UNL A   1      52.286  32.014  26.344  1.00  0.00     0.022 A 
ENDBRANCH  29  32
ENDBRANCH  21  29
ENDBRANCH  18  20
ENDBRANCH  15  18
ENDBRANCH  13  14
BRANCH  13  39
ATOM     39  C   UNL A   1      46.265  41.391  27.266  1.00  0.00     0.072 C 
BRANCH  39  40
ATOM     40  C   UNL A   1      44.929  41.393  27.978  1.00  0.00    -0.020 A 
ATOM     41  C   UNL A   1      44.685  41.013  29.289  1.00  0.00     0.087 A 
ATOM     42  C   UNL A   1      43.674  41.390  27.302  1.00  0.00     0.003 A 
ATOM     43  N   UNL A   1      43.368  40.627  29.376  1.00  0.00    -0.361 N 
ATOM     44  C   UNL A   1      42.767  40.747  28.142  1.00  0.00     0.046 A 
ATOM     45  C   UNL A   1      43.329  41.631  25.960  1.00  0.00     0.010 A 
ATOM     46  H   UNL A   1      42.922  40.313  30.195  1.00  0.00     0.166 HD
ATOM     47  C   UNL A   1      41.552  40.242  27.673  1.00  0.00     0.026 A 
ATOM     48  C   UNL A   1      42.167  41.058  25.454  1.00  0.00     0.001 A 
ATOM     49  C   UNL A   1      41.296  40.380  26.303  1.00  0.00     0.002 A 
ENDBRANCH  39  40
ENDBRANCH  13  39
ENDBRANCH  10  13
ENDBRANCH   8   9
ENDBRANCH   6   8
ENDBRANCH   5   6
ENDBRANCH   4   5
ENDBRANCH   3   4
ENDBRANCH   2   3
ENDBRANCH   1   2
BRANCH   1  50
ATOM     50  C   UNL A   1      45.274  29.698  27.711  1.00  0.00     0.188 C 
BRANCH  50  51
ATOM     51  O   UNL A   1      44.362  28.950  26.942  1.00  0.00    -0.377 OA
BRANCH  51  52
ATOM     52  C   UNL A   1      45.015  27.949  26.162  1.00  0.00     0.188 C 
BRANCH  52  53
ATOM     53  C   UNL A   1      45.757  26.857  26.966  1.00  0.00     0.188 C 
BRANCH  53  54
ATOM     54  O   UNL A   1      44.813  25.914  27.486  1.00  0.00    -0.376 OA
BRANCH  54  55
ATOM     55  C   UNL A   1      44.498  25.892  28.861  1.00  0.00     0.202 C 
BRANCH  55  56
ATOM     56  C   UNL A   1      43.024  25.620  29.176  1.00  0.00     0.261 C 
BRANCH  56  57
ATOM     57  O   UNL A   1      42.199  26.203  28.149  1.00  0.00    -0.460 OA
BRANCH  57  58
ATOM     58  C   UNL A   1      40.921  25.753  28.027  1.00  0.00     0.338 C 
ATOM     59  O   UNL A   1      40.579  24.647  27.668  1.00  0.00    -0.246 OA
BRANCH  58  60
ATOM     60  C   UNL A   1      40.013  26.944  28.130  1.00  0.00     0.060 A 
ATOM     61  C   UNL A   1      40.176  28.036  27.278  1.00  0.00     0.016 A 
ATOM     62  C   UNL A   1      39.278  27.126  29.303  1.00  0.00     0.016 A 
ATOM     63  C   UNL A   1      39.823  29.317  27.742  1.00  0.00     0.010 A 
ATOM     64  C   UNL A   1      39.154  28.406  29.826  1.00  0.00     0.010 A 
ATOM     65  C   UNL A   1      39.628  29.519  29.119  1.00  0.00    -0.014 A 
BRANCH  65  66
ATOM     66  C   UNL A   1      39.902  30.810  29.990  1.00  0.00     0.031 A 
ATOM     67  C   UNL A   1      40.768  30.187  31.162  1.00  0.00     0.074 A 
ATOM     68  C   UNL A   1      39.267  32.141  29.840  1.00  0.00     0.049 A 
ATOM     69  N   UNL A   1      40.520  30.182  32.448  1.00  0.00    -0.248 NA
ATOM     70  C   UNL A   1      41.817  29.195  30.849  1.00  0.00     0.031 C 
ATOM     71  C   UNL A   1      39.726  33.532  29.868  1.00  0.00     0.029 A 
ATOM     72  N   UNL A   1      37.858  32.595  30.009  1.00  0.00    -0.354 N 
ATOM     73  C   UNL A   1      41.541  29.525  33.094  1.00  0.00     0.074 A 
ATOM     74  C   UNL A   1      42.159  28.743  32.055  1.00  0.00     0.031 C 
ATOM     75  C   UNL A   1      38.752  34.389  30.360  1.00  0.00     0.029 A 
ATOM     76  C   UNL A   1      37.555  33.730  30.707  1.00  0.00     0.049 A 
ATOM     77  H   UNL A   1      37.130  32.067  29.608  1.00  0.00     0.167 HD
ATOM     78  C   UNL A   1      41.936  29.818  34.374  1.00  0.00     0.037 A 
ATOM     79  C   UNL A   1      36.482  34.044  31.508  1.00  0.00     0.037 A 
ATOM     80  C   UNL A   1      41.235  30.976  34.966  1.00  0.00     0.049 A 
ATOM     81  C   UNL A   1      36.655  33.998  33.064  1.00  0.00     0.074 A 
ATOM     82  C   UNL A   1      41.701  32.223  35.356  1.00  0.00     0.029 A 
ATOM     83  N   UNL A   1      39.832  31.066  35.064  1.00  0.00    -0.354 N 
ATOM     84  N   UNL A   1      37.670  33.522  33.744  1.00  0.00    -0.248 NA
ATOM     85  C   UNL A   1      35.603  34.456  33.984  1.00  0.00     0.031 C 
ATOM     86  C   UNL A   1      40.618  33.005  35.796  1.00  0.00     0.029 A 
ATOM     87  C   UNL A   1      39.452  32.305  35.580  1.00  0.00     0.049 A 
ATOM     88  H   UNL A   1      39.207  30.353  34.804  1.00  0.00     0.167 HD
ATOM     89  C   UNL A   1      37.351  33.389  35.087  1.00  0.00     0.074 A 
ATOM     90  C   UNL A   1      36.104  34.123  35.188  1.00  0.00     0.031 C 
ATOM     91  C   UNL A   1      38.102  32.678  36.005  1.00  0.00     0.037 A 
BRANCH  78  92
ATOM     92  C   UNL A   1      43.301  29.288  34.871  1.00  0.00     0.064 A 
ATOM     93  C   UNL A   1      43.439  28.132  35.667  1.00  0.00     0.173 A 
ATOM     94  C   UNL A   1      44.518  29.974  34.678  1.00  0.00     0.173 A 
ATOM     95  F   UNL A   1      42.505  27.178  35.695  1.00  0.00    -0.203 F 
ATOM     96  C   UNL A   1      44.583  27.870  36.432  1.00  0.00     0.198 A 
ATOM     97  C   UNL A   1      45.652  29.748  35.470  1.00  0.00     0.198 A 
ATOM     98  F   UNL A   1      44.646  30.867  33.684  1.00  0.00    -0.203 F 
ATOM     99  F   UNL A   1      44.620  26.785  37.220  1.00  0.00    -0.200 F 
ATOM    100  C   UNL A   1      45.666  28.718  36.386  1.00  0.00     0.200 A 
ATOM    101  F   UNL A   1      46.725  30.544  35.348  1.00  0.00    -0.200 F 
ATOM    102  F   UNL A   1      46.732  28.510  37.170  1.00  0.00    -0.200 F 
ENDBRANCH  78  92
BRANCH  79 103
ATOM    103  C   UNL A   1      35.163  33.700  30.853  1.00  0.00     0.064 A 
ATOM    104  C   UNL A   1      34.325  34.794  30.573  1.00  0.00     0.173 A 
ATOM    105  C   UNL A   1      34.857  32.504  30.194  1.00  0.00     0.173 A 
ATOM    106  F   UNL A   1      34.437  35.904  31.310  1.00  0.00    -0.203 F 
ATOM    107  C   UNL A   1      33.432  34.789  29.506  1.00  0.00     0.198 A 
ATOM    108  C   UNL A   1      33.972  32.500  29.101  1.00  0.00     0.198 A 
ATOM    109  F   UNL A   1      35.537  31.380  30.472  1.00  0.00    -0.203 F 
ATOM    110  F   UNL A   1      32.745  35.900  29.203  1.00  0.00    -0.200 F 
ATOM    111  C   UNL A   1      33.308  33.659  28.723  1.00  0.00     0.200 A 
ATOM    112  F   UNL A   1      33.847  31.397  28.347  1.00  0.00    -0.200 F 
ATOM    113  F   UNL A   1      32.564  33.690  27.608  1.00  0.00    -0.200 F 
ENDBRANCH  79 103
BRANCH  91 114
ATOM    114  C   UNL A   1      37.796  32.496  37.511  1.00  0.00     0.064 A 
ATOM    115  C   UNL A   1      37.320  31.319  38.106  1.00  0.00     0.173 A 
ATOM    116  C   UNL A   1      37.998  33.561  38.441  1.00  0.00     0.173 A 
ATOM    117  F   UNL A   1      37.304  30.160  37.437  1.00  0.00    -0.203 F 
ATOM    118  C   UNL A   1      36.901  31.265  39.447  1.00  0.00     0.198 A 
ATOM    119  C   UNL A   1      37.602  33.503  39.780  1.00  0.00     0.198 A 
ATOM    120  F   UNL A   1      38.622  34.698  38.104  1.00  0.00    -0.203 F 
ATOM    121  F   UNL A   1      36.390  30.125  39.934  1.00  0.00    -0.200 F 
ATOM    122  C   UNL A   1      37.018  32.363  40.276  1.00  0.00     0.200 A 
ATOM    123  F   UNL A   1      37.802  34.560  40.582  1.00  0.00    -0.200 F 
ATOM    124  F   UNL A   1      36.611  32.308  41.551  1.00  0.00    -0.200 F 
ENDBRANCH  91 114
ENDBRANCH  65  66
ENDBRANCH  58  60
ENDBRANCH  57  58
ENDBRANCH  56  57
ENDBRANCH  55  56
ENDBRANCH  54  55
ENDBRANCH  53  54
ENDBRANCH  52  53
ENDBRANCH  51  52
ENDBRANCH  50  51
ENDBRANCH   1  50
TORSDOF 29
ENDMDL
MODEL 3
REMARK VINA RESULT:      -8.4      6.954     10.274
REMARK SMILES Cc1ccc(S(=O)(=O)n2cc(C(=O)C(=O)N[C@@H](Cc3c[nH]c4ccccc34)C(=O)NCC(=O)OCCOCCOCCOCCOC(=O)c3ccc(-c4c5nc(c(-c6c(F)c(F)c(F)c(F)c6F)c6ccc([nH]6)c(-c6c(F)c(F)c(F)c(F)c6F)c6nc(c(-c7c(F)c(F)c(F)c(F)c7F)c7ccc4[nH]7)C=C6)C=C5)cc3)c3ccccc32)cc1
REMARK SMILES IDX 38 1 37 2 36 3 35 4 34 5 32 6 33 7 31 8 30 9 28 10 29 11
REMARK SMILES IDX 17 13 16 14 14 15 15 16 12 18 13 19 11 20 9 21 10 22 117 23
REMARK SMILES IDX 112 24 116 25 113 26 115 27 114 28 6 29 7 30 8 31 5 32 1 33
REMARK SMILES IDX 2 34 3 35 119 36 4 37 118 38 18 39 19 40 20 41 27 42 21 43
REMARK SMILES IDX 22 44 26 45 23 47 25 48 24 49 39 50 40 51 41 52 42 53 43 54
REMARK SMILES IDX 44 55 45 56 46 57 47 58 48 59 49 60 50 61 111 62 51 63
REMARK SMILES IDX 110 64 52 65 53 66 54 67 104 68 55 69 109 70 103 71 105 72
REMARK SMILES IDX 56 73 108 74 102 75 101 76 57 78 89 79 69 80 88 81 70 82
REMARK SMILES IDX 73 83 87 84 106 85 71 86 72 87 86 89 107 90 74 91 58 92
REMARK SMILES IDX 59 93 67 94 60 95 61 96 65 97 68 98 62 99 63 100 66 101
REMARK SMILES IDX 64 102 90 103 91 104 99 105 92 106 93 107 97 108 100 109
REMARK SMILES IDX 94 110 95 111 98 112 96 113 75 114 76 115 84 116 77 117
REMARK SMILES IDX 78 118 82 119 85 120 79 121 80 122 83 123 81 124
REMARK H PARENT 30 12 16 17 21 46 105 77 73 88
REMARK Flexibility Score: inf
ROOT
ATOM      1  C   UNL A   1      42.856  29.216  36.014  1.00  0.00     0.188 C 
ENDROOT
BRANCH   1   2
ATOM      2  O   UNL A   1      42.665  27.852  35.382  1.00  0.00    -0.376 OA
BRANCH   2   3
ATOM      3  C   UNL A   1      43.584  26.537  35.241  1.00  0.00     0.202 C 
BRANCH   3   4
ATOM      4  C   UNL A   1      44.703  25.727  33.994  1.00  0.00     0.261 C 
BRANCH   4   5
ATOM      5  O   UNL A   1      45.650  26.333  32.665  1.00  0.00    -0.462 OA
BRANCH   5   6
ATOM      6  C   UNL A   1      45.853  27.234  31.578  1.00  0.00     0.325 C 
ATOM      7  O   UNL A   1      46.650  28.186  31.529  1.00  0.00    -0.250 OA
BRANCH   6   8
ATOM      8  C   UNL A   1      45.269  26.855  30.092  1.00  0.00     0.238 C 
BRANCH   8   9
ATOM      9  N   UNL A   1      44.238  27.798  29.378  1.00  0.00    -0.343 N 
ATOM     10  C   UNL A   1      44.031  29.161  29.197  1.00  0.00     0.243 C 
ATOM     11  O   UNL A   1      42.845  29.527  29.099  1.00  0.00    -0.273 OA
ATOM     12  H   UNL A   1      43.535  27.274  28.931  1.00  0.00     0.164 HD
BRANCH  10  13
ATOM     13  C   UNL A   1      45.152  30.241  28.911  1.00  0.00     0.176 C 
BRANCH  13  14
ATOM     14  N   UNL A   1      46.520  29.744  28.579  1.00  0.00    -0.337 N 
ATOM     15  C   UNL A   1      47.111  29.156  27.454  1.00  0.00     0.293 C 
ATOM     16  O   UNL A   1      48.296  28.827  27.506  1.00  0.00    -0.265 OA
ATOM     17  H   UNL A   1      47.153  29.856  29.325  1.00  0.00     0.164 HD
BRANCH  15  18
ATOM     18  C   UNL A   1      46.361  28.916  26.127  1.00  0.00     0.252 C 
ATOM     19  O   UNL A   1      46.608  29.718  25.227  1.00  0.00    -0.283 OA
BRANCH  18  20
ATOM     20  C   UNL A   1      45.283  27.888  25.962  1.00  0.00     0.054 A 
ATOM     21  N   UNL A   1      43.413  26.641  25.523  1.00  0.00    -0.240 N 
ATOM     22  C   UNL A   1      43.875  27.931  25.857  1.00  0.00     0.117 A 
ATOM     23  C   UNL A   1      44.558  25.852  25.311  1.00  0.00     0.065 A 
ATOM     24  C   UNL A   1      45.594  26.494  25.980  1.00  0.00     0.012 A 
ATOM     25  C   UNL A   1      44.703  24.533  24.839  1.00  0.00     0.028 A 
ATOM     26  C   UNL A   1      46.692  25.724  26.413  1.00  0.00     0.011 A 
ATOM     27  C   UNL A   1      45.770  23.779  25.321  1.00  0.00     0.002 A 
ATOM     28  C   UNL A   1      46.725  24.353  26.147  1.00  0.00     0.001 A 
BRANCH  21  29
ATOM     29  S   UNL A   1      42.125  25.697  26.280  1.00  0.00     0.268 S 
ATOM     30  O   UNL A   1      41.078  25.697  25.278  1.00  0.00    -0.201 OA
ATOM     31  O   UNL A   1      41.958  26.423  27.540  1.00  0.00    -0.201 OA
BRANCH  29  32
ATOM     32  C   UNL A   1      42.155  24.048  26.913  1.00  0.00     0.088 A 
ATOM     33  C   UNL A   1      41.766  19.775  27.592  1.00  0.00     0.044 C 
ATOM     34  C   UNL A   1      41.952  21.252  27.376  1.00  0.00    -0.051 A 
ATOM     35  C   UNL A   1      41.554  21.771  26.155  1.00  0.00     0.005 A 
ATOM     36  C   UNL A   1      42.465  22.137  28.352  1.00  0.00     0.005 A 
ATOM     37  C   UNL A   1      41.671  23.134  25.932  1.00  0.00     0.022 A 
ATOM     38  C   UNL A   1      42.570  23.542  28.132  1.00  0.00     0.022 A 
ENDBRANCH  29  32
ENDBRANCH  21  29
ENDBRANCH  18  20
ENDBRANCH  15  18
ENDBRANCH  13  14
BRANCH  13  39
ATOM     39  C   UNL A   1      44.507  31.173  27.811  1.00  0.00     0.072 C 
BRANCH  39  40
ATOM     40  C   UNL A   1      44.436  32.613  28.276  1.00  0.00    -0.020 A 
ATOM     41  C   UNL A   1      44.274  33.059  29.579  1.00  0.00     0.087 A 
ATOM     42  C   UNL A   1      44.113  33.705  27.418  1.00  0.00     0.003 A 
ATOM     43  N   UNL A   1      43.712  34.313  29.527  1.00  0.00    -0.361 N 
ATOM     44  C   UNL A   1      43.506  34.675  28.214  1.00  0.00     0.046 A 
ATOM     45  C   UNL A   1      44.043  33.810  26.017  1.00  0.00     0.010 A 
ATOM     46  H   UNL A   1      43.491  34.869  30.309  1.00  0.00     0.166 HD
ATOM     47  C   UNL A   1      42.741  35.708  27.668  1.00  0.00     0.026 A 
ATOM     48  C   UNL A   1      43.213  34.777  25.459  1.00  0.00     0.001 A 
ATOM     49  C   UNL A   1      42.580  35.710  26.277  1.00  0.00     0.002 A 
ENDBRANCH  39  40
ENDBRANCH  13  39
ENDBRANCH  10  13
ENDBRANCH   8   9
ENDBRANCH   6   8
ENDBRANCH   5   6
ENDBRANCH   4   5
ENDBRANCH   3   4
ENDBRANCH   2   3
ENDBRANCH   1   2
BRANCH   1  50
ATOM     50  C   UNL A   1      41.662  30.250  36.051  1.00  0.00     0.188 C 
BRANCH  50  51
ATOM     51  O   UNL A   1      40.439  29.567  35.910  1.00  0.00    -0.377 OA
BRANCH  51  52
ATOM     52  C   UNL A   1      39.536  30.260  35.049  1.00  0.00     0.188 C 
BRANCH  52  53
ATOM     53  C   UNL A   1      39.441  31.787  35.271  1.00  0.00     0.188 C 
BRANCH  53  54
ATOM     54  O   UNL A   1      39.583  32.467  34.019  1.00  0.00    -0.376 OA
BRANCH  54  55
ATOM     55  C   UNL A   1      39.606  33.876  33.962  1.00  0.00     0.202 C 
BRANCH  55  56
ATOM     56  C   UNL A   1      40.693  34.533  34.816  1.00  0.00     0.261 C 
BRANCH  56  57
ATOM     57  O   UNL A   1      41.535  35.348  33.978  1.00  0.00    -0.460 OA
BRANCH  57  58
ATOM     58  C   UNL A   1      42.532  34.732  33.286  1.00  0.00     0.338 C 
ATOM     59  O   UNL A   1      42.513  34.437  32.110  1.00  0.00    -0.246 OA
BRANCH  58  60
ATOM     60  C   UNL A   1      43.527  34.223  34.287  1.00  0.00     0.060 A 
ATOM     61  C   UNL A   1      44.346  35.107  34.986  1.00  0.00     0.016 A 
ATOM     62  C   UNL A   1      43.901  32.878  34.234  1.00  0.00     0.016 A 
ATOM     63  C   UNL A   1      45.625  34.677  35.387  1.00  0.00     0.010 A 
ATOM     64  C   UNL A   1      45.235  32.544  34.426  1.00  0.00     0.010 A 
ATOM     65  C   UNL A   1      46.169  33.515  34.813  1.00  0.00    -0.014 A 
BRANCH  65  66
ATOM     66  C   UNL A   1      47.680  33.162  34.508  1.00  0.00     0.031 A 
ATOM     67  C   UNL A   1      47.715  33.384  32.938  1.00  0.00     0.074 A 
ATOM     68  C   UNL A   1      48.657  32.542  35.432  1.00  0.00     0.049 A 
ATOM     69  N   UNL A   1      48.016  32.524  31.998  1.00  0.00    -0.248 NA
ATOM     70  C   UNL A   1      47.031  34.553  32.349  1.00  0.00     0.031 C 
ATOM     71  C   UNL A   1      50.065  32.761  35.774  1.00  0.00     0.029 A 
ATOM     72  N   UNL A   1      48.704  31.199  36.076  1.00  0.00    -0.354 N 
ATOM     73  C   UNL A   1      47.911  33.147  30.777  1.00  0.00     0.074 A 
ATOM     74  C   UNL A   1      47.076  34.290  31.043  1.00  0.00     0.031 C 
ATOM     75  C   UNL A   1      50.702  31.582  36.132  1.00  0.00     0.029 A 
ATOM     76  C   UNL A   1      49.852  30.458  36.094  1.00  0.00     0.049 A 
ATOM     77  H   UNL A   1      47.890  30.838  36.498  1.00  0.00     0.167 HD
ATOM     78  C   UNL A   1      48.672  32.807  29.687  1.00  0.00     0.037 A 
ATOM     79  C   UNL A   1      50.056  29.100  36.025  1.00  0.00     0.037 A 
ATOM     80  C   UNL A   1      49.692  31.775  29.969  1.00  0.00     0.049 A 
ATOM     81  C   UNL A   1      50.525  28.468  34.670  1.00  0.00     0.074 A 
ATOM     82  C   UNL A   1      51.077  31.835  29.956  1.00  0.00     0.029 A 
ATOM     83  N   UNL A   1      49.389  30.515  30.521  1.00  0.00    -0.354 N 
ATOM     84  N   UNL A   1      50.592  29.049  33.496  1.00  0.00    -0.248 NA
ATOM     85  C   UNL A   1      50.902  27.052  34.553  1.00  0.00     0.031 C 
ATOM     86  C   UNL A   1      51.598  30.597  30.372  1.00  0.00     0.029 A 
ATOM     87  C   UNL A   1      50.554  29.788  30.761  1.00  0.00     0.049 A 
ATOM     88  H   UNL A   1      48.479  30.192  30.711  1.00  0.00     0.167 HD
ATOM     89  C   UNL A   1      50.774  28.114  32.488  1.00  0.00     0.074 A 
ATOM     90  C   UNL A   1      51.102  26.912  33.229  1.00  0.00     0.031 C 
ATOM     91  C   UNL A   1      50.620  28.375  31.138  1.00  0.00     0.037 A 
BRANCH  78  92
ATOM     92  C   UNL A   1      48.740  33.785  28.492  1.00  0.00     0.064 A 
ATOM     93  C   UNL A   1      49.452  35.002  28.527  1.00  0.00     0.173 A 
ATOM     94  C   UNL A   1      48.000  33.611  27.304  1.00  0.00     0.173 A 
ATOM     95  F   UNL A   1      50.453  35.209  29.386  1.00  0.00    -0.203 F 
ATOM     96  C   UNL A   1      49.206  36.051  27.631  1.00  0.00     0.198 A 
ATOM     97  C   UNL A   1      47.713  34.667  26.426  1.00  0.00     0.198 A 
ATOM     98  F   UNL A   1      47.562  32.394  26.946  1.00  0.00    -0.203 F 
ATOM     99  F   UNL A   1      49.873  37.207  27.764  1.00  0.00    -0.200 F 
ATOM    100  C   UNL A   1      48.283  35.906  26.620  1.00  0.00     0.200 A 
ATOM    101  F   UNL A   1      46.870  34.476  25.401  1.00  0.00    -0.200 F 
ATOM    102  F   UNL A   1      47.994  36.931  25.807  1.00  0.00    -0.200 F 
ENDBRANCH  78  92
BRANCH  79 103
ATOM    103  C   UNL A   1      49.161  28.340  36.978  1.00  0.00     0.064 A 
ATOM    104  C   UNL A   1      49.539  28.392  38.331  1.00  0.00     0.173 A 
ATOM    105  C   UNL A   1      47.854  27.914  36.718  1.00  0.00     0.173 A 
ATOM    106  F   UNL A   1      50.823  28.599  38.642  1.00  0.00    -0.203 F 
ATOM    107  C   UNL A   1      48.609  28.310  39.364  1.00  0.00     0.198 A 
ATOM    108  C   UNL A   1      46.906  27.851  37.756  1.00  0.00     0.198 A 
ATOM    109  F   UNL A   1      47.434  27.735  35.456  1.00  0.00    -0.203 F 
ATOM    110  F   UNL A   1      49.000  28.491  40.633  1.00  0.00    -0.200 F 
ATOM    111  C   UNL A   1      47.275  28.110  39.068  1.00  0.00     0.200 A 
ATOM    112  F   UNL A   1      45.612  27.646  37.466  1.00  0.00    -0.200 F 
ATOM    113  F   UNL A   1      46.353  28.175  40.039  1.00  0.00    -0.200 F 
ENDBRANCH  79 103
BRANCH  91 114
ATOM    114  C   UNL A   1      50.808  27.375  29.973  1.00  0.00     0.064 A 
ATOM    115  C   UNL A   1      51.910  27.336  29.107  1.00  0.00     0.173 A 
ATOM    116  C   UNL A   1      49.831  26.370  29.696  1.00  0.00     0.173 A 
ATOM    117  F   UNL A   1      53.021  28.036  29.366  1.00  0.00    -0.203 F 
ATOM    118  C   UNL A   1      51.946  26.515  27.967  1.00  0.00     0.198 A 
ATOM    119  C   UNL A   1      49.876  25.538  28.573  1.00  0.00     0.198 A 
ATOM    120  F   UNL A   1      48.805  26.121  30.520  1.00  0.00    -0.203 F 
ATOM    121  F   UNL A   1      53.002  26.578  27.141  1.00  0.00    -0.200 F 
ATOM    122  C   UNL A   1      50.919  25.637  27.685  1.00  0.00     0.200 A 
ATOM    123  F   UNL A   1      48.902  24.638  28.370  1.00  0.00    -0.200 F 
ATOM    124  F   UNL A   1      50.956  24.862  26.593  1.00  0.00    -0.200 F 
ENDBRANCH  91 114
ENDBRANCH  65  66
ENDBRANCH  58  60
ENDBRANCH  57  58
ENDBRANCH  56  57
ENDBRANCH  55  56
ENDBRANCH  54  55
ENDBRANCH  53  54
ENDBRANCH  52  53
ENDBRANCH  51  52
ENDBRANCH  50  51
ENDBRANCH   1  50
TORSDOF 29
ENDMDL
