MODEL 1
REMARK VINA RESULT:     -12.0      0.000      0.000
REMARK SMILES O=C(OCCOCCOCCOCCOC(=O)c1nnn(-c2cccc(C(F)(F)F)c2)c1[C@@H]1COc2ccccc2O1)c1ccc(-c2c3nc(c(-c4c(F)c(F)c(F)c(F)c4F)c4ccc([nH]4)c(-c4c(F)c(F)c(F)c(F)c4F)c4nc(c(-c5c(F)c(F)c(F)c(F)c5F)c5ccc2[nH]5)C=C4)C=C3)cc1
REMARK SMILES IDX 9 1 8 2 7 3 6 4 5 5 4 6 3 7 2 8 1 9 43 10 44 11 105 12 45 13
REMARK SMILES IDX 104 14 46 15 47 16 48 17 98 18 49 19 103 20 97 21 99 22
REMARK SMILES IDX 50 23 102 24 96 25 95 26 51 28 83 29 63 30 82 31 64 32 67 33
REMARK SMILES IDX 81 34 100 35 65 36 66 37 80 39 101 40 68 41 52 42 53 43
REMARK SMILES IDX 61 44 54 45 55 46 59 47 62 48 56 49 57 50 60 51 58 52 84 53
REMARK SMILES IDX 85 54 93 55 86 56 87 57 91 58 94 59 88 60 89 61 92 62 90 63
REMARK SMILES IDX 69 64 70 65 78 66 71 67 72 68 76 69 79 70 73 71 74 72 77 73
REMARK SMILES IDX 75 74 10 75 11 76 12 77 13 78 14 79 15 80 16 81 17 82 18 83
REMARK SMILES IDX 19 84 32 85 20 86 21 87 33 88 34 89 42 90 35 91 41 92 36 93
REMARK SMILES IDX 40 94 37 95 39 96 38 97 22 98 23 99 31 100 24 101 26 102
REMARK SMILES IDX 25 103 27 104 28 105 29 106 30 107
REMARK H PARENT 99 27 67 38
REMARK Flexibility Score: inf
ROOT
ATOM      1  O   UNL A   1      39.769  22.121  26.576  1.00  0.00    -0.377 OA
ENDROOT
BRANCH   1   2
ATOM      2  C   UNL A   1      41.171  22.102  26.337  1.00  0.00     0.188 C 
BRANCH   2   3
ATOM      3  C   UNL A   1      42.009  21.252  27.310  1.00  0.00     0.188 C 
BRANCH   3   4
ATOM      4  O   UNL A   1      42.259  19.854  27.191  1.00  0.00    -0.376 OA
BRANCH   4   5
ATOM      5  C   UNL A   1      42.434  19.140  25.988  1.00  0.00     0.202 C 
BRANCH   5   6
ATOM      6  C   UNL A   1      43.831  18.647  25.604  1.00  0.00     0.261 C 
BRANCH   6   7
ATOM      7  O   UNL A   1      44.799  19.663  25.337  1.00  0.00    -0.460 OA
BRANCH   7   8
ATOM      8  C   UNL A   1      44.711  20.767  24.570  1.00  0.00     0.338 C 
ATOM      9  O   UNL A   1      44.525  20.610  23.362  1.00  0.00    -0.246 OA
BRANCH   8  10
ATOM     10  C   UNL A   1      44.870  22.165  25.066  1.00  0.00     0.060 A 
ATOM     11  C   UNL A   1      45.717  22.586  26.093  1.00  0.00     0.016 A 
ATOM     12  C   UNL A   1      44.048  23.124  24.440  1.00  0.00     0.016 A 
ATOM     13  C   UNL A   1      45.640  23.874  26.588  1.00  0.00     0.010 A 
ATOM     14  C   UNL A   1      43.979  24.424  24.917  1.00  0.00     0.010 A 
ATOM     15  C   UNL A   1      44.718  24.759  26.045  1.00  0.00    -0.014 A 
BRANCH  15  16
ATOM     16  C   UNL A   1      44.481  25.981  26.790  1.00  0.00     0.031 A 
ATOM     17  C   UNL A   1      45.427  27.105  26.585  1.00  0.00     0.074 A 
ATOM     18  C   UNL A   1      43.425  26.065  27.621  1.00  0.00     0.049 A 
ATOM     19  N   UNL A   1      46.125  27.737  27.476  1.00  0.00    -0.248 NA
ATOM     20  C   UNL A   1      45.658  27.555  25.206  1.00  0.00     0.031 C 
ATOM     21  C   UNL A   1      42.297  25.135  27.737  1.00  0.00     0.029 A 
ATOM     22  N   UNL A   1      43.088  27.074  28.467  1.00  0.00    -0.354 N 
ATOM     23  C   UNL A   1      46.771  28.766  26.796  1.00  0.00     0.074 A 
ATOM     24  C   UNL A   1      46.521  28.554  25.392  1.00  0.00     0.031 C 
ATOM     25  C   UNL A   1      41.299  25.738  28.416  1.00  0.00     0.029 A 
ATOM     26  C   UNL A   1      41.770  27.029  28.886  1.00  0.00     0.049 A 
ATOM     27  H   UNL A   1      43.721  27.771  28.755  1.00  0.00     0.167 HD
ATOM     28  C   UNL A   1      47.313  29.832  27.445  1.00  0.00     0.037 A 
ATOM     29  C   UNL A   1      41.086  28.028  29.487  1.00  0.00     0.037 A 
ATOM     30  C   UNL A   1      47.579  29.550  28.828  1.00  0.00     0.049 A 
ATOM     31  C   UNL A   1      42.071  28.971  30.070  1.00  0.00     0.074 A 
ATOM     32  C   UNL A   1      48.387  28.650  29.496  1.00  0.00     0.029 A 
ATOM     33  N   UNL A   1      46.742  30.068  29.782  1.00  0.00    -0.354 N 
ATOM     34  N   UNL A   1      42.829  28.701  31.095  1.00  0.00    -0.248 NA
ATOM     35  C   UNL A   1      42.505  30.096  29.253  1.00  0.00     0.031 C 
ATOM     36  C   UNL A   1      47.679  28.326  30.690  1.00  0.00     0.029 A 
ATOM     37  C   UNL A   1      46.495  29.063  30.680  1.00  0.00     0.049 A 
ATOM     38  H   UNL A   1      46.388  30.986  29.816  1.00  0.00     0.167 HD
ATOM     39  C   UNL A   1      44.033  29.334  30.821  1.00  0.00     0.074 A 
ATOM     40  C   UNL A   1      43.738  30.264  29.738  1.00  0.00     0.031 C 
ATOM     41  C   UNL A   1      45.212  28.844  31.303  1.00  0.00     0.037 A 
BRANCH  28  42
ATOM     42  C   UNL A   1      47.318  31.234  26.896  1.00  0.00     0.064 A 
ATOM     43  C   UNL A   1      48.519  31.971  26.866  1.00  0.00     0.173 A 
ATOM     44  C   UNL A   1      46.137  31.978  26.680  1.00  0.00     0.173 A 
ATOM     45  F   UNL A   1      49.696  31.368  27.091  1.00  0.00    -0.203 F 
ATOM     46  C   UNL A   1      48.527  33.358  26.697  1.00  0.00     0.198 A 
ATOM     47  C   UNL A   1      46.154  33.352  26.459  1.00  0.00     0.198 A 
ATOM     48  F   UNL A   1      44.923  31.421  26.789  1.00  0.00    -0.203 F 
ATOM     49  F   UNL A   1      49.680  34.034  26.796  1.00  0.00    -0.200 F 
ATOM     50  C   UNL A   1      47.344  34.049  26.497  1.00  0.00     0.200 A 
ATOM     51  F   UNL A   1      44.997  34.007  26.289  1.00  0.00    -0.200 F 
ATOM     52  F   UNL A   1      47.345  35.383  26.394  1.00  0.00    -0.200 F 
ENDBRANCH  28  42
BRANCH  29  53
ATOM     53  C   UNL A   1      39.654  28.352  29.313  1.00  0.00     0.064 A 
ATOM     54  C   UNL A   1      38.778  28.372  30.407  1.00  0.00     0.173 A 
ATOM     55  C   UNL A   1      39.162  28.886  28.104  1.00  0.00     0.173 A 
ATOM     56  F   UNL A   1      39.186  27.931  31.605  1.00  0.00    -0.203 F 
ATOM     57  C   UNL A   1      37.489  28.903  30.300  1.00  0.00     0.198 A 
ATOM     58  C   UNL A   1      37.872  29.401  27.994  1.00  0.00     0.198 A 
ATOM     59  F   UNL A   1      39.954  29.004  27.027  1.00  0.00    -0.203 F 
ATOM     60  F   UNL A   1      36.699  28.960  31.380  1.00  0.00    -0.200 F 
ATOM     61  C   UNL A   1      37.039  29.422  29.095  1.00  0.00     0.200 A 
ATOM     62  F   UNL A   1      37.465  29.929  26.831  1.00  0.00    -0.200 F 
ATOM     63  F   UNL A   1      35.823  29.975  29.006  1.00  0.00    -0.200 F 
ENDBRANCH  29  53
BRANCH  41  64
ATOM     64  C   UNL A   1      45.147  27.785  32.364  1.00  0.00     0.064 A 
ATOM     65  C   UNL A   1      44.944  26.423  32.087  1.00  0.00     0.173 A 
ATOM     66  C   UNL A   1      45.443  28.140  33.686  1.00  0.00     0.173 A 
ATOM     67  F   UNL A   1      44.769  25.994  30.830  1.00  0.00    -0.203 F 
ATOM     68  C   UNL A   1      44.982  25.467  33.100  1.00  0.00     0.198 A 
ATOM     69  C   UNL A   1      45.517  27.178  34.691  1.00  0.00     0.198 A 
ATOM     70  F   UNL A   1      45.711  29.418  33.996  1.00  0.00    -0.203 F 
ATOM     71  F   UNL A   1      44.773  24.174  32.813  1.00  0.00    -0.200 F 
ATOM     72  C   UNL A   1      45.274  25.846  34.400  1.00  0.00     0.200 A 
ATOM     73  F   UNL A   1      45.853  27.541  35.936  1.00  0.00    -0.200 F 
ATOM     74  F   UNL A   1      45.352  24.921  35.368  1.00  0.00    -0.200 F 
ENDBRANCH  41  64
ENDBRANCH  15  16
ENDBRANCH   8  10
ENDBRANCH   7   8
ENDBRANCH   6   7
ENDBRANCH   5   6
ENDBRANCH   4   5
ENDBRANCH   3   4
ENDBRANCH   2   3
ENDBRANCH   1   2
BRANCH   1  75
ATOM     75  C   UNL A   1      39.045  21.109  25.914  1.00  0.00     0.188 C 
BRANCH  75  76
ATOM     76  C   UNL A   1      37.787  21.582  25.164  1.00  0.00     0.188 C 
BRANCH  76  77
ATOM     77  O   UNL A   1      37.092  22.774  25.510  1.00  0.00    -0.376 OA
BRANCH  77  78
ATOM     78  C   UNL A   1      36.596  23.675  24.538  1.00  0.00     0.202 C 
BRANCH  78  79
ATOM     79  C   UNL A   1      35.574  23.183  23.507  1.00  0.00     0.261 C 
BRANCH  79  80
ATOM     80  O   UNL A   1      34.717  24.199  22.979  1.00  0.00    -0.458 OA
BRANCH  80  81
ATOM     81  C   UNL A   1      33.537  23.747  22.448  1.00  0.00     0.361 C 
ATOM     82  O   UNL A   1      33.284  22.589  22.222  1.00  0.00    -0.244 OA
BRANCH  81  83
ATOM     83  C   UNL A   1      32.574  24.835  22.280  1.00  0.00     0.198 A 
ATOM     84  N   UNL A   1      32.503  25.518  21.090  1.00  0.00    -0.122 NA
ATOM     85  C   UNL A   1      31.566  25.291  23.122  1.00  0.00     0.123 A 
ATOM     86  N   UNL A   1      31.509  26.387  21.170  1.00  0.00    -0.061 NA
ATOM     87  N   UNL A   1      31.078  26.404  22.452  1.00  0.00    -0.213 N 
BRANCH  85  88
ATOM     88  C   UNL A   1      31.010  24.747  24.407  1.00  0.00     0.262 C 
ATOM     89  C   UNL A   1      31.548  25.441  25.667  1.00  0.00     0.281 C 
ATOM     90  O   UNL A   1      31.134  23.320  24.437  1.00  0.00    -0.477 OA
ATOM     91  O   UNL A   1      32.880  25.032  25.982  1.00  0.00    -0.485 OA
ATOM     92  C   UNL A   1      32.055  22.845  25.333  1.00  0.00     0.162 A 
ATOM     93  C   UNL A   1      32.927  23.666  26.055  1.00  0.00     0.161 A 
ATOM     94  C   UNL A   1      32.153  21.461  25.451  1.00  0.00     0.050 A 
ATOM     95  C   UNL A   1      33.932  23.108  26.843  1.00  0.00     0.050 A 
ATOM     96  C   UNL A   1      33.141  20.900  26.263  1.00  0.00     0.004 A 
ATOM     97  C   UNL A   1      34.037  21.721  26.948  1.00  0.00     0.004 A 
ENDBRANCH  85  88
BRANCH  87  98
ATOM     98  C   UNL A   1      30.728  27.650  22.998  1.00  0.00     0.067 A 
ATOM     99  C   UNL A   1      31.637  28.347  23.791  1.00  0.00     0.028 A 
ATOM    100  C   UNL A   1      29.439  28.142  22.759  1.00  0.00     0.041 A 
ATOM    101  C   UNL A   1      31.275  29.604  24.275  1.00  0.00     0.003 A 
ATOM    102  C   UNL A   1      29.057  29.379  23.287  1.00  0.00     0.058 A 
ATOM    103  C   UNL A   1      29.998  30.120  24.019  1.00  0.00     0.013 A 
BRANCH 102 104
ATOM    104  C   UNL A   1      27.671  29.914  23.034  1.00  0.00     0.416 C 
ATOM    105  F   UNL A   1      27.318  30.903  23.902  1.00  0.00    -0.166 F 
ATOM    106  F   UNL A   1      27.536  30.443  21.786  1.00  0.00    -0.166 F 
ATOM    107  F   UNL A   1      26.699  28.964  23.142  1.00  0.00    -0.166 F 
ENDBRANCH 102 104
ENDBRANCH  87  98
ENDBRANCH  81  83
ENDBRANCH  80  81
ENDBRANCH  79  80
ENDBRANCH  78  79
ENDBRANCH  77  78
ENDBRANCH  76  77
ENDBRANCH  75  76
ENDBRANCH   1  75
TORSDOF 23
ENDMDL
MODEL 2
REMARK VINA RESULT:     -11.3      4.609      9.964
REMARK SMILES O=C(OCCOCCOCCOCCOC(=O)c1nnn(-c2cccc(C(F)(F)F)c2)c1[C@@H]1COc2ccccc2O1)c1ccc(-c2c3nc(c(-c4c(F)c(F)c(F)c(F)c4F)c4ccc([nH]4)c(-c4c(F)c(F)c(F)c(F)c4F)c4nc(c(-c5c(F)c(F)c(F)c(F)c5F)c5ccc2[nH]5)C=C4)C=C3)cc1
REMARK SMILES IDX 9 1 8 2 7 3 6 4 5 5 4 6 3 7 2 8 1 9 43 10 44 11 105 12 45 13
REMARK SMILES IDX 104 14 46 15 47 16 48 17 98 18 49 19 103 20 97 21 99 22
REMARK SMILES IDX 50 23 102 24 96 25 95 26 51 28 83 29 63 30 82 31 64 32 67 33
REMARK SMILES IDX 81 34 100 35 65 36 66 37 80 39 101 40 68 41 52 42 53 43
REMARK SMILES IDX 61 44 54 45 55 46 59 47 62 48 56 49 57 50 60 51 58 52 84 53
REMARK SMILES IDX 85 54 93 55 86 56 87 57 91 58 94 59 88 60 89 61 92 62 90 63
REMARK SMILES IDX 69 64 70 65 78 66 71 67 72 68 76 69 79 70 73 71 74 72 77 73
REMARK SMILES IDX 75 74 10 75 11 76 12 77 13 78 14 79 15 80 16 81 17 82 18 83
REMARK SMILES IDX 19 84 32 85 20 86 21 87 33 88 34 89 42 90 35 91 41 92 36 93
REMARK SMILES IDX 40 94 37 95 39 96 38 97 22 98 23 99 31 100 24 101 26 102
REMARK SMILES IDX 25 103 27 104 28 105 29 106 30 107
REMARK H PARENT 99 27 67 38
REMARK Flexibility Score: inf
ROOT
ATOM      1  O   UNL A   1      32.418  33.497  27.599  1.00  0.00    -0.377 OA
ENDROOT
BRANCH   1   2
ATOM      2  C   UNL A   1      33.648  33.394  28.305  1.00  0.00     0.188 C 
BRANCH   2   3
ATOM      3  C   UNL A   1      34.711  34.454  27.966  1.00  0.00     0.188 C 
BRANCH   3   4
ATOM      4  O   UNL A   1      34.674  35.825  28.354  1.00  0.00    -0.376 OA
BRANCH   4   5
ATOM      5  C   UNL A   1      33.522  36.562  28.697  1.00  0.00     0.202 C 
BRANCH   5   6
ATOM      6  C   UNL A   1      33.090  36.639  30.164  1.00  0.00     0.261 C 
BRANCH   6   7
ATOM      7  O   UNL A   1      32.807  35.390  30.797  1.00  0.00    -0.460 OA
BRANCH   7   8
ATOM      8  C   UNL A   1      33.187  34.922  32.003  1.00  0.00     0.338 C 
ATOM      9  O   UNL A   1      32.401  35.059  32.941  1.00  0.00    -0.246 OA
BRANCH   8  10
ATOM     10  C   UNL A   1      34.507  34.294  32.296  1.00  0.00     0.060 A 
ATOM     11  C   UNL A   1      35.710  34.966  32.520  1.00  0.00     0.016 A 
ATOM     12  C   UNL A   1      34.515  32.884  32.308  1.00  0.00     0.016 A 
ATOM     13  C   UNL A   1      36.903  34.272  32.596  1.00  0.00     0.010 A 
ATOM     14  C   UNL A   1      35.705  32.179  32.404  1.00  0.00     0.010 A 
ATOM     15  C   UNL A   1      36.898  32.889  32.462  1.00  0.00    -0.014 A 
BRANCH  15  16
ATOM     16  C   UNL A   1      38.186  32.256  32.256  1.00  0.00     0.031 A 
ATOM     17  C   UNL A   1      39.088  32.138  33.428  1.00  0.00     0.074 A 
ATOM     18  C   UNL A   1      38.517  31.791  31.037  1.00  0.00     0.049 A 
ATOM     19  N   UNL A   1      40.304  32.568  33.549  1.00  0.00    -0.248 NA
ATOM     20  C   UNL A   1      38.552  31.496  34.636  1.00  0.00     0.031 C 
ATOM     21  C   UNL A   1      37.645  31.630  29.869  1.00  0.00     0.029 A 
ATOM     22  N   UNL A   1      39.697  31.258  30.623  1.00  0.00    -0.354 N 
ATOM     23  C   UNL A   1      40.747  32.121  34.791  1.00  0.00     0.074 A 
ATOM     24  C   UNL A   1      39.604  31.547  35.454  1.00  0.00     0.031 C 
ATOM     25  C   UNL A   1      38.255  30.829  28.973  1.00  0.00     0.029 A 
ATOM     26  C   UNL A   1      39.597  30.536  29.447  1.00  0.00     0.049 A 
ATOM     27  H   UNL A   1      40.543  31.375  31.113  1.00  0.00     0.167 HD
ATOM     28  C   UNL A   1      42.068  32.085  35.117  1.00  0.00     0.037 A 
ATOM     29  C   UNL A   1      40.516  29.677  28.953  1.00  0.00     0.037 A 
ATOM     30  C   UNL A   1      42.854  32.967  34.303  1.00  0.00     0.049 A 
ATOM     31  C   UNL A   1      41.822  29.996  29.578  1.00  0.00     0.074 A 
ATOM     32  C   UNL A   1      42.877  34.333  34.095  1.00  0.00     0.029 A 
ATOM     33  N   UNL A   1      43.630  32.434  33.306  1.00  0.00    -0.354 N 
ATOM     34  N   UNL A   1      42.511  31.075  29.331  1.00  0.00    -0.248 NA
ATOM     35  C   UNL A   1      42.185  29.292  30.800  1.00  0.00     0.031 C 
ATOM     36  C   UNL A   1      43.254  34.498  32.730  1.00  0.00     0.029 A 
ATOM     37  C   UNL A   1      43.453  33.223  32.200  1.00  0.00     0.049 A 
ATOM     38  H   UNL A   1      44.204  31.636  33.373  1.00  0.00     0.167 HD
ATOM     39  C   UNL A   1      43.090  31.412  30.545  1.00  0.00     0.074 A 
ATOM     40  C   UNL A   1      42.948  30.223  31.378  1.00  0.00     0.031 C 
ATOM     41  C   UNL A   1      43.375  32.710  30.854  1.00  0.00     0.037 A 
BRANCH  28  42
ATOM     42  C   UNL A   1      42.690  31.016  35.976  1.00  0.00     0.064 A 
ATOM     43  C   UNL A   1      43.424  31.377  37.123  1.00  0.00     0.173 A 
ATOM     44  C   UNL A   1      42.843  29.680  35.546  1.00  0.00     0.173 A 
ATOM     45  F   UNL A   1      43.376  32.631  37.598  1.00  0.00    -0.203 F 
ATOM     46  C   UNL A   1      44.294  30.482  37.752  1.00  0.00     0.198 A 
ATOM     47  C   UNL A   1      43.670  28.776  36.208  1.00  0.00     0.198 A 
ATOM     48  F   UNL A   1      42.287  29.236  34.411  1.00  0.00    -0.203 F 
ATOM     49  F   UNL A   1      45.062  30.903  38.766  1.00  0.00    -0.200 F 
ATOM     50  C   UNL A   1      44.419  29.183  37.292  1.00  0.00     0.200 A 
ATOM     51  F   UNL A   1      43.795  27.528  35.734  1.00  0.00    -0.200 F 
ATOM     52  F   UNL A   1      45.296  28.343  37.856  1.00  0.00    -0.200 F 
ENDBRANCH  28  42
BRANCH  29  53
ATOM     53  C   UNL A   1      40.251  28.423  28.216  1.00  0.00     0.064 A 
ATOM     54  C   UNL A   1      40.847  28.176  26.971  1.00  0.00     0.173 A 
ATOM     55  C   UNL A   1      39.599  27.332  28.828  1.00  0.00     0.173 A 
ATOM     56  F   UNL A   1      41.531  29.145  26.347  1.00  0.00    -0.203 F 
ATOM     57  C   UNL A   1      40.799  26.911  26.377  1.00  0.00     0.198 A 
ATOM     58  C   UNL A   1      39.538  26.076  28.228  1.00  0.00     0.198 A 
ATOM     59  F   UNL A   1      39.085  27.438  30.063  1.00  0.00    -0.203 F 
ATOM     60  F   UNL A   1      41.429  26.695  25.215  1.00  0.00    -0.200 F 
ATOM     61  C   UNL A   1      40.150  25.861  27.009  1.00  0.00     0.200 A 
ATOM     62  F   UNL A   1      38.936  25.064  28.868  1.00  0.00    -0.200 F 
ATOM     63  F   UNL A   1      40.147  24.639  26.464  1.00  0.00    -0.200 F 
ENDBRANCH  29  53
BRANCH  41  64
ATOM     64  C   UNL A   1      43.317  33.721  29.747  1.00  0.00     0.064 A 
ATOM     65  C   UNL A   1      42.150  34.420  29.398  1.00  0.00     0.173 A 
ATOM     66  C   UNL A   1      44.510  34.097  29.118  1.00  0.00     0.173 A 
ATOM     67  F   UNL A   1      40.994  34.194  30.037  1.00  0.00    -0.203 F 
ATOM     68  C   UNL A   1      42.169  35.414  28.422  1.00  0.00     0.198 A 
ATOM     69  C   UNL A   1      44.533  35.116  28.169  1.00  0.00     0.198 A 
ATOM     70  F   UNL A   1      45.667  33.509  29.461  1.00  0.00    -0.203 F 
ATOM     71  F   UNL A   1      41.039  36.059  28.097  1.00  0.00    -0.200 F 
ATOM     72  C   UNL A   1      43.362  35.765  27.812  1.00  0.00     0.200 A 
ATOM     73  F   UNL A   1      45.698  35.490  27.621  1.00  0.00    -0.200 F 
ATOM     74  F   UNL A   1      43.388  36.750  26.903  1.00  0.00    -0.200 F 
ENDBRANCH  41  64
ENDBRANCH  15  16
ENDBRANCH   8  10
ENDBRANCH   7   8
ENDBRANCH   6   7
ENDBRANCH   5   6
ENDBRANCH   4   5
ENDBRANCH   3   4
ENDBRANCH   2   3
ENDBRANCH   1   2
BRANCH   1  75
ATOM     75  C   UNL A   1      31.940  32.282  27.068  1.00  0.00     0.188 C 
BRANCH  75  76
ATOM     76  C   UNL A   1      32.882  31.075  27.234  1.00  0.00     0.188 C 
BRANCH  76  77
ATOM     77  O   UNL A   1      32.428  29.731  27.142  1.00  0.00    -0.376 OA
BRANCH  77  78
ATOM     78  C   UNL A   1      31.737  29.237  26.009  1.00  0.00     0.202 C 
BRANCH  78  79
ATOM     79  C   UNL A   1      32.134  29.726  24.612  1.00  0.00     0.261 C 
BRANCH  79  80
ATOM     80  O   UNL A   1      31.777  28.845  23.544  1.00  0.00    -0.458 OA
BRANCH  80  81
ATOM     81  C   UNL A   1      30.549  28.248  23.667  1.00  0.00     0.361 C 
ATOM     82  O   UNL A   1      29.493  28.829  23.599  1.00  0.00    -0.244 OA
BRANCH  81  83
ATOM     83  C   UNL A   1      30.669  26.796  23.792  1.00  0.00     0.198 A 
ATOM     84  N   UNL A   1      29.549  26.003  23.741  1.00  0.00    -0.122 NA
ATOM     85  C   UNL A   1      31.794  25.983  23.860  1.00  0.00     0.123 A 
ATOM     86  N   UNL A   1      29.934  24.738  23.796  1.00  0.00    -0.061 NA
ATOM     87  N   UNL A   1      31.257  24.722  24.077  1.00  0.00    -0.213 N 
BRANCH  85  88
ATOM     88  C   UNL A   1      33.257  26.275  23.677  1.00  0.00     0.262 C 
ATOM     89  C   UNL A   1      33.827  25.805  22.331  1.00  0.00     0.281 C 
ATOM     90  O   UNL A   1      34.000  25.816  24.812  1.00  0.00    -0.477 OA
ATOM     91  O   UNL A   1      34.028  24.390  22.295  1.00  0.00    -0.485 OA
ATOM     92  C   UNL A   1      34.801  24.730  24.568  1.00  0.00     0.162 A 
ATOM     93  C   UNL A   1      34.792  24.015  23.367  1.00  0.00     0.161 A 
ATOM     94  C   UNL A   1      35.601  24.298  25.623  1.00  0.00     0.050 A 
ATOM     95  C   UNL A   1      35.529  22.840  23.239  1.00  0.00     0.050 A 
ATOM     96  C   UNL A   1      36.363  23.136  25.487  1.00  0.00     0.004 A 
ATOM     97  C   UNL A   1      36.318  22.401  24.302  1.00  0.00     0.004 A 
ENDBRANCH  85  88
BRANCH  87  98
ATOM     98  C   UNL A   1      31.715  23.733  24.964  1.00  0.00     0.067 A 
ATOM     99  C   UNL A   1      31.881  24.028  26.315  1.00  0.00     0.028 A 
ATOM    100  C   UNL A   1      32.037  22.473  24.445  1.00  0.00     0.041 A 
ATOM    101  C   UNL A   1      32.289  23.009  27.176  1.00  0.00     0.003 A 
ATOM    102  C   UNL A   1      32.495  21.465  25.299  1.00  0.00     0.058 A 
ATOM    103  C   UNL A   1      32.587  21.736  26.674  1.00  0.00     0.013 A 
BRANCH 102 104
ATOM    104  C   UNL A   1      32.843  20.106  24.748  1.00  0.00     0.416 C 
ATOM    105  F   UNL A   1      32.286  19.870  23.528  1.00  0.00    -0.166 F 
ATOM    106  F   UNL A   1      34.185  19.937  24.589  1.00  0.00    -0.166 F 
ATOM    107  F   UNL A   1      32.431  19.080  25.547  1.00  0.00    -0.166 F 
ENDBRANCH 102 104
ENDBRANCH  87  98
ENDBRANCH  81  83
ENDBRANCH  80  81
ENDBRANCH  79  80
ENDBRANCH  78  79
ENDBRANCH  77  78
ENDBRANCH  76  77
ENDBRANCH  75  76
ENDBRANCH   1  75
TORSDOF 23
ENDMDL
MODEL 3
REMARK VINA RESULT:     -11.3      2.663      4.254
REMARK SMILES O=C(OCCOCCOCCOCCOC(=O)c1nnn(-c2cccc(C(F)(F)F)c2)c1[C@@H]1COc2ccccc2O1)c1ccc(-c2c3nc(c(-c4c(F)c(F)c(F)c(F)c4F)c4ccc([nH]4)c(-c4c(F)c(F)c(F)c(F)c4F)c4nc(c(-c5c(F)c(F)c(F)c(F)c5F)c5ccc2[nH]5)C=C4)C=C3)cc1
REMARK SMILES IDX 9 1 8 2 7 3 6 4 5 5 4 6 3 7 2 8 1 9 43 10 44 11 105 12 45 13
REMARK SMILES IDX 104 14 46 15 47 16 48 17 98 18 49 19 103 20 97 21 99 22
REMARK SMILES IDX 50 23 102 24 96 25 95 26 51 28 83 29 63 30 82 31 64 32 67 33
REMARK SMILES IDX 81 34 100 35 65 36 66 37 80 39 101 40 68 41 52 42 53 43
REMARK SMILES IDX 61 44 54 45 55 46 59 47 62 48 56 49 57 50 60 51 58 52 84 53
REMARK SMILES IDX 85 54 93 55 86 56 87 57 91 58 94 59 88 60 89 61 92 62 90 63
REMARK SMILES IDX 69 64 70 65 78 66 71 67 72 68 76 69 79 70 73 71 74 72 77 73
REMARK SMILES IDX 75 74 10 75 11 76 12 77 13 78 14 79 15 80 16 81 17 82 18 83
REMARK SMILES IDX 19 84 32 85 20 86 21 87 33 88 34 89 42 90 35 91 41 92 36 93
REMARK SMILES IDX 40 94 37 95 39 96 38 97 22 98 23 99 31 100 24 101 26 102
REMARK SMILES IDX 25 103 27 104 28 105 29 106 30 107
REMARK H PARENT 99 27 67 38
REMARK Flexibility Score: inf
ROOT
ATOM      1  O   UNL A   1      35.606  20.049  24.782  1.00  0.00    -0.377 OA
ENDROOT
BRANCH   1   2
ATOM      2  C   UNL A   1      36.556  20.980  25.283  1.00  0.00     0.188 C 
BRANCH   2   3
ATOM      3  C   UNL A   1      38.033  20.667  24.977  1.00  0.00     0.188 C 
BRANCH   3   4
ATOM      4  O   UNL A   1      39.120  20.811  25.888  1.00  0.00    -0.376 OA
BRANCH   4   5
ATOM      5  C   UNL A   1      40.123  19.853  26.143  1.00  0.00     0.202 C 
BRANCH   5   6
ATOM      6  C   UNL A   1      41.280  20.209  27.081  1.00  0.00     0.261 C 
BRANCH   6   7
ATOM      7  O   UNL A   1      42.413  20.824  26.468  1.00  0.00    -0.460 OA
BRANCH   7   8
ATOM      8  C   UNL A   1      42.570  22.075  25.990  1.00  0.00     0.338 C 
ATOM      9  O   UNL A   1      43.148  22.205  24.910  1.00  0.00    -0.246 OA
BRANCH   8  10
ATOM     10  C   UNL A   1      42.139  23.317  26.694  1.00  0.00     0.060 A 
ATOM     11  C   UNL A   1      41.242  24.271  26.211  1.00  0.00     0.016 A 
ATOM     12  C   UNL A   1      42.739  23.537  27.950  1.00  0.00     0.016 A 
ATOM     13  C   UNL A   1      41.064  25.472  26.873  1.00  0.00     0.010 A 
ATOM     14  C   UNL A   1      42.551  24.730  28.632  1.00  0.00     0.010 A 
ATOM     15  C   UNL A   1      41.778  25.721  28.038  1.00  0.00    -0.014 A 
BRANCH  15  16
ATOM     16  C   UNL A   1      41.775  27.089  28.517  1.00  0.00     0.031 A 
ATOM     17  C   UNL A   1      42.908  27.959  28.118  1.00  0.00     0.074 A 
ATOM     18  C   UNL A   1      40.760  27.528  29.285  1.00  0.00     0.049 A 
ATOM     19  N   UNL A   1      43.718  28.621  28.883  1.00  0.00    -0.248 NA
ATOM     20  C   UNL A   1      43.204  28.074  26.684  1.00  0.00     0.031 C 
ATOM     21  C   UNL A   1      39.482  26.859  29.553  1.00  0.00     0.029 A 
ATOM     22  N   UNL A   1      40.620  28.731  29.903  1.00  0.00    -0.354 N 
ATOM     23  C   UNL A   1      44.534  29.359  28.030  1.00  0.00     0.074 A 
ATOM     24  C   UNL A   1      44.237  28.918  26.690  1.00  0.00     0.031 C 
ATOM     25  C   UNL A   1      38.618  27.756  30.071  1.00  0.00     0.029 A 
ATOM     26  C   UNL A   1      39.321  29.010  30.286  1.00  0.00     0.049 A 
ATOM     27  H   UNL A   1      41.373  29.346  30.063  1.00  0.00     0.167 HD
ATOM     28  C   UNL A   1      45.267  30.418  28.468  1.00  0.00     0.037 A 
ATOM     29  C   UNL A   1      38.835  30.215  30.657  1.00  0.00     0.037 A 
ATOM     30  C   UNL A   1      45.491  30.377  29.885  1.00  0.00     0.049 A 
ATOM     31  C   UNL A   1      39.981  31.063  31.066  1.00  0.00     0.074 A 
ATOM     32  C   UNL A   1      46.127  29.499  30.742  1.00  0.00     0.029 A 
ATOM     33  N   UNL A   1      44.772  31.219  30.694  1.00  0.00    -0.354 N 
ATOM     34  N   UNL A   1      40.688  30.873  32.145  1.00  0.00    -0.248 NA
ATOM     35  C   UNL A   1      40.606  31.903  30.053  1.00  0.00     0.031 C 
ATOM     36  C   UNL A   1      45.384  29.556  31.956  1.00  0.00     0.029 A 
ATOM     37  C   UNL A   1      44.353  30.476  31.767  1.00  0.00     0.049 A 
ATOM     38  H   UNL A   1      44.591  32.174  30.534  1.00  0.00     0.167 HD
ATOM     39  C   UNL A   1      41.984  31.210  31.783  1.00  0.00     0.074 A 
ATOM     40  C   UNL A   1      41.853  31.941  30.528  1.00  0.00     0.031 C 
ATOM     41  C   UNL A   1      43.058  30.623  32.386  1.00  0.00     0.037 A 
BRANCH  28  42
ATOM     42  C   UNL A   1      45.523  31.657  27.650  1.00  0.00     0.064 A 
ATOM     43  C   UNL A   1      46.832  31.956  27.222  1.00  0.00     0.173 A 
ATOM     44  C   UNL A   1      44.584  32.705  27.532  1.00  0.00     0.173 A 
ATOM     45  F   UNL A   1      47.808  31.042  27.320  1.00  0.00    -0.203 F 
ATOM     46  C   UNL A   1      47.184  33.231  26.770  1.00  0.00     0.198 A 
ATOM     47  C   UNL A   1      44.928  33.958  27.031  1.00  0.00     0.198 A 
ATOM     48  F   UNL A   1      43.334  32.589  28.001  1.00  0.00    -0.203 F 
ATOM     49  F   UNL A   1      48.465  33.506  26.487  1.00  0.00    -0.200 F 
ATOM     50  C   UNL A   1      46.233  34.232  26.678  1.00  0.00     0.200 A 
ATOM     51  F   UNL A   1      43.998  34.921  26.970  1.00  0.00    -0.200 F 
ATOM     52  F   UNL A   1      46.581  35.469  26.302  1.00  0.00    -0.200 F 
ENDBRANCH  28  42
BRANCH  29  53
ATOM     53  C   UNL A   1      37.485  30.751  30.382  1.00  0.00     0.064 A 
ATOM     54  C   UNL A   1      36.656  31.193  31.422  1.00  0.00     0.173 A 
ATOM     55  C   UNL A   1      37.071  31.066  29.070  1.00  0.00     0.173 A 
ATOM     56  F   UNL A   1      37.005  30.980  32.698  1.00  0.00    -0.203 F 
ATOM     57  C   UNL A   1      35.486  31.915  31.166  1.00  0.00     0.198 A 
ATOM     58  C   UNL A   1      35.897  31.771  28.815  1.00  0.00     0.198 A 
ATOM     59  F   UNL A   1      37.843  30.775  28.013  1.00  0.00    -0.203 F 
ATOM     60  F   UNL A   1      34.748  32.373  32.185  1.00  0.00    -0.200 F 
ATOM     61  C   UNL A   1      35.111  32.208  29.863  1.00  0.00     0.200 A 
ATOM     62  F   UNL A   1      35.566  32.075  27.553  1.00  0.00    -0.200 F 
ATOM     63  F   UNL A   1      34.017  32.941  29.621  1.00  0.00    -0.200 F 
ENDBRANCH  29  53
BRANCH  41  64
ATOM     64  C   UNL A   1      42.812  29.828  33.635  1.00  0.00     0.064 A 
ATOM     65  C   UNL A   1      42.841  30.385  34.924  1.00  0.00     0.173 A 
ATOM     66  C   UNL A   1      42.393  28.498  33.513  1.00  0.00     0.173 A 
ATOM     67  F   UNL A   1      43.121  31.681  35.109  1.00  0.00    -0.203 F 
ATOM     68  C   UNL A   1      42.516  29.624  36.046  1.00  0.00     0.198 A 
ATOM     69  C   UNL A   1      42.033  27.750  34.632  1.00  0.00     0.198 A 
ATOM     70  F   UNL A   1      42.282  27.935  32.299  1.00  0.00    -0.203 F 
ATOM     71  F   UNL A   1      42.563  30.174  37.268  1.00  0.00    -0.200 F 
ATOM     72  C   UNL A   1      42.107  28.309  35.897  1.00  0.00     0.200 A 
ATOM     73  F   UNL A   1      41.586  26.496  34.479  1.00  0.00    -0.200 F 
ATOM     74  F   UNL A   1      41.755  27.589  36.972  1.00  0.00    -0.200 F 
ENDBRANCH  41  64
ENDBRANCH  15  16
ENDBRANCH   8  10
ENDBRANCH   7   8
ENDBRANCH   6   7
ENDBRANCH   5   6
ENDBRANCH   4   5
ENDBRANCH   3   4
ENDBRANCH   2   3
ENDBRANCH   1   2
BRANCH   1  75
ATOM     75  C   UNL A   1      35.992  18.697  24.890  1.00  0.00     0.188 C 
BRANCH  75  76
ATOM     76  C   UNL A   1      35.006  17.681  24.285  1.00  0.00     0.188 C 
BRANCH  76  77
ATOM     77  O   UNL A   1      33.597  17.866  24.323  1.00  0.00    -0.376 OA
BRANCH  77  78
ATOM     78  C   UNL A   1      32.824  18.068  23.155  1.00  0.00     0.202 C 
BRANCH  78  79
ATOM     79  C   UNL A   1      32.149  19.424  22.922  1.00  0.00     0.261 C 
BRANCH  79  80
ATOM     80  O   UNL A   1      32.782  20.528  23.574  1.00  0.00    -0.458 OA
BRANCH  80  81
ATOM     81  C   UNL A   1      32.299  20.822  24.823  1.00  0.00     0.361 C 
ATOM     82  O   UNL A   1      31.642  20.070  25.500  1.00  0.00    -0.244 OA
BRANCH  81  83
ATOM     83  C   UNL A   1      32.765  22.130  25.283  1.00  0.00     0.198 A 
ATOM     84  N   UNL A   1      33.490  22.236  26.445  1.00  0.00    -0.122 NA
ATOM     85  C   UNL A   1      32.696  23.380  24.678  1.00  0.00     0.123 A 
ATOM     86  N   UNL A   1      33.853  23.500  26.592  1.00  0.00    -0.061 NA
ATOM     87  N   UNL A   1      33.207  24.227  25.651  1.00  0.00    -0.213 N 
BRANCH  85  88
ATOM     88  C   UNL A   1      32.273  23.806  23.301  1.00  0.00     0.262 C 
ATOM     89  C   UNL A   1      33.441  24.106  22.351  1.00  0.00     0.281 C 
ATOM     90  O   UNL A   1      31.310  24.864  23.384  1.00  0.00    -0.477 OA
ATOM     91  O   UNL A   1      34.059  25.364  22.633  1.00  0.00    -0.485 OA
ATOM     92  C   UNL A   1      31.768  26.087  22.970  1.00  0.00     0.162 A 
ATOM     93  C   UNL A   1      33.103  26.344  22.642  1.00  0.00     0.161 A 
ATOM     94  C   UNL A   1      30.843  27.128  22.960  1.00  0.00     0.050 A 
ATOM     95  C   UNL A   1      33.525  27.642  22.364  1.00  0.00     0.050 A 
ATOM     96  C   UNL A   1      31.258  28.425  22.654  1.00  0.00     0.004 A 
ATOM     97  C   UNL A   1      32.599  28.685  22.369  1.00  0.00     0.004 A 
ENDBRANCH  85  88
BRANCH  87  98
ATOM     98  C   UNL A   1      32.723  25.489  26.033  1.00  0.00     0.067 A 
ATOM     99  C   UNL A   1      31.386  25.647  26.392  1.00  0.00     0.028 A 
ATOM    100  C   UNL A   1      33.604  26.577  25.998  1.00  0.00     0.041 A 
ATOM    101  C   UNL A   1      30.950  26.903  26.814  1.00  0.00     0.003 A 
ATOM    102  C   UNL A   1      33.155  27.848  26.373  1.00  0.00     0.058 A 
ATOM    103  C   UNL A   1      31.829  27.993  26.811  1.00  0.00     0.013 A 
BRANCH 102 104
ATOM    104  C   UNL A   1      34.098  29.023  26.338  1.00  0.00     0.416 C 
ATOM    105  F   UNL A   1      34.610  29.256  25.097  1.00  0.00    -0.166 F 
ATOM    106  F   UNL A   1      33.497  30.184  26.721  1.00  0.00    -0.166 F 
ATOM    107  F   UNL A   1      35.175  28.874  27.161  1.00  0.00    -0.166 F 
ENDBRANCH 102 104
ENDBRANCH  87  98
ENDBRANCH  81  83
ENDBRANCH  80  81
ENDBRANCH  79  80
ENDBRANCH  78  79
ENDBRANCH  77  78
ENDBRANCH  76  77
ENDBRANCH  75  76
ENDBRANCH   1  75
TORSDOF 23
ENDMDL
