MODEL 1
REMARK VINA RESULT:      -9.3      0.000      0.000
REMARK SMILES Cc1nsc(NC[C@@H]2C[C@H]3CC[C@@H]2C3)c1C(=O)OCCOCCOCCOCCOC(=O)c1ccc(-c2c3nc(c(-c4c(F)c(F)c(F)c(F)c4F)c4ccc([nH]4)c(-c4c(F)c(F)c(F)c(F)c4F)c4nc(c(-c5c(F)c(F)c(F)c(F)c5F)c5ccc2[nH]5)C=C4)C=C3)cc1
REMARK SMILES IDX 23 1 22 2 21 3 20 4 19 5 18 6 16 7 17 8 15 9 1 10 2 11 3 12
REMARK SMILES IDX 4 13 5 14 6 15 7 17 8 18 9 19 13 20 10 21 12 22 14 23 11 24
REMARK SMILES IDX 24 25 25 26 26 27 27 28 28 29 29 30 30 31 31 32 32 33 33 34
REMARK SMILES IDX 34 35 95 36 35 37 94 38 36 39 37 40 38 41 88 42 39 43 93 44
REMARK SMILES IDX 87 45 89 46 40 47 92 48 86 49 85 50 41 52 73 53 53 54 72 55
REMARK SMILES IDX 54 56 57 57 71 58 90 59 55 60 56 61 70 63 91 64 58 65 42 66
REMARK SMILES IDX 43 67 51 68 44 69 45 70 49 71 52 72 46 73 47 74 50 75 48 76
REMARK SMILES IDX 74 77 75 78 83 79 76 80 77 81 81 82 84 83 78 84 79 85 82 86
REMARK SMILES IDX 80 87 59 88 60 89 68 90 61 91 62 92 66 93 69 94 63 95 64 96
REMARK SMILES IDX 67 97 65 98
REMARK H PARENT 6 16 89 51 57 62
REMARK Flexibility Score: inf
ROOT
ATOM      1  C   UNL A   1      33.825  37.644  32.114  1.00  0.00     0.188 C 
ENDROOT
BRANCH   1   2
ATOM      2  C   UNL A   1      34.010  36.772  33.375  1.00  0.00     0.188 C 
BRANCH   2   3
ATOM      3  O   UNL A   1      35.069  35.840  33.264  1.00  0.00    -0.376 OA
BRANCH   3   4
ATOM      4  C   UNL A   1      34.809  34.474  33.484  1.00  0.00     0.202 C 
BRANCH   4   5
ATOM      5  C   UNL A   1      35.993  33.553  33.818  1.00  0.00     0.261 C 
BRANCH   5   6
ATOM      6  O   UNL A   1      37.282  33.963  33.341  1.00  0.00    -0.460 OA
BRANCH   6   7
ATOM      7  C   UNL A   1      38.234  34.235  34.269  1.00  0.00     0.343 C 
ATOM      8  O   UNL A   1      38.547  35.385  34.593  1.00  0.00    -0.246 OA
BRANCH   7   9
ATOM      9  C   UNL A   1      38.678  33.043  34.981  1.00  0.00     0.117 A 
ATOM     10  C   UNL A   1      37.486  33.412  37.286  1.00  0.00     0.069 C 
ATOM     11  C   UNL A   1      38.338  32.652  36.328  1.00  0.00     0.068 A 
ATOM     12  N   UNL A   1      38.847  31.493  36.745  1.00  0.00    -0.195 NA
ATOM     13  S   UNL A   1      39.844  30.889  35.576  1.00  0.00    -0.018 S 
ATOM     14  C   UNL A   1      39.651  32.182  34.469  1.00  0.00     0.124 A 
BRANCH  14  15
ATOM     15  N   UNL A   1      40.350  32.387  33.323  1.00  0.00    -0.375 N 
ATOM     16  H   UNL A   1      39.959  32.004  32.506  1.00  0.00     0.161 HD
BRANCH  15  17
ATOM     17  C   UNL A   1      41.596  33.100  33.155  1.00  0.00     0.117 C 
BRANCH  17  18
ATOM     18  C   UNL A   1      41.467  34.216  32.097  1.00  0.00     0.012 C 
ATOM     19  C   UNL A   1      40.236  34.115  31.161  1.00  0.00     0.009 C 
ATOM     20  C   UNL A   1      42.642  34.243  31.086  1.00  0.00    -0.006 C 
ATOM     21  C   UNL A   1      40.867  34.076  29.752  1.00  0.00    -0.011 C 
ATOM     22  C   UNL A   1      42.621  35.600  30.354  1.00  0.00     0.004 C 
ATOM     23  C   UNL A   1      42.172  33.315  29.966  1.00  0.00     0.007 C 
ATOM     24  C   UNL A   1      41.400  35.478  29.425  1.00  0.00     0.004 C 
ENDBRANCH  17  18
ENDBRANCH  15  17
ENDBRANCH  14  15
ENDBRANCH   7   9
ENDBRANCH   6   7
ENDBRANCH   5   6
ENDBRANCH   4   5
ENDBRANCH   3   4
ENDBRANCH   2   3
ENDBRANCH   1   2
BRANCH   1  25
ATOM     25  O   UNL A   1      32.888  37.269  31.111  1.00  0.00    -0.377 OA
BRANCH  25  26
ATOM     26  C   UNL A   1      33.000  36.008  30.460  1.00  0.00     0.188 C 
BRANCH  26  27
ATOM     27  C   UNL A   1      33.155  35.880  28.917  1.00  0.00     0.188 C 
BRANCH  27  28
ATOM     28  O   UNL A   1      34.357  35.300  28.449  1.00  0.00    -0.376 OA
BRANCH  28  29
ATOM     29  C   UNL A   1      34.516  33.933  28.134  1.00  0.00     0.202 C 
BRANCH  29  30
ATOM     30  C   UNL A   1      34.454  32.860  29.210  1.00  0.00     0.261 C 
BRANCH  30  31
ATOM     31  O   UNL A   1      35.548  32.863  30.096  1.00  0.00    -0.460 OA
BRANCH  31  32
ATOM     32  C   UNL A   1      35.874  31.658  30.572  1.00  0.00     0.338 C 
ATOM     33  O   UNL A   1      35.538  31.162  31.649  1.00  0.00    -0.246 OA
BRANCH  32  34
ATOM     34  C   UNL A   1      36.838  31.062  29.658  1.00  0.00     0.060 A 
ATOM     35  C   UNL A   1      36.791  29.674  29.538  1.00  0.00     0.016 A 
ATOM     36  C   UNL A   1      37.973  31.821  29.324  1.00  0.00     0.016 A 
ATOM     37  C   UNL A   1      37.982  29.021  29.367  1.00  0.00     0.010 A 
ATOM     38  C   UNL A   1      39.164  31.167  29.184  1.00  0.00     0.010 A 
ATOM     39  C   UNL A   1      39.157  29.785  29.314  1.00  0.00    -0.014 A 
BRANCH  39  40
ATOM     40  C   UNL A   1      40.407  29.074  29.348  1.00  0.00     0.031 A 
ATOM     41  C   UNL A   1      40.889  28.857  30.720  1.00  0.00     0.074 A 
ATOM     42  C   UNL A   1      41.011  28.623  28.237  1.00  0.00     0.049 A 
ATOM     43  N   UNL A   1      41.900  29.420  31.288  1.00  0.00    -0.248 NA
ATOM     44  C   UNL A   1      40.039  28.068  31.623  1.00  0.00     0.031 C 
ATOM     45  C   UNL A   1      40.495  28.540  26.870  1.00  0.00     0.029 A 
ATOM     46  N   UNL A   1      42.236  28.051  28.138  1.00  0.00    -0.354 N 
ATOM     47  C   UNL A   1      41.925  28.912  32.578  1.00  0.00     0.074 A 
ATOM     48  C   UNL A   1      40.668  28.242  32.785  1.00  0.00     0.031 C 
ATOM     49  C   UNL A   1      41.315  27.747  26.137  1.00  0.00     0.029 A 
ATOM     50  C   UNL A   1      42.467  27.386  26.946  1.00  0.00     0.049 A 
ATOM     51  H   UNL A   1      42.908  28.106  28.856  1.00  0.00     0.167 HD
ATOM     52  C   UNL A   1      43.088  28.863  33.278  1.00  0.00     0.037 A 
ATOM     53  C   UNL A   1      43.499  26.536  26.714  1.00  0.00     0.037 A 
ATOM     54  C   UNL A   1      44.072  29.761  32.730  1.00  0.00     0.049 A 
ATOM     55  C   UNL A   1      44.546  26.820  27.736  1.00  0.00     0.074 A 
ATOM     56  C   UNL A   1      44.121  31.128  32.534  1.00  0.00     0.029 A 
ATOM     57  N   UNL A   1      45.054  29.236  31.926  1.00  0.00    -0.354 N 
ATOM     58  N   UNL A   1      45.254  27.916  27.760  1.00  0.00    -0.248 NA
ATOM     59  C   UNL A   1      44.470  26.101  29.002  1.00  0.00     0.031 C 
ATOM     60  C   UNL A   1      44.782  31.301  31.282  1.00  0.00     0.029 A 
ATOM     61  C   UNL A   1      45.149  30.038  30.816  1.00  0.00     0.049 A 
ATOM     62  H   UNL A   1      45.591  28.431  32.112  1.00  0.00     0.167 HD
ATOM     63  C   UNL A   1      45.349  28.248  29.104  1.00  0.00     0.074 A 
ATOM     64  C   UNL A   1      44.918  27.054  29.826  1.00  0.00     0.031 C 
ATOM     65  C   UNL A   1      45.485  29.548  29.501  1.00  0.00     0.037 A 
BRANCH  52  66
ATOM     66  C   UNL A   1      43.435  27.731  34.203  1.00  0.00     0.064 A 
ATOM     67  C   UNL A   1      43.544  26.431  33.680  1.00  0.00     0.173 A 
ATOM     68  C   UNL A   1      43.378  27.823  35.612  1.00  0.00     0.173 A 
ATOM     69  F   UNL A   1      43.577  26.230  32.354  1.00  0.00    -0.203 F 
ATOM     70  C   UNL A   1      43.526  25.305  34.506  1.00  0.00     0.198 A 
ATOM     71  C   UNL A   1      43.421  26.702  36.434  1.00  0.00     0.198 A 
ATOM     72  F   UNL A   1      43.158  28.981  36.247  1.00  0.00    -0.203 F 
ATOM     73  F   UNL A   1      43.502  24.083  33.959  1.00  0.00    -0.200 F 
ATOM     74  C   UNL A   1      43.462  25.442  35.881  1.00  0.00     0.200 A 
ATOM     75  F   UNL A   1      43.336  26.857  37.763  1.00  0.00    -0.200 F 
ATOM     76  F   UNL A   1      43.384  24.363  36.670  1.00  0.00    -0.200 F 
ENDBRANCH  52  66
BRANCH  53  77
ATOM     77  C   UNL A   1      43.497  25.292  25.910  1.00  0.00     0.064 A 
ATOM     78  C   UNL A   1      44.591  24.963  25.092  1.00  0.00     0.173 A 
ATOM     79  C   UNL A   1      42.558  24.267  26.140  1.00  0.00     0.173 A 
ATOM     80  F   UNL A   1      45.553  25.866  24.858  1.00  0.00    -0.203 F 
ATOM     81  C   UNL A   1      44.750  23.678  24.562  1.00  0.00     0.198 A 
ATOM     82  C   UNL A   1      42.714  22.988  25.604  1.00  0.00     0.198 A 
ATOM     83  F   UNL A   1      41.522  24.454  26.970  1.00  0.00    -0.203 F 
ATOM     84  F   UNL A   1      45.841  23.383  23.840  1.00  0.00    -0.200 F 
ATOM     85  C   UNL A   1      43.818  22.690  24.828  1.00  0.00     0.200 A 
ATOM     86  F   UNL A   1      41.824  22.031  25.900  1.00  0.00    -0.200 F 
ATOM     87  F   UNL A   1      44.003  21.442  24.374  1.00  0.00    -0.200 F 
ENDBRANCH  53  77
BRANCH  65  88
ATOM     88  C   UNL A   1      45.774  30.576  28.443  1.00  0.00     0.064 A 
ATOM     89  C   UNL A   1      44.783  31.215  27.676  1.00  0.00     0.173 A 
ATOM     90  C   UNL A   1      47.091  31.030  28.297  1.00  0.00     0.173 A 
ATOM     91  F   UNL A   1      43.488  30.915  27.836  1.00  0.00    -0.203 F 
ATOM     92  C   UNL A   1      45.106  32.225  26.771  1.00  0.00     0.198 A 
ATOM     93  C   UNL A   1      47.406  32.065  27.421  1.00  0.00     0.198 A 
ATOM     94  F   UNL A   1      48.071  30.498  29.044  1.00  0.00    -0.203 F 
ATOM     95  F   UNL A   1      44.144  32.806  26.040  1.00  0.00    -0.200 F 
ATOM     96  C   UNL A   1      46.417  32.653  26.650  1.00  0.00     0.200 A 
ATOM     97  F   UNL A   1      48.668  32.511  27.345  1.00  0.00    -0.200 F 
ATOM     98  F   UNL A   1      46.724  33.651  25.809  1.00  0.00    -0.200 F 
ENDBRANCH  65  88
ENDBRANCH  39  40
ENDBRANCH  32  34
ENDBRANCH  31  32
ENDBRANCH  30  31
ENDBRANCH  29  30
ENDBRANCH  28  29
ENDBRANCH  27  28
ENDBRANCH  26  27
ENDBRANCH  25  26
ENDBRANCH   1  25
TORSDOF 23
ENDMDL
MODEL 2
REMARK VINA RESULT:      -9.3      6.112     12.408
REMARK SMILES Cc1nsc(NC[C@@H]2C[C@H]3CC[C@@H]2C3)c1C(=O)OCCOCCOCCOCCOC(=O)c1ccc(-c2c3nc(c(-c4c(F)c(F)c(F)c(F)c4F)c4ccc([nH]4)c(-c4c(F)c(F)c(F)c(F)c4F)c4nc(c(-c5c(F)c(F)c(F)c(F)c5F)c5ccc2[nH]5)C=C4)C=C3)cc1
REMARK SMILES IDX 23 1 22 2 21 3 20 4 19 5 18 6 16 7 17 8 15 9 1 10 2 11 3 12
REMARK SMILES IDX 4 13 5 14 6 15 7 17 8 18 9 19 13 20 10 21 12 22 14 23 11 24
REMARK SMILES IDX 24 25 25 26 26 27 27 28 28 29 29 30 30 31 31 32 32 33 33 34
REMARK SMILES IDX 34 35 95 36 35 37 94 38 36 39 37 40 38 41 88 42 39 43 93 44
REMARK SMILES IDX 87 45 89 46 40 47 92 48 86 49 85 50 41 52 73 53 53 54 72 55
REMARK SMILES IDX 54 56 57 57 71 58 90 59 55 60 56 61 70 63 91 64 58 65 42 66
REMARK SMILES IDX 43 67 51 68 44 69 45 70 49 71 52 72 46 73 47 74 50 75 48 76
REMARK SMILES IDX 74 77 75 78 83 79 76 80 77 81 81 82 84 83 78 84 79 85 82 86
REMARK SMILES IDX 80 87 59 88 60 89 68 90 61 91 62 92 66 93 69 94 63 95 64 96
REMARK SMILES IDX 67 97 65 98
REMARK H PARENT 6 16 89 51 57 62
REMARK Flexibility Score: inf
ROOT
ATOM      1  C   UNL A   1      40.881  19.672  26.348  1.00  0.00     0.188 C 
ENDROOT
BRANCH   1   2
ATOM      2  C   UNL A   1      39.405  19.879  25.944  1.00  0.00     0.188 C 
BRANCH   2   3
ATOM      3  O   UNL A   1      39.086  21.225  25.648  1.00  0.00    -0.376 OA
BRANCH   3   4
ATOM      4  C   UNL A   1      37.748  21.574  25.386  1.00  0.00     0.202 C 
BRANCH   4   5
ATOM      5  C   UNL A   1      37.323  23.035  25.594  1.00  0.00     0.261 C 
BRANCH   5   6
ATOM      6  O   UNL A   1      35.977  23.259  26.039  1.00  0.00    -0.460 OA
BRANCH   6   7
ATOM      7  C   UNL A   1      35.093  23.746  25.132  1.00  0.00     0.343 C 
ATOM      8  O   UNL A   1      35.410  24.038  23.975  1.00  0.00    -0.246 OA
BRANCH   7   9
ATOM      9  C   UNL A   1      33.715  23.682  25.604  1.00  0.00     0.117 A 
ATOM     10  C   UNL A   1      33.243  26.230  25.995  1.00  0.00     0.069 C 
ATOM     11  C   UNL A   1      32.868  24.788  25.978  1.00  0.00     0.068 A 
ATOM     12  N   UNL A   1      31.627  24.472  26.348  1.00  0.00    -0.195 NA
ATOM     13  S   UNL A   1      31.470  22.828  26.368  1.00  0.00    -0.018 S 
ATOM     14  C   UNL A   1      33.082  22.475  25.906  1.00  0.00     0.124 A 
BRANCH  14  15
ATOM     15  N   UNL A   1      33.677  21.255  25.887  1.00  0.00    -0.375 N 
ATOM     16  H   UNL A   1      33.873  20.858  26.766  1.00  0.00     0.161 HD
BRANCH  15  17
ATOM     17  C   UNL A   1      34.056  20.466  24.737  1.00  0.00     0.117 C 
BRANCH  17  18
ATOM     18  C   UNL A   1      33.921  18.956  25.021  1.00  0.00     0.012 C 
ATOM     19  C   UNL A   1      34.921  18.038  24.273  1.00  0.00     0.009 C 
ATOM     20  C   UNL A   1      32.553  18.369  24.586  1.00  0.00    -0.006 C 
ATOM     21  C   UNL A   1      34.000  17.070  23.499  1.00  0.00    -0.011 C 
ATOM     22  C   UNL A   1      32.377  16.996  25.267  1.00  0.00     0.004 C 
ATOM     23  C   UNL A   1      32.794  17.934  23.141  1.00  0.00     0.007 C 
ATOM     24  C   UNL A   1      33.369  16.098  24.506  1.00  0.00     0.004 C 
ENDBRANCH  17  18
ENDBRANCH  15  17
ENDBRANCH  14  15
ENDBRANCH   7   9
ENDBRANCH   6   7
ENDBRANCH   5   6
ENDBRANCH   4   5
ENDBRANCH   3   4
ENDBRANCH   2   3
ENDBRANCH   1   2
BRANCH   1  25
ATOM     25  O   UNL A   1      41.680  18.702  25.682  1.00  0.00    -0.377 OA
BRANCH  25  26
ATOM     26  C   UNL A   1      43.057  18.556  26.013  1.00  0.00     0.188 C 
BRANCH  26  27
ATOM     27  C   UNL A   1      44.196  18.971  25.038  1.00  0.00     0.188 C 
BRANCH  27  28
ATOM     28  O   UNL A   1      44.329  20.355  24.775  1.00  0.00    -0.376 OA
BRANCH  28  29
ATOM     29  C   UNL A   1      44.043  21.376  25.707  1.00  0.00     0.202 C 
BRANCH  29  30
ATOM     30  C   UNL A   1      44.937  22.600  25.838  1.00  0.00     0.261 C 
BRANCH  30  31
ATOM     31  O   UNL A   1      44.274  23.756  26.292  1.00  0.00    -0.460 OA
BRANCH  31  32
ATOM     32  C   UNL A   1      43.232  24.123  25.541  1.00  0.00     0.338 C 
ATOM     33  O   UNL A   1      43.124  24.036  24.316  1.00  0.00    -0.246 OA
BRANCH  32  34
ATOM     34  C   UNL A   1      42.274  24.799  26.404  1.00  0.00     0.060 A 
ATOM     35  C   UNL A   1      41.443  25.730  25.784  1.00  0.00     0.016 A 
ATOM     36  C   UNL A   1      42.532  24.803  27.785  1.00  0.00     0.016 A 
ATOM     37  C   UNL A   1      41.111  26.847  26.504  1.00  0.00     0.010 A 
ATOM     38  C   UNL A   1      42.225  25.931  28.492  1.00  0.00     0.010 A 
ATOM     39  C   UNL A   1      41.613  26.972  27.807  1.00  0.00    -0.014 A 
BRANCH  39  40
ATOM     40  C   UNL A   1      41.431  28.237  28.465  1.00  0.00     0.031 A 
ATOM     41  C   UNL A   1      42.522  29.180  28.175  1.00  0.00     0.074 A 
ATOM     42  C   UNL A   1      40.348  28.516  29.207  1.00  0.00     0.049 A 
ATOM     43  N   UNL A   1      43.436  29.586  28.988  1.00  0.00    -0.248 NA
ATOM     44  C   UNL A   1      42.732  29.567  26.772  1.00  0.00     0.031 C 
ATOM     45  C   UNL A   1      39.095  27.770  29.335  1.00  0.00     0.029 A 
ATOM     46  N   UNL A   1      40.126  29.619  29.963  1.00  0.00    -0.354 N 
ATOM     47  C   UNL A   1      44.240  30.435  28.242  1.00  0.00     0.074 A 
ATOM     48  C   UNL A   1      43.879  30.241  26.861  1.00  0.00     0.031 C 
ATOM     49  C   UNL A   1      38.172  28.558  29.937  1.00  0.00     0.029 A 
ATOM     50  C   UNL A   1      38.809  29.798  30.349  1.00  0.00     0.049 A 
ATOM     51  H   UNL A   1      40.845  30.241  30.219  1.00  0.00     0.167 HD
ATOM     52  C   UNL A   1      44.955  31.418  28.846  1.00  0.00     0.037 A 
ATOM     53  C   UNL A   1      38.301  30.937  30.884  1.00  0.00     0.037 A 
ATOM     54  C   UNL A   1      45.118  31.162  30.254  1.00  0.00     0.049 A 
ATOM     55  C   UNL A   1      39.448  31.729  31.411  1.00  0.00     0.074 A 
ATOM     56  C   UNL A   1      45.696  30.141  30.984  1.00  0.00     0.029 A 
ATOM     57  N   UNL A   1      44.302  31.830  31.134  1.00  0.00    -0.354 N 
ATOM     58  N   UNL A   1      40.154  31.376  32.450  1.00  0.00    -0.248 NA
ATOM     59  C   UNL A   1      40.103  32.660  30.501  1.00  0.00     0.031 C 
ATOM     60  C   UNL A   1      44.840  29.955  32.109  1.00  0.00     0.029 A 
ATOM     61  C   UNL A   1      43.823  30.908  32.032  1.00  0.00     0.049 A 
ATOM     62  H   UNL A   1      44.097  32.793  31.123  1.00  0.00     0.167 HD
ATOM     63  C   UNL A   1      41.464  31.685  32.110  1.00  0.00     0.074 A 
ATOM     64  C   UNL A   1      41.362  32.545  30.934  1.00  0.00     0.031 C 
ATOM     65  C   UNL A   1      42.512  30.980  32.630  1.00  0.00     0.037 A 
BRANCH  52  66
ATOM     66  C   UNL A   1      45.163  32.772  28.229  1.00  0.00     0.064 A 
ATOM     67  C   UNL A   1      46.475  33.224  28.005  1.00  0.00     0.173 A 
ATOM     68  C   UNL A   1      44.149  33.751  28.123  1.00  0.00     0.173 A 
ATOM     69  F   UNL A   1      47.514  32.383  28.109  1.00  0.00    -0.203 F 
ATOM     70  C   UNL A   1      46.754  34.571  27.760  1.00  0.00     0.198 A 
ATOM     71  C   UNL A   1      44.425  35.080  27.820  1.00  0.00     0.198 A 
ATOM     72  F   UNL A   1      42.870  33.494  28.423  1.00  0.00    -0.203 F 
ATOM     73  F   UNL A   1      48.026  34.980  27.680  1.00  0.00    -0.200 F 
ATOM     74  C   UNL A   1      45.729  35.497  27.671  1.00  0.00     0.200 A 
ATOM     75  F   UNL A   1      43.419  35.964  27.759  1.00  0.00    -0.200 F 
ATOM     76  F   UNL A   1      45.999  36.796  27.497  1.00  0.00    -0.200 F 
ENDBRANCH  52  66
BRANCH  53  77
ATOM     77  C   UNL A   1      36.963  31.533  30.666  1.00  0.00     0.064 A 
ATOM     78  C   UNL A   1      36.078  31.726  31.739  1.00  0.00     0.173 A 
ATOM     79  C   UNL A   1      36.634  32.182  29.459  1.00  0.00     0.173 A 
ATOM     80  F   UNL A   1      36.339  31.181  32.935  1.00  0.00    -0.203 F 
ATOM     81  C   UNL A   1      34.949  32.545  31.621  1.00  0.00     0.198 A 
ATOM     82  C   UNL A   1      35.503  32.991  29.340  1.00  0.00     0.198 A 
ATOM     83  F   UNL A   1      37.452  32.126  28.399  1.00  0.00    -0.203 F 
ATOM     84  F   UNL A   1      34.164  32.758  32.686  1.00  0.00    -0.200 F 
ATOM     85  C   UNL A   1      34.669  33.184  30.425  1.00  0.00     0.200 A 
ATOM     86  F   UNL A   1      35.264  33.634  28.188  1.00  0.00    -0.200 F 
ATOM     87  F   UNL A   1      33.623  34.019  30.330  1.00  0.00    -0.200 F 
ENDBRANCH  53  77
BRANCH  65  88
ATOM     88  C   UNL A   1      42.225  30.030  33.759  1.00  0.00     0.064 A 
ATOM     89  C   UNL A   1      41.799  28.702  33.581  1.00  0.00     0.173 A 
ATOM     90  C   UNL A   1      42.525  30.439  35.066  1.00  0.00     0.173 A 
ATOM     91  F   UNL A   1      41.596  28.202  32.356  1.00  0.00    -0.203 F 
ATOM     92  C   UNL A   1      41.633  27.842  34.666  1.00  0.00     0.198 A 
ATOM     93  C   UNL A   1      42.396  29.567  36.143  1.00  0.00     0.198 A 
ATOM     94  F   UNL A   1      42.990  31.677  35.292  1.00  0.00    -0.203 F 
ATOM     95  F   UNL A   1      41.210  26.585  34.470  1.00  0.00    -0.200 F 
ATOM     96  C   UNL A   1      41.939  28.274  35.946  1.00  0.00     0.200 A 
ATOM     97  F   UNL A   1      42.742  29.974  37.373  1.00  0.00    -0.200 F 
ATOM     98  F   UNL A   1      41.818  27.437  36.986  1.00  0.00    -0.200 F 
ENDBRANCH  65  88
ENDBRANCH  39  40
ENDBRANCH  32  34
ENDBRANCH  31  32
ENDBRANCH  30  31
ENDBRANCH  29  30
ENDBRANCH  28  29
ENDBRANCH  27  28
ENDBRANCH  26  27
ENDBRANCH  25  26
ENDBRANCH   1  25
TORSDOF 23
ENDMDL
MODEL 3
REMARK VINA RESULT:      -9.1      5.478     11.444
REMARK SMILES Cc1nsc(NC[C@@H]2C[C@H]3CC[C@@H]2C3)c1C(=O)OCCOCCOCCOCCOC(=O)c1ccc(-c2c3nc(c(-c4c(F)c(F)c(F)c(F)c4F)c4ccc([nH]4)c(-c4c(F)c(F)c(F)c(F)c4F)c4nc(c(-c5c(F)c(F)c(F)c(F)c5F)c5ccc2[nH]5)C=C4)C=C3)cc1
REMARK SMILES IDX 23 1 22 2 21 3 20 4 19 5 18 6 16 7 17 8 15 9 1 10 2 11 3 12
REMARK SMILES IDX 4 13 5 14 6 15 7 17 8 18 9 19 13 20 10 21 12 22 14 23 11 24
REMARK SMILES IDX 24 25 25 26 26 27 27 28 28 29 29 30 30 31 31 32 32 33 33 34
REMARK SMILES IDX 34 35 95 36 35 37 94 38 36 39 37 40 38 41 88 42 39 43 93 44
REMARK SMILES IDX 87 45 89 46 40 47 92 48 86 49 85 50 41 52 73 53 53 54 72 55
REMARK SMILES IDX 54 56 57 57 71 58 90 59 55 60 56 61 70 63 91 64 58 65 42 66
REMARK SMILES IDX 43 67 51 68 44 69 45 70 49 71 52 72 46 73 47 74 50 75 48 76
REMARK SMILES IDX 74 77 75 78 83 79 76 80 77 81 81 82 84 83 78 84 79 85 82 86
REMARK SMILES IDX 80 87 59 88 60 89 68 90 61 91 62 92 66 93 69 94 63 95 64 96
REMARK SMILES IDX 67 97 65 98
REMARK H PARENT 6 16 89 51 57 62
REMARK Flexibility Score: inf
ROOT
ATOM      1  C   UNL A   1      40.134  20.388  26.121  1.00  0.00     0.188 C 
ENDROOT
BRANCH   1   2
ATOM      2  C   UNL A   1      38.702  20.706  25.636  1.00  0.00     0.188 C 
BRANCH   2   3
ATOM      3  O   UNL A   1      38.350  22.069  25.775  1.00  0.00    -0.376 OA
BRANCH   3   4
ATOM      4  C   UNL A   1      37.034  22.473  25.480  1.00  0.00     0.202 C 
BRANCH   4   5
ATOM      5  C   UNL A   1      36.733  23.978  25.417  1.00  0.00     0.261 C 
BRANCH   5   6
ATOM      6  O   UNL A   1      35.456  24.402  25.916  1.00  0.00    -0.460 OA
BRANCH   6   7
ATOM      7  C   UNL A   1      34.425  24.443  25.035  1.00  0.00     0.343 C 
ATOM      8  O   UNL A   1      34.585  24.410  23.811  1.00  0.00    -0.246 OA
BRANCH   7   9
ATOM      9  C   UNL A   1      33.127  24.312  25.686  1.00  0.00     0.117 A 
ATOM     10  C   UNL A   1      33.440  21.999  26.878  1.00  0.00     0.069 C 
ATOM     11  C   UNL A   1      32.677  23.231  26.529  1.00  0.00     0.068 A 
ATOM     12  N   UNL A   1      31.452  23.359  27.037  1.00  0.00    -0.195 NA
ATOM     13  S   UNL A   1      30.754  24.726  26.429  1.00  0.00    -0.018 S 
ATOM     14  C   UNL A   1      32.069  25.187  25.431  1.00  0.00     0.124 A 
BRANCH  14  15
ATOM     15  N   UNL A   1      32.084  26.182  24.508  1.00  0.00    -0.375 N 
ATOM     16  H   UNL A   1      32.652  26.029  23.719  1.00  0.00     0.161 HD
BRANCH  15  17
ATOM     17  C   UNL A   1      31.367  27.437  24.538  1.00  0.00     0.117 C 
BRANCH  17  18
ATOM     18  C   UNL A   1      32.237  28.567  25.125  1.00  0.00     0.012 C 
ATOM     19  C   UNL A   1      33.706  28.189  25.442  1.00  0.00     0.009 C 
ATOM     20  C   UNL A   1      31.732  29.082  26.498  1.00  0.00    -0.006 C 
ATOM     21  C   UNL A   1      33.838  28.514  26.945  1.00  0.00    -0.011 C 
ATOM     22  C   UNL A   1      32.409  30.437  26.787  1.00  0.00     0.004 C 
ATOM     23  C   UNL A   1      32.456  28.188  27.504  1.00  0.00     0.007 C 
ATOM     24  C   UNL A   1      33.862  30.041  27.107  1.00  0.00     0.004 C 
ENDBRANCH  17  18
ENDBRANCH  15  17
ENDBRANCH  14  15
ENDBRANCH   7   9
ENDBRANCH   6   7
ENDBRANCH   5   6
ENDBRANCH   4   5
ENDBRANCH   3   4
ENDBRANCH   2   3
ENDBRANCH   1   2
BRANCH   1  25
ATOM     25  O   UNL A   1      40.762  19.165  25.757  1.00  0.00    -0.377 OA
BRANCH  25  26
ATOM     26  C   UNL A   1      42.037  18.827  26.291  1.00  0.00     0.188 C 
BRANCH  26  27
ATOM     27  C   UNL A   1      43.327  18.812  25.420  1.00  0.00     0.188 C 
BRANCH  27  28
ATOM     28  O   UNL A   1      43.866  20.071  25.069  1.00  0.00    -0.376 OA
BRANCH  28  29
ATOM     29  C   UNL A   1      43.709  21.249  25.832  1.00  0.00     0.202 C 
BRANCH  29  30
ATOM     30  C   UNL A   1      44.812  22.294  25.912  1.00  0.00     0.261 C 
BRANCH  30  31
ATOM     31  O   UNL A   1      44.393  23.541  26.413  1.00  0.00    -0.460 OA
BRANCH  31  32
ATOM     32  C   UNL A   1      43.557  24.204  25.608  1.00  0.00     0.338 C 
ATOM     33  O   UNL A   1      43.657  24.362  24.389  1.00  0.00    -0.246 OA
BRANCH  32  34
ATOM     34  C   UNL A   1      42.558  24.858  26.441  1.00  0.00     0.060 A 
ATOM     35  C   UNL A   1      41.704  25.746  25.790  1.00  0.00     0.016 A 
ATOM     36  C   UNL A   1      42.790  24.896  27.827  1.00  0.00     0.016 A 
ATOM     37  C   UNL A   1      41.317  26.861  26.483  1.00  0.00     0.010 A 
ATOM     38  C   UNL A   1      42.428  26.023  28.508  1.00  0.00     0.010 A 
ATOM     39  C   UNL A   1      41.790  27.028  27.793  1.00  0.00    -0.014 A 
BRANCH  39  40
ATOM     40  C   UNL A   1      41.548  28.296  28.425  1.00  0.00     0.031 A 
ATOM     41  C   UNL A   1      42.613  29.272  28.146  1.00  0.00     0.074 A 
ATOM     42  C   UNL A   1      40.437  28.549  29.135  1.00  0.00     0.049 A 
ATOM     43  N   UNL A   1      43.492  29.723  28.975  1.00  0.00    -0.248 NA
ATOM     44  C   UNL A   1      42.845  29.644  26.743  1.00  0.00     0.031 C 
ATOM     45  C   UNL A   1      39.208  27.762  29.244  1.00  0.00     0.029 A 
ATOM     46  N   UNL A   1      40.159  29.656  29.866  1.00  0.00    -0.354 N 
ATOM     47  C   UNL A   1      44.284  30.586  28.234  1.00  0.00     0.074 A 
ATOM     48  C   UNL A   1      43.965  30.358  26.849  1.00  0.00     0.031 C 
ATOM     49  C   UNL A   1      38.243  28.528  29.809  1.00  0.00     0.029 A 
ATOM     50  C   UNL A   1      38.827  29.796  30.216  1.00  0.00     0.049 A 
ATOM     51  H   UNL A   1      40.849  30.307  30.129  1.00  0.00     0.167 HD
ATOM     52  C   UNL A   1      44.950  31.603  28.839  1.00  0.00     0.037 A 
ATOM     53  C   UNL A   1      38.266  30.924  30.719  1.00  0.00     0.037 A 
ATOM     54  C   UNL A   1      45.085  31.376  30.255  1.00  0.00     0.049 A 
ATOM     55  C   UNL A   1      39.372  31.765  31.261  1.00  0.00     0.074 A 
ATOM     56  C   UNL A   1      45.680  30.388  31.016  1.00  0.00     0.029 A 
ATOM     57  N   UNL A   1      44.225  32.030  31.103  1.00  0.00    -0.354 N 
ATOM     58  N   UNL A   1      40.063  31.453  32.323  1.00  0.00    -0.248 NA
ATOM     59  C   UNL A   1      40.018  32.703  30.351  1.00  0.00     0.031 C 
ATOM     60  C   UNL A   1      44.802  30.190  32.122  1.00  0.00     0.029 A 
ATOM     61  C   UNL A   1      43.756  31.106  32.004  1.00  0.00     0.049 A 
ATOM     62  H   UNL A   1      43.987  32.985  31.070  1.00  0.00     0.167 HD
ATOM     63  C   UNL A   1      41.369  31.801  32.010  1.00  0.00     0.074 A 
ATOM     64  C   UNL A   1      41.268  32.639  30.818  1.00  0.00     0.031 C 
ATOM     65  C   UNL A   1      42.428  31.142  32.568  1.00  0.00     0.037 A 
BRANCH  52  66
ATOM     66  C   UNL A   1      45.127  32.954  28.205  1.00  0.00     0.064 A 
ATOM     67  C   UNL A   1      46.428  33.424  27.955  1.00  0.00     0.173 A 
ATOM     68  C   UNL A   1      44.096  33.915  28.104  1.00  0.00     0.173 A 
ATOM     69  F   UNL A   1      47.482  32.601  28.053  1.00  0.00    -0.203 F 
ATOM     70  C   UNL A   1      46.682  34.772  27.692  1.00  0.00     0.198 A 
ATOM     71  C   UNL A   1      44.347  35.245  27.783  1.00  0.00     0.198 A 
ATOM     72  F   UNL A   1      42.826  33.641  28.426  1.00  0.00    -0.203 F 
ATOM     73  F   UNL A   1      47.946  35.201  27.588  1.00  0.00    -0.200 F 
ATOM     74  C   UNL A   1      45.641  35.681  27.609  1.00  0.00     0.200 A 
ATOM     75  F   UNL A   1      43.326  36.112  27.727  1.00  0.00    -0.200 F 
ATOM     76  F   UNL A   1      45.888  36.983  27.417  1.00  0.00    -0.200 F 
ENDBRANCH  52  66
BRANCH  53  77
ATOM     77  C   UNL A   1      36.915  31.471  30.457  1.00  0.00     0.064 A 
ATOM     78  C   UNL A   1      36.046  31.779  31.517  1.00  0.00     0.173 A 
ATOM     79  C   UNL A   1      36.552  31.964  29.188  1.00  0.00     0.173 A 
ATOM     80  F   UNL A   1      36.338  31.386  32.764  1.00  0.00    -0.203 F 
ATOM     81  C   UNL A   1      34.901  32.561  31.324  1.00  0.00     0.198 A 
ATOM     82  C   UNL A   1      35.406  32.736  28.995  1.00  0.00     0.198 A 
ATOM     83  F   UNL A   1      37.353  31.792  28.126  1.00  0.00    -0.203 F 
ATOM     84  F   UNL A   1      34.132  32.890  32.371  1.00  0.00    -0.200 F 
ATOM     85  C   UNL A   1      34.589  33.047  30.065  1.00  0.00     0.200 A 
ATOM     86  F   UNL A   1      35.135  33.231  27.779  1.00  0.00    -0.200 F 
ATOM     87  F   UNL A   1      33.528  33.848  29.891  1.00  0.00    -0.200 F 
ENDBRANCH  53  77
BRANCH  65  88
ATOM     88  C   UNL A   1      42.144  30.201  33.706  1.00  0.00     0.064 A 
ATOM     89  C   UNL A   1      41.767  28.856  33.540  1.00  0.00     0.173 A 
ATOM     90  C   UNL A   1      42.398  30.641  35.012  1.00  0.00     0.173 A 
ATOM     91  F   UNL A   1      41.612  28.330  32.318  1.00  0.00    -0.203 F 
ATOM     92  C   UNL A   1      41.604  28.009  34.634  1.00  0.00     0.198 A 
ATOM     93  C   UNL A   1      42.272  29.782  36.101  1.00  0.00     0.198 A 
ATOM     94  F   UNL A   1      42.817  31.897  35.229  1.00  0.00    -0.203 F 
ATOM     95  F   UNL A   1      41.227  26.736  34.449  1.00  0.00    -0.200 F 
ATOM     96  C   UNL A   1      41.863  28.472  35.914  1.00  0.00     0.200 A 
ATOM     97  F   UNL A   1      42.574  30.220  37.331  1.00  0.00    -0.200 F 
ATOM     98  F   UNL A   1      41.745  27.647  36.965  1.00  0.00    -0.200 F 
ENDBRANCH  65  88
ENDBRANCH  39  40
ENDBRANCH  32  34
ENDBRANCH  31  32
ENDBRANCH  30  31
ENDBRANCH  29  30
ENDBRANCH  28  29
ENDBRANCH  27  28
ENDBRANCH  26  27
ENDBRANCH  25  26
ENDBRANCH   1  25
TORSDOF 23
ENDMDL
