MODEL 1
REMARK VINA RESULT:     -10.9      0.000      0.000
REMARK SMILES CC1(C)CCN(C(=O)N[C@](C)(C(=O)OCCOCCOCCOCCOC(=O)c2ccc(-c3c4nc(c(-c5c(F)c(F)c(F)c(F)c5F)c5ccc([nH]5)c(-c5c(F)c(F)c(F)c(F)c5F)c5nc(c(-c6c(F)c(F)c(F)c(F)c6F)c6ccc3[nH]6)C=C5)C=C4)cc2)c2ccccc2)C1
REMARK SMILES IDX 20 1 19 2 18 3 17 4 16 5 15 6 14 7 12 8 13 9 10 10 11 11
REMARK SMILES IDX 9 12 7 13 8 14 6 16 1 17 2 18 3 19 4 20 98 21 5 22 92 23
REMARK SMILES IDX 93 24 97 25 94 26 96 27 95 28 21 29 22 30 23 31 24 32 25 33
REMARK SMILES IDX 26 34 27 35 28 36 29 37 30 38 91 39 31 40 90 41 32 42 33 43
REMARK SMILES IDX 34 44 84 45 35 46 89 47 83 48 85 49 36 50 88 51 82 52 81 53
REMARK SMILES IDX 37 55 69 56 49 57 68 58 50 59 53 60 67 61 86 62 51 63 52 64
REMARK SMILES IDX 66 66 87 67 54 68 38 69 39 70 47 71 40 72 41 73 45 74 48 75
REMARK SMILES IDX 42 76 43 77 46 78 44 79 70 80 71 81 79 82 72 83 73 84 77 85
REMARK SMILES IDX 80 86 74 87 75 88 78 89 76 90 55 91 56 92 64 93 57 94 58 95
REMARK SMILES IDX 62 96 65 97 59 98 60 99 63 100 61 101
REMARK H PARENT 9 15 85 54 53 65
REMARK Flexibility Score: inf
ROOT
ATOM      1  O   UNL A   1      40.943  19.964  27.484  1.00  0.00    -0.377 OA
ENDROOT
BRANCH   1   2
ATOM      2  C   UNL A   1      41.075  21.368  27.577  1.00  0.00     0.188 C 
BRANCH   2   3
ATOM      3  C   UNL A   1      40.082  22.173  26.725  1.00  0.00     0.188 C 
BRANCH   3   4
ATOM      4  O   UNL A   1      39.091  21.353  26.132  1.00  0.00    -0.376 OA
BRANCH   4   5
ATOM      5  C   UNL A   1      38.021  22.001  25.463  1.00  0.00     0.202 C 
BRANCH   5   6
ATOM      6  C   UNL A   1      36.830  21.234  24.835  1.00  0.00     0.261 C 
BRANCH   6   7
ATOM      7  O   UNL A   1      35.558  21.907  24.820  1.00  0.00    -0.461 OA
BRANCH   7   8
ATOM      8  C   UNL A   1      35.224  22.728  23.784  1.00  0.00     0.336 C 
ATOM      9  O   UNL A   1      35.955  22.909  22.818  1.00  0.00    -0.249 OA
BRANCH   8  10
ATOM     10  C   UNL A   1      33.728  23.281  23.931  1.00  0.00     0.162 C 
ATOM     11  C   UNL A   1      32.943  22.839  22.643  1.00  0.00     0.053 C 
BRANCH  10  12
ATOM     12  N   UNL A   1      33.056  22.538  25.034  1.00  0.00    -0.318 N 
ATOM     13  C   UNL A   1      32.251  21.461  24.995  1.00  0.00     0.318 C 
ATOM     14  O   UNL A   1      31.117  21.630  25.453  1.00  0.00    -0.249 OA
ATOM     15  H   UNL A   1      33.229  22.893  25.935  1.00  0.00     0.166 HD
BRANCH  13  16
ATOM     16  N   UNL A   1      32.697  20.229  24.625  1.00  0.00    -0.324 N 
ATOM     17  C   UNL A   1      32.918  16.705  25.165  1.00  0.00     0.013 C 
ATOM     18  C   UNL A   1      33.509  17.967  24.533  1.00  0.00    -0.016 C 
ATOM     19  C   UNL A   1      35.008  17.715  24.296  1.00  0.00     0.013 C 
ATOM     20  C   UNL A   1      32.864  18.351  23.188  1.00  0.00     0.030 C 
ATOM     21  C   UNL A   1      33.215  19.162  25.459  1.00  0.00     0.127 C 
ATOM     22  C   UNL A   1      32.128  19.655  23.427  1.00  0.00     0.122 C 
ENDBRANCH  13  16
ENDBRANCH  10  12
BRANCH  10  23
ATOM     23  C   UNL A   1      33.743  24.807  24.154  1.00  0.00    -0.012 A 
ATOM     24  C   UNL A   1      33.554  25.679  23.058  1.00  0.00     0.007 A 
ATOM     25  C   UNL A   1      33.949  25.403  25.418  1.00  0.00     0.007 A 
ATOM     26  C   UNL A   1      33.475  27.065  23.231  1.00  0.00     0.000 A 
ATOM     27  C   UNL A   1      33.904  26.794  25.583  1.00  0.00     0.000 A 
ATOM     28  C   UNL A   1      33.651  27.622  24.492  1.00  0.00     0.000 A 
ENDBRANCH  10  23
ENDBRANCH   8  10
ENDBRANCH   7   8
ENDBRANCH   6   7
ENDBRANCH   5   6
ENDBRANCH   4   5
ENDBRANCH   3   4
ENDBRANCH   2   3
ENDBRANCH   1   2
BRANCH   1  29
ATOM     29  C   UNL A   1      42.125  19.213  27.254  1.00  0.00     0.188 C 
BRANCH  29  30
ATOM     30  C   UNL A   1      42.471  18.604  25.869  1.00  0.00     0.188 C 
BRANCH  30  31
ATOM     31  O   UNL A   1      43.199  19.443  24.986  1.00  0.00    -0.376 OA
BRANCH  31  32
ATOM     32  C   UNL A   1      44.054  20.436  25.522  1.00  0.00     0.202 C 
BRANCH  32  33
ATOM     33  C   UNL A   1      44.147  21.776  24.779  1.00  0.00     0.261 C 
BRANCH  33  34
ATOM     34  O   UNL A   1      43.575  22.911  25.442  1.00  0.00    -0.460 OA
BRANCH  34  35
ATOM     35  C   UNL A   1      44.194  24.105  25.277  1.00  0.00     0.338 C 
ATOM     36  O   UNL A   1      44.757  24.512  24.288  1.00  0.00    -0.246 OA
BRANCH  35  37
ATOM     37  C   UNL A   1      43.882  24.923  26.473  1.00  0.00     0.060 A 
ATOM     38  C   UNL A   1      43.033  24.392  27.456  1.00  0.00     0.016 A 
ATOM     39  C   UNL A   1      44.476  26.174  26.651  1.00  0.00     0.016 A 
ATOM     40  C   UNL A   1      42.759  25.123  28.612  1.00  0.00     0.010 A 
ATOM     41  C   UNL A   1      44.168  26.923  27.788  1.00  0.00     0.010 A 
ATOM     42  C   UNL A   1      43.282  26.413  28.755  1.00  0.00    -0.014 A 
BRANCH  42  43
ATOM     43  C   UNL A   1      42.691  27.327  29.761  1.00  0.00     0.031 A 
ATOM     44  C   UNL A   1      43.347  27.374  31.116  1.00  0.00     0.074 A 
ATOM     45  C   UNL A   1      41.634  28.109  29.487  1.00  0.00     0.049 A 
ATOM     46  N   UNL A   1      42.983  28.012  32.198  1.00  0.00    -0.248 NA
ATOM     47  C   UNL A   1      44.585  26.588  31.268  1.00  0.00     0.031 C 
ATOM     48  C   UNL A   1      40.954  28.200  28.198  1.00  0.00     0.029 A 
ATOM     49  N   UNL A   1      40.938  28.974  30.298  1.00  0.00    -0.354 N 
ATOM     50  C   UNL A   1      43.945  27.706  33.152  1.00  0.00     0.074 A 
ATOM     51  C   UNL A   1      44.887  26.797  32.538  1.00  0.00     0.031 C 
ATOM     52  C   UNL A   1      39.923  29.057  28.309  1.00  0.00     0.029 A 
ATOM     53  C   UNL A   1      39.848  29.545  29.686  1.00  0.00     0.049 A 
ATOM     54  H   UNL A   1      41.196  29.166  31.228  1.00  0.00     0.167 HD
ATOM     55  C   UNL A   1      44.042  28.155  34.423  1.00  0.00     0.037 A 
ATOM     56  C   UNL A   1      38.887  30.340  30.198  1.00  0.00     0.037 A 
ATOM     57  C   UNL A   1      43.099  29.051  35.034  1.00  0.00     0.049 A 
ATOM     58  C   UNL A   1      38.961  30.737  31.656  1.00  0.00     0.074 A 
ATOM     59  C   UNL A   1      43.094  29.547  36.325  1.00  0.00     0.029 A 
ATOM     60  N   UNL A   1      41.992  29.584  34.393  1.00  0.00    -0.354 N 
ATOM     61  N   UNL A   1      39.874  30.450  32.553  1.00  0.00    -0.248 NA
ATOM     62  C   UNL A   1      37.866  31.574  32.172  1.00  0.00     0.031 C 
ATOM     63  C   UNL A   1      41.955  30.342  36.480  1.00  0.00     0.029 A 
ATOM     64  C   UNL A   1      41.287  30.393  35.266  1.00  0.00     0.049 A 
ATOM     65  H   UNL A   1      41.744  29.411  33.455  1.00  0.00     0.167 HD
ATOM     66  C   UNL A   1      39.490  31.108  33.716  1.00  0.00     0.074 A 
ATOM     67  C   UNL A   1      38.268  31.817  33.410  1.00  0.00     0.031 C 
ATOM     68  C   UNL A   1      40.093  31.123  34.931  1.00  0.00     0.037 A 
BRANCH  55  69
ATOM     69  C   UNL A   1      45.200  27.674  35.246  1.00  0.00     0.064 A 
ATOM     70  C   UNL A   1      46.418  28.369  35.275  1.00  0.00     0.173 A 
ATOM     71  C   UNL A   1      45.072  26.538  36.058  1.00  0.00     0.173 A 
ATOM     72  F   UNL A   1      46.598  29.450  34.499  1.00  0.00    -0.203 F 
ATOM     73  C   UNL A   1      47.469  27.939  36.079  1.00  0.00     0.198 A 
ATOM     74  C   UNL A   1      46.114  26.127  36.885  1.00  0.00     0.198 A 
ATOM     75  F   UNL A   1      43.928  25.836  36.065  1.00  0.00    -0.203 F 
ATOM     76  F   UNL A   1      48.636  28.597  36.064  1.00  0.00    -0.200 F 
ATOM     77  C   UNL A   1      47.312  26.826  36.892  1.00  0.00     0.200 A 
ATOM     78  F   UNL A   1      45.956  25.060  37.679  1.00  0.00    -0.200 F 
ATOM     79  F   UNL A   1      48.317  26.424  37.681  1.00  0.00    -0.200 F 
ENDBRANCH  55  69
BRANCH  56  80
ATOM     80  C   UNL A   1      37.746  30.797  29.357  1.00  0.00     0.064 A 
ATOM     81  C   UNL A   1      37.620  32.140  28.972  1.00  0.00     0.173 A 
ATOM     82  C   UNL A   1      36.711  29.921  28.996  1.00  0.00     0.173 A 
ATOM     83  F   UNL A   1      38.566  33.027  29.315  1.00  0.00    -0.203 F 
ATOM     84  C   UNL A   1      36.485  32.597  28.302  1.00  0.00     0.198 A 
ATOM     85  C   UNL A   1      35.596  30.370  28.292  1.00  0.00     0.198 A 
ATOM     86  F   UNL A   1      36.776  28.627  29.340  1.00  0.00    -0.203 F 
ATOM     87  F   UNL A   1      36.355  33.901  28.021  1.00  0.00    -0.200 F 
ATOM     88  C   UNL A   1      35.475  31.711  27.960  1.00  0.00     0.200 A 
ATOM     89  F   UNL A   1      34.628  29.508  27.954  1.00  0.00    -0.200 F 
ATOM     90  F   UNL A   1      34.378  32.152  27.330  1.00  0.00    -0.200 F 
ENDBRANCH  56  80
BRANCH  68  91
ATOM     91  C   UNL A   1      39.491  31.991  36.000  1.00  0.00     0.064 A 
ATOM     92  C   UNL A   1      38.460  31.537  36.834  1.00  0.00     0.173 A 
ATOM     93  C   UNL A   1      39.995  33.283  36.223  1.00  0.00     0.173 A 
ATOM     94  F   UNL A   1      37.935  30.314  36.656  1.00  0.00    -0.203 F 
ATOM     95  C   UNL A   1      37.936  32.354  37.833  1.00  0.00     0.198 A 
ATOM     96  C   UNL A   1      39.494  34.082  37.247  1.00  0.00     0.198 A 
ATOM     97  F   UNL A   1      40.990  33.762  35.462  1.00  0.00    -0.203 F 
ATOM     98  F   UNL A   1      36.915  31.918  38.585  1.00  0.00    -0.200 F 
ATOM     99  C   UNL A   1      38.459  33.621  38.044  1.00  0.00     0.200 A 
ATOM    100  F   UNL A   1      40.016  35.297  37.461  1.00  0.00    -0.200 F 
ATOM    101  F   UNL A   1      37.961  34.400  39.014  1.00  0.00    -0.200 F 
ENDBRANCH  68  91
ENDBRANCH  42  43
ENDBRANCH  35  37
ENDBRANCH  34  35
ENDBRANCH  33  34
ENDBRANCH  32  33
ENDBRANCH  31  32
ENDBRANCH  30  31
ENDBRANCH  29  30
ENDBRANCH   1  29
TORSDOF 23
ENDMDL
MODEL 2
REMARK VINA RESULT:     -10.7      1.367      3.265
REMARK SMILES CC1(C)CCN(C(=O)N[C@](C)(C(=O)OCCOCCOCCOCCOC(=O)c2ccc(-c3c4nc(c(-c5c(F)c(F)c(F)c(F)c5F)c5ccc([nH]5)c(-c5c(F)c(F)c(F)c(F)c5F)c5nc(c(-c6c(F)c(F)c(F)c(F)c6F)c6ccc3[nH]6)C=C5)C=C4)cc2)c2ccccc2)C1
REMARK SMILES IDX 20 1 19 2 18 3 17 4 16 5 15 6 14 7 12 8 13 9 10 10 11 11
REMARK SMILES IDX 9 12 7 13 8 14 6 16 1 17 2 18 3 19 4 20 98 21 5 22 92 23
REMARK SMILES IDX 93 24 97 25 94 26 96 27 95 28 21 29 22 30 23 31 24 32 25 33
REMARK SMILES IDX 26 34 27 35 28 36 29 37 30 38 91 39 31 40 90 41 32 42 33 43
REMARK SMILES IDX 34 44 84 45 35 46 89 47 83 48 85 49 36 50 88 51 82 52 81 53
REMARK SMILES IDX 37 55 69 56 49 57 68 58 50 59 53 60 67 61 86 62 51 63 52 64
REMARK SMILES IDX 66 66 87 67 54 68 38 69 39 70 47 71 40 72 41 73 45 74 48 75
REMARK SMILES IDX 42 76 43 77 46 78 44 79 70 80 71 81 79 82 72 83 73 84 77 85
REMARK SMILES IDX 80 86 74 87 75 88 78 89 76 90 55 91 56 92 64 93 57 94 58 95
REMARK SMILES IDX 62 96 65 97 59 98 60 99 63 100 61 101
REMARK H PARENT 9 15 85 54 53 65
REMARK Flexibility Score: inf
ROOT
ATOM      1  O   UNL A   1      42.196  19.529  25.353  1.00  0.00    -0.377 OA
ENDROOT
BRANCH   1   2
ATOM      2  C   UNL A   1      41.363  19.686  26.484  1.00  0.00     0.188 C 
BRANCH   2   3
ATOM      3  C   UNL A   1      40.980  21.136  26.815  1.00  0.00     0.188 C 
BRANCH   3   4
ATOM      4  O   UNL A   1      40.217  21.741  25.786  1.00  0.00    -0.376 OA
BRANCH   4   5
ATOM      5  C   UNL A   1      38.914  22.195  26.118  1.00  0.00     0.202 C 
BRANCH   5   6
ATOM      6  C   UNL A   1      37.663  21.868  25.266  1.00  0.00     0.261 C 
BRANCH   6   7
ATOM      7  O   UNL A   1      36.618  22.857  25.238  1.00  0.00    -0.461 OA
BRANCH   7   8
ATOM      8  C   UNL A   1      36.130  23.311  24.049  1.00  0.00     0.336 C 
ATOM      9  O   UNL A   1      36.708  23.137  22.984  1.00  0.00    -0.249 OA
BRANCH   8  10
ATOM     10  C   UNL A   1      34.669  23.946  24.217  1.00  0.00     0.162 C 
ATOM     11  C   UNL A   1      34.759  25.017  25.364  1.00  0.00     0.053 C 
BRANCH  10  12
ATOM     12  N   UNL A   1      34.360  24.749  23.001  1.00  0.00    -0.318 N 
ATOM     13  C   UNL A   1      33.179  25.054  22.434  1.00  0.00     0.318 C 
ATOM     14  O   UNL A   1      33.030  24.661  21.274  1.00  0.00    -0.249 OA
ATOM     15  H   UNL A   1      35.147  25.113  22.537  1.00  0.00     0.166 HD
BRANCH  13  16
ATOM     16  N   UNL A   1      32.272  25.874  23.034  1.00  0.00    -0.324 N 
ATOM     17  C   UNL A   1      30.014  28.638  22.912  1.00  0.00     0.013 C 
ATOM     18  C   UNL A   1      30.898  27.713  23.750  1.00  0.00    -0.016 C 
ATOM     19  C   UNL A   1      31.252  28.454  25.051  1.00  0.00     0.013 C 
ATOM     20  C   UNL A   1      30.226  26.377  24.121  1.00  0.00     0.030 C 
ATOM     21  C   UNL A   1      32.122  27.310  22.907  1.00  0.00     0.127 C 
ATOM     22  C   UNL A   1      30.994  25.297  23.383  1.00  0.00     0.122 C 
ENDBRANCH  13  16
ENDBRANCH  10  12
BRANCH  10  23
ATOM     23  C   UNL A   1      33.633  22.836  24.486  1.00  0.00    -0.012 A 
ATOM     24  C   UNL A   1      33.666  21.644  23.727  1.00  0.00     0.007 A 
ATOM     25  C   UNL A   1      32.619  22.944  25.464  1.00  0.00     0.007 A 
ATOM     26  C   UNL A   1      32.799  20.580  23.998  1.00  0.00     0.000 A 
ATOM     27  C   UNL A   1      31.729  21.889  25.710  1.00  0.00     0.000 A 
ATOM     28  C   UNL A   1      31.831  20.704  24.987  1.00  0.00     0.000 A 
ENDBRANCH  10  23
ENDBRANCH   8  10
ENDBRANCH   7   8
ENDBRANCH   6   7
ENDBRANCH   5   6
ENDBRANCH   4   5
ENDBRANCH   3   4
ENDBRANCH   2   3
ENDBRANCH   1   2
BRANCH   1  29
ATOM     29  C   UNL A   1      43.493  18.995  25.570  1.00  0.00     0.188 C 
BRANCH  29  30
ATOM     30  C   UNL A   1      44.769  19.625  24.949  1.00  0.00     0.188 C 
BRANCH  30  31
ATOM     31  O   UNL A   1      44.589  20.302  23.715  1.00  0.00    -0.376 OA
BRANCH  31  32
ATOM     32  C   UNL A   1      44.832  21.695  23.648  1.00  0.00     0.202 C 
BRANCH  32  33
ATOM     33  C   UNL A   1      43.776  22.634  24.250  1.00  0.00     0.261 C 
BRANCH  33  34
ATOM     34  O   UNL A   1      44.264  23.851  24.828  1.00  0.00    -0.460 OA
BRANCH  34  35
ATOM     35  C   UNL A   1      44.757  23.787  26.088  1.00  0.00     0.338 C 
ATOM     36  O   UNL A   1      45.747  23.203  26.463  1.00  0.00    -0.246 OA
BRANCH  35  37
ATOM     37  C   UNL A   1      43.972  24.740  26.908  1.00  0.00     0.060 A 
ATOM     38  C   UNL A   1      44.320  26.099  26.890  1.00  0.00     0.016 A 
ATOM     39  C   UNL A   1      42.863  24.303  27.636  1.00  0.00     0.016 A 
ATOM     40  C   UNL A   1      43.571  27.023  27.617  1.00  0.00     0.010 A 
ATOM     41  C   UNL A   1      42.139  25.222  28.399  1.00  0.00     0.010 A 
ATOM     42  C   UNL A   1      42.512  26.579  28.418  1.00  0.00    -0.014 A 
BRANCH  42  43
ATOM     43  C   UNL A   1      41.978  27.470  29.475  1.00  0.00     0.031 A 
ATOM     44  C   UNL A   1      42.697  27.476  30.797  1.00  0.00     0.074 A 
ATOM     45  C   UNL A   1      40.916  28.268  29.272  1.00  0.00     0.049 A 
ATOM     46  N   UNL A   1      42.391  28.088  31.911  1.00  0.00    -0.248 NA
ATOM     47  C   UNL A   1      43.934  26.677  30.870  1.00  0.00     0.031 C 
ATOM     48  C   UNL A   1      40.177  28.398  28.018  1.00  0.00     0.029 A 
ATOM     49  N   UNL A   1      40.267  29.116  30.136  1.00  0.00    -0.354 N 
ATOM     50  C   UNL A   1      43.394  27.749  32.810  1.00  0.00     0.074 A 
ATOM     51  C   UNL A   1      44.297  26.849  32.129  1.00  0.00     0.031 C 
ATOM     52  C   UNL A   1      39.160  29.260  28.201  1.00  0.00     0.029 A 
ATOM     53  C   UNL A   1      39.155  29.711  29.592  1.00  0.00     0.049 A 
ATOM     54  H   UNL A   1      40.570  29.281  31.058  1.00  0.00     0.167 HD
ATOM     55  C   UNL A   1      43.555  28.163  34.087  1.00  0.00     0.037 A 
ATOM     56  C   UNL A   1      38.227  30.500  30.170  1.00  0.00     0.037 A 
ATOM     57  C   UNL A   1      42.650  29.050  34.765  1.00  0.00     0.049 A 
ATOM     58  C   UNL A   1      38.372  30.858  31.633  1.00  0.00     0.074 A 
ATOM     59  C   UNL A   1      42.710  29.512  36.068  1.00  0.00     0.029 A 
ATOM     60  N   UNL A   1      41.519  29.608  34.191  1.00  0.00    -0.354 N 
ATOM     61  N   UNL A   1      39.324  30.539  32.477  1.00  0.00    -0.248 NA
ATOM     62  C   UNL A   1      37.311  31.688  32.221  1.00  0.00     0.031 C 
ATOM     63  C   UNL A   1      41.588  30.311  36.297  1.00  0.00     0.029 A 
ATOM     64  C   UNL A   1      40.864  30.399  35.118  1.00  0.00     0.049 A 
ATOM     65  H   UNL A   1      41.225  29.462  33.263  1.00  0.00     0.167 HD
ATOM     66  C   UNL A   1      39.002  31.169  33.674  1.00  0.00     0.074 A 
ATOM     67  C   UNL A   1      37.772  31.896  33.446  1.00  0.00     0.031 C 
ATOM     68  C   UNL A   1      39.661  31.147  34.859  1.00  0.00     0.037 A 
BRANCH  55  69
ATOM     69  C   UNL A   1      44.746  27.651  34.841  1.00  0.00     0.064 A 
ATOM     70  C   UNL A   1      45.942  28.381  34.905  1.00  0.00     0.173 A 
ATOM     71  C   UNL A   1      44.672  26.446  35.554  1.00  0.00     0.173 A 
ATOM     72  F   UNL A   1      46.070  29.530  34.223  1.00  0.00    -0.203 F 
ATOM     73  C   UNL A   1      47.024  27.918  35.648  1.00  0.00     0.198 A 
ATOM     74  C   UNL A   1      45.745  26.000  36.320  1.00  0.00     0.198 A 
ATOM     75  F   UNL A   1      43.551  25.708  35.523  1.00  0.00    -0.203 F 
ATOM     76  F   UNL A   1      48.169  28.613  35.666  1.00  0.00    -0.200 F 
ATOM     77  C   UNL A   1      46.922  26.734  36.364  1.00  0.00     0.200 A 
ATOM     78  F   UNL A   1      45.640  24.864  37.022  1.00  0.00    -0.200 F 
ATOM     79  F   UNL A   1      47.957  26.299  37.094  1.00  0.00    -0.200 F 
ENDBRANCH  55  69
BRANCH  56  80
ATOM     80  C   UNL A   1      37.051  30.988  29.397  1.00  0.00     0.064 A 
ATOM     81  C   UNL A   1      35.975  30.139  29.098  1.00  0.00     0.173 A 
ATOM     82  C   UNL A   1      37.017  32.287  28.866  1.00  0.00     0.173 A 
ATOM     83  F   UNL A   1      35.969  28.878  29.557  1.00  0.00    -0.203 F 
ATOM     84  C   UNL A   1      34.938  30.552  28.261  1.00  0.00     0.198 A 
ATOM     85  C   UNL A   1      35.961  32.711  28.062  1.00  0.00     0.198 A 
ATOM     86  F   UNL A   1      38.019  33.141  29.115  1.00  0.00    -0.203 F 
ATOM     87  F   UNL A   1      33.968  29.691  27.926  1.00  0.00    -0.200 F 
ATOM     88  C   UNL A   1      34.931  31.840  27.746  1.00  0.00     0.200 A 
ATOM     89  F   UNL A   1      35.953  33.960  27.575  1.00  0.00    -0.200 F 
ATOM     90  F   UNL A   1      33.943  32.231  26.930  1.00  0.00    -0.200 F 
ENDBRANCH  56  80
BRANCH  68  91
ATOM     91  C   UNL A   1      39.118  31.991  35.978  1.00  0.00     0.064 A 
ATOM     92  C   UNL A   1      38.239  31.475  36.940  1.00  0.00     0.173 A 
ATOM     93  C   UNL A   1      39.530  33.327  36.114  1.00  0.00     0.173 A 
ATOM     94  F   UNL A   1      37.806  30.208  36.850  1.00  0.00    -0.203 F 
ATOM     95  C   UNL A   1      37.769  32.273  37.981  1.00  0.00     0.198 A 
ATOM     96  C   UNL A   1      39.088  34.110  37.177  1.00  0.00     0.198 A 
ATOM     97  F   UNL A   1      40.380  33.867  35.229  1.00  0.00    -0.203 F 
ATOM     98  F   UNL A   1      36.888  31.773  38.859  1.00  0.00    -0.200 F 
ATOM     99  C   UNL A   1      38.200  33.586  38.103  1.00  0.00     0.200 A 
ATOM    100  F   UNL A   1      39.523  35.371  37.304  1.00  0.00    -0.200 F 
ATOM    101  F   UNL A   1      37.757  34.347  39.112  1.00  0.00    -0.200 F 
ENDBRANCH  68  91
ENDBRANCH  42  43
ENDBRANCH  35  37
ENDBRANCH  34  35
ENDBRANCH  33  34
ENDBRANCH  32  33
ENDBRANCH  31  32
ENDBRANCH  30  31
ENDBRANCH  29  30
ENDBRANCH   1  29
TORSDOF 23
ENDMDL
MODEL 3
REMARK VINA RESULT:     -10.3      1.542      7.643
REMARK SMILES CC1(C)CCN(C(=O)N[C@](C)(C(=O)OCCOCCOCCOCCOC(=O)c2ccc(-c3c4nc(c(-c5c(F)c(F)c(F)c(F)c5F)c5ccc([nH]5)c(-c5c(F)c(F)c(F)c(F)c5F)c5nc(c(-c6c(F)c(F)c(F)c(F)c6F)c6ccc3[nH]6)C=C5)C=C4)cc2)c2ccccc2)C1
REMARK SMILES IDX 20 1 19 2 18 3 17 4 16 5 15 6 14 7 12 8 13 9 10 10 11 11
REMARK SMILES IDX 9 12 7 13 8 14 6 16 1 17 2 18 3 19 4 20 98 21 5 22 92 23
REMARK SMILES IDX 93 24 97 25 94 26 96 27 95 28 21 29 22 30 23 31 24 32 25 33
REMARK SMILES IDX 26 34 27 35 28 36 29 37 30 38 91 39 31 40 90 41 32 42 33 43
REMARK SMILES IDX 34 44 84 45 35 46 89 47 83 48 85 49 36 50 88 51 82 52 81 53
REMARK SMILES IDX 37 55 69 56 49 57 68 58 50 59 53 60 67 61 86 62 51 63 52 64
REMARK SMILES IDX 66 66 87 67 54 68 38 69 39 70 47 71 40 72 41 73 45 74 48 75
REMARK SMILES IDX 42 76 43 77 46 78 44 79 70 80 71 81 79 82 72 83 73 84 77 85
REMARK SMILES IDX 80 86 74 87 75 88 78 89 76 90 55 91 56 92 64 93 57 94 58 95
REMARK SMILES IDX 62 96 65 97 59 98 60 99 63 100 61 101
REMARK H PARENT 9 15 85 54 53 65
REMARK Flexibility Score: inf
ROOT
ATOM      1  O   UNL A   1      41.120  20.023  27.669  1.00  0.00    -0.377 OA
ENDROOT
BRANCH   1   2
ATOM      2  C   UNL A   1      41.160  21.397  27.998  1.00  0.00     0.188 C 
BRANCH   2   3
ATOM      3  C   UNL A   1      40.444  22.325  27.005  1.00  0.00     0.188 C 
BRANCH   3   4
ATOM      4  O   UNL A   1      39.712  21.607  26.027  1.00  0.00    -0.376 OA
BRANCH   4   5
ATOM      5  C   UNL A   1      38.339  21.930  25.871  1.00  0.00     0.202 C 
BRANCH   5   6
ATOM      6  C   UNL A   1      37.411  21.205  24.865  1.00  0.00     0.261 C 
BRANCH   6   7
ATOM      7  O   UNL A   1      36.082  21.733  24.709  1.00  0.00    -0.461 OA
BRANCH   7   8
ATOM      8  C   UNL A   1      35.848  22.776  23.862  1.00  0.00     0.336 C 
ATOM      9  O   UNL A   1      36.197  22.768  22.688  1.00  0.00    -0.249 OA
BRANCH   8  10
ATOM     10  C   UNL A   1      34.947  23.905  24.553  1.00  0.00     0.162 C 
ATOM     11  C   UNL A   1      35.804  24.537  25.709  1.00  0.00     0.053 C 
BRANCH  10  12
ATOM     12  N   UNL A   1      34.770  25.024  23.586  1.00  0.00    -0.318 N 
ATOM     13  C   UNL A   1      33.649  25.567  23.076  1.00  0.00     0.318 C 
ATOM     14  O   UNL A   1      33.543  25.509  21.847  1.00  0.00    -0.249 OA
ATOM     15  H   UNL A   1      35.607  25.432  23.268  1.00  0.00     0.166 HD
BRANCH  13  16
ATOM     16  N   UNL A   1      32.767  26.271  23.838  1.00  0.00    -0.324 N 
ATOM     17  C   UNL A   1      31.410  29.378  24.961  1.00  0.00     0.013 C 
ATOM     18  C   UNL A   1      31.638  27.887  25.216  1.00  0.00    -0.016 C 
ATOM     19  C   UNL A   1      31.551  27.651  26.733  1.00  0.00     0.013 C 
ATOM     20  C   UNL A   1      30.609  26.972  24.524  1.00  0.00     0.030 C 
ATOM     21  C   UNL A   1      32.990  27.486  24.597  1.00  0.00     0.127 C 
ATOM     22  C   UNL A   1      31.373  26.198  23.467  1.00  0.00     0.122 C 
ENDBRANCH  13  16
ENDBRANCH  10  12
BRANCH  10  23
ATOM     23  C   UNL A   1      33.610  23.303  25.030  1.00  0.00    -0.012 A 
ATOM     24  C   UNL A   1      33.178  23.516  26.359  1.00  0.00     0.007 A 
ATOM     25  C   UNL A   1      32.773  22.522  24.202  1.00  0.00     0.007 A 
ATOM     26  C   UNL A   1      31.933  23.061  26.805  1.00  0.00     0.000 A 
ATOM     27  C   UNL A   1      31.541  22.038  24.663  1.00  0.00     0.000 A 
ATOM     28  C   UNL A   1      31.116  22.321  25.958  1.00  0.00     0.000 A 
ENDBRANCH  10  23
ENDBRANCH   8  10
ENDBRANCH   7   8
ENDBRANCH   6   7
ENDBRANCH   5   6
ENDBRANCH   4   5
ENDBRANCH   3   4
ENDBRANCH   2   3
ENDBRANCH   1   2
BRANCH   1  29
ATOM     29  C   UNL A   1      42.354  19.393  27.359  1.00  0.00     0.188 C 
BRANCH  29  30
ATOM     30  C   UNL A   1      42.761  19.027  25.906  1.00  0.00     0.188 C 
BRANCH  30  31
ATOM     31  O   UNL A   1      43.063  20.120  25.053  1.00  0.00    -0.376 OA
BRANCH  31  32
ATOM     32  C   UNL A   1      43.718  21.255  25.588  1.00  0.00     0.202 C 
BRANCH  32  33
ATOM     33  C   UNL A   1      43.621  22.572  24.803  1.00  0.00     0.261 C 
BRANCH  33  34
ATOM     34  O   UNL A   1      43.136  23.708  25.529  1.00  0.00    -0.460 OA
BRANCH  34  35
ATOM     35  C   UNL A   1      43.900  24.827  25.518  1.00  0.00     0.338 C 
ATOM     36  O   UNL A   1      44.521  25.285  24.588  1.00  0.00    -0.246 OA
BRANCH  35  37
ATOM     37  C   UNL A   1      43.680  25.514  26.813  1.00  0.00     0.060 A 
ATOM     38  C   UNL A   1      42.923  24.870  27.803  1.00  0.00     0.016 A 
ATOM     39  C   UNL A   1      44.272  26.753  27.067  1.00  0.00     0.016 A 
ATOM     40  C   UNL A   1      42.738  25.476  29.046  1.00  0.00     0.010 A 
ATOM     41  C   UNL A   1      44.051  27.378  28.296  1.00  0.00     0.010 A 
ATOM     42  C   UNL A   1      43.255  26.756  29.276  1.00  0.00    -0.014 A 
BRANCH  42  43
ATOM     43  C   UNL A   1      42.740  27.552  30.415  1.00  0.00     0.031 A 
ATOM     44  C   UNL A   1      41.488  28.354  30.183  1.00  0.00     0.074 A 
ATOM     45  C   UNL A   1      43.335  27.549  31.620  1.00  0.00     0.049 A 
ATOM     46  N   UNL A   1      40.880  29.200  30.973  1.00  0.00    -0.248 NA
ATOM     47  C   UNL A   1      40.832  28.175  28.875  1.00  0.00     0.031 C 
ATOM     48  C   UNL A   1      44.513  26.766  31.985  1.00  0.00     0.029 A 
ATOM     49  N   UNL A   1      43.027  28.248  32.762  1.00  0.00    -0.354 N 
ATOM     50  C   UNL A   1      39.776  29.649  30.259  1.00  0.00     0.074 A 
ATOM     51  C   UNL A   1      39.815  29.015  28.960  1.00  0.00     0.031 C 
ATOM     52  C   UNL A   1      44.842  27.044  33.260  1.00  0.00     0.029 A 
ATOM     53  C   UNL A   1      43.922  28.052  33.786  1.00  0.00     0.049 A 
ATOM     54  H   UNL A   1      42.239  28.834  32.839  1.00  0.00     0.167 HD
ATOM     55  C   UNL A   1      38.807  30.505  30.656  1.00  0.00     0.037 A 
ATOM     56  C   UNL A   1      44.000  28.649  34.992  1.00  0.00     0.037 A 
ATOM     57  C   UNL A   1      38.776  31.141  31.944  1.00  0.00     0.049 A 
ATOM     58  C   UNL A   1      42.964  29.686  35.368  1.00  0.00     0.074 A 
ATOM     59  C   UNL A   1      37.850  32.044  32.437  1.00  0.00     0.029 A 
ATOM     60  N   UNL A   1      39.715  30.942  32.943  1.00  0.00    -0.354 N 
ATOM     61  N   UNL A   1      41.920  30.104  34.692  1.00  0.00    -0.248 NA
ATOM     62  C   UNL A   1      43.119  30.334  36.679  1.00  0.00     0.031 C 
ATOM     63  C   UNL A   1      38.258  32.427  33.717  1.00  0.00     0.029 A 
ATOM     64  C   UNL A   1      39.400  31.715  34.046  1.00  0.00     0.049 A 
ATOM     65  H   UNL A   1      40.492  30.339  32.877  1.00  0.00     0.167 HD
ATOM     66  C   UNL A   1      41.273  31.020  35.514  1.00  0.00     0.074 A 
ATOM     67  C   UNL A   1      42.034  31.091  36.741  1.00  0.00     0.031 C 
ATOM     68  C   UNL A   1      40.149  31.742  35.275  1.00  0.00     0.037 A 
BRANCH  55  69
ATOM     69  C   UNL A   1      37.708  30.814  29.684  1.00  0.00     0.064 A 
ATOM     70  C   UNL A   1      36.695  29.885  29.403  1.00  0.00     0.173 A 
ATOM     71  C   UNL A   1      37.634  32.073  29.071  1.00  0.00     0.173 A 
ATOM     72  F   UNL A   1      36.732  28.659  29.948  1.00  0.00    -0.203 F 
ATOM     73  C   UNL A   1      35.655  30.201  28.535  1.00  0.00     0.198 A 
ATOM     74  C   UNL A   1      36.576  32.398  28.227  1.00  0.00     0.198 A 
ATOM     75  F   UNL A   1      38.580  32.996  29.305  1.00  0.00    -0.203 F 
ATOM     76  F   UNL A   1      34.718  29.287  28.252  1.00  0.00    -0.200 F 
ATOM     77  C   UNL A   1      35.589  31.461  27.957  1.00  0.00     0.200 A 
ATOM     78  F   UNL A   1      36.508  33.619  27.681  1.00  0.00    -0.200 F 
ATOM     79  F   UNL A   1      34.576  31.772  27.138  1.00  0.00    -0.200 F 
ENDBRANCH  55  69
BRANCH  56  80
ATOM     80  C   UNL A   1      45.107  28.326  35.935  1.00  0.00     0.064 A 
ATOM     81  C   UNL A   1      45.014  27.241  36.819  1.00  0.00     0.173 A 
ATOM     82  C   UNL A   1      46.242  29.146  36.033  1.00  0.00     0.173 A 
ATOM     83  F   UNL A   1      43.938  26.441  36.787  1.00  0.00    -0.203 F 
ATOM     84  C   UNL A   1      45.987  27.017  37.793  1.00  0.00     0.198 A 
ATOM     85  C   UNL A   1      47.232  28.898  36.981  1.00  0.00     0.198 A 
ATOM     86  F   UNL A   1      46.382  30.199  35.216  1.00  0.00    -0.203 F 
ATOM     87  F   UNL A   1      45.829  26.022  38.678  1.00  0.00    -0.200 F 
ATOM     88  C   UNL A   1      47.097  27.844  37.872  1.00  0.00     0.200 A 
ATOM     89  F   UNL A   1      48.308  29.693  37.046  1.00  0.00    -0.200 F 
ATOM     90  F   UNL A   1      48.023  27.639  38.817  1.00  0.00    -0.200 F 
ENDBRANCH  56  80
BRANCH  68  91
ATOM     91  C   UNL A   1      39.627  32.610  36.385  1.00  0.00     0.064 A 
ATOM     92  C   UNL A   1      38.591  32.192  37.232  1.00  0.00     0.173 A 
ATOM     93  C   UNL A   1      40.214  33.861  36.634  1.00  0.00     0.173 A 
ATOM     94  F   UNL A   1      37.989  31.009  37.030  1.00  0.00    -0.203 F 
ATOM     95  C   UNL A   1      38.141  33.007  38.268  1.00  0.00     0.198 A 
ATOM     96  C   UNL A   1      39.787  34.656  37.695  1.00  0.00     0.198 A 
ATOM     97  F   UNL A   1      41.217  34.304  35.862  1.00  0.00    -0.203 F 
ATOM     98  F   UNL A   1      37.114  32.608  39.033  1.00  0.00    -0.200 F 
ATOM     99  C   UNL A   1      38.745  34.233  38.504  1.00  0.00     0.200 A 
ATOM    100  F   UNL A   1      40.386  35.831  37.932  1.00  0.00    -0.200 F 
ATOM    101  F   UNL A   1      38.319  35.009  39.510  1.00  0.00    -0.200 F 
ENDBRANCH  68  91
ENDBRANCH  42  43
ENDBRANCH  35  37
ENDBRANCH  34  35
ENDBRANCH  33  34
ENDBRANCH  32  33
ENDBRANCH  31  32
ENDBRANCH  30  31
ENDBRANCH  29  30
ENDBRANCH   1  29
TORSDOF 23
ENDMDL
