MODEL 1
REMARK VINA RESULT:     -11.0      0.000      0.000
REMARK SMILES COc1ccc(/C=C2/C(=O)N(c3ccccc3)C(=O)N=C2OCCOCCOCCOCCOC(=O)c2ccc(-c3c4nc(c(-c5c(F)c(F)c(F)c(F)c5F)c5ccc([nH]5)c(-c5c(F)c(F)c(F)c(F)c5F)c5nc(c(-c6c(F)c(F)c(F)c(F)c6F)c6ccc3[nH]6)C=C5)C=C4)cc2)cc1C(=O)[O-]
REMARK SMILES IDX 29 1 28 2 27 3 26 4 25 5 24 6 23 7 22 8 21 9 7 10 8 11 9 12
REMARK SMILES IDX 10 13 11 14 20 15 18 16 19 17 6 18 3 19 4 20 101 21 5 22
REMARK SMILES IDX 100 23 2 24 1 25 102 26 103 27 104 28 12 29 13 30 17 31
REMARK SMILES IDX 14 32 16 33 15 34 30 35 31 36 32 37 33 38 34 39 35 40 36 41
REMARK SMILES IDX 37 42 38 43 99 44 39 45 98 46 40 47 41 48 42 49 92 50 43 51
REMARK SMILES IDX 97 52 91 53 93 54 44 55 96 56 90 57 89 58 45 60 77 61 57 62
REMARK SMILES IDX 76 63 58 64 61 65 75 66 94 67 59 68 60 69 74 71 95 72 62 73
REMARK SMILES IDX 46 74 47 75 55 76 48 77 49 78 53 79 56 80 50 81 51 82 54 83
REMARK SMILES IDX 52 84 78 85 79 86 87 87 80 88 81 89 85 90 88 91 82 92 83 93
REMARK SMILES IDX 86 94 84 95 63 96 64 97 72 98 65 99 66 100 70 101 73 102
REMARK SMILES IDX 67 103 68 104 71 105 69 106
REMARK H PARENT 93 59 61 70
REMARK Flexibility Score: inf
ROOT
ATOM      1  C   UNL A   1      32.381  27.023  26.246  1.00  0.00     0.188 C 
ENDROOT
BRANCH   1   2
ATOM      2  O   UNL A   1      31.802  25.876  26.839  1.00  0.00    -0.377 OA
BRANCH   2   3
ATOM      3  C   UNL A   1      32.682  24.775  26.980  1.00  0.00     0.188 C 
BRANCH   3   4
ATOM      4  C   UNL A   1      32.122  23.341  27.041  1.00  0.00     0.188 C 
BRANCH   4   5
ATOM      5  O   UNL A   1      32.775  22.263  27.702  1.00  0.00    -0.376 OA
BRANCH   5   6
ATOM      6  C   UNL A   1      33.830  21.475  27.186  1.00  0.00     0.201 C 
BRANCH   6   7
ATOM      7  C   UNL A   1      33.704  20.701  25.873  1.00  0.00     0.260 C 
BRANCH   7   8
ATOM      8  O   UNL A   1      34.404  21.309  24.777  1.00  0.00    -0.475 OA
BRANCH   8   9
ATOM      9  C   UNL A   1      33.770  22.269  24.092  1.00  0.00     0.231 C 
ATOM     10  C   UNL A   1      35.754  23.892  24.414  1.00  0.00     0.027 C 
ATOM     11  C   UNL A   1      34.487  23.556  24.039  1.00  0.00     0.103 C 
ATOM     12  C   UNL A   1      33.582  24.693  23.590  1.00  0.00     0.272 C 
ATOM     13  O   UNL A   1      34.023  25.835  23.459  1.00  0.00    -0.268 OA
ATOM     14  N   UNL A   1      32.242  24.346  23.413  1.00  0.00    -0.226 N 
ATOM     15  N   UNL A   1      32.590  22.028  23.668  1.00  0.00    -0.156 NA
ATOM     16  C   UNL A   1      31.788  23.037  23.252  1.00  0.00     0.358 C 
ATOM     17  O   UNL A   1      30.684  22.763  22.788  1.00  0.00    -0.245 OA
BRANCH  10  18
ATOM     18  C   UNL A   1      36.961  23.242  25.043  1.00  0.00    -0.024 A 
ATOM     19  C   UNL A   1      39.307  21.862  25.978  1.00  0.00     0.127 A 
ATOM     20  C   UNL A   1      39.094  23.201  26.272  1.00  0.00     0.048 A 
ATOM     21  C   UNL A   1      38.302  21.164  25.310  1.00  0.00     0.040 A 
ATOM     22  C   UNL A   1      37.926  23.857  25.846  1.00  0.00     0.012 A 
ATOM     23  C   UNL A   1      37.173  21.863  24.805  1.00  0.00     0.022 A 
BRANCH  19  24
ATOM     24  O   UNL A   1      40.464  21.326  26.474  1.00  0.00    -0.496 OA
ATOM     25  C   UNL A   1      40.520  21.363  27.901  1.00  0.00     0.278 C 
ENDBRANCH  19  24
BRANCH  21  26
ATOM     26  C   UNL A   1      38.312  19.694  25.153  1.00  0.00     0.075 C 
ATOM     27  O   UNL A   1      37.330  18.992  24.988  1.00  0.00    -0.545 OA
ATOM     28  O   UNL A   1      39.534  19.165  25.324  1.00  0.00    -0.545 OA
ENDBRANCH  21  26
ENDBRANCH  10  18
BRANCH  14  29
ATOM     29  C   UNL A   1      31.252  25.357  23.252  1.00  0.00     0.054 A 
ATOM     30  C   UNL A   1      31.516  26.444  22.399  1.00  0.00     0.027 A 
ATOM     31  C   UNL A   1      30.114  25.370  24.059  1.00  0.00     0.027 A 
ATOM     32  C   UNL A   1      30.647  27.535  22.358  1.00  0.00     0.002 A 
ATOM     33  C   UNL A   1      29.265  26.480  24.038  1.00  0.00     0.002 A 
ATOM     34  C   UNL A   1      29.529  27.557  23.189  1.00  0.00     0.000 A 
ENDBRANCH  14  29
ENDBRANCH   8   9
ENDBRANCH   7   8
ENDBRANCH   6   7
ENDBRANCH   5   6
ENDBRANCH   4   5
ENDBRANCH   3   4
ENDBRANCH   2   3
ENDBRANCH   1   2
BRANCH   1  35
ATOM     35  C   UNL A   1      32.612  28.140  27.273  1.00  0.00     0.188 C 
BRANCH  35  36
ATOM     36  O   UNL A   1      31.498  29.013  27.391  1.00  0.00    -0.376 OA
BRANCH  36  37
ATOM     37  C   UNL A   1      31.393  30.092  26.470  1.00  0.00     0.202 C 
BRANCH  37  38
ATOM     38  C   UNL A   1      31.891  31.489  26.887  1.00  0.00     0.261 C 
BRANCH  38  39
ATOM     39  O   UNL A   1      33.310  31.710  26.825  1.00  0.00    -0.460 OA
BRANCH  39  40
ATOM     40  C   UNL A   1      33.851  32.598  27.682  1.00  0.00     0.338 C 
ATOM     41  O   UNL A   1      33.317  33.568  28.186  1.00  0.00    -0.246 OA
BRANCH  40  42
ATOM     42  C   UNL A   1      35.171  32.067  28.086  1.00  0.00     0.060 A 
ATOM     43  C   UNL A   1      35.339  30.677  28.153  1.00  0.00     0.016 A 
ATOM     44  C   UNL A   1      36.238  32.926  28.362  1.00  0.00     0.016 A 
ATOM     45  C   UNL A   1      36.566  30.144  28.540  1.00  0.00     0.010 A 
ATOM     46  C   UNL A   1      37.461  32.391  28.776  1.00  0.00     0.010 A 
ATOM     47  C   UNL A   1      37.614  31.001  28.904  1.00  0.00    -0.014 A 
BRANCH  47  48
ATOM     48  C   UNL A   1      38.761  30.442  29.655  1.00  0.00     0.031 A 
ATOM     49  C   UNL A   1      38.920  30.851  31.094  1.00  0.00     0.074 A 
ATOM     50  C   UNL A   1      39.603  29.555  29.099  1.00  0.00     0.049 A 
ATOM     51  N   UNL A   1      39.816  30.482  31.973  1.00  0.00    -0.248 NA
ATOM     52  C   UNL A   1      37.925  31.805  31.612  1.00  0.00     0.031 C 
ATOM     53  C   UNL A   1      39.520  29.050  27.732  1.00  0.00     0.029 A 
ATOM     54  N   UNL A   1      40.698  28.921  29.631  1.00  0.00    -0.354 N 
ATOM     55  C   UNL A   1      39.484  31.147  33.145  1.00  0.00     0.074 A 
ATOM     56  C   UNL A   1      38.335  31.977  32.858  1.00  0.00     0.031 C 
ATOM     57  C   UNL A   1      40.532  28.187  27.526  1.00  0.00     0.029 A 
ATOM     58  C   UNL A   1      41.339  28.094  28.743  1.00  0.00     0.049 A 
ATOM     59  H   UNL A   1      40.996  29.049  30.560  1.00  0.00     0.167 HD
ATOM     60  C   UNL A   1      40.075  31.064  34.360  1.00  0.00     0.037 A 
ATOM     61  C   UNL A   1      42.453  27.354  28.902  1.00  0.00     0.037 A 
ATOM     62  C   UNL A   1      41.229  30.253  34.640  1.00  0.00     0.049 A 
ATOM     63  C   UNL A   1      43.146  27.346  30.242  1.00  0.00     0.074 A 
ATOM     64  C   UNL A   1      41.913  30.102  35.833  1.00  0.00     0.029 A 
ATOM     65  N   UNL A   1      41.879  29.462  33.702  1.00  0.00    -0.354 N 
ATOM     66  N   UNL A   1      42.814  27.955  31.355  1.00  0.00    -0.248 NA
ATOM     67  C   UNL A   1      44.367  26.534  30.349  1.00  0.00     0.031 C 
ATOM     68  C   UNL A   1      43.005  29.258  35.605  1.00  0.00     0.029 A 
ATOM     69  C   UNL A   1      42.969  28.837  34.285  1.00  0.00     0.049 A 
ATOM     70  H   UNL A   1      41.605  29.361  32.762  1.00  0.00     0.167 HD
ATOM     71  C   UNL A   1      43.758  27.572  32.300  1.00  0.00     0.074 A 
ATOM     72  C   UNL A   1      44.671  26.669  31.631  1.00  0.00     0.031 C 
ATOM     73  C   UNL A   1      43.860  27.933  33.604  1.00  0.00     0.037 A 
BRANCH  60  74
ATOM     74  C   UNL A   1      39.492  31.896  35.465  1.00  0.00     0.064 A 
ATOM     75  C   UNL A   1      39.873  33.232  35.659  1.00  0.00     0.173 A 
ATOM     76  C   UNL A   1      38.541  31.350  36.339  1.00  0.00     0.173 A 
ATOM     77  F   UNL A   1      40.795  33.793  34.864  1.00  0.00    -0.203 F 
ATOM     78  C   UNL A   1      39.344  33.983  36.706  1.00  0.00     0.198 A 
ATOM     79  C   UNL A   1      37.991  32.112  37.367  1.00  0.00     0.198 A 
ATOM     80  F   UNL A   1      38.144  30.076  36.199  1.00  0.00    -0.203 F 
ATOM     81  F   UNL A   1      39.764  35.239  36.907  1.00  0.00    -0.200 F 
ATOM     82  C   UNL A   1      38.400  33.424  37.554  1.00  0.00     0.200 A 
ATOM     83  F   UNL A   1      37.073  31.574  38.180  1.00  0.00    -0.200 F 
ATOM     84  F   UNL A   1      37.891  34.148  38.561  1.00  0.00    -0.200 F 
ENDBRANCH  60  74
BRANCH  61  85
ATOM     85  C   UNL A   1      42.985  26.553  27.769  1.00  0.00     0.064 A 
ATOM     86  C   UNL A   1      43.843  27.125  26.818  1.00  0.00     0.173 A 
ATOM     87  C   UNL A   1      42.622  25.210  27.595  1.00  0.00     0.173 A 
ATOM     88  F   UNL A   1      44.199  28.414  26.927  1.00  0.00    -0.203 F 
ATOM     89  C   UNL A   1      44.299  26.391  25.726  1.00  0.00     0.198 A 
ATOM     90  C   UNL A   1      43.100  24.469  26.516  1.00  0.00     0.198 A 
ATOM     91  F   UNL A   1      41.800  24.618  28.474  1.00  0.00    -0.203 F 
ATOM     92  F   UNL A   1      45.076  26.977  24.806  1.00  0.00    -0.200 F 
ATOM     93  C   UNL A   1      43.931  25.062  25.577  1.00  0.00     0.200 A 
ATOM     94  F   UNL A   1      42.746  23.184  26.379  1.00  0.00    -0.200 F 
ATOM     95  F   UNL A   1      44.368  24.357  24.525  1.00  0.00    -0.200 F 
ENDBRANCH  61  85
BRANCH  73  96
ATOM     96  C   UNL A   1      44.971  27.313  34.404  1.00  0.00     0.064 A 
ATOM     97  C   UNL A   1      46.200  27.962  34.592  1.00  0.00     0.173 A 
ATOM     98  C   UNL A   1      44.790  26.062  35.013  1.00  0.00     0.173 A 
ATOM     99  F   UNL A   1      46.428  29.154  34.021  1.00  0.00    -0.203 F 
ATOM    100  C   UNL A   1      47.218  27.365  35.330  1.00  0.00     0.198 A 
ATOM    101  C   UNL A   1      45.798  25.484  35.779  1.00  0.00     0.198 A 
ATOM    102  F   UNL A   1      43.629  25.404  34.875  1.00  0.00    -0.203 F 
ATOM    103  F   UNL A   1      48.406  27.978  35.447  1.00  0.00    -0.200 F 
ATOM    104  C   UNL A   1      47.015  26.130  35.928  1.00  0.00     0.200 A 
ATOM    105  F   UNL A   1      45.593  24.297  36.368  1.00  0.00    -0.200 F 
ATOM    106  F   UNL A   1      47.997  25.559  36.639  1.00  0.00    -0.200 F 
ENDBRANCH  73  96
ENDBRANCH  47  48
ENDBRANCH  40  42
ENDBRANCH  39  40
ENDBRANCH  38  39
ENDBRANCH  37  38
ENDBRANCH  36  37
ENDBRANCH  35  36
ENDBRANCH   1  35
TORSDOF 23
ENDMDL
MODEL 2
REMARK VINA RESULT:     -10.8      2.031      7.376
REMARK SMILES COc1ccc(/C=C2/C(=O)N(c3ccccc3)C(=O)N=C2OCCOCCOCCOCCOC(=O)c2ccc(-c3c4nc(c(-c5c(F)c(F)c(F)c(F)c5F)c5ccc([nH]5)c(-c5c(F)c(F)c(F)c(F)c5F)c5nc(c(-c6c(F)c(F)c(F)c(F)c6F)c6ccc3[nH]6)C=C5)C=C4)cc2)cc1C(=O)[O-]
REMARK SMILES IDX 29 1 28 2 27 3 26 4 25 5 24 6 23 7 22 8 21 9 7 10 8 11 9 12
REMARK SMILES IDX 10 13 11 14 20 15 18 16 19 17 6 18 3 19 4 20 101 21 5 22
REMARK SMILES IDX 100 23 2 24 1 25 102 26 103 27 104 28 12 29 13 30 17 31
REMARK SMILES IDX 14 32 16 33 15 34 30 35 31 36 32 37 33 38 34 39 35 40 36 41
REMARK SMILES IDX 37 42 38 43 99 44 39 45 98 46 40 47 41 48 42 49 92 50 43 51
REMARK SMILES IDX 97 52 91 53 93 54 44 55 96 56 90 57 89 58 45 60 77 61 57 62
REMARK SMILES IDX 76 63 58 64 61 65 75 66 94 67 59 68 60 69 74 71 95 72 62 73
REMARK SMILES IDX 46 74 47 75 55 76 48 77 49 78 53 79 56 80 50 81 51 82 54 83
REMARK SMILES IDX 52 84 78 85 79 86 87 87 80 88 81 89 85 90 88 91 82 92 83 93
REMARK SMILES IDX 86 94 84 95 63 96 64 97 72 98 65 99 66 100 70 101 73 102
REMARK SMILES IDX 67 103 68 104 71 105 69 106
REMARK H PARENT 93 59 61 70
REMARK Flexibility Score: inf
ROOT
ATOM      1  C   UNL A   1      32.578  29.447  26.738  1.00  0.00     0.188 C 
ENDROOT
BRANCH   1   2
ATOM      2  O   UNL A   1      33.736  28.965  26.082  1.00  0.00    -0.377 OA
BRANCH   2   3
ATOM      3  C   UNL A   1      34.166  27.684  26.508  1.00  0.00     0.188 C 
BRANCH   3   4
ATOM      4  C   UNL A   1      34.004  26.467  25.577  1.00  0.00     0.188 C 
BRANCH   4   5
ATOM      5  O   UNL A   1      34.920  25.379  25.530  1.00  0.00    -0.376 OA
BRANCH   5   6
ATOM      6  C   UNL A   1      34.593  24.003  25.535  1.00  0.00     0.201 C 
BRANCH   6   7
ATOM      7  C   UNL A   1      34.135  23.278  26.802  1.00  0.00     0.260 C 
BRANCH   7   8
ATOM      8  O   UNL A   1      32.859  22.636  26.667  1.00  0.00    -0.475 OA
BRANCH   8   9
ATOM      9  C   UNL A   1      31.872  23.331  26.090  1.00  0.00     0.231 C 
ATOM     10  C   UNL A   1      31.929  21.801  24.009  1.00  0.00     0.027 C 
ATOM     11  C   UNL A   1      31.534  22.894  24.723  1.00  0.00     0.103 C 
ATOM     12  C   UNL A   1      30.694  23.926  23.986  1.00  0.00     0.272 C 
ATOM     13  O   UNL A   1      30.295  23.712  22.842  1.00  0.00    -0.268 OA
ATOM     14  N   UNL A   1      30.484  25.119  24.680  1.00  0.00    -0.226 N 
ATOM     15  N   UNL A   1      31.413  24.351  26.707  1.00  0.00    -0.156 NA
ATOM     16  C   UNL A   1      30.650  25.263  26.057  1.00  0.00     0.358 C 
ATOM     17  O   UNL A   1      30.170  26.196  26.696  1.00  0.00    -0.245 OA
BRANCH  10  18
ATOM     18  C   UNL A   1      32.835  20.606  24.171  1.00  0.00    -0.024 A 
ATOM     19  C   UNL A   1      34.683  18.469  24.718  1.00  0.00     0.127 A 
ATOM     20  C   UNL A   1      33.362  18.211  24.380  1.00  0.00     0.048 A 
ATOM     21  C   UNL A   1      35.128  19.790  24.680  1.00  0.00     0.040 A 
ATOM     22  C   UNL A   1      32.477  19.259  24.074  1.00  0.00     0.012 A 
ATOM     23  C   UNL A   1      34.199  20.842  24.462  1.00  0.00     0.022 A 
BRANCH  19  24
ATOM     24  O   UNL A   1      35.456  17.367  24.963  1.00  0.00    -0.496 OA
ATOM     25  C   UNL A   1      34.679  16.190  25.186  1.00  0.00     0.278 C 
ENDBRANCH  19  24
BRANCH  21  26
ATOM     26  C   UNL A   1      36.555  20.160  24.788  1.00  0.00     0.075 C 
ATOM     27  O   UNL A   1      37.467  19.397  25.056  1.00  0.00    -0.545 OA
ATOM     28  O   UNL A   1      36.757  21.483  24.668  1.00  0.00    -0.545 OA
ENDBRANCH  21  26
ENDBRANCH  10  18
BRANCH  14  29
ATOM     29  C   UNL A   1      29.946  26.255  24.010  1.00  0.00     0.054 A 
ATOM     30  C   UNL A   1      30.820  27.253  23.544  1.00  0.00     0.027 A 
ATOM     31  C   UNL A   1      28.567  26.471  23.976  1.00  0.00     0.027 A 
ATOM     32  C   UNL A   1      30.317  28.455  23.046  1.00  0.00     0.002 A 
ATOM     33  C   UNL A   1      28.071  27.690  23.507  1.00  0.00     0.002 A 
ATOM     34  C   UNL A   1      28.942  28.677  23.043  1.00  0.00     0.000 A 
ENDBRANCH  14  29
ENDBRANCH   8   9
ENDBRANCH   7   8
ENDBRANCH   6   7
ENDBRANCH   5   6
ENDBRANCH   4   5
ENDBRANCH   3   4
ENDBRANCH   2   3
ENDBRANCH   1   2
BRANCH   1  35
ATOM     35  C   UNL A   1      31.712  30.306  25.806  1.00  0.00     0.188 C 
BRANCH  35  36
ATOM     36  O   UNL A   1      31.045  31.355  26.493  1.00  0.00    -0.376 OA
BRANCH  36  37
ATOM     37  C   UNL A   1      31.517  32.684  26.306  1.00  0.00     0.202 C 
BRANCH  37  38
ATOM     38  C   UNL A   1      31.920  33.521  27.535  1.00  0.00     0.261 C 
BRANCH  38  39
ATOM     39  O   UNL A   1      33.320  33.555  27.859  1.00  0.00    -0.460 OA
BRANCH  39  40
ATOM     40  C   UNL A   1      33.799  34.646  28.489  1.00  0.00     0.338 C 
ATOM     41  O   UNL A   1      33.361  35.779  28.453  1.00  0.00    -0.246 OA
BRANCH  40  42
ATOM     42  C   UNL A   1      34.847  34.184  29.424  1.00  0.00     0.060 A 
ATOM     43  C   UNL A   1      36.181  34.518  29.152  1.00  0.00     0.016 A 
ATOM     44  C   UNL A   1      34.517  33.458  30.572  1.00  0.00     0.016 A 
ATOM     45  C   UNL A   1      37.193  34.090  30.007  1.00  0.00     0.010 A 
ATOM     46  C   UNL A   1      35.536  33.005  31.415  1.00  0.00     0.010 A 
ATOM     47  C   UNL A   1      36.878  33.287  31.111  1.00  0.00    -0.014 A 
BRANCH  47  48
ATOM     48  C   UNL A   1      37.967  32.542  31.783  1.00  0.00     0.031 A 
ATOM     49  C   UNL A   1      38.585  31.388  31.041  1.00  0.00     0.074 A 
ATOM     50  C   UNL A   1      38.436  32.911  32.986  1.00  0.00     0.049 A 
ATOM     51  N   UNL A   1      39.567  30.600  31.394  1.00  0.00    -0.248 NA
ATOM     52  C   UNL A   1      38.016  31.087  29.717  1.00  0.00     0.031 C 
ATOM     53  C   UNL A   1      37.950  34.039  33.776  1.00  0.00     0.029 A 
ATOM     54  N   UNL A   1      39.436  32.366  33.752  1.00  0.00    -0.354 N 
ATOM     55  C   UNL A   1      39.740  29.722  30.331  1.00  0.00     0.074 A 
ATOM     56  C   UNL A   1      38.735  30.042  29.342  1.00  0.00     0.031 C 
ATOM     57  C   UNL A   1      38.648  34.097  34.925  1.00  0.00     0.029 A 
ATOM     58  C   UNL A   1      39.618  33.002  34.954  1.00  0.00     0.049 A 
ATOM     59  H   UNL A   1      39.971  31.591  33.466  1.00  0.00     0.167 HD
ATOM     60  C   UNL A   1      40.665  28.745  30.184  1.00  0.00     0.037 A 
ATOM     61  C   UNL A   1      40.468  32.721  35.960  1.00  0.00     0.037 A 
ATOM     62  C   UNL A   1      41.651  28.415  31.177  1.00  0.00     0.049 A 
ATOM     63  C   UNL A   1      41.431  31.570  35.810  1.00  0.00     0.074 A 
ATOM     64  C   UNL A   1      42.629  27.438  31.135  1.00  0.00     0.029 A 
ATOM     65  N   UNL A   1      41.776  29.053  32.403  1.00  0.00    -0.354 N 
ATOM     66  N   UNL A   1      41.609  30.761  34.793  1.00  0.00    -0.248 NA
ATOM     67  C   UNL A   1      42.322  31.302  36.948  1.00  0.00     0.031 C 
ATOM     68  C   UNL A   1      43.313  27.452  32.355  1.00  0.00     0.029 A 
ATOM     69  C   UNL A   1      42.800  28.476  33.135  1.00  0.00     0.049 A 
ATOM     70  H   UNL A   1      41.217  29.804  32.708  1.00  0.00     0.167 HD
ATOM     71  C   UNL A   1      42.652  29.915  35.153  1.00  0.00     0.074 A 
ATOM     72  C   UNL A   1      43.074  30.319  36.478  1.00  0.00     0.031 C 
ATOM     73  C   UNL A   1      43.211  28.899  34.450  1.00  0.00     0.037 A 
BRANCH  60  74
ATOM     74  C   UNL A   1      40.626  27.949  28.913  1.00  0.00     0.064 A 
ATOM     75  C   UNL A   1      39.853  26.784  28.797  1.00  0.00     0.173 A 
ATOM     76  C   UNL A   1      41.369  28.357  27.796  1.00  0.00     0.173 A 
ATOM     77  F   UNL A   1      39.142  26.339  29.844  1.00  0.00    -0.203 F 
ATOM     78  C   UNL A   1      39.849  26.040  27.620  1.00  0.00     0.198 A 
ATOM     79  C   UNL A   1      41.340  27.629  26.610  1.00  0.00     0.198 A 
ATOM     80  F   UNL A   1      42.127  29.463  27.854  1.00  0.00    -0.203 F 
ATOM     81  F   UNL A   1      39.148  24.900  27.551  1.00  0.00    -0.200 F 
ATOM     82  C   UNL A   1      40.587  26.467  26.526  1.00  0.00     0.200 A 
ATOM     83  F   UNL A   1      42.047  28.047  25.551  1.00  0.00    -0.200 F 
ATOM     84  F   UNL A   1      40.582  25.751  25.392  1.00  0.00    -0.200 F 
ENDBRANCH  60  74
BRANCH  61  85
ATOM     85  C   UNL A   1      40.457  33.544  37.198  1.00  0.00     0.064 A 
ATOM     86  C   UNL A   1      39.576  33.255  38.250  1.00  0.00     0.173 A 
ATOM     87  C   UNL A   1      41.303  34.653  37.341  1.00  0.00     0.173 A 
ATOM     88  F   UNL A   1      38.729  32.220  38.150  1.00  0.00    -0.203 F 
ATOM     89  C   UNL A   1      39.527  34.058  39.388  1.00  0.00     0.198 A 
ATOM     90  C   UNL A   1      41.271  35.439  38.491  1.00  0.00     0.198 A 
ATOM     91  F   UNL A   1      42.161  34.974  36.360  1.00  0.00    -0.203 F 
ATOM     92  F   UNL A   1      38.641  33.789  40.356  1.00  0.00    -0.200 F 
ATOM     93  C   UNL A   1      40.378  35.147  39.510  1.00  0.00     0.200 A 
ATOM     94  F   UNL A   1      42.099  36.487  38.607  1.00  0.00    -0.200 F 
ATOM     95  F   UNL A   1      40.328  35.919  40.603  1.00  0.00    -0.200 F 
ENDBRANCH  61  85
BRANCH  73  96
ATOM     96  C   UNL A   1      44.373  28.183  35.082  1.00  0.00     0.064 A 
ATOM     97  C   UNL A   1      45.694  28.620  34.908  1.00  0.00     0.173 A 
ATOM     98  C   UNL A   1      44.153  27.061  35.894  1.00  0.00     0.173 A 
ATOM     99  F   UNL A   1      45.959  29.681  34.132  1.00  0.00    -0.203 F 
ATOM    100  C   UNL A   1      46.756  27.937  35.496  1.00  0.00     0.198 A 
ATOM    101  C   UNL A   1      45.214  26.401  36.508  1.00  0.00     0.198 A 
ATOM    102  F   UNL A   1      42.908  26.608  36.102  1.00  0.00    -0.203 F 
ATOM    103  F   UNL A   1      48.015  28.337  35.269  1.00  0.00    -0.200 F 
ATOM    104  C   UNL A   1      46.515  26.832  36.300  1.00  0.00     0.200 A 
ATOM    105  F   UNL A   1      44.978  25.343  37.297  1.00  0.00    -0.200 F 
ATOM    106  F   UNL A   1      47.539  26.178  36.865  1.00  0.00    -0.200 F 
ENDBRANCH  73  96
ENDBRANCH  47  48
ENDBRANCH  40  42
ENDBRANCH  39  40
ENDBRANCH  38  39
ENDBRANCH  37  38
ENDBRANCH  36  37
ENDBRANCH  35  36
ENDBRANCH   1  35
TORSDOF 23
ENDMDL
MODEL 3
REMARK VINA RESULT:     -10.8      0.757      2.220
REMARK SMILES COc1ccc(/C=C2/C(=O)N(c3ccccc3)C(=O)N=C2OCCOCCOCCOCCOC(=O)c2ccc(-c3c4nc(c(-c5c(F)c(F)c(F)c(F)c5F)c5ccc([nH]5)c(-c5c(F)c(F)c(F)c(F)c5F)c5nc(c(-c6c(F)c(F)c(F)c(F)c6F)c6ccc3[nH]6)C=C5)C=C4)cc2)cc1C(=O)[O-]
REMARK SMILES IDX 29 1 28 2 27 3 26 4 25 5 24 6 23 7 22 8 21 9 7 10 8 11 9 12
REMARK SMILES IDX 10 13 11 14 20 15 18 16 19 17 6 18 3 19 4 20 101 21 5 22
REMARK SMILES IDX 100 23 2 24 1 25 102 26 103 27 104 28 12 29 13 30 17 31
REMARK SMILES IDX 14 32 16 33 15 34 30 35 31 36 32 37 33 38 34 39 35 40 36 41
REMARK SMILES IDX 37 42 38 43 99 44 39 45 98 46 40 47 41 48 42 49 92 50 43 51
REMARK SMILES IDX 97 52 91 53 93 54 44 55 96 56 90 57 89 58 45 60 77 61 57 62
REMARK SMILES IDX 76 63 58 64 61 65 75 66 94 67 59 68 60 69 74 71 95 72 62 73
REMARK SMILES IDX 46 74 47 75 55 76 48 77 49 78 53 79 56 80 50 81 51 82 54 83
REMARK SMILES IDX 52 84 78 85 79 86 87 87 80 88 81 89 85 90 88 91 82 92 83 93
REMARK SMILES IDX 86 94 84 95 63 96 64 97 72 98 65 99 66 100 70 101 73 102
REMARK SMILES IDX 67 103 68 104 71 105 69 106
REMARK H PARENT 93 59 61 70
REMARK Flexibility Score: inf
ROOT
ATOM      1  C   UNL A   1      32.464  27.353  26.428  1.00  0.00     0.188 C 
ENDROOT
BRANCH   1   2
ATOM      2  O   UNL A   1      31.729  26.189  26.759  1.00  0.00    -0.377 OA
BRANCH   2   3
ATOM      3  C   UNL A   1      32.523  25.061  27.081  1.00  0.00     0.188 C 
BRANCH   3   4
ATOM      4  C   UNL A   1      31.957  23.640  26.894  1.00  0.00     0.188 C 
BRANCH   4   5
ATOM      5  O   UNL A   1      32.546  22.473  27.455  1.00  0.00    -0.376 OA
BRANCH   5   6
ATOM      6  C   UNL A   1      33.389  21.553  26.791  1.00  0.00     0.201 C 
BRANCH   6   7
ATOM      7  C   UNL A   1      33.022  20.938  25.439  1.00  0.00     0.260 C 
BRANCH   7   8
ATOM      8  O   UNL A   1      33.706  21.538  24.329  1.00  0.00    -0.475 OA
BRANCH   8   9
ATOM      9  C   UNL A   1      33.154  22.623  23.773  1.00  0.00     0.231 C 
ATOM     10  C   UNL A   1      35.342  23.964  24.074  1.00  0.00     0.027 C 
ATOM     11  C   UNL A   1      34.021  23.816  23.769  1.00  0.00     0.103 C 
ATOM     12  C   UNL A   1      33.238  25.088  23.481  1.00  0.00     0.272 C 
ATOM     13  O   UNL A   1      33.808  26.176  23.410  1.00  0.00    -0.268 OA
ATOM     14  N   UNL A   1      31.856  24.919  23.378  1.00  0.00    -0.226 N 
ATOM     15  N   UNL A   1      31.928  22.562  23.420  1.00  0.00    -0.156 NA
ATOM     16  C   UNL A   1      31.233  23.692  23.147  1.00  0.00     0.358 C 
ATOM     17  O   UNL A   1      30.076  23.593  22.747  1.00  0.00    -0.245 OA
BRANCH  10  18
ATOM     18  C   UNL A   1      36.497  23.122  24.557  1.00  0.00    -0.024 A 
ATOM     19  C   UNL A   1      38.642  21.624  25.754  1.00  0.00     0.127 A 
ATOM     20  C   UNL A   1      37.804  21.052  24.808  1.00  0.00     0.048 A 
ATOM     21  C   UNL A   1      38.491  22.982  26.035  1.00  0.00     0.040 A 
ATOM     22  C   UNL A   1      36.784  21.803  24.197  1.00  0.00     0.012 A 
ATOM     23  C   UNL A   1      37.398  23.700  25.481  1.00  0.00     0.022 A 
BRANCH  19  24
ATOM     24  O   UNL A   1      39.616  20.803  26.253  1.00  0.00    -0.496 OA
ATOM     25  C   UNL A   1      39.689  19.555  25.563  1.00  0.00     0.278 C 
ENDBRANCH  19  24
BRANCH  21  26
ATOM     26  C   UNL A   1      39.466  23.748  26.840  1.00  0.00     0.075 C 
ATOM     27  O   UNL A   1      39.826  24.891  26.617  1.00  0.00    -0.545 OA
ATOM     28  O   UNL A   1      40.027  23.011  27.813  1.00  0.00    -0.545 OA
ENDBRANCH  21  26
ENDBRANCH  10  18
BRANCH  14  29
ATOM     29  C   UNL A   1      30.991  26.050  23.373  1.00  0.00     0.054 A 
ATOM     30  C   UNL A   1      29.786  25.993  24.095  1.00  0.00     0.027 A 
ATOM     31  C   UNL A   1      31.240  27.129  22.524  1.00  0.00     0.027 A 
ATOM     32  C   UNL A   1      28.838  27.009  23.967  1.00  0.00     0.002 A 
ATOM     33  C   UNL A   1      30.273  28.127  22.374  1.00  0.00     0.002 A 
ATOM     34  C   UNL A   1      29.078  28.068  23.094  1.00  0.00     0.000 A 
ENDBRANCH  14  29
ENDBRANCH   8   9
ENDBRANCH   7   8
ENDBRANCH   6   7
ENDBRANCH   5   6
ENDBRANCH   4   5
ENDBRANCH   3   4
ENDBRANCH   2   3
ENDBRANCH   1   2
BRANCH   1  35
ATOM     35  C   UNL A   1      32.305  28.449  27.490  1.00  0.00     0.188 C 
BRANCH  35  36
ATOM     36  O   UNL A   1      31.344  29.429  27.124  1.00  0.00    -0.376 OA
BRANCH  36  37
ATOM     37  C   UNL A   1      31.786  30.547  26.364  1.00  0.00     0.202 C 
BRANCH  37  38
ATOM     38  C   UNL A   1      32.328  31.790  27.096  1.00  0.00     0.261 C 
BRANCH  38  39
ATOM     39  O   UNL A   1      33.753  31.979  27.072  1.00  0.00    -0.460 OA
BRANCH  39  40
ATOM     40  C   UNL A   1      34.300  32.796  27.994  1.00  0.00     0.338 C 
ATOM     41  O   UNL A   1      33.789  33.759  28.532  1.00  0.00    -0.246 OA
BRANCH  40  42
ATOM     42  C   UNL A   1      35.581  32.187  28.411  1.00  0.00     0.060 A 
ATOM     43  C   UNL A   1      35.652  30.793  28.527  1.00  0.00     0.016 A 
ATOM     44  C   UNL A   1      36.708  32.978  28.653  1.00  0.00     0.016 A 
ATOM     45  C   UNL A   1      36.841  30.187  28.928  1.00  0.00     0.010 A 
ATOM     46  C   UNL A   1      37.892  32.373  29.082  1.00  0.00     0.010 A 
ATOM     47  C   UNL A   1      37.948  30.981  29.258  1.00  0.00    -0.014 A 
BRANCH  47  48
ATOM     48  C   UNL A   1      39.057  30.369  30.024  1.00  0.00     0.031 A 
ATOM     49  C   UNL A   1      39.209  30.761  31.469  1.00  0.00     0.074 A 
ATOM     50  C   UNL A   1      39.871  29.452  29.476  1.00  0.00     0.049 A 
ATOM     51  N   UNL A   1      40.073  30.348  32.359  1.00  0.00    -0.248 NA
ATOM     52  C   UNL A   1      38.246  31.752  31.977  1.00  0.00     0.031 C 
ATOM     53  C   UNL A   1      39.791  28.960  28.103  1.00  0.00     0.029 A 
ATOM     54  N   UNL A   1      40.929  28.769  30.021  1.00  0.00    -0.354 N 
ATOM     55  C   UNL A   1      39.749  31.018  33.532  1.00  0.00     0.074 A 
ATOM     56  C   UNL A   1      38.641  31.897  33.231  1.00  0.00     0.031 C 
ATOM     57  C   UNL A   1      40.769  28.057  27.908  1.00  0.00     0.029 A 
ATOM     58  C   UNL A   1      41.550  27.921  29.138  1.00  0.00     0.049 A 
ATOM     59  H   UNL A   1      41.217  28.877  30.955  1.00  0.00     0.167 HD
ATOM     60  C   UNL A   1      40.314  30.901  34.756  1.00  0.00     0.037 A 
ATOM     61  C   UNL A   1      42.630  27.134  29.310  1.00  0.00     0.037 A 
ATOM     62  C   UNL A   1      41.428  30.041  35.048  1.00  0.00     0.049 A 
ATOM     63  C   UNL A   1      43.298  27.087  30.661  1.00  0.00     0.074 A 
ATOM     64  C   UNL A   1      42.085  29.852  36.251  1.00  0.00     0.029 A 
ATOM     65  N   UNL A   1      42.061  29.230  34.116  1.00  0.00    -0.354 N 
ATOM     66  N   UNL A   1      42.972  27.702  31.772  1.00  0.00    -0.248 NA
ATOM     67  C   UNL A   1      44.482  26.224  30.782  1.00  0.00     0.031 C 
ATOM     68  C   UNL A   1      43.145  28.965  36.036  1.00  0.00     0.029 A 
ATOM     69  C   UNL A   1      43.113  28.555  34.712  1.00  0.00     0.049 A 
ATOM     70  H   UNL A   1      41.800  29.147  33.171  1.00  0.00     0.167 HD
ATOM     71  C   UNL A   1      43.884  27.273  32.731  1.00  0.00     0.074 A 
ATOM     72  C   UNL A   1      44.769  26.337  32.070  1.00  0.00     0.031 C 
ATOM     73  C   UNL A   1      43.978  27.620  34.039  1.00  0.00     0.037 A 
BRANCH  60  74
ATOM     74  C   UNL A   1      39.748  31.749  35.857  1.00  0.00     0.064 A 
ATOM     75  C   UNL A   1      38.648  31.326  36.619  1.00  0.00     0.173 A 
ATOM     76  C   UNL A   1      40.311  32.998  36.153  1.00  0.00     0.173 A 
ATOM     77  F   UNL A   1      38.059  30.149  36.360  1.00  0.00    -0.203 F 
ATOM     78  C   UNL A   1      38.115  32.137  37.618  1.00  0.00     0.198 A 
ATOM     79  C   UNL A   1      39.795  33.793  37.173  1.00  0.00     0.198 A 
ATOM     80  F   UNL A   1      41.362  33.450  35.452  1.00  0.00    -0.203 F 
ATOM     81  F   UNL A   1      37.030  31.738  38.295  1.00  0.00    -0.200 F 
ATOM     82  C   UNL A   1      38.693  33.366  37.898  1.00  0.00     0.200 A 
ATOM     83  F   UNL A   1      40.360  34.977  37.448  1.00  0.00    -0.200 F 
ATOM     84  F   UNL A   1      38.181  34.145  38.861  1.00  0.00    -0.200 F 
ENDBRANCH  60  74
BRANCH  61  85
ATOM     85  C   UNL A   1      43.148  26.320  28.179  1.00  0.00     0.064 A 
ATOM     86  C   UNL A   1      42.907  24.940  28.112  1.00  0.00     0.173 A 
ATOM     87  C   UNL A   1      43.920  26.897  27.162  1.00  0.00     0.173 A 
ATOM     88  F   UNL A   1      42.195  24.337  29.076  1.00  0.00    -0.203 F 
ATOM     89  C   UNL A   1      43.437  24.167  27.082  1.00  0.00     0.198 A 
ATOM     90  C   UNL A   1      44.428  26.127  26.118  1.00  0.00     0.198 A 
ATOM     91  F   UNL A   1      44.184  28.213  27.183  1.00  0.00    -0.203 F 
ATOM     92  F   UNL A   1      43.234  22.842  27.069  1.00  0.00    -0.200 F 
ATOM     93  C   UNL A   1      44.194  24.761  26.083  1.00  0.00     0.200 A 
ATOM     94  F   UNL A   1      45.154  26.706  25.152  1.00  0.00    -0.200 F 
ATOM     95  F   UNL A   1      44.705  24.015  25.094  1.00  0.00    -0.200 F 
ENDBRANCH  61  85
BRANCH  73  96
ATOM     96  C   UNL A   1      45.048  26.948  34.853  1.00  0.00     0.064 A 
ATOM     97  C   UNL A   1      44.824  25.727  35.506  1.00  0.00     0.173 A 
ATOM     98  C   UNL A   1      46.323  27.523  34.956  1.00  0.00     0.173 A 
ATOM     99  F   UNL A   1      43.618  25.141  35.448  1.00  0.00    -0.203 F 
ATOM    100  C   UNL A   1      45.827  25.126  36.262  1.00  0.00     0.198 A 
ATOM    101  C   UNL A   1      47.334  26.902  35.685  1.00  0.00     0.198 A 
ATOM    102  F   UNL A   1      46.594  28.684  34.342  1.00  0.00    -0.203 F 
ATOM    103  F   UNL A   1      45.571  23.989  36.926  1.00  0.00    -0.200 F 
ATOM    104  C   UNL A   1      47.082  25.710  36.346  1.00  0.00     0.200 A 
ATOM    105  F   UNL A   1      48.551  27.460  35.752  1.00  0.00    -0.200 F 
ATOM    106  F   UNL A   1      48.045  25.128  37.073  1.00  0.00    -0.200 F 
ENDBRANCH  73  96
ENDBRANCH  47  48
ENDBRANCH  40  42
ENDBRANCH  39  40
ENDBRANCH  38  39
ENDBRANCH  37  38
ENDBRANCH  36  37
ENDBRANCH  35  36
ENDBRANCH   1  35
TORSDOF 23
ENDMDL
