MODEL 1
REMARK VINA RESULT:      -9.2      0.000      0.000
REMARK SMILES O=C(OCCOCCOCCOCCOC(=O)c1ccc2c(=O)n(CCC[NH+]3CCOCC3)c(=O)[nH]c2c1)c1ccc(-c2c3nc(c(-c4c(F)c(F)c(F)c(F)c4F)c4ccc([nH]4)c(-c4c(F)c(F)c(F)c(F)c4F)c4nc(c(-c5c(F)c(F)c(F)c(F)c5F)c5ccc2[nH]5)C=C4)C=C3)cc1
REMARK SMILES IDX 10 1 9 2 8 3 7 4 6 5 5 6 4 7 3 8 2 9 1 10 39 11 40 12 101 13
REMARK SMILES IDX 41 14 100 15 42 16 43 17 44 18 94 19 45 20 99 21 93 22 95 23
REMARK SMILES IDX 46 24 98 25 92 26 91 27 47 29 79 30 59 31 78 32 60 33 63 34
REMARK SMILES IDX 77 35 96 36 61 37 62 38 76 40 97 41 64 42 48 43 49 44 57 45
REMARK SMILES IDX 50 46 51 47 55 48 58 49 52 50 53 51 56 52 54 53 80 54 81 55
REMARK SMILES IDX 89 56 82 57 83 58 87 59 90 60 84 61 85 62 88 63 86 64 65 65
REMARK SMILES IDX 66 66 74 67 67 68 68 69 72 70 75 71 69 72 70 73 73 74 71 75
REMARK SMILES IDX 11 76 12 77 13 78 14 79 15 80 16 81 17 82 18 83 19 84 38 85
REMARK SMILES IDX 20 86 37 87 21 88 36 89 22 90 34 91 23 93 24 94 35 95 25 96
REMARK SMILES IDX 26 97 27 98 28 99 29 100 33 101 30 103 32 104 31 105
REMARK H PARENT 95 28 63 39 36 92 28 102
REMARK Flexibility Score: inf
ROOT
ATOM      1  C   UNL A   1      42.812  19.551  25.687  1.00  0.00     0.188 C 
ENDROOT
BRANCH   1   2
ATOM      2  O   UNL A   1      43.691  19.298  24.601  1.00  0.00    -0.377 OA
BRANCH   2   3
ATOM      3  C   UNL A   1      45.088  19.392  24.867  1.00  0.00     0.188 C 
BRANCH   3   4
ATOM      4  C   UNL A   1      45.714  20.753  24.567  1.00  0.00     0.188 C 
BRANCH   4   5
ATOM      5  O   UNL A   1      46.005  21.460  25.779  1.00  0.00    -0.376 OA
BRANCH   5   6
ATOM      6  C   UNL A   1      45.607  22.829  25.781  1.00  0.00     0.202 C 
BRANCH   6   7
ATOM      7  C   UNL A   1      46.442  23.724  24.868  1.00  0.00     0.261 C 
BRANCH   7   8
ATOM      8  O   UNL A   1      45.849  25.008  24.639  1.00  0.00    -0.460 OA
BRANCH   8   9
ATOM      9  C   UNL A   1      46.415  26.237  24.706  1.00  0.00     0.338 C 
ATOM     10  O   UNL A   1      47.343  26.469  23.929  1.00  0.00    -0.246 OA
BRANCH   9  11
ATOM     11  C   UNL A   1      46.028  27.336  25.661  1.00  0.00     0.060 A 
ATOM     12  C   UNL A   1      44.644  27.544  25.833  1.00  0.00     0.016 A 
ATOM     13  C   UNL A   1      46.889  28.165  26.387  1.00  0.00     0.016 A 
ATOM     14  C   UNL A   1      44.151  28.505  26.722  1.00  0.00     0.010 A 
ATOM     15  C   UNL A   1      46.411  29.131  27.273  1.00  0.00     0.010 A 
ATOM     16  C   UNL A   1      45.041  29.279  27.472  1.00  0.00    -0.014 A 
BRANCH  16  17
ATOM     17  C   UNL A   1      44.579  30.041  28.647  1.00  0.00     0.031 A 
ATOM     18  C   UNL A   1      44.235  29.373  29.937  1.00  0.00     0.074 A 
ATOM     19  C   UNL A   1      44.368  31.356  28.450  1.00  0.00     0.049 A 
ATOM     20  N   UNL A   1      43.893  29.925  31.071  1.00  0.00    -0.248 NA
ATOM     21  C   UNL A   1      44.244  27.903  29.959  1.00  0.00     0.031 C 
ATOM     22  C   UNL A   1      44.548  32.043  27.166  1.00  0.00     0.029 A 
ATOM     23  N   UNL A   1      43.951  32.344  29.298  1.00  0.00    -0.354 N 
ATOM     24  C   UNL A   1      43.672  28.875  31.951  1.00  0.00     0.074 A 
ATOM     25  C   UNL A   1      43.858  27.650  31.206  1.00  0.00     0.031 C 
ATOM     26  C   UNL A   1      44.270  33.345  27.319  1.00  0.00     0.029 A 
ATOM     27  C   UNL A   1      43.898  33.582  28.707  1.00  0.00     0.049 A 
ATOM     28  H   UNL A   1      43.710  32.183  30.239  1.00  0.00     0.167 HD
ATOM     29  C   UNL A   1      43.367  28.955  33.269  1.00  0.00     0.037 A 
ATOM     30  C   UNL A   1      43.615  34.784  29.239  1.00  0.00     0.037 A 
ATOM     31  C   UNL A   1      43.180  30.207  33.961  1.00  0.00     0.049 A 
ATOM     32  C   UNL A   1      43.352  34.849  30.715  1.00  0.00     0.074 A 
ATOM     33  C   UNL A   1      42.949  30.425  35.308  1.00  0.00     0.029 A 
ATOM     34  N   UNL A   1      43.195  31.455  33.350  1.00  0.00    -0.354 N 
ATOM     35  N   UNL A   1      43.294  33.864  31.580  1.00  0.00    -0.248 NA
ATOM     36  C   UNL A   1      43.148  36.178  31.299  1.00  0.00     0.031 C 
ATOM     37  C   UNL A   1      42.780  31.798  35.503  1.00  0.00     0.029 A 
ATOM     38  C   UNL A   1      42.957  32.444  34.288  1.00  0.00     0.049 A 
ATOM     39  H   UNL A   1      43.350  31.612  32.390  1.00  0.00     0.167 HD
ATOM     40  C   UNL A   1      43.068  34.451  32.812  1.00  0.00     0.074 A 
ATOM     41  C   UNL A   1      43.016  35.883  32.585  1.00  0.00     0.031 C 
ATOM     42  C   UNL A   1      42.916  33.860  34.022  1.00  0.00     0.037 A 
BRANCH  29  43
ATOM     43  C   UNL A   1      43.261  27.686  34.067  1.00  0.00     0.064 A 
ATOM     44  C   UNL A   1      42.011  27.130  34.379  1.00  0.00     0.173 A 
ATOM     45  C   UNL A   1      44.405  26.946  34.402  1.00  0.00     0.173 A 
ATOM     46  F   UNL A   1      40.884  27.794  34.082  1.00  0.00    -0.203 F 
ATOM     47  C   UNL A   1      41.910  25.884  34.994  1.00  0.00     0.198 A 
ATOM     48  C   UNL A   1      44.301  25.689  34.995  1.00  0.00     0.198 A 
ATOM     49  F   UNL A   1      45.628  27.424  34.120  1.00  0.00    -0.203 F 
ATOM     50  F   UNL A   1      40.704  25.380  35.290  1.00  0.00    -0.200 F 
ATOM     51  C   UNL A   1      43.055  25.158  35.289  1.00  0.00     0.200 A 
ATOM     52  F   UNL A   1      45.408  24.981  35.264  1.00  0.00    -0.200 F 
ATOM     53  F   UNL A   1      42.955  23.946  35.850  1.00  0.00    -0.200 F 
ENDBRANCH  29  43
BRANCH  30  54
ATOM     54  C   UNL A   1      43.696  35.994  28.384  1.00  0.00     0.064 A 
ATOM     55  C   UNL A   1      42.543  36.530  27.794  1.00  0.00     0.173 A 
ATOM     56  C   UNL A   1      44.898  36.701  28.224  1.00  0.00     0.173 A 
ATOM     57  F   UNL A   1      41.370  35.893  27.921  1.00  0.00    -0.203 F 
ATOM     58  C   UNL A   1      42.588  37.720  27.071  1.00  0.00     0.198 A 
ATOM     59  C   UNL A   1      44.937  37.904  27.523  1.00  0.00     0.198 A 
ATOM     60  F   UNL A   1      46.025  36.247  28.792  1.00  0.00    -0.203 F 
ATOM     61  F   UNL A   1      41.474  38.200  26.505  1.00  0.00    -0.200 F 
ATOM     62  C   UNL A   1      43.784  38.412  26.944  1.00  0.00     0.200 A 
ATOM     63  F   UNL A   1      46.089  38.585  27.426  1.00  0.00    -0.200 F 
ATOM     64  F   UNL A   1      43.822  39.570  26.272  1.00  0.00    -0.200 F 
ENDBRANCH  30  54
BRANCH  42  65
ATOM     65  C   UNL A   1      42.680  34.760  35.195  1.00  0.00     0.064 A 
ATOM     66  C   UNL A   1      43.751  35.323  35.903  1.00  0.00     0.173 A 
ATOM     67  C   UNL A   1      41.377  35.139  35.547  1.00  0.00     0.173 A 
ATOM     68  F   UNL A   1      45.012  34.977  35.607  1.00  0.00    -0.203 F 
ATOM     69  C   UNL A   1      43.523  36.233  36.929  1.00  0.00     0.198 A 
ATOM     70  C   UNL A   1      41.155  36.071  36.555  1.00  0.00     0.198 A 
ATOM     71  F   UNL A   1      40.323  34.631  34.888  1.00  0.00    -0.203 F 
ATOM     72  F   UNL A   1      44.558  36.743  37.610  1.00  0.00    -0.200 F 
ATOM     73  C   UNL A   1      42.227  36.615  37.246  1.00  0.00     0.200 A 
ATOM     74  F   UNL A   1      39.904  36.452  36.849  1.00  0.00    -0.200 F 
ATOM     75  F   UNL A   1      42.012  37.513  38.218  1.00  0.00    -0.200 F 
ENDBRANCH  42  65
ENDBRANCH  16  17
ENDBRANCH   9  11
ENDBRANCH   8   9
ENDBRANCH   7   8
ENDBRANCH   6   7
ENDBRANCH   5   6
ENDBRANCH   4   5
ENDBRANCH   3   4
ENDBRANCH   2   3
ENDBRANCH   1   2
BRANCH   1  76
ATOM     76  C   UNL A   1      42.345  21.001  25.946  1.00  0.00     0.188 C 
BRANCH  76  77
ATOM     77  O   UNL A   1      41.165  21.118  26.726  1.00  0.00    -0.376 OA
BRANCH  77  78
ATOM     78  C   UNL A   1      40.699  22.447  26.936  1.00  0.00     0.202 C 
BRANCH  78  79
ATOM     79  C   UNL A   1      41.288  23.161  28.160  1.00  0.00     0.261 C 
BRANCH  79  80
ATOM     80  O   UNL A   1      40.753  24.465  28.430  1.00  0.00    -0.460 OA
BRANCH  80  81
ATOM     81  C   UNL A   1      41.362  25.545  27.880  1.00  0.00     0.338 C 
ATOM     82  O   UNL A   1      42.208  25.566  27.021  1.00  0.00    -0.246 OA
BRANCH  81  83
ATOM     83  C   UNL A   1      40.595  26.716  28.364  1.00  0.00     0.062 A 
ATOM     84  C   UNL A   1      40.960  27.998  27.933  1.00  0.00     0.016 A 
ATOM     85  C   UNL A   1      39.648  26.532  29.391  1.00  0.00     0.042 A 
ATOM     86  C   UNL A   1      40.323  29.100  28.482  1.00  0.00     0.017 A 
ATOM     87  C   UNL A   1      39.128  27.651  30.028  1.00  0.00     0.056 A 
ATOM     88  C   UNL A   1      39.403  28.903  29.515  1.00  0.00     0.064 A 
ATOM     89  N   UNL A   1      38.393  27.569  31.211  1.00  0.00    -0.307 N 
ATOM     90  C   UNL A   1      38.581  29.996  30.005  1.00  0.00     0.264 A 
ATOM     91  C   UNL A   1      37.953  28.669  31.912  1.00  0.00     0.328 A 
ATOM     92  H   UNL A   1      38.177  26.675  31.563  1.00  0.00     0.171 HD
ATOM     93  O   UNL A   1      38.273  30.826  29.163  1.00  0.00    -0.268 OA
ATOM     94  N   UNL A   1      38.113  29.913  31.303  1.00  0.00    -0.260 N 
ATOM     95  O   UNL A   1      37.406  28.489  33.000  1.00  0.00    -0.248 OA
BRANCH  94  96
ATOM     96  C   UNL A   1      37.385  31.043  31.889  1.00  0.00     0.137 C 
BRANCH  96  97
ATOM     97  C   UNL A   1      35.886  31.228  31.584  1.00  0.00     0.083 C 
BRANCH  97  98
ATOM     98  C   UNL A   1      35.078  32.446  32.069  1.00  0.00     0.264 C 
BRANCH  98  99
ATOM     99  N   UNL A   1      35.343  33.831  31.668  1.00  0.00    -0.331 N 
ATOM    100  C   UNL A   1      36.066  34.635  32.660  1.00  0.00     0.291 C 
ATOM    101  C   UNL A   1      34.285  34.648  31.067  1.00  0.00     0.291 C 
ATOM    102  H   UNL A   1      35.942  33.595  30.877  1.00  0.00     0.348 HD
ATOM    103  C   UNL A   1      35.120  35.262  33.690  1.00  0.00     0.221 C 
ATOM    104  C   UNL A   1      33.375  35.329  32.100  1.00  0.00     0.221 C 
ATOM    105  O   UNL A   1      34.130  36.086  33.055  1.00  0.00    -0.370 OA
ENDBRANCH  98  99
ENDBRANCH  97  98
ENDBRANCH  96  97
ENDBRANCH  94  96
ENDBRANCH  81  83
ENDBRANCH  80  81
ENDBRANCH  79  80
ENDBRANCH  78  79
ENDBRANCH  77  78
ENDBRANCH  76  77
ENDBRANCH   1  76
TORSDOF 24
ENDMDL
MODEL 2
REMARK VINA RESULT:      -8.9      4.770      6.822
REMARK SMILES O=C(OCCOCCOCCOCCOC(=O)c1ccc2c(=O)n(CCC[NH+]3CCOCC3)c(=O)[nH]c2c1)c1ccc(-c2c3nc(c(-c4c(F)c(F)c(F)c(F)c4F)c4ccc([nH]4)c(-c4c(F)c(F)c(F)c(F)c4F)c4nc(c(-c5c(F)c(F)c(F)c(F)c5F)c5ccc2[nH]5)C=C4)C=C3)cc1
REMARK SMILES IDX 10 1 9 2 8 3 7 4 6 5 5 6 4 7 3 8 2 9 1 10 39 11 40 12 101 13
REMARK SMILES IDX 41 14 100 15 42 16 43 17 44 18 94 19 45 20 99 21 93 22 95 23
REMARK SMILES IDX 46 24 98 25 92 26 91 27 47 29 79 30 59 31 78 32 60 33 63 34
REMARK SMILES IDX 77 35 96 36 61 37 62 38 76 40 97 41 64 42 48 43 49 44 57 45
REMARK SMILES IDX 50 46 51 47 55 48 58 49 52 50 53 51 56 52 54 53 80 54 81 55
REMARK SMILES IDX 89 56 82 57 83 58 87 59 90 60 84 61 85 62 88 63 86 64 65 65
REMARK SMILES IDX 66 66 74 67 67 68 68 69 72 70 75 71 69 72 70 73 73 74 71 75
REMARK SMILES IDX 11 76 12 77 13 78 14 79 15 80 16 81 17 82 18 83 19 84 38 85
REMARK SMILES IDX 20 86 37 87 21 88 36 89 22 90 34 91 23 93 24 94 35 95 25 96
REMARK SMILES IDX 26 97 27 98 28 99 29 100 33 101 30 103 32 104 31 105
REMARK H PARENT 95 28 63 39 36 92 28 102
REMARK Flexibility Score: inf
ROOT
ATOM      1  C   UNL A   1      43.301  18.742  25.504  1.00  0.00     0.188 C 
ENDROOT
BRANCH   1   2
ATOM      2  O   UNL A   1      44.462  18.851  24.693  1.00  0.00    -0.377 OA
BRANCH   2   3
ATOM      3  C   UNL A   1      45.583  19.523  25.262  1.00  0.00     0.188 C 
BRANCH   3   4
ATOM      4  C   UNL A   1      45.829  20.935  24.730  1.00  0.00     0.188 C 
BRANCH   4   5
ATOM      5  O   UNL A   1      46.411  21.766  25.741  1.00  0.00    -0.376 OA
BRANCH   5   6
ATOM      6  C   UNL A   1      45.822  23.059  25.861  1.00  0.00     0.202 C 
BRANCH   6   7
ATOM      7  C   UNL A   1      46.576  24.160  25.119  1.00  0.00     0.261 C 
BRANCH   7   8
ATOM      8  O   UNL A   1      45.720  25.194  24.618  1.00  0.00    -0.460 OA
BRANCH   8   9
ATOM      9  C   UNL A   1      45.703  26.514  24.918  1.00  0.00     0.338 C 
ATOM     10  O   UNL A   1      46.489  27.238  24.304  1.00  0.00    -0.246 OA
BRANCH   9  11
ATOM     11  C   UNL A   1      44.830  27.173  25.955  1.00  0.00     0.060 A 
ATOM     12  C   UNL A   1      43.947  26.320  26.649  1.00  0.00     0.016 A 
ATOM     13  C   UNL A   1      44.800  28.529  26.295  1.00  0.00     0.016 A 
ATOM     14  C   UNL A   1      43.112  26.797  27.664  1.00  0.00     0.010 A 
ATOM     15  C   UNL A   1      43.967  29.019  27.302  1.00  0.00     0.010 A 
ATOM     16  C   UNL A   1      43.147  28.149  28.015  1.00  0.00    -0.014 A 
BRANCH  16  17
ATOM     17  C   UNL A   1      42.556  28.619  29.281  1.00  0.00     0.031 A 
ATOM     18  C   UNL A   1      43.221  28.392  30.598  1.00  0.00     0.074 A 
ATOM     19  C   UNL A   1      41.324  29.155  29.192  1.00  0.00     0.049 A 
ATOM     20  N   UNL A   1      42.855  28.818  31.778  1.00  0.00    -0.248 NA
ATOM     21  C   UNL A   1      44.433  27.558  30.607  1.00  0.00     0.031 C 
ATOM     22  C   UNL A   1      40.558  29.273  27.946  1.00  0.00     0.029 A 
ATOM     23  N   UNL A   1      40.494  29.684  30.141  1.00  0.00    -0.354 N 
ATOM     24  C   UNL A   1      43.801  28.331  32.667  1.00  0.00     0.074 A 
ATOM     25  C   UNL A   1      44.727  27.525  31.903  1.00  0.00     0.031 C 
ATOM     26  C   UNL A   1      39.383  29.863  28.204  1.00  0.00     0.029 A 
ATOM     27  C   UNL A   1      39.316  30.167  29.626  1.00  0.00     0.049 A 
ATOM     28  H   UNL A   1      40.718  29.714  31.099  1.00  0.00     0.167 HD
ATOM     29  C   UNL A   1      43.882  28.572  33.998  1.00  0.00     0.037 A 
ATOM     30  C   UNL A   1      38.309  30.819  30.234  1.00  0.00     0.037 A 
ATOM     31  C   UNL A   1      42.922  29.376  34.714  1.00  0.00     0.049 A 
ATOM     32  C   UNL A   1      38.462  31.134  31.693  1.00  0.00     0.074 A 
ATOM     33  C   UNL A   1      42.937  29.762  36.043  1.00  0.00     0.029 A 
ATOM     34  N   UNL A   1      41.767  29.909  34.154  1.00  0.00    -0.354 N 
ATOM     35  N   UNL A   1      39.438  30.801  32.504  1.00  0.00    -0.248 NA
ATOM     36  C   UNL A   1      37.404  31.935  32.317  1.00  0.00     0.031 C 
ATOM     37  C   UNL A   1      41.771  30.488  36.297  1.00  0.00     0.029 A 
ATOM     38  C   UNL A   1      41.052  30.603  35.115  1.00  0.00     0.049 A 
ATOM     39  H   UNL A   1      41.497  29.807  33.213  1.00  0.00     0.167 HD
ATOM     40  C   UNL A   1      39.126  31.367  33.728  1.00  0.00     0.074 A 
ATOM     41  C   UNL A   1      37.876  32.080  33.548  1.00  0.00     0.031 C 
ATOM     42  C   UNL A   1      39.811  31.302  34.896  1.00  0.00     0.037 A 
BRANCH  29  43
ATOM     43  C   UNL A   1      45.050  28.018  34.765  1.00  0.00     0.064 A 
ATOM     44  C   UNL A   1      46.222  28.769  34.939  1.00  0.00     0.173 A 
ATOM     45  C   UNL A   1      44.952  26.795  35.448  1.00  0.00     0.173 A 
ATOM     46  F   UNL A   1      46.371  29.944  34.311  1.00  0.00    -0.203 F 
ATOM     47  C   UNL A   1      47.250  28.319  35.766  1.00  0.00     0.198 A 
ATOM     48  C   UNL A   1      45.970  26.359  36.293  1.00  0.00     0.198 A 
ATOM     49  F   UNL A   1      43.849  26.039  35.327  1.00  0.00    -0.203 F 
ATOM     50  F   UNL A   1      48.363  29.051  35.907  1.00  0.00    -0.200 F 
ATOM     51  C   UNL A   1      47.117  27.122  36.453  1.00  0.00     0.200 A 
ATOM     52  F   UNL A   1      45.834  25.211  36.971  1.00  0.00    -0.200 F 
ATOM     53  F   UNL A   1      48.092  26.707  37.273  1.00  0.00    -0.200 F 
ENDBRANCH  29  43
BRANCH  30  54
ATOM     54  C   UNL A   1      37.163  31.302  29.423  1.00  0.00     0.064 A 
ATOM     55  C   UNL A   1      36.137  30.425  29.045  1.00  0.00     0.173 A 
ATOM     56  C   UNL A   1      37.012  32.659  29.102  1.00  0.00     0.173 A 
ATOM     57  F   UNL A   1      36.235  29.118  29.333  1.00  0.00    -0.203 F 
ATOM     58  C   UNL A   1      35.008  30.884  28.371  1.00  0.00     0.198 A 
ATOM     59  C   UNL A   1      35.871  33.121  28.450  1.00  0.00     0.198 A 
ATOM     60  F   UNL A   1      37.952  33.544  29.466  1.00  0.00    -0.203 F 
ATOM     61  F   UNL A   1      34.051  30.021  28.008  1.00  0.00    -0.200 F 
ATOM     62  C   UNL A   1      34.870  32.233  28.082  1.00  0.00     0.200 A 
ATOM     63  F   UNL A   1      35.728  34.430  28.197  1.00  0.00    -0.200 F 
ATOM     64  F   UNL A   1      33.773  32.678  27.457  1.00  0.00    -0.200 F 
ENDBRANCH  30  54
BRANCH  42  65
ATOM     65  C   UNL A   1      39.225  32.021  36.070  1.00  0.00     0.064 A 
ATOM     66  C   UNL A   1      39.528  33.367  36.321  1.00  0.00     0.173 A 
ATOM     67  C   UNL A   1      38.280  31.388  36.889  1.00  0.00     0.173 A 
ATOM     68  F   UNL A   1      40.436  34.006  35.569  1.00  0.00    -0.203 F 
ATOM     69  C   UNL A   1      38.904  34.053  37.357  1.00  0.00     0.198 A 
ATOM     70  C   UNL A   1      37.639  32.086  37.906  1.00  0.00     0.198 A 
ATOM     71  F   UNL A   1      37.954  30.103  36.679  1.00  0.00    -0.203 F 
ATOM     72  F   UNL A   1      39.222  35.333  37.594  1.00  0.00    -0.200 F 
ATOM     73  C   UNL A   1      37.952  33.417  38.140  1.00  0.00     0.200 A 
ATOM     74  F   UNL A   1      36.707  31.475  38.653  1.00  0.00    -0.200 F 
ATOM     75  F   UNL A   1      37.334  34.089  39.121  1.00  0.00    -0.200 F 
ENDBRANCH  42  65
ENDBRANCH  16  17
ENDBRANCH   9  11
ENDBRANCH   8   9
ENDBRANCH   7   8
ENDBRANCH   6   7
ENDBRANCH   5   6
ENDBRANCH   4   5
ENDBRANCH   3   4
ENDBRANCH   2   3
ENDBRANCH   1   2
BRANCH   1  76
ATOM     76  C   UNL A   1      42.485  20.016  25.814  1.00  0.00     0.188 C 
BRANCH  76  77
ATOM     77  O   UNL A   1      42.133  20.183  27.179  1.00  0.00    -0.376 OA
BRANCH  77  78
ATOM     78  C   UNL A   1      40.930  20.905  27.418  1.00  0.00     0.202 C 
BRANCH  78  79
ATOM     79  C   UNL A   1      40.542  21.907  26.323  1.00  0.00     0.261 C 
BRANCH  79  80
ATOM     80  O   UNL A   1      39.132  22.052  26.091  1.00  0.00    -0.460 OA
BRANCH  80  81
ATOM     81  C   UNL A   1      38.488  21.091  25.383  1.00  0.00     0.338 C 
ATOM     82  O   UNL A   1      38.887  19.994  25.081  1.00  0.00    -0.246 OA
BRANCH  81  83
ATOM     83  C   UNL A   1      37.088  21.559  25.270  1.00  0.00     0.062 A 
ATOM     84  C   UNL A   1      36.126  21.062  26.159  1.00  0.00     0.016 A 
ATOM     85  C   UNL A   1      36.719  22.340  24.156  1.00  0.00     0.042 A 
ATOM     86  C   UNL A   1      34.795  21.406  25.974  1.00  0.00     0.017 A 
ATOM     87  C   UNL A   1      35.370  22.552  23.907  1.00  0.00     0.056 A 
ATOM     88  C   UNL A   1      34.443  22.161  24.852  1.00  0.00     0.064 A 
ATOM     89  N   UNL A   1      34.902  23.083  22.704  1.00  0.00    -0.307 N 
ATOM     90  C   UNL A   1      33.101  22.696  24.701  1.00  0.00     0.264 A 
ATOM     91  C   UNL A   1      33.566  23.211  22.396  1.00  0.00     0.328 A 
ATOM     92  H   UNL A   1      35.564  23.384  22.040  1.00  0.00     0.171 HD
ATOM     93  O   UNL A   1      32.546  22.996  25.747  1.00  0.00    -0.268 OA
ATOM     94  N   UNL A   1      32.654  22.948  23.417  1.00  0.00    -0.260 N 
ATOM     95  O   UNL A   1      33.260  23.591  21.267  1.00  0.00    -0.248 OA
BRANCH  94  96
ATOM     96  C   UNL A   1      31.266  23.370  23.199  1.00  0.00     0.137 C 
BRANCH  96  97
ATOM     97  C   UNL A   1      30.909  24.869  23.225  1.00  0.00     0.083 C 
BRANCH  97  98
ATOM     98  C   UNL A   1      31.864  25.946  23.773  1.00  0.00     0.264 C 
BRANCH  98  99
ATOM     99  N   UNL A   1      31.440  27.264  24.253  1.00  0.00    -0.331 N 
ATOM    100  C   UNL A   1      30.112  27.691  23.797  1.00  0.00     0.291 C 
ATOM    101  C   UNL A   1      32.356  28.407  24.200  1.00  0.00     0.291 C 
ATOM    102  H   UNL A   1      31.427  27.013  25.242  1.00  0.00     0.348 HD
ATOM    103  C   UNL A   1      30.168  28.366  22.422  1.00  0.00     0.221 C 
ATOM    104  C   UNL A   1      32.365  29.123  22.841  1.00  0.00     0.221 C 
ATOM    105  O   UNL A   1      31.045  29.503  22.434  1.00  0.00    -0.370 OA
ENDBRANCH  98  99
ENDBRANCH  97  98
ENDBRANCH  96  97
ENDBRANCH  94  96
ENDBRANCH  81  83
ENDBRANCH  80  81
ENDBRANCH  79  80
ENDBRANCH  78  79
ENDBRANCH  77  78
ENDBRANCH  76  77
ENDBRANCH   1  76
TORSDOF 24
ENDMDL
MODEL 3
REMARK VINA RESULT:      -8.8      1.454      7.156
REMARK SMILES O=C(OCCOCCOCCOCCOC(=O)c1ccc2c(=O)n(CCC[NH+]3CCOCC3)c(=O)[nH]c2c1)c1ccc(-c2c3nc(c(-c4c(F)c(F)c(F)c(F)c4F)c4ccc([nH]4)c(-c4c(F)c(F)c(F)c(F)c4F)c4nc(c(-c5c(F)c(F)c(F)c(F)c5F)c5ccc2[nH]5)C=C4)C=C3)cc1
REMARK SMILES IDX 10 1 9 2 8 3 7 4 6 5 5 6 4 7 3 8 2 9 1 10 39 11 40 12 101 13
REMARK SMILES IDX 41 14 100 15 42 16 43 17 44 18 94 19 45 20 99 21 93 22 95 23
REMARK SMILES IDX 46 24 98 25 92 26 91 27 47 29 79 30 59 31 78 32 60 33 63 34
REMARK SMILES IDX 77 35 96 36 61 37 62 38 76 40 97 41 64 42 48 43 49 44 57 45
REMARK SMILES IDX 50 46 51 47 55 48 58 49 52 50 53 51 56 52 54 53 80 54 81 55
REMARK SMILES IDX 89 56 82 57 83 58 87 59 90 60 84 61 85 62 88 63 86 64 65 65
REMARK SMILES IDX 66 66 74 67 67 68 68 69 72 70 75 71 69 72 70 73 73 74 71 75
REMARK SMILES IDX 11 76 12 77 13 78 14 79 15 80 16 81 17 82 18 83 19 84 38 85
REMARK SMILES IDX 20 86 37 87 21 88 36 89 22 90 34 91 23 93 24 94 35 95 25 96
REMARK SMILES IDX 26 97 27 98 28 99 29 100 33 101 30 103 32 104 31 105
REMARK H PARENT 95 28 63 39 36 92 28 102
REMARK Flexibility Score: inf
ROOT
ATOM      1  C   UNL A   1      42.679  19.427  25.743  1.00  0.00     0.188 C 
ENDROOT
BRANCH   1   2
ATOM      2  O   UNL A   1      43.562  18.325  25.899  1.00  0.00    -0.377 OA
BRANCH   2   3
ATOM      3  C   UNL A   1      44.886  18.485  25.397  1.00  0.00     0.188 C 
BRANCH   3   4
ATOM      4  C   UNL A   1      45.048  19.568  24.331  1.00  0.00     0.188 C 
BRANCH   4   5
ATOM      5  O   UNL A   1      45.761  20.695  24.853  1.00  0.00    -0.376 OA
BRANCH   5   6
ATOM      6  C   UNL A   1      45.332  21.958  24.349  1.00  0.00     0.202 C 
BRANCH   6   7
ATOM      7  C   UNL A   1      45.610  23.131  25.286  1.00  0.00     0.261 C 
BRANCH   7   8
ATOM      8  O   UNL A   1      45.525  24.405  24.637  1.00  0.00    -0.460 OA
BRANCH   8   9
ATOM      9  C   UNL A   1      46.297  25.506  24.803  1.00  0.00     0.338 C 
ATOM     10  O   UNL A   1      47.357  25.546  24.175  1.00  0.00    -0.246 OA
BRANCH   9  11
ATOM     11  C   UNL A   1      45.990  26.671  25.708  1.00  0.00     0.060 A 
ATOM     12  C   UNL A   1      44.640  27.075  25.755  1.00  0.00     0.016 A 
ATOM     13  C   UNL A   1      46.896  27.390  26.495  1.00  0.00     0.016 A 
ATOM     14  C   UNL A   1      44.214  28.117  26.586  1.00  0.00     0.010 A 
ATOM     15  C   UNL A   1      46.485  28.435  27.323  1.00  0.00     0.010 A 
ATOM     16  C   UNL A   1      45.138  28.778  27.400  1.00  0.00    -0.014 A 
BRANCH  16  17
ATOM     17  C   UNL A   1      44.691  29.625  28.521  1.00  0.00     0.031 A 
ATOM     18  C   UNL A   1      44.554  31.105  28.388  1.00  0.00     0.074 A 
ATOM     19  C   UNL A   1      44.532  29.001  29.703  1.00  0.00     0.049 A 
ATOM     20  N   UNL A   1      44.096  31.961  29.264  1.00  0.00    -0.248 NA
ATOM     21  C   UNL A   1      45.011  31.716  27.131  1.00  0.00     0.031 C 
ATOM     22  C   UNL A   1      44.792  27.575  29.932  1.00  0.00     0.029 A 
ATOM     23  N   UNL A   1      44.135  29.465  30.927  1.00  0.00    -0.354 N 
ATOM     24  C   UNL A   1      44.184  33.206  28.658  1.00  0.00     0.074 A 
ATOM     25  C   UNL A   1      44.795  33.006  27.363  1.00  0.00     0.031 C 
ATOM     26  C   UNL A   1      44.521  27.276  31.210  1.00  0.00     0.029 A 
ATOM     27  C   UNL A   1      44.066  28.483  31.885  1.00  0.00     0.049 A 
ATOM     28  H   UNL A   1      43.921  30.409  31.104  1.00  0.00     0.167 HD
ATOM     29  C   UNL A   1      43.761  34.394  29.153  1.00  0.00     0.037 A 
ATOM     30  C   UNL A   1      43.645  28.547  33.161  1.00  0.00     0.037 A 
ATOM     31  C   UNL A   1      43.167  34.539  30.460  1.00  0.00     0.049 A 
ATOM     32  C   UNL A   1      43.115  29.860  33.655  1.00  0.00     0.074 A 
ATOM     33  C   UNL A   1      42.625  35.670  31.043  1.00  0.00     0.029 A 
ATOM     34  N   UNL A   1      43.051  33.513  31.389  1.00  0.00    -0.354 N 
ATOM     35  N   UNL A   1      43.058  31.009  33.025  1.00  0.00    -0.248 NA
ATOM     36  C   UNL A   1      42.564  29.887  35.014  1.00  0.00     0.031 C 
ATOM     37  C   UNL A   1      42.222  35.340  32.339  1.00  0.00     0.029 A 
ATOM     38  C   UNL A   1      42.464  33.990  32.549  1.00  0.00     0.049 A 
ATOM     39  H   UNL A   1      43.344  32.584  31.246  1.00  0.00     0.167 HD
ATOM     40  C   UNL A   1      42.447  31.893  33.898  1.00  0.00     0.074 A 
ATOM     41  C   UNL A   1      42.137  31.140  35.099  1.00  0.00     0.031 C 
ATOM     42  C   UNL A   1      42.169  33.207  33.723  1.00  0.00     0.037 A 
BRANCH  29  43
ATOM     43  C   UNL A   1      43.866  35.619  28.287  1.00  0.00     0.064 A 
ATOM     44  C   UNL A   1      42.735  36.159  27.657  1.00  0.00     0.173 A 
ATOM     45  C   UNL A   1      45.068  36.338  28.196  1.00  0.00     0.173 A 
ATOM     46  F   UNL A   1      41.560  35.514  27.711  1.00  0.00    -0.203 F 
ATOM     47  C   UNL A   1      42.802  37.370  26.971  1.00  0.00     0.198 A 
ATOM     48  C   UNL A   1      45.127  37.561  27.531  1.00  0.00     0.198 A 
ATOM     49  F   UNL A   1      46.181  35.874  28.787  1.00  0.00    -0.203 F 
ATOM     50  F   UNL A   1      41.708  37.859  26.370  1.00  0.00    -0.200 F 
ATOM     51  C   UNL A   1      43.994  38.077  26.920  1.00  0.00     0.200 A 
ATOM     52  F   UNL A   1      46.275  38.252  27.497  1.00  0.00    -0.200 F 
ATOM     53  F   UNL A   1      44.048  39.257  26.289  1.00  0.00    -0.200 F 
ENDBRANCH  29  43
BRANCH  30  54
ATOM     54  C   UNL A   1      43.607  27.306  33.975  1.00  0.00     0.064 A 
ATOM     55  C   UNL A   1      44.771  26.812  34.579  1.00  0.00     0.173 A 
ATOM     56  C   UNL A   1      42.399  26.650  34.255  1.00  0.00     0.173 A 
ATOM     57  F   UNL A   1      45.950  27.408  34.344  1.00  0.00    -0.203 F 
ATOM     58  C   UNL A   1      44.732  25.707  35.426  1.00  0.00     0.198 A 
ATOM     59  C   UNL A   1      42.356  25.560  35.123  1.00  0.00     0.198 A 
ATOM     60  F   UNL A   1      41.252  27.099  33.725  1.00  0.00    -0.203 F 
ATOM     61  F   UNL A   1      45.863  25.248  35.977  1.00  0.00    -0.200 F 
ATOM     62  C   UNL A   1      43.523  25.087  35.705  1.00  0.00     0.200 A 
ATOM     63  F   UNL A   1      41.182  24.981  35.413  1.00  0.00    -0.200 F 
ATOM     64  F   UNL A   1      43.482  24.041  36.541  1.00  0.00    -0.200 F 
ENDBRANCH  30  54
BRANCH  42  65
ATOM     65  C   UNL A   1      41.495  33.918  34.855  1.00  0.00     0.064 A 
ATOM     66  C   UNL A   1      42.226  34.703  35.756  1.00  0.00     0.173 A 
ATOM     67  C   UNL A   1      40.098  33.892  34.976  1.00  0.00     0.173 A 
ATOM     68  F   UNL A   1      43.565  34.745  35.683  1.00  0.00    -0.203 F 
ATOM     69  C   UNL A   1      41.580  35.436  36.746  1.00  0.00     0.198 A 
ATOM     70  C   UNL A   1      39.455  34.649  35.949  1.00  0.00     0.198 A 
ATOM     71  F   UNL A   1      39.358  33.161  34.128  1.00  0.00    -0.203 F 
ATOM     72  F   UNL A   1      42.299  36.163  37.612  1.00  0.00    -0.200 F 
ATOM     73  C   UNL A   1      40.196  35.419  36.833  1.00  0.00     0.200 A 
ATOM     74  F   UNL A   1      38.116  34.644  36.023  1.00  0.00    -0.200 F 
ATOM     75  F   UNL A   1      39.575  36.147  37.771  1.00  0.00    -0.200 F 
ENDBRANCH  42  65
ENDBRANCH  16  17
ENDBRANCH   9  11
ENDBRANCH   8   9
ENDBRANCH   7   8
ENDBRANCH   6   7
ENDBRANCH   5   6
ENDBRANCH   4   5
ENDBRANCH   3   4
ENDBRANCH   2   3
ENDBRANCH   1   2
BRANCH   1  76
ATOM     76  C   UNL A   1      42.425  20.356  26.950  1.00  0.00     0.188 C 
BRANCH  76  77
ATOM     77  O   UNL A   1      41.227  21.115  26.878  1.00  0.00    -0.376 OA
BRANCH  77  78
ATOM     78  C   UNL A   1      41.286  22.276  26.058  1.00  0.00     0.202 C 
BRANCH  78  79
ATOM     79  C   UNL A   1      42.318  23.327  26.487  1.00  0.00     0.261 C 
BRANCH  79  80
ATOM     80  O   UNL A   1      41.824  24.358  27.356  1.00  0.00    -0.460 OA
BRANCH  80  81
ATOM     81  C   UNL A   1      41.346  25.501  26.803  1.00  0.00     0.338 C 
ATOM     82  O   UNL A   1      41.222  25.768  25.634  1.00  0.00    -0.246 OA
BRANCH  81  83
ATOM     83  C   UNL A   1      40.765  26.268  27.929  1.00  0.00     0.062 A 
ATOM     84  C   UNL A   1      39.515  25.893  28.438  1.00  0.00     0.016 A 
ATOM     85  C   UNL A   1      41.389  27.467  28.329  1.00  0.00     0.042 A 
ATOM     86  C   UNL A   1      38.917  26.686  29.406  1.00  0.00     0.017 A 
ATOM     87  C   UNL A   1      40.708  28.317  29.190  1.00  0.00     0.056 A 
ATOM     88  C   UNL A   1      39.536  27.882  29.776  1.00  0.00     0.064 A 
ATOM     89  N   UNL A   1      41.123  29.627  29.436  1.00  0.00    -0.307 N 
ATOM     90  C   UNL A   1      39.051  28.660  30.903  1.00  0.00     0.264 A 
ATOM     91  C   UNL A   1      40.411  30.519  30.207  1.00  0.00     0.328 A 
ATOM     92  H   UNL A   1      41.971  29.929  29.037  1.00  0.00     0.171 HD
ATOM     93  O   UNL A   1      38.567  28.002  31.812  1.00  0.00    -0.268 OA
ATOM     94  N   UNL A   1      39.314  30.017  30.905  1.00  0.00    -0.260 N 
ATOM     95  O   UNL A   1      40.809  31.681  30.273  1.00  0.00    -0.248 OA
BRANCH  94  96
ATOM     96  C   UNL A   1      38.741  30.869  31.952  1.00  0.00     0.137 C 
BRANCH  96  97
ATOM     97  C   UNL A   1      37.609  31.854  31.602  1.00  0.00     0.083 C 
BRANCH  97  98
ATOM     98  C   UNL A   1      36.532  31.547  30.545  1.00  0.00     0.264 C 
BRANCH  98  99
ATOM     99  N   UNL A   1      36.653  31.867  29.120  1.00  0.00    -0.331 N 
ATOM    100  C   UNL A   1      36.514  33.290  28.790  1.00  0.00     0.291 C 
ATOM    101  C   UNL A   1      35.943  31.070  28.115  1.00  0.00     0.291 C 
ATOM    102  H   UNL A   1      37.621  31.560  29.028  1.00  0.00     0.348 HD
ATOM    103  C   UNL A   1      35.047  33.697  28.613  1.00  0.00     0.221 C 
ATOM    104  C   UNL A   1      34.491  31.519  27.890  1.00  0.00     0.221 C 
ATOM    105  O   UNL A   1      34.409  32.918  27.590  1.00  0.00    -0.370 OA
ENDBRANCH  98  99
ENDBRANCH  97  98
ENDBRANCH  96  97
ENDBRANCH  94  96
ENDBRANCH  81  83
ENDBRANCH  80  81
ENDBRANCH  79  80
ENDBRANCH  78  79
ENDBRANCH  77  78
ENDBRANCH  76  77
ENDBRANCH   1  76
TORSDOF 24
ENDMDL
