MODEL 1
REMARK VINA RESULT:     -10.3      0.000      0.000
REMARK SMILES Cc1ccc([C@H](CC2CCCC2)C(=O)OCCOCCOCCOCCOC(=O)c2ccc(-c3c4nc(c(-c5c(F)c(F)c(F)c(F)c5F)c5ccc([nH]5)c(-c5c(F)c(F)c(F)c(F)c5F)c5nc(c(-c6c(F)c(F)c(F)c(F)c6F)c6ccc3[nH]6)C=C5)C=C4)cc2)cc1
REMARK SMILES IDX 21 1 20 2 19 3 18 4 17 5 16 6 15 7 13 8 14 9 6 10 5 11 1 12
REMARK SMILES IDX 2 13 3 14 94 15 4 16 93 17 7 18 8 19 9 20 12 21 10 22 11 23
REMARK SMILES IDX 22 24 23 25 24 26 25 27 26 28 27 29 28 30 29 31 30 32 31 33
REMARK SMILES IDX 92 34 32 35 91 36 33 37 34 38 35 39 85 40 36 41 90 42 84 43
REMARK SMILES IDX 86 44 37 45 89 46 83 47 82 48 38 50 70 51 50 52 69 53 51 54
REMARK SMILES IDX 54 55 68 56 87 57 52 58 53 59 67 61 88 62 55 63 39 64 40 65
REMARK SMILES IDX 48 66 41 67 42 68 46 69 49 70 43 71 44 72 47 73 45 74 71 75
REMARK SMILES IDX 72 76 80 77 73 78 74 79 78 80 81 81 75 82 76 83 79 84 77 85
REMARK SMILES IDX 56 86 57 87 65 88 58 89 59 90 63 91 66 92 60 93 61 94 64 95
REMARK SMILES IDX 62 96
REMARK H PARENT 86 49 54 60
REMARK Flexibility Score: inf
ROOT
ATOM      1  O   UNL A   1      34.084  21.810  23.997  1.00  0.00    -0.377 OA
ENDROOT
BRANCH   1   2
ATOM      2  C   UNL A   1      33.151  22.704  24.582  1.00  0.00     0.188 C 
BRANCH   2   3
ATOM      3  C   UNL A   1      31.769  22.145  25.021  1.00  0.00     0.188 C 
BRANCH   3   4
ATOM      4  O   UNL A   1      30.635  22.977  25.142  1.00  0.00    -0.376 OA
BRANCH   4   5
ATOM      5  C   UNL A   1      30.439  23.551  26.412  1.00  0.00     0.202 C 
BRANCH   5   6
ATOM      6  C   UNL A   1      30.322  25.067  26.508  1.00  0.00     0.261 C 
BRANCH   6   7
ATOM      7  O   UNL A   1      31.559  25.778  26.324  1.00  0.00    -0.463 OA
BRANCH   7   8
ATOM      8  C   UNL A   1      31.565  27.091  26.670  1.00  0.00     0.313 C 
ATOM      9  O   UNL A   1      31.008  27.544  27.664  1.00  0.00    -0.252 OA
BRANCH   8  10
ATOM     10  C   UNL A   1      32.311  27.978  25.669  1.00  0.00     0.129 C 
BRANCH  10  11
ATOM     11  C   UNL A   1      33.086  29.082  26.397  1.00  0.00    -0.034 A 
ATOM     12  C   UNL A   1      35.530  32.060  28.375  1.00  0.00     0.044 C 
ATOM     13  C   UNL A   1      34.651  31.027  27.734  1.00  0.00    -0.051 A 
ATOM     14  C   UNL A   1      35.154  29.744  27.508  1.00  0.00     0.004 A 
ATOM     15  C   UNL A   1      33.350  31.326  27.311  1.00  0.00     0.004 A 
ATOM     16  C   UNL A   1      34.379  28.783  26.859  1.00  0.00     0.005 A 
ATOM     17  C   UNL A   1      32.569  30.360  26.656  1.00  0.00     0.005 A 
ENDBRANCH  10  11
BRANCH  10  18
ATOM     18  C   UNL A   1      31.534  28.472  24.414  1.00  0.00     0.023 C 
BRANCH  18  19
ATOM     19  C   UNL A   1      31.983  27.865  23.051  1.00  0.00    -0.010 C 
ATOM     20  C   UNL A   1      33.286  27.066  23.067  1.00  0.00     0.003 C 
ATOM     21  C   UNL A   1      31.043  26.750  22.567  1.00  0.00     0.003 C 
ATOM     22  C   UNL A   1      33.295  26.209  21.819  1.00  0.00     0.000 C 
ATOM     23  C   UNL A   1      31.829  25.991  21.497  1.00  0.00     0.000 C 
ENDBRANCH  18  19
ENDBRANCH  10  18
ENDBRANCH   8  10
ENDBRANCH   7   8
ENDBRANCH   6   7
ENDBRANCH   5   6
ENDBRANCH   4   5
ENDBRANCH   3   4
ENDBRANCH   2   3
ENDBRANCH   1   2
BRANCH   1  24
ATOM     24  C   UNL A   1      34.071  20.512  24.607  1.00  0.00     0.188 C 
BRANCH  24  25
ATOM     25  C   UNL A   1      35.459  20.029  25.002  1.00  0.00     0.188 C 
BRANCH  25  26
ATOM     26  O   UNL A   1      36.379  21.042  24.633  1.00  0.00    -0.376 OA
BRANCH  26  27
ATOM     27  C   UNL A   1      37.715  20.871  25.057  1.00  0.00     0.202 C 
BRANCH  27  28
ATOM     28  C   UNL A   1      38.257  22.159  25.668  1.00  0.00     0.261 C 
BRANCH  28  29
ATOM     29  O   UNL A   1      39.274  21.805  26.633  1.00  0.00    -0.460 OA
BRANCH  29  30
ATOM     30  C   UNL A   1      40.435  22.501  26.536  1.00  0.00     0.338 C 
ATOM     31  O   UNL A   1      41.555  21.987  26.464  1.00  0.00    -0.246 OA
BRANCH  30  32
ATOM     32  C   UNL A   1      40.222  23.957  26.794  1.00  0.00     0.060 A 
ATOM     33  C   UNL A   1      40.566  24.906  25.816  1.00  0.00     0.016 A 
ATOM     34  C   UNL A   1      39.972  24.390  28.093  1.00  0.00     0.016 A 
ATOM     35  C   UNL A   1      40.805  26.250  26.172  1.00  0.00     0.010 A 
ATOM     36  C   UNL A   1      40.297  25.693  28.448  1.00  0.00     0.010 A 
ATOM     37  C   UNL A   1      40.758  26.636  27.509  1.00  0.00    -0.014 A 
BRANCH  37  38
ATOM     38  C   UNL A   1      41.297  27.904  28.067  1.00  0.00     0.031 A 
ATOM     39  C   UNL A   1      40.341  28.986  28.479  1.00  0.00     0.074 A 
ATOM     40  C   UNL A   1      42.568  27.952  28.566  1.00  0.00     0.049 A 
ATOM     41  N   UNL A   1      40.693  30.039  29.134  1.00  0.00    -0.248 NA
ATOM     42  C   UNL A   1      38.899  28.978  28.239  1.00  0.00     0.031 C 
ATOM     43  C   UNL A   1      43.048  28.781  29.686  1.00  0.00     0.029 A 
ATOM     44  N   UNL A   1      43.712  27.181  28.281  1.00  0.00    -0.354 N 
ATOM     45  C   UNL A   1      39.584  30.617  29.703  1.00  0.00     0.074 A 
ATOM     46  C   UNL A   1      38.483  29.991  29.014  1.00  0.00     0.031 C 
ATOM     47  C   UNL A   1      44.368  28.654  29.857  1.00  0.00     0.029 A 
ATOM     48  C   UNL A   1      44.833  27.948  28.696  1.00  0.00     0.049 A 
ATOM     49  H   UNL A   1      43.732  26.286  27.874  1.00  0.00     0.167 HD
ATOM     50  C   UNL A   1      39.777  31.463  30.765  1.00  0.00     0.037 A 
ATOM     51  C   UNL A   1      45.700  28.488  27.791  1.00  0.00     0.037 A 
ATOM     52  C   UNL A   1      41.207  31.792  30.935  1.00  0.00     0.049 A 
ATOM     53  C   UNL A   1      45.669  30.002  27.816  1.00  0.00     0.074 A 
ATOM     54  C   UNL A   1      42.138  31.762  31.964  1.00  0.00     0.029 A 
ATOM     55  N   UNL A   1      41.930  32.136  29.795  1.00  0.00    -0.354 N 
ATOM     56  N   UNL A   1      44.652  30.674  28.292  1.00  0.00    -0.248 NA
ATOM     57  C   UNL A   1      46.773  30.883  27.456  1.00  0.00     0.031 C 
ATOM     58  C   UNL A   1      43.427  32.034  31.409  1.00  0.00     0.029 A 
ATOM     59  C   UNL A   1      43.263  32.316  30.063  1.00  0.00     0.049 A 
ATOM     60  H   UNL A   1      41.531  32.240  28.901  1.00  0.00     0.167 HD
ATOM     61  C   UNL A   1      44.968  31.997  28.416  1.00  0.00     0.074 A 
ATOM     62  C   UNL A   1      46.290  32.086  27.828  1.00  0.00     0.031 C 
ATOM     63  C   UNL A   1      44.127  32.882  29.036  1.00  0.00     0.037 A 
BRANCH  50  64
ATOM     64  C   UNL A   1      38.714  31.972  31.733  1.00  0.00     0.064 A 
ATOM     65  C   UNL A   1      38.570  31.394  33.020  1.00  0.00     0.173 A 
ATOM     66  C   UNL A   1      37.761  32.972  31.447  1.00  0.00     0.173 A 
ATOM     67  F   UNL A   1      39.387  30.422  33.447  1.00  0.00    -0.203 F 
ATOM     68  C   UNL A   1      37.581  31.788  33.930  1.00  0.00     0.198 A 
ATOM     69  C   UNL A   1      36.807  33.405  32.379  1.00  0.00     0.198 A 
ATOM     70  F   UNL A   1      37.678  33.545  30.243  1.00  0.00    -0.203 F 
ATOM     71  F   UNL A   1      37.477  31.166  35.114  1.00  0.00    -0.200 F 
ATOM     72  C   UNL A   1      36.711  32.810  33.618  1.00  0.00     0.200 A 
ATOM     73  F   UNL A   1      35.969  34.401  32.056  1.00  0.00    -0.200 F 
ATOM     74  F   UNL A   1      35.782  33.209  34.496  1.00  0.00    -0.200 F 
ENDBRANCH  50  64
BRANCH  51  75
ATOM     75  C   UNL A   1      46.026  27.493  26.729  1.00  0.00     0.064 A 
ATOM     76  C   UNL A   1      46.915  26.479  27.160  1.00  0.00     0.173 A 
ATOM     77  C   UNL A   1      45.055  27.128  25.783  1.00  0.00     0.173 A 
ATOM     78  F   UNL A   1      47.885  26.778  28.040  1.00  0.00    -0.203 F 
ATOM     79  C   UNL A   1      46.667  25.136  26.883  1.00  0.00     0.198 A 
ATOM     80  C   UNL A   1      44.840  25.778  25.473  1.00  0.00     0.198 A 
ATOM     81  F   UNL A   1      44.189  28.040  25.319  1.00  0.00    -0.203 F 
ATOM     82  F   UNL A   1      47.384  24.183  27.497  1.00  0.00    -0.200 F 
ATOM     83  C   UNL A   1      45.596  24.784  26.082  1.00  0.00     0.200 A 
ATOM     84  F   UNL A   1      43.816  25.426  24.682  1.00  0.00    -0.200 F 
ATOM     85  F   UNL A   1      45.255  23.494  25.947  1.00  0.00    -0.200 F 
ENDBRANCH  51  75
BRANCH  63  86
ATOM     86  C   UNL A   1      43.974  34.370  28.754  1.00  0.00     0.064 A 
ATOM     87  C   UNL A   1      43.481  34.906  27.558  1.00  0.00     0.173 A 
ATOM     88  C   UNL A   1      44.129  35.321  29.808  1.00  0.00     0.173 A 
ATOM     89  F   UNL A   1      43.237  34.143  26.490  1.00  0.00    -0.203 F 
ATOM     90  C   UNL A   1      43.165  36.263  27.426  1.00  0.00     0.198 A 
ATOM     91  C   UNL A   1      43.751  36.655  29.693  1.00  0.00     0.198 A 
ATOM     92  F   UNL A   1      44.615  34.993  31.012  1.00  0.00    -0.203 F 
ATOM     93  F   UNL A   1      42.714  36.720  26.250  1.00  0.00    -0.200 F 
ATOM     94  C   UNL A   1      43.274  37.130  28.497  1.00  0.00     0.200 A 
ATOM     95  F   UNL A   1      43.827  37.462  30.761  1.00  0.00    -0.200 F 
ATOM     96  F   UNL A   1      42.907  38.412  28.378  1.00  0.00    -0.200 F 
ENDBRANCH  63  86
ENDBRANCH  37  38
ENDBRANCH  30  32
ENDBRANCH  29  30
ENDBRANCH  28  29
ENDBRANCH  27  28
ENDBRANCH  26  27
ENDBRANCH  25  26
ENDBRANCH  24  25
ENDBRANCH   1  24
TORSDOF 23
ENDMDL
MODEL 2
REMARK VINA RESULT:     -10.2      3.526      9.883
REMARK SMILES Cc1ccc([C@H](CC2CCCC2)C(=O)OCCOCCOCCOCCOC(=O)c2ccc(-c3c4nc(c(-c5c(F)c(F)c(F)c(F)c5F)c5ccc([nH]5)c(-c5c(F)c(F)c(F)c(F)c5F)c5nc(c(-c6c(F)c(F)c(F)c(F)c6F)c6ccc3[nH]6)C=C5)C=C4)cc2)cc1
REMARK SMILES IDX 21 1 20 2 19 3 18 4 17 5 16 6 15 7 13 8 14 9 6 10 5 11 1 12
REMARK SMILES IDX 2 13 3 14 94 15 4 16 93 17 7 18 8 19 9 20 12 21 10 22 11 23
REMARK SMILES IDX 22 24 23 25 24 26 25 27 26 28 27 29 28 30 29 31 30 32 31 33
REMARK SMILES IDX 92 34 32 35 91 36 33 37 34 38 35 39 85 40 36 41 90 42 84 43
REMARK SMILES IDX 86 44 37 45 89 46 83 47 82 48 38 50 70 51 50 52 69 53 51 54
REMARK SMILES IDX 54 55 68 56 87 57 52 58 53 59 67 61 88 62 55 63 39 64 40 65
REMARK SMILES IDX 48 66 41 67 42 68 46 69 49 70 43 71 44 72 47 73 45 74 71 75
REMARK SMILES IDX 72 76 80 77 73 78 74 79 78 80 81 81 75 82 76 83 79 84 77 85
REMARK SMILES IDX 56 86 57 87 65 88 58 89 59 90 63 91 66 92 60 93 61 94 64 95
REMARK SMILES IDX 62 96
REMARK H PARENT 86 49 54 60
REMARK Flexibility Score: inf
ROOT
ATOM      1  O   UNL A   1      31.116  28.796  25.117  1.00  0.00    -0.377 OA
ENDROOT
BRANCH   1   2
ATOM      2  C   UNL A   1      30.593  29.606  24.077  1.00  0.00     0.188 C 
BRANCH   2   3
ATOM      3  C   UNL A   1      30.439  28.981  22.663  1.00  0.00     0.188 C 
BRANCH   3   4
ATOM      4  O   UNL A   1      31.421  28.125  22.117  1.00  0.00    -0.376 OA
BRANCH   4   5
ATOM      5  C   UNL A   1      31.115  26.752  22.157  1.00  0.00     0.202 C 
BRANCH   5   6
ATOM      6  C   UNL A   1      31.465  25.972  23.418  1.00  0.00     0.261 C 
BRANCH   6   7
ATOM      7  O   UNL A   1      32.834  25.535  23.495  1.00  0.00    -0.463 OA
BRANCH   7   8
ATOM      8  C   UNL A   1      33.151  24.402  22.815  1.00  0.00     0.313 C 
ATOM      9  O   UNL A   1      33.333  24.354  21.604  1.00  0.00    -0.252 OA
BRANCH   8  10
ATOM     10  C   UNL A   1      33.226  23.162  23.709  1.00  0.00     0.129 C 
BRANCH  10  11
ATOM     11  C   UNL A   1      34.657  22.945  24.214  1.00  0.00    -0.034 A 
ATOM     12  C   UNL A   1      38.584  22.273  25.912  1.00  0.00     0.044 C 
ATOM     13  C   UNL A   1      37.243  22.550  25.299  1.00  0.00    -0.051 A 
ATOM     14  C   UNL A   1      36.176  22.917  26.123  1.00  0.00     0.004 A 
ATOM     15  C   UNL A   1      37.017  22.407  23.925  1.00  0.00     0.004 A 
ATOM     16  C   UNL A   1      34.905  23.121  25.586  1.00  0.00     0.005 A 
ATOM     17  C   UNL A   1      35.738  22.612  23.384  1.00  0.00     0.005 A 
ENDBRANCH  10  11
BRANCH  10  18
ATOM     18  C   UNL A   1      32.527  21.863  23.212  1.00  0.00     0.023 C 
BRANCH  18  19
ATOM     19  C   UNL A   1      33.019  20.533  23.858  1.00  0.00    -0.010 C 
ATOM     20  C   UNL A   1      32.505  20.239  25.267  1.00  0.00     0.003 C 
ATOM     21  C   UNL A   1      32.455  19.292  23.149  1.00  0.00     0.003 C 
ATOM     22  C   UNL A   1      32.707  18.758  25.511  1.00  0.00     0.000 C 
ATOM     23  C   UNL A   1      32.663  18.135  24.129  1.00  0.00     0.000 C 
ENDBRANCH  18  19
ENDBRANCH  10  18
ENDBRANCH   8  10
ENDBRANCH   7   8
ENDBRANCH   6   7
ENDBRANCH   5   6
ENDBRANCH   4   5
ENDBRANCH   3   4
ENDBRANCH   2   3
ENDBRANCH   1   2
BRANCH   1  24
ATOM     24  C   UNL A   1      32.044  29.497  25.957  1.00  0.00     0.188 C 
BRANCH  24  25
ATOM     25  C   UNL A   1      33.077  28.579  26.594  1.00  0.00     0.188 C 
BRANCH  25  26
ATOM     26  O   UNL A   1      33.991  29.398  27.304  1.00  0.00    -0.376 OA
BRANCH  26  27
ATOM     27  C   UNL A   1      33.845  30.794  27.150  1.00  0.00     0.202 C 
BRANCH  27  28
ATOM     28  C   UNL A   1      34.434  31.535  28.346  1.00  0.00     0.261 C 
BRANCH  28  29
ATOM     29  O   UNL A   1      34.100  32.935  28.217  1.00  0.00    -0.460 OA
BRANCH  29  30
ATOM     30  C   UNL A   1      34.108  33.644  29.375  1.00  0.00     0.338 C 
ATOM     31  O   UNL A   1      33.249  34.469  29.695  1.00  0.00    -0.246 OA
BRANCH  30  32
ATOM     32  C   UNL A   1      35.412  33.504  30.090  1.00  0.00     0.060 A 
ATOM     33  C   UNL A   1      36.613  33.843  29.443  1.00  0.00     0.016 A 
ATOM     34  C   UNL A   1      35.469  32.766  31.269  1.00  0.00     0.016 A 
ATOM     35  C   UNL A   1      37.843  33.319  29.890  1.00  0.00     0.010 A 
ATOM     36  C   UNL A   1      36.671  32.182  31.646  1.00  0.00     0.010 A 
ATOM     37  C   UNL A   1      37.871  32.410  30.945  1.00  0.00    -0.014 A 
BRANCH  37  38
ATOM     38  C   UNL A   1      39.016  31.534  31.308  1.00  0.00     0.031 A 
ATOM     39  C   UNL A   1      39.197  30.230  30.585  1.00  0.00     0.074 A 
ATOM     40  C   UNL A   1      40.092  32.047  31.976  1.00  0.00     0.049 A 
ATOM     41  N   UNL A   1      40.247  29.491  30.696  1.00  0.00    -0.248 NA
ATOM     42  C   UNL A   1      38.247  29.648  29.638  1.00  0.00     0.031 C 
ATOM     43  C   UNL A   1      41.497  31.623  31.848  1.00  0.00     0.029 A 
ATOM     44  N   UNL A   1      40.213  33.156  32.836  1.00  0.00    -0.354 N 
ATOM     45  C   UNL A   1      40.302  28.609  29.645  1.00  0.00     0.074 A 
ATOM     46  C   UNL A   1      38.973  28.664  29.086  1.00  0.00     0.031 C 
ATOM     47  C   UNL A   1      42.284  32.273  32.713  1.00  0.00     0.029 A 
ATOM     48  C   UNL A   1      41.385  32.944  33.610  1.00  0.00     0.049 A 
ATOM     49  H   UNL A   1      39.605  33.927  32.891  1.00  0.00     0.167 HD
ATOM     50  C   UNL A   1      41.517  28.051  29.339  1.00  0.00     0.037 A 
ATOM     51  C   UNL A   1      41.316  32.669  34.944  1.00  0.00     0.037 A 
ATOM     52  C   UNL A   1      42.513  28.326  30.395  1.00  0.00     0.049 A 
ATOM     53  C   UNL A   1      41.827  31.278  35.259  1.00  0.00     0.074 A 
ATOM     54  C   UNL A   1      43.796  28.848  30.464  1.00  0.00     0.029 A 
ATOM     55  N   UNL A   1      42.119  28.142  31.718  1.00  0.00    -0.354 N 
ATOM     56  N   UNL A   1      41.888  30.333  34.355  1.00  0.00    -0.248 NA
ATOM     57  C   UNL A   1      42.423  30.854  36.520  1.00  0.00     0.031 C 
ATOM     58  C   UNL A   1      44.134  29.027  31.841  1.00  0.00     0.029 A 
ATOM     59  C   UNL A   1      43.091  28.529  32.605  1.00  0.00     0.049 A 
ATOM     60  H   UNL A   1      41.246  27.776  31.987  1.00  0.00     0.167 HD
ATOM     61  C   UNL A   1      42.596  29.264  34.827  1.00  0.00     0.074 A 
ATOM     62  C   UNL A   1      42.863  29.617  36.208  1.00  0.00     0.031 C 
ATOM     63  C   UNL A   1      42.934  28.213  34.018  1.00  0.00     0.037 A 
BRANCH  50  64
ATOM     64  C   UNL A   1      41.883  27.302  28.062  1.00  0.00     0.064 A 
ATOM     65  C   UNL A   1      41.975  25.886  28.055  1.00  0.00     0.173 A 
ATOM     66  C   UNL A   1      42.221  27.902  26.832  1.00  0.00     0.173 A 
ATOM     67  F   UNL A   1      41.699  25.160  29.146  1.00  0.00    -0.203 F 
ATOM     68  C   UNL A   1      42.354  25.150  26.925  1.00  0.00     0.198 A 
ATOM     69  C   UNL A   1      42.546  27.162  25.686  1.00  0.00     0.198 A 
ATOM     70  F   UNL A   1      42.297  29.228  26.690  1.00  0.00    -0.203 F 
ATOM     71  F   UNL A   1      42.462  23.816  27.004  1.00  0.00    -0.200 F 
ATOM     72  C   UNL A   1      42.620  25.787  25.733  1.00  0.00     0.200 A 
ATOM     73  F   UNL A   1      42.801  27.800  24.534  1.00  0.00    -0.200 F 
ATOM     74  F   UNL A   1      42.955  25.084  24.643  1.00  0.00    -0.200 F 
ENDBRANCH  50  64
BRANCH  51  75
ATOM     75  C   UNL A   1      40.324  33.563  35.608  1.00  0.00     0.064 A 
ATOM     76  C   UNL A   1      39.159  32.887  36.043  1.00  0.00     0.173 A 
ATOM     77  C   UNL A   1      40.762  34.643  36.390  1.00  0.00     0.173 A 
ATOM     78  F   UNL A   1      38.675  31.865  35.317  1.00  0.00    -0.203 F 
ATOM     79  C   UNL A   1      38.638  33.093  37.319  1.00  0.00     0.198 A 
ATOM     80  C   UNL A   1      40.203  34.876  37.655  1.00  0.00     0.198 A 
ATOM     81  F   UNL A   1      41.850  35.339  36.031  1.00  0.00    -0.203 F 
ATOM     82  F   UNL A   1      37.685  32.276  37.793  1.00  0.00    -0.200 F 
ATOM     83  C   UNL A   1      39.196  34.053  38.144  1.00  0.00     0.200 A 
ATOM     84  F   UNL A   1      40.724  35.816  38.456  1.00  0.00    -0.200 F 
ATOM     85  F   UNL A   1      38.809  34.143  39.425  1.00  0.00    -0.200 F 
ENDBRANCH  51  75
BRANCH  63  86
ATOM     86  C   UNL A   1      43.132  26.758  34.421  1.00  0.00     0.064 A 
ATOM     87  C   UNL A   1      42.140  25.947  34.986  1.00  0.00     0.173 A 
ATOM     88  C   UNL A   1      44.317  26.060  34.035  1.00  0.00     0.173 A 
ATOM     89  F   UNL A   1      40.955  26.437  35.359  1.00  0.00    -0.203 F 
ATOM     90  C   UNL A   1      42.309  24.566  35.144  1.00  0.00     0.198 A 
ATOM     91  C   UNL A   1      44.454  24.679  34.134  1.00  0.00     0.198 A 
ATOM     92  F   UNL A   1      45.380  26.679  33.506  1.00  0.00    -0.203 F 
ATOM     93  F   UNL A   1      41.330  23.846  35.708  1.00  0.00    -0.200 F 
ATOM     94  C   UNL A   1      43.451  23.930  34.696  1.00  0.00     0.200 A 
ATOM     95  F   UNL A   1      45.554  24.084  33.650  1.00  0.00    -0.200 F 
ATOM     96  F   UNL A   1      43.575  22.601  34.793  1.00  0.00    -0.200 F 
ENDBRANCH  63  86
ENDBRANCH  37  38
ENDBRANCH  30  32
ENDBRANCH  29  30
ENDBRANCH  28  29
ENDBRANCH  27  28
ENDBRANCH  26  27
ENDBRANCH  25  26
ENDBRANCH  24  25
ENDBRANCH   1  24
TORSDOF 23
ENDMDL
MODEL 3
REMARK VINA RESULT:     -10.1      1.616      2.571
REMARK SMILES Cc1ccc([C@H](CC2CCCC2)C(=O)OCCOCCOCCOCCOC(=O)c2ccc(-c3c4nc(c(-c5c(F)c(F)c(F)c(F)c5F)c5ccc([nH]5)c(-c5c(F)c(F)c(F)c(F)c5F)c5nc(c(-c6c(F)c(F)c(F)c(F)c6F)c6ccc3[nH]6)C=C5)C=C4)cc2)cc1
REMARK SMILES IDX 21 1 20 2 19 3 18 4 17 5 16 6 15 7 13 8 14 9 6 10 5 11 1 12
REMARK SMILES IDX 2 13 3 14 94 15 4 16 93 17 7 18 8 19 9 20 12 21 10 22 11 23
REMARK SMILES IDX 22 24 23 25 24 26 25 27 26 28 27 29 28 30 29 31 30 32 31 33
REMARK SMILES IDX 92 34 32 35 91 36 33 37 34 38 35 39 85 40 36 41 90 42 84 43
REMARK SMILES IDX 86 44 37 45 89 46 83 47 82 48 38 50 70 51 50 52 69 53 51 54
REMARK SMILES IDX 54 55 68 56 87 57 52 58 53 59 67 61 88 62 55 63 39 64 40 65
REMARK SMILES IDX 48 66 41 67 42 68 46 69 49 70 43 71 44 72 47 73 45 74 71 75
REMARK SMILES IDX 72 76 80 77 73 78 74 79 78 80 81 81 75 82 76 83 79 84 77 85
REMARK SMILES IDX 56 86 57 87 65 88 58 89 59 90 63 91 66 92 60 93 61 94 64 95
REMARK SMILES IDX 62 96
REMARK H PARENT 86 49 54 60
REMARK Flexibility Score: inf
ROOT
ATOM      1  O   UNL A   1      34.393  22.132  23.909  1.00  0.00    -0.377 OA
ENDROOT
BRANCH   1   2
ATOM      2  C   UNL A   1      33.428  23.124  24.219  1.00  0.00     0.188 C 
BRANCH   2   3
ATOM      3  C   UNL A   1      31.929  22.715  24.234  1.00  0.00     0.188 C 
BRANCH   3   4
ATOM      4  O   UNL A   1      30.896  23.671  24.124  1.00  0.00    -0.376 OA
BRANCH   4   5
ATOM      5  C   UNL A   1      30.486  24.261  25.335  1.00  0.00     0.202 C 
BRANCH   5   6
ATOM      6  C   UNL A   1      30.528  25.780  25.447  1.00  0.00     0.261 C 
BRANCH   6   7
ATOM      7  O   UNL A   1      31.813  26.368  25.173  1.00  0.00    -0.463 OA
BRANCH   7   8
ATOM      8  C   UNL A   1      31.974  26.938  23.951  1.00  0.00     0.313 C 
ATOM      9  O   UNL A   1      32.450  26.362  22.979  1.00  0.00    -0.252 OA
BRANCH   8  10
ATOM     10  C   UNL A   1      31.536  28.404  23.904  1.00  0.00     0.129 C 
BRANCH  10  11
ATOM     11  C   UNL A   1      32.176  29.197  25.050  1.00  0.00    -0.034 A 
ATOM     12  C   UNL A   1      34.250  31.401  28.147  1.00  0.00     0.044 C 
ATOM     13  C   UNL A   1      33.505  30.610  27.113  1.00  0.00    -0.051 A 
ATOM     14  C   UNL A   1      34.200  29.696  26.318  1.00  0.00     0.004 A 
ATOM     15  C   UNL A   1      32.135  30.796  26.889  1.00  0.00     0.004 A 
ATOM     16  C   UNL A   1      33.542  28.993  25.308  1.00  0.00     0.005 A 
ATOM     17  C   UNL A   1      31.473  30.089  25.873  1.00  0.00     0.005 A 
ENDBRANCH  10  11
BRANCH  10  18
ATOM     18  C   UNL A   1      30.023  28.706  23.694  1.00  0.00     0.023 C 
BRANCH  18  19
ATOM     19  C   UNL A   1      29.692  29.929  22.788  1.00  0.00    -0.010 C 
ATOM     20  C   UNL A   1      28.515  29.755  21.827  1.00  0.00     0.003 C 
ATOM     21  C   UNL A   1      29.153  31.125  23.589  1.00  0.00     0.003 C 
ATOM     22  C   UNL A   1      28.082  31.143  21.402  1.00  0.00     0.000 C 
ATOM     23  C   UNL A   1      28.487  32.039  22.557  1.00  0.00     0.000 C 
ENDBRANCH  18  19
ENDBRANCH  10  18
ENDBRANCH   8  10
ENDBRANCH   7   8
ENDBRANCH   6   7
ENDBRANCH   5   6
ENDBRANCH   4   5
ENDBRANCH   3   4
ENDBRANCH   2   3
ENDBRANCH   1   2
BRANCH   1  24
ATOM     24  C   UNL A   1      34.345  21.009  24.801  1.00  0.00     0.188 C 
BRANCH  24  25
ATOM     25  C   UNL A   1      35.704  20.355  25.001  1.00  0.00     0.188 C 
BRANCH  25  26
ATOM     26  O   UNL A   1      36.684  21.254  24.509  1.00  0.00    -0.376 OA
BRANCH  26  27
ATOM     27  C   UNL A   1      37.958  21.200  25.115  1.00  0.00     0.202 C 
BRANCH  27  28
ATOM     28  C   UNL A   1      38.311  22.539  25.753  1.00  0.00     0.261 C 
BRANCH  28  29
ATOM     29  O   UNL A   1      39.225  22.290  26.845  1.00  0.00    -0.460 OA
BRANCH  29  30
ATOM     30  C   UNL A   1      40.356  23.040  26.838  1.00  0.00     0.338 C 
ATOM     31  O   UNL A   1      41.501  22.581  26.891  1.00  0.00    -0.246 OA
BRANCH  30  32
ATOM     32  C   UNL A   1      40.050  24.491  27.026  1.00  0.00     0.060 A 
ATOM     33  C   UNL A   1      40.567  25.444  26.131  1.00  0.00     0.016 A 
ATOM     34  C   UNL A   1      39.518  24.924  28.237  1.00  0.00     0.016 A 
ATOM     35  C   UNL A   1      40.685  26.796  26.512  1.00  0.00     0.010 A 
ATOM     36  C   UNL A   1      39.721  26.239  28.635  1.00  0.00     0.010 A 
ATOM     37  C   UNL A   1      40.344  27.190  27.804  1.00  0.00    -0.014 A 
BRANCH  37  38
ATOM     38  C   UNL A   1      40.715  28.477  28.447  1.00  0.00     0.031 A 
ATOM     39  C   UNL A   1      39.693  29.575  28.528  1.00  0.00     0.074 A 
ATOM     40  C   UNL A   1      41.790  28.544  29.288  1.00  0.00     0.049 A 
ATOM     41  N   UNL A   1      39.854  30.651  29.219  1.00  0.00    -0.248 NA
ATOM     42  C   UNL A   1      38.380  29.559  27.885  1.00  0.00     0.031 C 
ATOM     43  C   UNL A   1      41.938  29.414  30.468  1.00  0.00     0.029 A 
ATOM     44  N   UNL A   1      42.959  27.762  29.370  1.00  0.00    -0.354 N 
ATOM     45  C   UNL A   1      38.636  31.252  29.425  1.00  0.00     0.074 A 
ATOM     46  C   UNL A   1      37.771  30.600  28.472  1.00  0.00     0.031 C 
ATOM     47  C   UNL A   1      43.152  29.292  31.015  1.00  0.00     0.029 A 
ATOM     48  C   UNL A   1      43.922  28.544  30.062  1.00  0.00     0.049 A 
ATOM     49  H   UNL A   1      43.084  26.852  29.019  1.00  0.00     0.167 HD
ATOM     50  C   UNL A   1      38.526  32.136  30.467  1.00  0.00     0.037 A 
ATOM     51  C   UNL A   1      45.018  29.048  29.425  1.00  0.00     0.037 A 
ATOM     52  C   UNL A   1      39.851  32.471  31.028  1.00  0.00     0.049 A 
ATOM     53  C   UNL A   1      44.999  30.562  29.385  1.00  0.00     0.074 A 
ATOM     54  C   UNL A   1      40.447  32.479  32.280  1.00  0.00     0.029 A 
ATOM     55  N   UNL A   1      40.874  32.772  30.131  1.00  0.00    -0.354 N 
ATOM     56  N   UNL A   1      43.895  31.252  29.525  1.00  0.00    -0.248 NA
ATOM     57  C   UNL A   1      46.170  31.428  29.325  1.00  0.00     0.031 C 
ATOM     58  C   UNL A   1      41.844  32.729  32.109  1.00  0.00     0.029 A 
ATOM     59  C   UNL A   1      42.076  32.960  30.763  1.00  0.00     0.049 A 
ATOM     60  H   UNL A   1      40.749  32.842  29.157  1.00  0.00     0.167 HD
ATOM     61  C   UNL A   1      44.178  32.579  29.687  1.00  0.00     0.074 A 
ATOM     62  C   UNL A   1      45.614  32.645  29.499  1.00  0.00     0.031 C 
ATOM     63  C   UNL A   1      43.205  33.487  30.008  1.00  0.00     0.037 A 
BRANCH  50  64
ATOM     64  C   UNL A   1      37.235  32.682  31.070  1.00  0.00     0.064 A 
ATOM     65  C   UNL A   1      36.361  33.489  30.298  1.00  0.00     0.173 A 
ATOM     66  C   UNL A   1      36.825  32.514  32.409  1.00  0.00     0.173 A 
ATOM     67  F   UNL A   1      36.609  33.758  29.010  1.00  0.00    -0.203 F 
ATOM     68  C   UNL A   1      35.188  34.056  30.815  1.00  0.00     0.198 A 
ATOM     69  C   UNL A   1      35.623  33.035  32.909  1.00  0.00     0.198 A 
ATOM     70  F   UNL A   1      37.583  31.878  33.306  1.00  0.00    -0.203 F 
ATOM     71  F   UNL A   1      34.432  34.845  30.038  1.00  0.00    -0.200 F 
ATOM     72  C   UNL A   1      34.808  33.813  32.116  1.00  0.00     0.200 A 
ATOM     73  F   UNL A   1      35.270  32.787  34.179  1.00  0.00    -0.200 F 
ATOM     74  F   UNL A   1      33.673  34.330  32.604  1.00  0.00    -0.200 F 
ENDBRANCH  50  64
BRANCH  51  75
ATOM     75  C   UNL A   1      45.624  28.014  28.536  1.00  0.00     0.064 A 
ATOM     76  C   UNL A   1      46.027  26.845  29.226  1.00  0.00     0.173 A 
ATOM     77  C   UNL A   1      45.153  27.849  27.225  1.00  0.00     0.173 A 
ATOM     78  F   UNL A   1      46.516  26.946  30.473  1.00  0.00    -0.203 F 
ATOM     79  C   UNL A   1      45.710  25.576  28.743  1.00  0.00     0.198 A 
ATOM     80  C   UNL A   1      44.879  26.567  26.726  1.00  0.00     0.198 A 
ATOM     81  F   UNL A   1      44.768  28.913  26.506  1.00  0.00    -0.203 F 
ATOM     82  F   UNL A   1      45.890  24.500  29.523  1.00  0.00    -0.200 F 
ATOM     83  C   UNL A   1      45.088  25.442  27.515  1.00  0.00     0.200 A 
ATOM     84  F   UNL A   1      44.293  26.424  25.529  1.00  0.00    -0.200 F 
ATOM     85  F   UNL A   1      44.634  24.244  27.121  1.00  0.00    -0.200 F 
ENDBRANCH  51  75
BRANCH  63  86
ATOM     86  C   UNL A   1      43.155  34.963  29.640  1.00  0.00     0.064 A 
ATOM     87  C   UNL A   1      43.422  36.013  30.527  1.00  0.00     0.173 A 
ATOM     88  C   UNL A   1      43.039  35.359  28.273  1.00  0.00     0.173 A 
ATOM     89  F   UNL A   1      43.604  35.805  31.833  1.00  0.00    -0.203 F 
ATOM     90  C   UNL A   1      43.568  37.335  30.091  1.00  0.00     0.198 A 
ATOM     91  C   UNL A   1      43.249  36.664  27.837  1.00  0.00     0.198 A 
ATOM     92  F   UNL A   1      42.756  34.494  27.291  1.00  0.00    -0.203 F 
ATOM     93  F   UNL A   1      43.805  38.300  30.991  1.00  0.00    -0.200 F 
ATOM     94  C   UNL A   1      43.508  37.657  28.748  1.00  0.00     0.200 A 
ATOM     95  F   UNL A   1      43.229  36.938  26.524  1.00  0.00    -0.200 F 
ATOM     96  F   UNL A   1      43.713  38.914  28.337  1.00  0.00    -0.200 F 
ENDBRANCH  63  86
ENDBRANCH  37  38
ENDBRANCH  30  32
ENDBRANCH  29  30
ENDBRANCH  28  29
ENDBRANCH  27  28
ENDBRANCH  26  27
ENDBRANCH  25  26
ENDBRANCH  24  25
ENDBRANCH   1  24
TORSDOF 23
ENDMDL
