MODEL 1
REMARK VINA RESULT:      -9.5      0.000      0.000
REMARK SMILES COc1ccc(C)cc1[C@@H](C)[C@@](O)(C(=O)OCCOCCOCCOCCOC(=O)c1ccc(-c2c3nc(c(-c4c(F)c(F)c(F)c(F)c4F)c4ccc([nH]4)c(-c4c(F)c(F)c(F)c(F)c4F)c4nc(c(-c5c(F)c(F)c(F)c(F)c5F)c5ccc2[nH]5)C=C4)C=C3)cc1)C(C)C
REMARK SMILES IDX 21 1 20 2 19 3 18 4 17 5 16 6 14 7 15 8 12 9 10 10 11 11
REMARK SMILES IDX 9 12 3 13 4 14 5 15 8 16 6 17 7 18 2 19 1 20 13 21 94 23
REMARK SMILES IDX 95 24 96 25 22 26 23 27 24 28 25 29 26 30 27 31 28 32 29 33
REMARK SMILES IDX 30 34 31 35 32 36 93 37 33 38 92 39 34 40 35 41 36 42 86 43
REMARK SMILES IDX 37 44 91 45 85 46 87 47 38 48 90 49 84 50 83 51 39 53 71 54
REMARK SMILES IDX 51 55 70 56 52 57 55 58 69 59 88 60 53 61 54 62 68 64 89 65
REMARK SMILES IDX 56 66 40 67 41 68 49 69 42 70 43 71 47 72 50 73 44 74 45 75
REMARK SMILES IDX 48 76 46 77 72 78 73 79 81 80 74 81 75 82 79 83 82 84 76 85
REMARK SMILES IDX 77 86 80 87 78 88 57 89 58 90 66 91 59 92 60 93 64 94 67 95
REMARK SMILES IDX 61 96 62 97 65 98 63 99
REMARK H PARENT 13 22 87 52 55 63
REMARK Flexibility Score: inf
ROOT
ATOM      1  C   UNL A   1      33.248  31.126  27.210  1.00  0.00     0.188 C 
ENDROOT
BRANCH   1   2
ATOM      2  C   UNL A   1      32.244  29.991  26.891  1.00  0.00     0.188 C 
BRANCH   2   3
ATOM      3  O   UNL A   1      32.489  28.723  27.511  1.00  0.00    -0.376 OA
BRANCH   3   4
ATOM      4  C   UNL A   1      31.480  27.812  27.161  1.00  0.00     0.202 C 
BRANCH   4   5
ATOM      5  C   UNL A   1      31.062  27.668  25.701  1.00  0.00     0.261 C 
BRANCH   5   6
ATOM      6  O   UNL A   1      30.298  26.428  25.566  1.00  0.00    -0.461 OA
BRANCH   6   7
ATOM      7  C   UNL A   1      30.720  25.833  24.446  1.00  0.00     0.339 C 
ATOM      8  O   UNL A   1      30.266  26.215  23.364  1.00  0.00    -0.249 OA
BRANCH   7   9
ATOM      9  C   UNL A   1      31.720  24.662  24.600  1.00  0.00     0.170 C 
BRANCH   9  10
ATOM     10  C   UNL A   1      33.064  24.748  25.545  1.00  0.00     0.063 C 
ATOM     11  C   UNL A   1      34.154  25.824  25.517  1.00  0.00     0.016 C 
BRANCH  10  12
ATOM     12  C   UNL A   1      33.921  23.495  25.375  1.00  0.00     0.001 A 
ATOM     13  C   UNL A   1      33.669  22.253  25.948  1.00  0.00     0.122 A 
ATOM     14  C   UNL A   1      34.406  21.146  25.514  1.00  0.00     0.047 A 
ATOM     15  C   UNL A   1      35.438  21.296  24.576  1.00  0.00     0.007 A 
ATOM     16  C   UNL A   1      35.115  23.644  24.665  1.00  0.00     0.011 A 
ATOM     17  C   UNL A   1      35.827  22.565  24.173  1.00  0.00    -0.051 A 
ATOM     18  C   UNL A   1      36.840  22.861  23.110  1.00  0.00     0.044 C 
BRANCH  13  19
ATOM     19  O   UNL A   1      32.714  22.133  26.924  1.00  0.00    -0.496 OA
ATOM     20  C   UNL A   1      33.298  22.282  28.228  1.00  0.00     0.278 C 
ENDBRANCH  13  19
ENDBRANCH  10  12
ENDBRANCH   9  10
BRANCH   9  21
ATOM     21  O   UNL A   1      30.887  23.658  25.277  1.00  0.00    -0.377 OA
ATOM     22  H   UNL A   1      31.416  22.864  25.452  1.00  0.00     0.212 HD
ENDBRANCH   9  21
BRANCH   9  23
ATOM     23  C   UNL A   1      31.814  24.229  23.079  1.00  0.00     0.027 C 
ATOM     24  C   UNL A   1      32.792  25.027  22.203  1.00  0.00     0.011 C 
ATOM     25  C   UNL A   1      31.602  22.747  22.813  1.00  0.00     0.011 C 
ENDBRANCH   9  23
ENDBRANCH   7   9
ENDBRANCH   6   7
ENDBRANCH   5   6
ENDBRANCH   4   5
ENDBRANCH   3   4
ENDBRANCH   2   3
ENDBRANCH   1   2
BRANCH   1  26
ATOM     26  O   UNL A   1      34.615  30.677  27.236  1.00  0.00    -0.377 OA
BRANCH  26  27
ATOM     27  C   UNL A   1      35.570  31.561  27.835  1.00  0.00     0.188 C 
BRANCH  27  28
ATOM     28  C   UNL A   1      35.523  31.491  29.341  1.00  0.00     0.188 C 
BRANCH  28  29
ATOM     29  O   UNL A   1      35.915  32.784  29.756  1.00  0.00    -0.376 OA
BRANCH  29  30
ATOM     30  C   UNL A   1      35.289  33.857  29.089  1.00  0.00     0.202 C 
BRANCH  30  31
ATOM     31  C   UNL A   1      34.123  34.367  29.927  1.00  0.00     0.261 C 
BRANCH  31  32
ATOM     32  O   UNL A   1      34.186  33.711  31.216  1.00  0.00    -0.460 OA
BRANCH  32  33
ATOM     33  C   UNL A   1      34.337  34.545  32.272  1.00  0.00     0.338 C 
ATOM     34  O   UNL A   1      33.661  35.560  32.463  1.00  0.00    -0.246 OA
BRANCH  33  35
ATOM     35  C   UNL A   1      35.604  34.270  33.016  1.00  0.00     0.060 A 
ATOM     36  C   UNL A   1      36.815  34.763  32.497  1.00  0.00     0.016 A 
ATOM     37  C   UNL A   1      35.650  33.314  34.026  1.00  0.00     0.016 A 
ATOM     38  C   UNL A   1      38.045  34.173  32.840  1.00  0.00     0.010 A 
ATOM     39  C   UNL A   1      36.869  32.713  34.340  1.00  0.00     0.010 A 
ATOM     40  C   UNL A   1      38.072  33.067  33.689  1.00  0.00    -0.014 A 
BRANCH  40  41
ATOM     41  C   UNL A   1      39.174  32.049  33.700  1.00  0.00     0.031 A 
ATOM     42  C   UNL A   1      39.105  30.833  32.765  1.00  0.00     0.074 A 
ATOM     43  C   UNL A   1      40.350  32.508  34.220  1.00  0.00     0.049 A 
ATOM     44  N   UNL A   1      40.010  29.921  32.564  1.00  0.00    -0.248 NA
ATOM     45  C   UNL A   1      37.929  30.588  31.928  1.00  0.00     0.031 C 
ATOM     46  C   UNL A   1      41.679  32.326  33.693  1.00  0.00     0.029 A 
ATOM     47  N   UNL A   1      40.635  33.437  35.221  1.00  0.00    -0.354 N 
ATOM     48  C   UNL A   1      39.684  29.189  31.403  1.00  0.00     0.074 A 
ATOM     49  C   UNL A   1      38.339  29.614  31.111  1.00  0.00     0.031 C 
ATOM     50  C   UNL A   1      42.659  32.843  34.421  1.00  0.00     0.029 A 
ATOM     51  C   UNL A   1      42.001  33.297  35.580  1.00  0.00     0.049 A 
ATOM     52  H   UNL A   1      39.998  34.079  35.610  1.00  0.00     0.167 HD
ATOM     53  C   UNL A   1      40.613  28.392  30.750  1.00  0.00     0.037 A 
ATOM     54  C   UNL A   1      42.361  32.820  36.790  1.00  0.00     0.037 A 
ATOM     55  C   UNL A   1      41.869  28.266  31.542  1.00  0.00     0.049 A 
ATOM     56  C   UNL A   1      42.880  31.374  36.705  1.00  0.00     0.074 A 
ATOM     57  C   UNL A   1      43.224  28.416  31.258  1.00  0.00     0.029 A 
ATOM     58  N   UNL A   1      41.808  28.173  32.938  1.00  0.00    -0.354 N 
ATOM     59  N   UNL A   1      42.571  30.550  35.710  1.00  0.00    -0.248 NA
ATOM     60  C   UNL A   1      43.863  30.769  37.599  1.00  0.00     0.031 C 
ATOM     61  C   UNL A   1      43.906  28.685  32.482  1.00  0.00     0.029 A 
ATOM     62  C   UNL A   1      43.008  28.520  33.528  1.00  0.00     0.049 A 
ATOM     63  H   UNL A   1      41.007  27.893  33.439  1.00  0.00     0.167 HD
ATOM     64  C   UNL A   1      43.278  29.373  35.816  1.00  0.00     0.074 A 
ATOM     65  C   UNL A   1      44.065  29.566  37.024  1.00  0.00     0.031 C 
ATOM     66  C   UNL A   1      43.236  28.307  34.949  1.00  0.00     0.037 A 
BRANCH  53  67
ATOM     67  C   UNL A   1      40.531  27.860  29.267  1.00  0.00     0.064 A 
ATOM     68  C   UNL A   1      39.773  26.698  28.939  1.00  0.00     0.173 A 
ATOM     69  C   UNL A   1      41.220  28.374  28.141  1.00  0.00     0.173 A 
ATOM     70  F   UNL A   1      38.961  26.117  29.829  1.00  0.00    -0.203 F 
ATOM     71  C   UNL A   1      39.774  26.085  27.667  1.00  0.00     0.198 A 
ATOM     72  C   UNL A   1      41.171  27.797  26.853  1.00  0.00     0.198 A 
ATOM     73  F   UNL A   1      41.984  29.462  28.203  1.00  0.00    -0.203 F 
ATOM     74  F   UNL A   1      39.077  24.956  27.468  1.00  0.00    -0.200 F 
ATOM     75  C   UNL A   1      40.468  26.640  26.620  1.00  0.00     0.200 A 
ATOM     76  F   UNL A   1      41.820  28.388  25.837  1.00  0.00    -0.200 F 
ATOM     77  F   UNL A   1      40.442  26.084  25.400  1.00  0.00    -0.200 F 
ENDBRANCH  53  67
BRANCH  54  78
ATOM     78  C   UNL A   1      41.950  33.896  37.767  1.00  0.00     0.064 A 
ATOM     79  C   UNL A   1      40.999  33.412  38.720  1.00  0.00     0.173 A 
ATOM     80  C   UNL A   1      43.001  34.672  38.312  1.00  0.00     0.173 A 
ATOM     81  F   UNL A   1      39.964  32.667  38.296  1.00  0.00    -0.203 F 
ATOM     82  C   UNL A   1      41.285  33.385  40.096  1.00  0.00     0.198 A 
ATOM     83  C   UNL A   1      43.266  34.664  39.698  1.00  0.00     0.198 A 
ATOM     84  F   UNL A   1      43.952  35.156  37.500  1.00  0.00    -0.203 F 
ATOM     85  F   UNL A   1      40.526  32.648  40.925  1.00  0.00    -0.200 F 
ATOM     86  C   UNL A   1      42.448  33.962  40.573  1.00  0.00     0.200 A 
ATOM     87  F   UNL A   1      44.418  35.174  40.159  1.00  0.00    -0.200 F 
ATOM     88  F   UNL A   1      42.835  33.747  41.842  1.00  0.00    -0.200 F 
ENDBRANCH  54  78
BRANCH  66  89
ATOM     89  C   UNL A   1      43.469  26.854  35.351  1.00  0.00     0.064 A 
ATOM     90  C   UNL A   1      42.410  25.955  35.537  1.00  0.00     0.173 A 
ATOM     91  C   UNL A   1      44.761  26.256  35.295  1.00  0.00     0.173 A 
ATOM     92  F   UNL A   1      41.135  26.361  35.497  1.00  0.00    -0.203 F 
ATOM     93  C   UNL A   1      42.623  24.584  35.699  1.00  0.00     0.198 A 
ATOM     94  C   UNL A   1      44.963  24.881  35.388  1.00  0.00     0.198 A 
ATOM     95  F   UNL A   1      45.879  26.968  35.100  1.00  0.00    -0.203 F 
ATOM     96  F   UNL A   1      41.574  23.777  35.904  1.00  0.00    -0.200 F 
ATOM     97  C   UNL A   1      43.893  24.046  35.605  1.00  0.00     0.200 A 
ATOM     98  F   UNL A   1      46.195  24.376  35.231  1.00  0.00    -0.200 F 
ATOM     99  F   UNL A   1      44.080  22.724  35.699  1.00  0.00    -0.200 F 
ENDBRANCH  66  89
ENDBRANCH  40  41
ENDBRANCH  33  35
ENDBRANCH  32  33
ENDBRANCH  31  32
ENDBRANCH  30  31
ENDBRANCH  29  30
ENDBRANCH  28  29
ENDBRANCH  27  28
ENDBRANCH  26  27
ENDBRANCH   1  26
TORSDOF 25
ENDMDL
MODEL 2
REMARK VINA RESULT:      -9.2      5.842     11.101
REMARK SMILES COc1ccc(C)cc1[C@@H](C)[C@@](O)(C(=O)OCCOCCOCCOCCOC(=O)c1ccc(-c2c3nc(c(-c4c(F)c(F)c(F)c(F)c4F)c4ccc([nH]4)c(-c4c(F)c(F)c(F)c(F)c4F)c4nc(c(-c5c(F)c(F)c(F)c(F)c5F)c5ccc2[nH]5)C=C4)C=C3)cc1)C(C)C
REMARK SMILES IDX 21 1 20 2 19 3 18 4 17 5 16 6 14 7 15 8 12 9 10 10 11 11
REMARK SMILES IDX 9 12 3 13 4 14 5 15 8 16 6 17 7 18 2 19 1 20 13 21 94 23
REMARK SMILES IDX 95 24 96 25 22 26 23 27 24 28 25 29 26 30 27 31 28 32 29 33
REMARK SMILES IDX 30 34 31 35 32 36 93 37 33 38 92 39 34 40 35 41 36 42 86 43
REMARK SMILES IDX 37 44 91 45 85 46 87 47 38 48 90 49 84 50 83 51 39 53 71 54
REMARK SMILES IDX 51 55 70 56 52 57 55 58 69 59 88 60 53 61 54 62 68 64 89 65
REMARK SMILES IDX 56 66 40 67 41 68 49 69 42 70 43 71 47 72 50 73 44 74 45 75
REMARK SMILES IDX 48 76 46 77 72 78 73 79 81 80 74 81 75 82 79 83 82 84 76 85
REMARK SMILES IDX 77 86 80 87 78 88 57 89 58 90 66 91 59 92 60 93 64 94 67 95
REMARK SMILES IDX 61 96 62 97 65 98 63 99
REMARK H PARENT 13 22 87 52 55 63
REMARK Flexibility Score: inf
ROOT
ATOM      1  C   UNL A   1      39.308  23.527  26.298  1.00  0.00     0.188 C 
ENDROOT
BRANCH   1   2
ATOM      2  C   UNL A   1      37.768  23.632  26.432  1.00  0.00     0.188 C 
BRANCH   2   3
ATOM      3  O   UNL A   1      36.998  22.581  25.836  1.00  0.00    -0.376 OA
BRANCH   3   4
ATOM      4  C   UNL A   1      35.648  22.959  25.757  1.00  0.00     0.202 C 
BRANCH   4   5
ATOM      5  C   UNL A   1      35.275  24.323  25.183  1.00  0.00     0.261 C 
BRANCH   5   6
ATOM      6  O   UNL A   1      33.842  24.317  24.892  1.00  0.00    -0.461 OA
BRANCH   6   7
ATOM      7  C   UNL A   1      33.447  25.594  24.867  1.00  0.00     0.339 C 
ATOM      8  O   UNL A   1      33.893  26.369  25.718  1.00  0.00    -0.249 OA
BRANCH   7   9
ATOM      9  C   UNL A   1      32.409  25.993  23.791  1.00  0.00     0.170 C 
BRANCH   9  10
ATOM     10  C   UNL A   1      32.558  27.337  22.854  1.00  0.00     0.063 C 
ATOM     11  C   UNL A   1      33.849  27.939  22.290  1.00  0.00     0.016 C 
BRANCH  10  12
ATOM     12  C   UNL A   1      31.985  28.558  23.571  1.00  0.00     0.001 A 
ATOM     13  C   UNL A   1      30.805  29.215  23.239  1.00  0.00     0.122 A 
ATOM     14  C   UNL A   1      30.289  30.167  24.125  1.00  0.00     0.047 A 
ATOM     15  C   UNL A   1      30.989  30.514  25.290  1.00  0.00     0.007 A 
ATOM     16  C   UNL A   1      32.771  29.120  24.579  1.00  0.00     0.011 A 
ATOM     17  C   UNL A   1      32.266  30.015  25.505  1.00  0.00    -0.051 A 
ATOM     18  C   UNL A   1      33.077  30.224  26.746  1.00  0.00     0.044 C 
BRANCH  13  19
ATOM     19  O   UNL A   1      30.172  28.928  22.057  1.00  0.00    -0.496 OA
ATOM     20  C   UNL A   1      28.892  29.580  21.994  1.00  0.00     0.278 C 
ENDBRANCH  13  19
ENDBRANCH  10  12
ENDBRANCH   9  10
BRANCH   9  21
ATOM     21  O   UNL A   1      32.547  24.888  22.833  1.00  0.00    -0.377 OA
ATOM     22  H   UNL A   1      33.462  24.849  22.514  1.00  0.00     0.212 HD
ENDBRANCH   9  21
BRANCH   9  23
ATOM     23  C   UNL A   1      31.088  25.717  24.623  1.00  0.00     0.027 C 
ATOM     24  C   UNL A   1      31.074  26.232  26.070  1.00  0.00     0.011 C 
ATOM     25  C   UNL A   1      29.802  25.711  23.812  1.00  0.00     0.011 C 
ENDBRANCH   9  23
ENDBRANCH   7   9
ENDBRANCH   6   7
ENDBRANCH   5   6
ENDBRANCH   4   5
ENDBRANCH   3   4
ENDBRANCH   2   3
ENDBRANCH   1   2
BRANCH   1  26
ATOM     26  O   UNL A   1      39.929  22.895  27.432  1.00  0.00    -0.377 OA
BRANCH  26  27
ATOM     27  C   UNL A   1      40.805  21.796  27.154  1.00  0.00     0.188 C 
BRANCH  27  28
ATOM     28  C   UNL A   1      40.063  20.636  26.540  1.00  0.00     0.188 C 
BRANCH  28  29
ATOM     29  O   UNL A   1      41.001  20.062  25.651  1.00  0.00    -0.376 OA
BRANCH  29  30
ATOM     30  C   UNL A   1      41.987  19.247  26.244  1.00  0.00     0.202 C 
BRANCH  30  31
ATOM     31  C   UNL A   1      43.337  19.529  25.597  1.00  0.00     0.261 C 
BRANCH  31  32
ATOM     32  O   UNL A   1      43.555  20.960  25.637  1.00  0.00    -0.460 OA
BRANCH  32  33
ATOM     33  C   UNL A   1      44.480  21.420  24.762  1.00  0.00     0.338 C 
ATOM     34  O   UNL A   1      44.830  20.825  23.738  1.00  0.00    -0.246 OA
BRANCH  33  35
ATOM     35  C   UNL A   1      45.248  22.572  25.324  1.00  0.00     0.060 A 
ATOM     36  C   UNL A   1      45.321  22.720  26.721  1.00  0.00     0.016 A 
ATOM     37  C   UNL A   1      45.633  23.639  24.518  1.00  0.00     0.016 A 
ATOM     38  C   UNL A   1      45.587  23.972  27.305  1.00  0.00     0.010 A 
ATOM     39  C   UNL A   1      45.868  24.884  25.102  1.00  0.00     0.010 A 
ATOM     40  C   UNL A   1      45.760  25.094  26.495  1.00  0.00    -0.014 A 
BRANCH  40  41
ATOM     41  C   UNL A   1      45.507  26.500  26.952  1.00  0.00     0.031 A 
ATOM     42  C   UNL A   1      44.072  27.043  27.005  1.00  0.00     0.074 A 
ATOM     43  C   UNL A   1      46.521  27.036  27.692  1.00  0.00     0.049 A 
ATOM     44  N   UNL A   1      43.661  28.186  27.472  1.00  0.00    -0.248 NA
ATOM     45  C   UNL A   1      42.943  26.247  26.520  1.00  0.00     0.031 C 
ATOM     46  C   UNL A   1      46.419  27.789  28.916  1.00  0.00     0.029 A 
ATOM     47  N   UNL A   1      47.904  26.853  27.660  1.00  0.00    -0.354 N 
ATOM     48  C   UNL A   1      42.260  28.147  27.634  1.00  0.00     0.074 A 
ATOM     49  C   UNL A   1      41.882  26.938  26.948  1.00  0.00     0.031 C 
ATOM     50  C   UNL A   1      47.564  28.233  29.412  1.00  0.00     0.029 A 
ATOM     51  C   UNL A   1      48.506  27.888  28.424  1.00  0.00     0.049 A 
ATOM     52  H   UNL A   1      48.380  26.130  27.191  1.00  0.00     0.167 HD
ATOM     53  C   UNL A   1      41.583  29.071  28.415  1.00  0.00     0.037 A 
ATOM     54  C   UNL A   1      49.249  28.849  27.835  1.00  0.00     0.037 A 
ATOM     55  C   UNL A   1      42.486  30.172  28.856  1.00  0.00     0.049 A 
ATOM     56  C   UNL A   1      48.498  30.190  27.763  1.00  0.00     0.074 A 
ATOM     57  C   UNL A   1      42.768  30.777  30.077  1.00  0.00     0.029 A 
ATOM     58  N   UNL A   1      43.466  30.661  27.983  1.00  0.00    -0.354 N 
ATOM     59  N   UNL A   1      47.174  30.284  27.810  1.00  0.00    -0.248 NA
ATOM     60  C   UNL A   1      49.116  31.513  27.773  1.00  0.00     0.031 C 
ATOM     61  C   UNL A   1      44.054  31.388  29.984  1.00  0.00     0.029 A 
ATOM     62  C   UNL A   1      44.476  31.316  28.663  1.00  0.00     0.049 A 
ATOM     63  H   UNL A   1      43.440  30.553  27.005  1.00  0.00     0.167 HD
ATOM     64  C   UNL A   1      46.781  31.602  27.862  1.00  0.00     0.074 A 
ATOM     65  C   UNL A   1      48.042  32.326  27.828  1.00  0.00     0.031 C 
ATOM     66  C   UNL A   1      45.492  32.074  27.949  1.00  0.00     0.037 A 
BRANCH  53  67
ATOM     67  C   UNL A   1      40.130  28.926  29.011  1.00  0.00     0.064 A 
ATOM     68  C   UNL A   1      38.981  29.314  28.262  1.00  0.00     0.173 A 
ATOM     69  C   UNL A   1      39.785  28.499  30.318  1.00  0.00     0.173 A 
ATOM     70  F   UNL A   1      39.068  29.645  26.968  1.00  0.00    -0.203 F 
ATOM     71  C   UNL A   1      37.670  29.348  28.783  1.00  0.00     0.198 A 
ATOM     72  C   UNL A   1      38.466  28.474  30.819  1.00  0.00     0.198 A 
ATOM     73  F   UNL A   1      40.693  28.080  31.197  1.00  0.00    -0.203 F 
ATOM     74  F   UNL A   1      36.657  29.788  28.020  1.00  0.00    -0.200 F 
ATOM     75  C   UNL A   1      37.410  28.920  30.062  1.00  0.00     0.200 A 
ATOM     76  F   UNL A   1      38.236  28.005  32.057  1.00  0.00    -0.200 F 
ATOM     77  F   UNL A   1      36.161  28.914  30.551  1.00  0.00    -0.200 F 
ENDBRANCH  53  67
BRANCH  54  78
ATOM     78  C   UNL A   1      50.489  28.137  27.352  1.00  0.00     0.064 A 
ATOM     79  C   UNL A   1      50.620  28.206  25.929  1.00  0.00     0.173 A 
ATOM     80  C   UNL A   1      51.676  28.399  28.076  1.00  0.00     0.173 A 
ATOM     81  F   UNL A   1      49.546  27.969  25.158  1.00  0.00    -0.203 F 
ATOM     82  C   UNL A   1      51.716  28.844  25.322  1.00  0.00     0.198 A 
ATOM     83  C   UNL A   1      52.784  29.014  27.454  1.00  0.00     0.198 A 
ATOM     84  F   UNL A   1      51.651  28.375  29.416  1.00  0.00    -0.203 F 
ATOM     85  F   UNL A   1      51.663  29.173  24.020  1.00  0.00    -0.200 F 
ATOM     86  C   UNL A   1      52.769  29.297  26.095  1.00  0.00     0.200 A 
ATOM     87  F   UNL A   1      53.782  29.504  28.205  1.00  0.00    -0.200 F 
ATOM     88  F   UNL A   1      53.703  30.098  25.556  1.00  0.00    -0.200 F 
ENDBRANCH  54  78
BRANCH  66  89
ATOM     89  C   UNL A   1      45.019  33.410  27.385  1.00  0.00     0.064 A 
ATOM     90  C   UNL A   1      44.190  33.488  26.257  1.00  0.00     0.173 A 
ATOM     91  C   UNL A   1      45.157  34.626  28.113  1.00  0.00     0.173 A 
ATOM     92  F   UNL A   1      43.880  32.399  25.543  1.00  0.00    -0.203 F 
ATOM     93  C   UNL A   1      43.589  34.685  25.862  1.00  0.00     0.198 A 
ATOM     94  C   UNL A   1      44.501  35.801  27.755  1.00  0.00     0.198 A 
ATOM     95  F   UNL A   1      45.894  34.721  29.228  1.00  0.00    -0.203 F 
ATOM     96  F   UNL A   1      42.831  34.705  24.758  1.00  0.00    -0.200 F 
ATOM     97  C   UNL A   1      43.726  35.833  26.620  1.00  0.00     0.200 A 
ATOM     98  F   UNL A   1      44.598  36.885  28.539  1.00  0.00    -0.200 F 
ATOM     99  F   UNL A   1      43.095  36.960  26.268  1.00  0.00    -0.200 F 
ENDBRANCH  66  89
ENDBRANCH  40  41
ENDBRANCH  33  35
ENDBRANCH  32  33
ENDBRANCH  31  32
ENDBRANCH  30  31
ENDBRANCH  29  30
ENDBRANCH  28  29
ENDBRANCH  27  28
ENDBRANCH  26  27
ENDBRANCH   1  26
TORSDOF 25
ENDMDL
MODEL 3
REMARK VINA RESULT:      -9.2      3.673      8.796
REMARK SMILES COc1ccc(C)cc1[C@@H](C)[C@@](O)(C(=O)OCCOCCOCCOCCOC(=O)c1ccc(-c2c3nc(c(-c4c(F)c(F)c(F)c(F)c4F)c4ccc([nH]4)c(-c4c(F)c(F)c(F)c(F)c4F)c4nc(c(-c5c(F)c(F)c(F)c(F)c5F)c5ccc2[nH]5)C=C4)C=C3)cc1)C(C)C
REMARK SMILES IDX 21 1 20 2 19 3 18 4 17 5 16 6 14 7 15 8 12 9 10 10 11 11
REMARK SMILES IDX 9 12 3 13 4 14 5 15 8 16 6 17 7 18 2 19 1 20 13 21 94 23
REMARK SMILES IDX 95 24 96 25 22 26 23 27 24 28 25 29 26 30 27 31 28 32 29 33
REMARK SMILES IDX 30 34 31 35 32 36 93 37 33 38 92 39 34 40 35 41 36 42 86 43
REMARK SMILES IDX 37 44 91 45 85 46 87 47 38 48 90 49 84 50 83 51 39 53 71 54
REMARK SMILES IDX 51 55 70 56 52 57 55 58 69 59 88 60 53 61 54 62 68 64 89 65
REMARK SMILES IDX 56 66 40 67 41 68 49 69 42 70 43 71 47 72 50 73 44 74 45 75
REMARK SMILES IDX 48 76 46 77 72 78 73 79 81 80 74 81 75 82 79 83 82 84 76 85
REMARK SMILES IDX 77 86 80 87 78 88 57 89 58 90 66 91 59 92 60 93 64 94 67 95
REMARK SMILES IDX 61 96 62 97 65 98 63 99
REMARK H PARENT 13 22 87 52 55 63
REMARK Flexibility Score: inf
ROOT
ATOM      1  C   UNL A   1      39.994  22.090  26.555  1.00  0.00     0.188 C 
ENDROOT
BRANCH   1   2
ATOM      2  C   UNL A   1      38.509  22.225  26.136  1.00  0.00     0.188 C 
BRANCH   2   3
ATOM      3  O   UNL A   1      38.032  21.295  25.156  1.00  0.00    -0.376 OA
BRANCH   3   4
ATOM      4  C   UNL A   1      36.918  21.828  24.489  1.00  0.00     0.202 C 
BRANCH   4   5
ATOM      5  C   UNL A   1      36.351  23.178  24.920  1.00  0.00     0.261 C 
BRANCH   5   6
ATOM      6  O   UNL A   1      35.258  23.524  24.012  1.00  0.00    -0.461 OA
BRANCH   6   7
ATOM      7  C   UNL A   1      34.299  24.084  24.755  1.00  0.00     0.339 C 
ATOM      8  O   UNL A   1      34.625  24.861  25.656  1.00  0.00    -0.249 OA
BRANCH   7   9
ATOM      9  C   UNL A   1      32.838  23.669  24.457  1.00  0.00     0.170 C 
BRANCH   9  10
ATOM     10  C   UNL A   1      31.636  24.754  24.172  1.00  0.00     0.063 C 
ATOM     11  C   UNL A   1      30.523  24.656  23.124  1.00  0.00     0.016 C 
BRANCH  10  12
ATOM     12  C   UNL A   1      32.219  26.120  23.816  1.00  0.00     0.001 A 
ATOM     13  C   UNL A   1      32.874  26.440  22.631  1.00  0.00     0.122 A 
ATOM     14  C   UNL A   1      33.143  27.783  22.349  1.00  0.00     0.047 A 
ATOM     15  C   UNL A   1      32.833  28.787  23.279  1.00  0.00     0.007 A 
ATOM     16  C   UNL A   1      32.179  27.099  24.812  1.00  0.00     0.011 A 
ATOM     17  C   UNL A   1      32.380  28.441  24.544  1.00  0.00    -0.051 A 
ATOM     18  C   UNL A   1      31.919  29.408  25.591  1.00  0.00     0.044 C 
BRANCH  13  19
ATOM     19  O   UNL A   1      33.248  25.444  21.767  1.00  0.00    -0.496 OA
ATOM     20  C   UNL A   1      32.560  25.575  20.512  1.00  0.00     0.278 C 
ENDBRANCH  13  19
ENDBRANCH  10  12
ENDBRANCH   9  10
BRANCH   9  21
ATOM     21  O   UNL A   1      32.992  22.979  23.168  1.00  0.00    -0.377 OA
ATOM     22  H   UNL A   1      33.506  23.536  22.563  1.00  0.00     0.212 HD
ENDBRANCH   9  21
BRANCH   9  23
ATOM     23  C   UNL A   1      32.682  22.544  25.562  1.00  0.00     0.027 C 
ATOM     24  C   UNL A   1      32.028  22.974  26.884  1.00  0.00     0.011 C 
ATOM     25  C   UNL A   1      32.449  21.139  25.029  1.00  0.00     0.011 C 
ENDBRANCH   9  23
ENDBRANCH   7   9
ENDBRANCH   6   7
ENDBRANCH   5   6
ENDBRANCH   4   5
ENDBRANCH   3   4
ENDBRANCH   2   3
ENDBRANCH   1   2
BRANCH   1  26
ATOM     26  O   UNL A   1      40.361  20.742  26.900  1.00  0.00    -0.377 OA
BRANCH  26  27
ATOM     27  C   UNL A   1      41.736  20.516  27.233  1.00  0.00     0.188 C 
BRANCH  27  28
ATOM     28  C   UNL A   1      42.449  19.743  26.152  1.00  0.00     0.188 C 
BRANCH  28  29
ATOM     29  O   UNL A   1      42.932  20.744  25.279  1.00  0.00    -0.376 OA
BRANCH  29  30
ATOM     30  C   UNL A   1      43.684  21.773  25.882  1.00  0.00     0.202 C 
BRANCH  30  31
ATOM     31  C   UNL A   1      43.701  22.993  24.970  1.00  0.00     0.261 C 
BRANCH  31  32
ATOM     32  O   UNL A   1      42.651  23.888  25.412  1.00  0.00    -0.460 OA
BRANCH  32  33
ATOM     33  C   UNL A   1      43.064  25.140  25.723  1.00  0.00     0.338 C 
ATOM     34  O   UNL A   1      43.775  25.841  24.997  1.00  0.00    -0.246 OA
BRANCH  33  35
ATOM     35  C   UNL A   1      42.817  25.461  27.161  1.00  0.00     0.060 A 
ATOM     36  C   UNL A   1      41.510  25.339  27.668  1.00  0.00     0.016 A 
ATOM     37  C   UNL A   1      43.766  26.142  27.917  1.00  0.00     0.016 A 
ATOM     38  C   UNL A   1      41.107  26.049  28.814  1.00  0.00     0.010 A 
ATOM     39  C   UNL A   1      43.353  26.868  29.035  1.00  0.00     0.010 A 
ATOM     40  C   UNL A   1      42.003  26.908  29.450  1.00  0.00    -0.014 A 
BRANCH  40  41
ATOM     41  C   UNL A   1      41.585  28.081  30.286  1.00  0.00     0.031 A 
ATOM     42  C   UNL A   1      40.703  29.181  29.679  1.00  0.00     0.074 A 
ATOM     43  C   UNL A   1      41.658  27.859  31.632  1.00  0.00     0.049 A 
ATOM     44  N   UNL A   1      40.162  30.201  30.279  1.00  0.00    -0.248 NA
ATOM     45  C   UNL A   1      40.342  29.164  28.260  1.00  0.00     0.031 C 
ATOM     46  C   UNL A   1      40.682  28.196  32.636  1.00  0.00     0.029 A 
ATOM     47  N   UNL A   1      42.515  27.080  32.409  1.00  0.00    -0.354 N 
ATOM     48  C   UNL A   1      39.177  30.764  29.442  1.00  0.00     0.074 A 
ATOM     49  C   UNL A   1      39.403  30.112  28.178  1.00  0.00     0.031 C 
ATOM     50  C   UNL A   1      41.021  27.905  33.884  1.00  0.00     0.029 A 
ATOM     51  C   UNL A   1      42.352  27.462  33.767  1.00  0.00     0.049 A 
ATOM     52  H   UNL A   1      43.127  26.385  32.074  1.00  0.00     0.167 HD
ATOM     53  C   UNL A   1      38.210  31.633  29.925  1.00  0.00     0.037 A 
ATOM     54  C   UNL A   1      43.336  28.097  34.438  1.00  0.00     0.037 A 
ATOM     55  C   UNL A   1      38.490  32.024  31.336  1.00  0.00     0.049 A 
ATOM     56  C   UNL A   1      43.026  29.592  34.629  1.00  0.00     0.074 A 
ATOM     57  C   UNL A   1      37.740  32.060  32.508  1.00  0.00     0.029 A 
ATOM     58  N   UNL A   1      39.810  32.233  31.753  1.00  0.00    -0.354 N 
ATOM     59  N   UNL A   1      42.187  30.265  33.850  1.00  0.00    -0.248 NA
ATOM     60  C   UNL A   1      43.487  30.421  35.740  1.00  0.00     0.031 C 
ATOM     61  C   UNL A   1      38.641  32.013  33.613  1.00  0.00     0.029 A 
ATOM     62  C   UNL A   1      39.936  32.131  33.126  1.00  0.00     0.049 A 
ATOM     63  H   UNL A   1      40.558  32.429  31.143  1.00  0.00     0.167 HD
ATOM     64  C   UNL A   1      41.996  31.541  34.328  1.00  0.00     0.074 A 
ATOM     65  C   UNL A   1      42.843  31.583  35.510  1.00  0.00     0.031 C 
ATOM     66  C   UNL A   1      41.172  32.505  33.796  1.00  0.00     0.037 A 
BRANCH  53  67
ATOM     67  C   UNL A   1      36.842  32.009  29.235  1.00  0.00     0.064 A 
ATOM     68  C   UNL A   1      36.493  33.367  28.975  1.00  0.00     0.173 A 
ATOM     69  C   UNL A   1      35.798  31.120  28.877  1.00  0.00     0.173 A 
ATOM     70  F   UNL A   1      37.375  34.360  29.137  1.00  0.00    -0.203 F 
ATOM     71  C   UNL A   1      35.232  33.783  28.497  1.00  0.00     0.198 A 
ATOM     72  C   UNL A   1      34.559  31.531  28.340  1.00  0.00     0.198 A 
ATOM     73  F   UNL A   1      35.900  29.800  29.019  1.00  0.00    -0.203 F 
ATOM     74  F   UNL A   1      34.973  35.090  28.341  1.00  0.00    -0.200 F 
ATOM     75  C   UNL A   1      34.265  32.863  28.171  1.00  0.00     0.200 A 
ATOM     76  F   UNL A   1      33.651  30.608  27.984  1.00  0.00    -0.200 F 
ATOM     77  F   UNL A   1      33.078  33.249  27.681  1.00  0.00    -0.200 F 
ENDBRANCH  53  67
BRANCH  54  78
ATOM     78  C   UNL A   1      44.426  27.064  34.594  1.00  0.00     0.064 A 
ATOM     79  C   UNL A   1      43.969  25.915  35.313  1.00  0.00     0.173 A 
ATOM     80  C   UNL A   1      45.183  26.781  33.433  1.00  0.00     0.173 A 
ATOM     81  F   UNL A   1      43.244  26.085  36.432  1.00  0.00    -0.203 F 
ATOM     82  C   UNL A   1      43.945  24.640  34.722  1.00  0.00     0.198 A 
ATOM     83  C   UNL A   1      45.178  25.492  32.860  1.00  0.00     0.198 A 
ATOM     84  F   UNL A   1      45.641  27.793  32.681  1.00  0.00    -0.203 F 
ATOM     85  F   UNL A   1      43.230  23.652  35.287  1.00  0.00    -0.200 F 
ATOM     86  C   UNL A   1      44.499  24.446  33.470  1.00  0.00     0.200 A 
ATOM     87  F   UNL A   1      45.666  25.311  31.623  1.00  0.00    -0.200 F 
ATOM     88  F   UNL A   1      44.284  23.296  32.809  1.00  0.00    -0.200 F 
ENDBRANCH  54  78
BRANCH  66  89
ATOM     89  C   UNL A   1      41.420  34.007  33.894  1.00  0.00     0.064 A 
ATOM     90  C   UNL A   1      40.912  34.777  34.950  1.00  0.00     0.173 A 
ATOM     91  C   UNL A   1      42.393  34.664  33.087  1.00  0.00     0.173 A 
ATOM     92  F   UNL A   1      40.075  34.253  35.855  1.00  0.00    -0.203 F 
ATOM     93  C   UNL A   1      41.305  36.100  35.157  1.00  0.00     0.198 A 
ATOM     94  C   UNL A   1      42.833  35.961  33.339  1.00  0.00     0.198 A 
ATOM     95  F   UNL A   1      42.996  34.065  32.051  1.00  0.00    -0.203 F 
ATOM     96  F   UNL A   1      40.763  36.795  36.165  1.00  0.00    -0.200 F 
ATOM     97  C   UNL A   1      42.278  36.685  34.367  1.00  0.00     0.200 A 
ATOM     98  F   UNL A   1      43.822  36.485  32.600  1.00  0.00    -0.200 F 
ATOM     99  F   UNL A   1      42.694  37.933  34.613  1.00  0.00    -0.200 F 
ENDBRANCH  66  89
ENDBRANCH  40  41
ENDBRANCH  33  35
ENDBRANCH  32  33
ENDBRANCH  31  32
ENDBRANCH  30  31
ENDBRANCH  29  30
ENDBRANCH  28  29
ENDBRANCH  27  28
ENDBRANCH  26  27
ENDBRANCH   1  26
TORSDOF 25
ENDMDL
