MODEL 1
REMARK VINA RESULT:      -9.5      0.000      0.000
REMARK SMILES CCCNC(=O)[C@H](C)[NH2+][C@H](C)[C@@H](C)C(=O)OCCOCCOCCOCCOC(=O)c1ccc(-c2c3nc(c(-c4c(F)c(F)c(F)c(F)c4F)c4ccc([nH]4)c(-c4c(F)c(F)c(F)c(F)c4F)c4nc(c(-c5c(F)c(F)c(F)c(F)c5F)c5ccc2[nH]5)C=C4)C=C3)cc1
REMARK SMILES IDX 20 1 19 2 18 3 17 4 16 5 14 6 15 7 12 8 13 9 10 10 11 11
REMARK SMILES IDX 9 12 7 15 8 16 5 17 4 18 6 20 3 21 2 22 1 23 21 24 22 25
REMARK SMILES IDX 23 26 24 27 25 28 26 29 27 30 28 31 29 32 30 33 31 34 32 35
REMARK SMILES IDX 93 36 33 37 92 38 34 39 35 40 36 41 86 42 37 43 91 44 85 45
REMARK SMILES IDX 87 46 38 47 90 48 84 49 83 50 39 52 71 53 51 54 70 55 52 56
REMARK SMILES IDX 55 57 69 58 88 59 53 60 54 61 68 63 89 64 56 65 40 66 41 67
REMARK SMILES IDX 49 68 42 69 43 70 47 71 50 72 44 73 45 74 48 75 46 76 72 77
REMARK SMILES IDX 73 78 81 79 74 80 75 81 79 82 82 83 76 84 77 85 80 86 78 87
REMARK SMILES IDX 57 88 58 89 66 90 59 91 60 92 64 93 67 94 61 95 62 96 65 97
REMARK SMILES IDX 63 98
REMARK H PARENT 9 13 9 14 4 19 87 51 55 62
REMARK Flexibility Score: inf
ROOT
ATOM      1  C   UNL A   1      41.194  20.785  26.967  1.00  0.00     0.188 C 
ENDROOT
BRANCH   1   2
ATOM      2  O   UNL A   1      40.554  21.745  26.158  1.00  0.00    -0.376 OA
BRANCH   2   3
ATOM      3  C   UNL A   1      39.544  22.549  26.719  1.00  0.00     0.202 C 
BRANCH   3   4
ATOM      4  C   UNL A   1      38.183  22.795  26.026  1.00  0.00     0.261 C 
BRANCH   4   5
ATOM      5  O   UNL A   1      37.305  21.704  25.688  1.00  0.00    -0.463 OA
BRANCH   5   6
ATOM      6  C   UNL A   1      36.310  22.023  24.833  1.00  0.00     0.314 C 
ATOM      7  O   UNL A   1      36.474  22.053  23.611  1.00  0.00    -0.252 OA
BRANCH   6   8
ATOM      8  C   UNL A   1      34.992  22.503  25.441  1.00  0.00     0.154 C 
ATOM      9  C   UNL A   1      35.073  21.958  26.888  1.00  0.00     0.026 C 
BRANCH   8  10
ATOM     10  C   UNL A   1      33.574  22.215  24.832  1.00  0.00     0.193 C 
ATOM     11  C   UNL A   1      33.052  23.502  24.165  1.00  0.00     0.076 C 
BRANCH  10  12
ATOM     12  N   UNL A   1      33.472  21.039  23.954  1.00  0.00    -0.333 N 
ATOM     13  H   UNL A   1      32.562  21.112  23.500  1.00  0.00     0.347 HD
ATOM     14  H   UNL A   1      34.335  21.124  23.417  1.00  0.00     0.347 HD
BRANCH  12  15
ATOM     15  C   UNL A   1      33.574  19.642  24.425  1.00  0.00     0.269 C 
ATOM     16  C   UNL A   1      32.798  19.459  25.740  1.00  0.00     0.086 C 
BRANCH  15  17
ATOM     17  C   UNL A   1      32.958  18.585  23.494  1.00  0.00     0.277 C 
ATOM     18  N   UNL A   1      33.373  17.283  23.602  1.00  0.00    -0.351 N 
ATOM     19  H   UNL A   1      32.922  16.644  23.004  1.00  0.00     0.163 HD
ATOM     20  O   UNL A   1      32.077  18.853  22.674  1.00  0.00    -0.268 OA
BRANCH  18  21
ATOM     21  C   UNL A   1      34.386  16.712  24.475  1.00  0.00     0.116 C 
BRANCH  21  22
ATOM     22  C   UNL A   1      33.780  15.988  25.674  1.00  0.00     0.018 C 
ATOM     23  C   UNL A   1      32.710  14.982  25.283  1.00  0.00     0.006 C 
ENDBRANCH  21  22
ENDBRANCH  18  21
ENDBRANCH  15  17
ENDBRANCH  12  15
ENDBRANCH  10  12
ENDBRANCH   8  10
ENDBRANCH   6   8
ENDBRANCH   5   6
ENDBRANCH   4   5
ENDBRANCH   3   4
ENDBRANCH   2   3
ENDBRANCH   1   2
BRANCH   1  24
ATOM     24  C   UNL A   1      41.855  19.656  26.164  1.00  0.00     0.188 C 
BRANCH  24  25
ATOM     25  O   UNL A   1      42.812  19.953  25.150  1.00  0.00    -0.377 OA
BRANCH  25  26
ATOM     26  C   UNL A   1      44.190  19.658  25.335  1.00  0.00     0.188 C 
BRANCH  26  27
ATOM     27  C   UNL A   1      45.232  20.424  24.500  1.00  0.00     0.188 C 
BRANCH  27  28
ATOM     28  O   UNL A   1      46.000  21.342  25.248  1.00  0.00    -0.376 OA
BRANCH  28  29
ATOM     29  C   UNL A   1      46.364  22.582  24.669  1.00  0.00     0.202 C 
BRANCH  29  30
ATOM     30  C   UNL A   1      46.227  23.917  25.419  1.00  0.00     0.261 C 
BRANCH  30  31
ATOM     31  O   UNL A   1      45.314  24.890  24.905  1.00  0.00    -0.460 OA
BRANCH  31  32
ATOM     32  C   UNL A   1      44.017  24.527  24.810  1.00  0.00     0.338 C 
ATOM     33  O   UNL A   1      43.555  23.599  24.182  1.00  0.00    -0.246 OA
BRANCH  32  34
ATOM     34  C   UNL A   1      43.262  25.356  25.774  1.00  0.00     0.060 A 
ATOM     35  C   UNL A   1      43.708  26.659  26.021  1.00  0.00     0.016 A 
ATOM     36  C   UNL A   1      42.139  24.851  26.435  1.00  0.00     0.016 A 
ATOM     37  C   UNL A   1      43.063  27.444  26.971  1.00  0.00     0.010 A 
ATOM     38  C   UNL A   1      41.502  25.633  27.404  1.00  0.00     0.010 A 
ATOM     39  C   UNL A   1      41.989  26.917  27.702  1.00  0.00    -0.014 A 
BRANCH  39  40
ATOM     40  C   UNL A   1      41.517  27.660  28.894  1.00  0.00     0.031 A 
ATOM     41  C   UNL A   1      42.303  27.546  30.170  1.00  0.00     0.074 A 
ATOM     42  C   UNL A   1      40.464  28.491  28.811  1.00  0.00     0.049 A 
ATOM     43  N   UNL A   1      42.125  28.152  31.316  1.00  0.00    -0.248 NA
ATOM     44  C   UNL A   1      43.452  26.627  30.150  1.00  0.00     0.031 C 
ATOM     45  C   UNL A   1      39.656  28.709  27.614  1.00  0.00     0.029 A 
ATOM     46  N   UNL A   1      39.904  29.316  29.753  1.00  0.00    -0.354 N 
ATOM     47  C   UNL A   1      43.137  27.692  32.148  1.00  0.00     0.074 A 
ATOM     48  C   UNL A   1      43.904  26.728  31.390  1.00  0.00     0.031 C 
ATOM     49  C   UNL A   1      38.703  29.615  27.891  1.00  0.00     0.029 A 
ATOM     50  C   UNL A   1      38.817  30.016  29.292  1.00  0.00     0.049 A 
ATOM     51  H   UNL A   1      40.249  29.398  30.671  1.00  0.00     0.167 HD
ATOM     52  C   UNL A   1      43.408  28.052  33.425  1.00  0.00     0.037 A 
ATOM     53  C   UNL A   1      38.003  30.873  29.937  1.00  0.00     0.037 A 
ATOM     54  C   UNL A   1      42.634  29.008  34.173  1.00  0.00     0.049 A 
ATOM     55  C   UNL A   1      38.287  31.203  31.381  1.00  0.00     0.074 A 
ATOM     56  C   UNL A   1      42.827  29.453  35.468  1.00  0.00     0.029 A 
ATOM     57  N   UNL A   1      41.505  29.657  33.691  1.00  0.00    -0.354 N 
ATOM     58  N   UNL A   1      39.264  30.788  32.152  1.00  0.00    -0.248 NA
ATOM     59  C   UNL A   1      37.358  32.131  32.038  1.00  0.00     0.031 C 
ATOM     60  C   UNL A   1      41.780  30.322  35.792  1.00  0.00     0.029 A 
ATOM     61  C   UNL A   1      40.973  30.475  34.676  1.00  0.00     0.049 A 
ATOM     62  H   UNL A   1      41.138  29.554  32.784  1.00  0.00     0.167 HD
ATOM     63  C   UNL A   1      39.081  31.419  33.376  1.00  0.00     0.074 A 
ATOM     64  C   UNL A   1      37.917  32.269  33.232  1.00  0.00     0.031 C 
ATOM     65  C   UNL A   1      39.806  31.306  34.517  1.00  0.00     0.037 A 
BRANCH  52  66
ATOM     66  C   UNL A   1      44.569  27.381  34.105  1.00  0.00     0.064 A 
ATOM     67  C   UNL A   1      44.429  26.158  34.780  1.00  0.00     0.173 A 
ATOM     68  C   UNL A   1      45.846  27.959  34.057  1.00  0.00     0.173 A 
ATOM     69  F   UNL A   1      43.227  25.570  34.870  1.00  0.00    -0.203 F 
ATOM     70  C   UNL A   1      45.518  25.555  35.404  1.00  0.00     0.198 A 
ATOM     71  C   UNL A   1      46.940  27.337  34.655  1.00  0.00     0.198 A 
ATOM     72  F   UNL A   1      46.038  29.126  33.426  1.00  0.00    -0.203 F 
ATOM     73  F   UNL A   1      45.350  24.413  36.087  1.00  0.00    -0.200 F 
ATOM     74  C   UNL A   1      46.773  26.139  35.334  1.00  0.00     0.200 A 
ATOM     75  F   UNL A   1      48.154  27.897  34.575  1.00  0.00    -0.200 F 
ATOM     76  F   UNL A   1      47.823  25.553  35.928  1.00  0.00    -0.200 F 
ENDBRANCH  52  66
BRANCH  53  77
ATOM     77  C   UNL A   1      36.837  31.469  29.231  1.00  0.00     0.064 A 
ATOM     78  C   UNL A   1      36.804  32.829  28.895  1.00  0.00     0.173 A 
ATOM     79  C   UNL A   1      35.717  30.691  28.899  1.00  0.00     0.173 A 
ATOM     80  F   UNL A   1      37.838  33.623  29.211  1.00  0.00    -0.203 F 
ATOM     81  C   UNL A   1      35.690  33.391  28.275  1.00  0.00     0.198 A 
ATOM     82  C   UNL A   1      34.618  31.247  28.250  1.00  0.00     0.198 A 
ATOM     83  F   UNL A   1      35.694  29.383  29.201  1.00  0.00    -0.203 F 
ATOM     84  F   UNL A   1      35.663  34.706  28.013  1.00  0.00    -0.200 F 
ATOM     85  C   UNL A   1      34.600  32.598  27.947  1.00  0.00     0.200 A 
ATOM     86  F   UNL A   1      33.574  30.472  27.922  1.00  0.00    -0.200 F 
ATOM     87  F   UNL A   1      33.531  33.139  27.348  1.00  0.00    -0.200 F 
ENDBRANCH  53  77
BRANCH  65  88
ATOM     88  C   UNL A   1      39.369  32.143  35.689  1.00  0.00     0.064 A 
ATOM     89  C   UNL A   1      38.475  31.653  36.655  1.00  0.00     0.173 A 
ATOM     90  C   UNL A   1      39.852  33.450  35.849  1.00  0.00     0.173 A 
ATOM     91  F   UNL A   1      37.974  30.413  36.544  1.00  0.00    -0.203 F 
ATOM     92  C   UNL A   1      38.045  32.457  37.706  1.00  0.00     0.198 A 
ATOM     93  C   UNL A   1      39.451  34.238  36.925  1.00  0.00     0.198 A 
ATOM     94  F   UNL A   1      40.718  33.966  34.963  1.00  0.00    -0.203 F 
ATOM     95  F   UNL A   1      37.133  31.993  38.572  1.00  0.00    -0.200 F 
ATOM     96  C   UNL A   1      38.536  33.746  37.843  1.00  0.00     0.200 A 
ATOM     97  F   UNL A   1      39.942  35.477  37.066  1.00  0.00    -0.200 F 
ATOM     98  F   UNL A   1      38.117  34.521  38.854  1.00  0.00    -0.200 F 
ENDBRANCH  65  88
ENDBRANCH  39  40
ENDBRANCH  32  34
ENDBRANCH  31  32
ENDBRANCH  30  31
ENDBRANCH  29  30
ENDBRANCH  28  29
ENDBRANCH  27  28
ENDBRANCH  26  27
ENDBRANCH  25  26
ENDBRANCH  24  25
ENDBRANCH   1  24
TORSDOF 26
ENDMDL
MODEL 2
REMARK VINA RESULT:      -9.0      2.231      4.263
REMARK SMILES CCCNC(=O)[C@H](C)[NH2+][C@H](C)[C@@H](C)C(=O)OCCOCCOCCOCCOC(=O)c1ccc(-c2c3nc(c(-c4c(F)c(F)c(F)c(F)c4F)c4ccc([nH]4)c(-c4c(F)c(F)c(F)c(F)c4F)c4nc(c(-c5c(F)c(F)c(F)c(F)c5F)c5ccc2[nH]5)C=C4)C=C3)cc1
REMARK SMILES IDX 20 1 19 2 18 3 17 4 16 5 14 6 15 7 12 8 13 9 10 10 11 11
REMARK SMILES IDX 9 12 7 15 8 16 5 17 4 18 6 20 3 21 2 22 1 23 21 24 22 25
REMARK SMILES IDX 23 26 24 27 25 28 26 29 27 30 28 31 29 32 30 33 31 34 32 35
REMARK SMILES IDX 93 36 33 37 92 38 34 39 35 40 36 41 86 42 37 43 91 44 85 45
REMARK SMILES IDX 87 46 38 47 90 48 84 49 83 50 39 52 71 53 51 54 70 55 52 56
REMARK SMILES IDX 55 57 69 58 88 59 53 60 54 61 68 63 89 64 56 65 40 66 41 67
REMARK SMILES IDX 49 68 42 69 43 70 47 71 50 72 44 73 45 74 48 75 46 76 72 77
REMARK SMILES IDX 73 78 81 79 74 80 75 81 79 82 82 83 76 84 77 85 80 86 78 87
REMARK SMILES IDX 57 88 58 89 66 90 59 91 60 92 64 93 67 94 61 95 62 96 65 97
REMARK SMILES IDX 63 98
REMARK H PARENT 9 13 9 14 4 19 87 51 55 62
REMARK Flexibility Score: inf
ROOT
ATOM      1  C   UNL A   1      37.309  21.040  24.572  1.00  0.00     0.188 C 
ENDROOT
BRANCH   1   2
ATOM      2  O   UNL A   1      36.206  20.496  25.257  1.00  0.00    -0.376 OA
BRANCH   2   3
ATOM      3  C   UNL A   1      34.926  21.036  25.033  1.00  0.00     0.202 C 
BRANCH   3   4
ATOM      4  C   UNL A   1      34.470  22.394  25.618  1.00  0.00     0.261 C 
BRANCH   4   5
ATOM      5  O   UNL A   1      33.918  23.425  24.776  1.00  0.00    -0.463 OA
BRANCH   5   6
ATOM      6  C   UNL A   1      32.569  23.480  24.760  1.00  0.00     0.314 C 
ATOM      7  O   UNL A   1      31.872  22.510  24.453  1.00  0.00    -0.252 OA
BRANCH   6   8
ATOM      8  C   UNL A   1      31.922  24.846  24.990  1.00  0.00     0.154 C 
ATOM      9  C   UNL A   1      31.605  24.815  26.505  1.00  0.00     0.026 C 
BRANCH   8  10
ATOM     10  C   UNL A   1      30.687  25.391  24.189  1.00  0.00     0.193 C 
ATOM     11  C   UNL A   1      29.575  25.766  25.188  1.00  0.00     0.076 C 
BRANCH  10  12
ATOM     12  N   UNL A   1      30.966  26.463  23.221  1.00  0.00    -0.333 N 
ATOM     13  H   UNL A   1      31.470  26.018  22.454  1.00  0.00     0.347 HD
ATOM     14  H   UNL A   1      30.030  26.845  23.082  1.00  0.00     0.347 HD
BRANCH  12  15
ATOM     15  C   UNL A   1      31.723  27.691  23.539  1.00  0.00     0.269 C 
ATOM     16  C   UNL A   1      32.890  27.875  22.555  1.00  0.00     0.086 C 
BRANCH  15  17
ATOM     17  C   UNL A   1      30.935  29.005  23.412  1.00  0.00     0.277 C 
ATOM     18  N   UNL A   1      31.056  29.950  24.398  1.00  0.00    -0.351 N 
ATOM     19  H   UNL A   1      30.555  30.784  24.248  1.00  0.00     0.163 HD
ATOM     20  O   UNL A   1      30.222  29.261  22.439  1.00  0.00    -0.268 OA
BRANCH  18  21
ATOM     21  C   UNL A   1      31.821  29.894  25.634  1.00  0.00     0.116 C 
BRANCH  21  22
ATOM     22  C   UNL A   1      31.923  28.478  26.192  1.00  0.00     0.018 C 
ATOM     23  C   UNL A   1      31.432  28.366  27.626  1.00  0.00     0.006 C 
ENDBRANCH  21  22
ENDBRANCH  18  21
ENDBRANCH  15  17
ENDBRANCH  12  15
ENDBRANCH  10  12
ENDBRANCH   8  10
ENDBRANCH   6   8
ENDBRANCH   5   6
ENDBRANCH   4   5
ENDBRANCH   3   4
ENDBRANCH   2   3
ENDBRANCH   1   2
BRANCH   1  24
ATOM     24  C   UNL A   1      38.221  21.893  25.466  1.00  0.00     0.188 C 
BRANCH  24  25
ATOM     25  O   UNL A   1      38.984  21.289  26.508  1.00  0.00    -0.377 OA
BRANCH  25  26
ATOM     26  C   UNL A   1      40.398  21.176  26.409  1.00  0.00     0.188 C 
BRANCH  26  27
ATOM     27  C   UNL A   1      41.140  20.259  27.397  1.00  0.00     0.188 C 
BRANCH  27  28
ATOM     28  O   UNL A   1      42.541  20.246  27.223  1.00  0.00    -0.376 OA
BRANCH  28  29
ATOM     29  C   UNL A   1      43.086  20.480  25.937  1.00  0.00     0.202 C 
BRANCH  29  30
ATOM     30  C   UNL A   1      44.246  21.460  25.698  1.00  0.00     0.261 C 
BRANCH  30  31
ATOM     31  O   UNL A   1      44.204  22.731  26.352  1.00  0.00    -0.460 OA
BRANCH  31  32
ATOM     32  C   UNL A   1      43.887  23.802  25.594  1.00  0.00     0.338 C 
ATOM     33  O   UNL A   1      43.999  23.915  24.393  1.00  0.00    -0.246 OA
BRANCH  32  34
ATOM     34  C   UNL A   1      43.192  24.766  26.474  1.00  0.00     0.060 A 
ATOM     35  C   UNL A   1      43.759  26.032  26.650  1.00  0.00     0.016 A 
ATOM     36  C   UNL A   1      42.005  24.420  27.127  1.00  0.00     0.016 A 
ATOM     37  C   UNL A   1      43.169  26.940  27.523  1.00  0.00     0.010 A 
ATOM     38  C   UNL A   1      41.422  25.326  28.019  1.00  0.00     0.010 A 
ATOM     39  C   UNL A   1      42.027  26.574  28.249  1.00  0.00    -0.014 A 
BRANCH  39  40
ATOM     40  C   UNL A   1      41.598  27.439  29.372  1.00  0.00     0.031 A 
ATOM     41  C   UNL A   1      42.394  27.411  30.647  1.00  0.00     0.074 A 
ATOM     42  C   UNL A   1      40.577  28.300  29.222  1.00  0.00     0.049 A 
ATOM     43  N   UNL A   1      42.252  28.126  31.734  1.00  0.00    -0.248 NA
ATOM     44  C   UNL A   1      43.507  26.450  30.701  1.00  0.00     0.031 C 
ATOM     45  C   UNL A   1      39.763  28.440  28.017  1.00  0.00     0.029 A 
ATOM     46  N   UNL A   1      40.060  29.229  30.090  1.00  0.00    -0.354 N 
ATOM     47  C   UNL A   1      43.256  27.704  32.596  1.00  0.00     0.074 A 
ATOM     48  C   UNL A   1      43.976  26.645  31.923  1.00  0.00     0.031 C 
ATOM     49  C   UNL A   1      38.849  29.404  28.218  1.00  0.00     0.029 A 
ATOM     50  C   UNL A   1      38.995  29.926  29.576  1.00  0.00     0.049 A 
ATOM     51  H   UNL A   1      40.418  29.380  30.994  1.00  0.00     0.167 HD
ATOM     52  C   UNL A   1      43.556  28.167  33.832  1.00  0.00     0.037 A 
ATOM     53  C   UNL A   1      38.222  30.869  30.146  1.00  0.00     0.037 A 
ATOM     54  C   UNL A   1      42.828  29.217  34.497  1.00  0.00     0.049 A 
ATOM     55  C   UNL A   1      38.535  31.318  31.552  1.00  0.00     0.074 A 
ATOM     56  C   UNL A   1      43.053  29.769  35.745  1.00  0.00     0.029 A 
ATOM     57  N   UNL A   1      41.719  29.863  33.967  1.00  0.00    -0.354 N 
ATOM     58  N   UNL A   1      39.505  30.936  32.350  1.00  0.00    -0.248 NA
ATOM     59  C   UNL A   1      37.650  32.338  32.130  1.00  0.00     0.031 C 
ATOM     60  C   UNL A   1      42.044  30.705  35.996  1.00  0.00     0.029 A 
ATOM     61  C   UNL A   1      41.230  30.787  34.877  1.00  0.00     0.049 A 
ATOM     62  H   UNL A   1      41.338  29.692  33.076  1.00  0.00     0.167 HD
ATOM     63  C   UNL A   1      39.360  31.683  33.512  1.00  0.00     0.074 A 
ATOM     64  C   UNL A   1      38.228  32.562  33.301  1.00  0.00     0.031 C 
ATOM     65  C   UNL A   1      40.094  31.646  34.653  1.00  0.00     0.037 A 
BRANCH  52  66
ATOM     66  C   UNL A   1      44.698  27.515  34.561  1.00  0.00     0.064 A 
ATOM     67  C   UNL A   1      46.021  27.963  34.421  1.00  0.00     0.173 A 
ATOM     68  C   UNL A   1      44.460  26.441  35.432  1.00  0.00     0.173 A 
ATOM     69  F   UNL A   1      46.307  28.975  33.589  1.00  0.00    -0.203 F 
ATOM     70  C   UNL A   1      47.064  27.342  35.105  1.00  0.00     0.198 A 
ATOM     71  C   UNL A   1      45.500  25.844  36.139  1.00  0.00     0.198 A 
ATOM     72  F   UNL A   1      43.215  25.972  35.603  1.00  0.00    -0.203 F 
ATOM     73  F   UNL A   1      48.326  27.754  34.917  1.00  0.00    -0.200 F 
ATOM     74  C   UNL A   1      46.802  26.290  35.969  1.00  0.00     0.200 A 
ATOM     75  F   UNL A   1      45.243  24.836  36.983  1.00  0.00    -0.200 F 
ATOM     76  F   UNL A   1      47.805  25.699  36.634  1.00  0.00    -0.200 F 
ENDBRANCH  52  66
BRANCH  53  77
ATOM     77  C   UNL A   1      37.072  31.444  29.399  1.00  0.00     0.064 A 
ATOM     78  C   UNL A   1      37.067  32.782  28.980  1.00  0.00     0.173 A 
ATOM     79  C   UNL A   1      35.938  30.669  29.108  1.00  0.00     0.173 A 
ATOM     80  F   UNL A   1      38.115  33.573  29.255  1.00  0.00    -0.203 F 
ATOM     81  C   UNL A   1      35.967  33.327  28.321  1.00  0.00     0.198 A 
ATOM     82  C   UNL A   1      34.853  31.206  28.419  1.00  0.00     0.198 A 
ATOM     83  F   UNL A   1      35.888  29.383  29.488  1.00  0.00    -0.203 F 
ATOM     84  F   UNL A   1      35.968  34.624  27.980  1.00  0.00    -0.200 F 
ATOM     85  C   UNL A   1      34.864  32.537  28.035  1.00  0.00     0.200 A 
ATOM     86  F   UNL A   1      33.796  30.434  28.132  1.00  0.00    -0.200 F 
ATOM     87  F   UNL A   1      33.808  33.061  27.398  1.00  0.00    -0.200 F 
ENDBRANCH  53  77
BRANCH  65  88
ATOM     88  C   UNL A   1      39.703  32.602  35.747  1.00  0.00     0.064 A 
ATOM     89  C   UNL A   1      40.270  33.883  35.846  1.00  0.00     0.173 A 
ATOM     90  C   UNL A   1      38.747  32.234  36.706  1.00  0.00     0.173 A 
ATOM     91  F   UNL A   1      41.197  34.282  34.962  1.00  0.00    -0.203 F 
ATOM     92  C   UNL A   1      39.932  34.737  36.892  1.00  0.00     0.198 A 
ATOM     93  C   UNL A   1      38.381  33.106  37.727  1.00  0.00     0.198 A 
ATOM     94  F   UNL A   1      38.163  31.027  36.652  1.00  0.00    -0.203 F 
ATOM     95  F   UNL A   1      40.543  35.924  37.009  1.00  0.00    -0.200 F 
ATOM     96  C   UNL A   1      38.985  34.350  37.828  1.00  0.00     0.200 A 
ATOM     97  F   UNL A   1      37.452  32.739  38.620  1.00  0.00    -0.200 F 
ATOM     98  F   UNL A   1      38.663  35.173  38.837  1.00  0.00    -0.200 F 
ENDBRANCH  65  88
ENDBRANCH  39  40
ENDBRANCH  32  34
ENDBRANCH  31  32
ENDBRANCH  30  31
ENDBRANCH  29  30
ENDBRANCH  28  29
ENDBRANCH  27  28
ENDBRANCH  26  27
ENDBRANCH  25  26
ENDBRANCH  24  25
ENDBRANCH   1  24
TORSDOF 26
ENDMDL
MODEL 3
REMARK VINA RESULT:      -8.9      1.992      8.064
REMARK SMILES CCCNC(=O)[C@H](C)[NH2+][C@H](C)[C@@H](C)C(=O)OCCOCCOCCOCCOC(=O)c1ccc(-c2c3nc(c(-c4c(F)c(F)c(F)c(F)c4F)c4ccc([nH]4)c(-c4c(F)c(F)c(F)c(F)c4F)c4nc(c(-c5c(F)c(F)c(F)c(F)c5F)c5ccc2[nH]5)C=C4)C=C3)cc1
REMARK SMILES IDX 20 1 19 2 18 3 17 4 16 5 14 6 15 7 12 8 13 9 10 10 11 11
REMARK SMILES IDX 9 12 7 15 8 16 5 17 4 18 6 20 3 21 2 22 1 23 21 24 22 25
REMARK SMILES IDX 23 26 24 27 25 28 26 29 27 30 28 31 29 32 30 33 31 34 32 35
REMARK SMILES IDX 93 36 33 37 92 38 34 39 35 40 36 41 86 42 37 43 91 44 85 45
REMARK SMILES IDX 87 46 38 47 90 48 84 49 83 50 39 52 71 53 51 54 70 55 52 56
REMARK SMILES IDX 55 57 69 58 88 59 53 60 54 61 68 63 89 64 56 65 40 66 41 67
REMARK SMILES IDX 49 68 42 69 43 70 47 71 50 72 44 73 45 74 48 75 46 76 72 77
REMARK SMILES IDX 73 78 81 79 74 80 75 81 79 82 82 83 76 84 77 85 80 86 78 87
REMARK SMILES IDX 57 88 58 89 66 90 59 91 60 92 64 93 67 94 61 95 62 96 65 97
REMARK SMILES IDX 63 98
REMARK H PARENT 9 13 9 14 4 19 87 51 55 62
REMARK Flexibility Score: inf
ROOT
ATOM      1  C   UNL A   1      36.589  22.368  25.793  1.00  0.00     0.188 C 
ENDROOT
BRANCH   1   2
ATOM      2  O   UNL A   1      35.723  21.504  26.491  1.00  0.00    -0.376 OA
BRANCH   2   3
ATOM      3  C   UNL A   1      34.362  21.844  26.606  1.00  0.00     0.202 C 
BRANCH   3   4
ATOM      4  C   UNL A   1      33.879  23.232  27.089  1.00  0.00     0.261 C 
BRANCH   4   5
ATOM      5  O   UNL A   1      32.845  23.952  26.388  1.00  0.00    -0.463 OA
BRANCH   5   6
ATOM      6  C   UNL A   1      31.605  23.438  26.529  1.00  0.00     0.314 C 
ATOM      7  O   UNL A   1      31.122  23.170  27.632  1.00  0.00    -0.252 OA
BRANCH   6   8
ATOM      8  C   UNL A   1      30.859  23.048  25.252  1.00  0.00     0.154 C 
ATOM      9  C   UNL A   1      31.507  21.691  24.889  1.00  0.00     0.026 C 
BRANCH   8  10
ATOM     10  C   UNL A   1      30.747  23.955  23.976  1.00  0.00     0.193 C 
ATOM     11  C   UNL A   1      30.031  25.264  24.361  1.00  0.00     0.076 C 
BRANCH  10  12
ATOM     12  N   UNL A   1      31.996  24.188  23.234  1.00  0.00    -0.333 N 
ATOM     13  H   UNL A   1      32.606  23.406  23.471  1.00  0.00     0.347 HD
ATOM     14  H   UNL A   1      31.637  24.306  22.287  1.00  0.00     0.347 HD
BRANCH  12  15
ATOM     15  C   UNL A   1      32.827  25.401  23.372  1.00  0.00     0.269 C 
ATOM     16  C   UNL A   1      34.286  25.023  23.678  1.00  0.00     0.086 C 
BRANCH  15  17
ATOM     17  C   UNL A   1      32.938  26.272  22.110  1.00  0.00     0.277 C 
ATOM     18  N   UNL A   1      32.311  27.491  22.087  1.00  0.00    -0.351 N 
ATOM     19  H   UNL A   1      32.443  28.020  21.267  1.00  0.00     0.163 HD
ATOM     20  O   UNL A   1      33.599  25.935  21.124  1.00  0.00    -0.268 OA
BRANCH  18  21
ATOM     21  C   UNL A   1      31.479  28.114  23.104  1.00  0.00     0.116 C 
BRANCH  21  22
ATOM     22  C   UNL A   1      32.233  29.169  23.908  1.00  0.00     0.018 C 
ATOM     23  C   UNL A   1      33.705  28.836  24.093  1.00  0.00     0.006 C 
ENDBRANCH  21  22
ENDBRANCH  18  21
ENDBRANCH  15  17
ENDBRANCH  12  15
ENDBRANCH  10  12
ENDBRANCH   8  10
ENDBRANCH   6   8
ENDBRANCH   5   6
ENDBRANCH   4   5
ENDBRANCH   3   4
ENDBRANCH   2   3
ENDBRANCH   1   2
BRANCH   1  24
ATOM     24  C   UNL A   1      37.385  21.666  24.684  1.00  0.00     0.188 C 
BRANCH  24  25
ATOM     25  O   UNL A   1      37.943  20.372  24.901  1.00  0.00    -0.377 OA
BRANCH  25  26
ATOM     26  C   UNL A   1      39.186  20.213  25.572  1.00  0.00     0.188 C 
BRANCH  26  27
ATOM     27  C   UNL A   1      39.791  21.421  26.311  1.00  0.00     0.188 C 
BRANCH  27  28
ATOM     28  O   UNL A   1      41.072  21.177  26.851  1.00  0.00    -0.376 OA
BRANCH  28  29
ATOM     29  C   UNL A   1      42.086  20.634  26.025  1.00  0.00     0.202 C 
BRANCH  29  30
ATOM     30  C   UNL A   1      43.470  21.288  25.878  1.00  0.00     0.261 C 
BRANCH  30  31
ATOM     31  O   UNL A   1      43.676  22.574  26.469  1.00  0.00    -0.460 OA
BRANCH  31  32
ATOM     32  C   UNL A   1      43.417  23.652  25.700  1.00  0.00     0.338 C 
ATOM     33  O   UNL A   1      43.475  23.728  24.492  1.00  0.00    -0.246 OA
BRANCH  32  34
ATOM     34  C   UNL A   1      42.858  24.694  26.588  1.00  0.00     0.060 A 
ATOM     35  C   UNL A   1      43.455  25.959  26.584  1.00  0.00     0.016 A 
ATOM     36  C   UNL A   1      41.770  24.422  27.423  1.00  0.00     0.016 A 
ATOM     37  C   UNL A   1      42.999  26.943  27.456  1.00  0.00     0.010 A 
ATOM     38  C   UNL A   1      41.324  25.405  28.312  1.00  0.00     0.010 A 
ATOM     39  C   UNL A   1      41.965  26.655  28.358  1.00  0.00    -0.014 A 
BRANCH  39  40
ATOM     40  C   UNL A   1      41.703  27.612  29.457  1.00  0.00     0.031 A 
ATOM     41  C   UNL A   1      40.491  28.498  29.367  1.00  0.00     0.074 A 
ATOM     42  C   UNL A   1      42.478  27.624  30.555  1.00  0.00     0.049 A 
ATOM     43  N   UNL A   1      40.022  29.360  30.233  1.00  0.00    -0.248 NA
ATOM     44  C   UNL A   1      39.696  28.392  28.134  1.00  0.00     0.031 C 
ATOM     45  C   UNL A   1      43.653  26.781  30.766  1.00  0.00     0.029 A 
ATOM     46  N   UNL A   1      42.383  28.365  31.706  1.00  0.00    -0.354 N 
ATOM     47  C   UNL A   1      38.879  29.893  29.652  1.00  0.00     0.074 A 
ATOM     48  C   UNL A   1      38.745  29.289  28.345  1.00  0.00     0.031 C 
ATOM     49  C   UNL A   1      44.169  27.048  31.978  1.00  0.00     0.029 A 
ATOM     50  C   UNL A   1      43.378  28.102  32.612  1.00  0.00     0.049 A 
ATOM     51  H   UNL A   1      41.669  29.023  31.865  1.00  0.00     0.167 HD
ATOM     52  C   UNL A   1      38.014  30.797  30.169  1.00  0.00     0.037 A 
ATOM     53  C   UNL A   1      43.626  28.659  33.813  1.00  0.00     0.037 A 
ATOM     54  C   UNL A   1      38.161  31.399  31.469  1.00  0.00     0.049 A 
ATOM     55  C   UNL A   1      42.685  29.716  34.335  1.00  0.00     0.074 A 
ATOM     56  C   UNL A   1      37.337  32.318  32.095  1.00  0.00     0.029 A 
ATOM     57  N   UNL A   1      39.213  31.148  32.339  1.00  0.00    -0.354 N 
ATOM     58  N   UNL A   1      41.589  30.193  33.794  1.00  0.00    -0.248 NA
ATOM     59  C   UNL A   1      43.012  30.300  35.642  1.00  0.00     0.031 C 
ATOM     60  C   UNL A   1      37.924  32.671  33.315  1.00  0.00     0.029 A 
ATOM     61  C   UNL A   1      39.077  31.920  33.483  1.00  0.00     0.049 A 
ATOM     62  H   UNL A   1      39.948  30.515  32.170  1.00  0.00     0.167 HD
ATOM     63  C   UNL A   1      41.085  31.117  34.701  1.00  0.00     0.074 A 
ATOM     64  C   UNL A   1      41.979  31.107  35.841  1.00  0.00     0.031 C 
ATOM     65  C   UNL A   1      39.985  31.905  34.602  1.00  0.00     0.037 A 
BRANCH  52  66
ATOM     66  C   UNL A   1      36.853  31.218  29.312  1.00  0.00     0.064 A 
ATOM     67  C   UNL A   1      36.773  32.500  28.746  1.00  0.00     0.173 A 
ATOM     68  C   UNL A   1      35.817  30.314  29.032  1.00  0.00     0.173 A 
ATOM     69  F   UNL A   1      37.728  33.408  28.995  1.00  0.00    -0.203 F 
ATOM     70  C   UNL A   1      35.687  32.869  27.956  1.00  0.00     0.198 A 
ATOM     71  C   UNL A   1      34.749  30.675  28.215  1.00  0.00     0.198 A 
ATOM     72  F   UNL A   1      35.842  29.076  29.547  1.00  0.00    -0.203 F 
ATOM     73  F   UNL A   1      35.607  34.115  27.468  1.00  0.00    -0.200 F 
ATOM     74  C   UNL A   1      34.681  31.955  27.684  1.00  0.00     0.200 A 
ATOM     75  F   UNL A   1      33.785  29.786  27.944  1.00  0.00    -0.200 F 
ATOM     76  F   UNL A   1      33.641  32.307  26.916  1.00  0.00    -0.200 F 
ENDBRANCH  52  66
BRANCH  53  77
ATOM     77  C   UNL A   1      44.820  28.243  34.597  1.00  0.00     0.064 A 
ATOM     78  C   UNL A   1      46.062  28.870  34.424  1.00  0.00     0.173 A 
ATOM     79  C   UNL A   1      44.747  27.190  35.521  1.00  0.00     0.173 A 
ATOM     80  F   UNL A   1      46.192  29.865  33.535  1.00  0.00    -0.203 F 
ATOM     81  C   UNL A   1      47.187  28.445  35.128  1.00  0.00     0.198 A 
ATOM     82  C   UNL A   1      45.865  26.788  36.249  1.00  0.00     0.198 A 
ATOM     83  F   UNL A   1      43.583  26.553  35.724  1.00  0.00    -0.203 F 
ATOM     84  F   UNL A   1      48.375  29.026  34.903  1.00  0.00    -0.200 F 
ATOM     85  C   UNL A   1      47.086  27.409  36.044  1.00  0.00     0.200 A 
ATOM     86  F   UNL A   1      45.758  25.797  37.145  1.00  0.00    -0.200 F 
ATOM     87  F   UNL A   1      48.168  27.004  36.723  1.00  0.00    -0.200 F 
ENDBRANCH  53  77
BRANCH  65  88
ATOM     88  C   UNL A   1      39.680  32.801  35.772  1.00  0.00     0.064 A 
ATOM     89  C   UNL A   1      38.858  32.381  36.830  1.00  0.00     0.173 A 
ATOM     90  C   UNL A   1      40.220  34.094  35.837  1.00  0.00     0.173 A 
ATOM     91  F   UNL A   1      38.307  31.158  36.813  1.00  0.00    -0.203 F 
ATOM     92  C   UNL A   1      38.549  33.240  37.881  1.00  0.00     0.198 A 
ATOM     93  C   UNL A   1      39.942  34.936  36.910  1.00  0.00     0.198 A 
ATOM     94  F   UNL A   1      41.023  34.543  34.860  1.00  0.00    -0.203 F 
ATOM     95  F   UNL A   1      37.700  32.844  38.840  1.00  0.00    -0.200 F 
ATOM     96  C   UNL A   1      39.093  34.514  37.923  1.00  0.00     0.200 A 
ATOM     97  F   UNL A   1      40.485  36.160  36.959  1.00  0.00    -0.200 F 
ATOM     98  F   UNL A   1      38.792  35.341  38.934  1.00  0.00    -0.200 F 
ENDBRANCH  65  88
ENDBRANCH  39  40
ENDBRANCH  32  34
ENDBRANCH  31  32
ENDBRANCH  30  31
ENDBRANCH  29  30
ENDBRANCH  28  29
ENDBRANCH  27  28
ENDBRANCH  26  27
ENDBRANCH  25  26
ENDBRANCH  24  25
ENDBRANCH   1  24
TORSDOF 26
ENDMDL
