MODEL 1
REMARK VINA RESULT:     -10.4      0.000      0.000
REMARK SMILES CNC(=O)[C@H]1CCCCN1C(=O)NCCOCC(=O)OCCOCCOCCOCCOC(=O)c1ccc(-c2c3nc(c(-c4c(F)c(F)c(F)c(F)c4F)c4ccc([nH]4)c(-c4c(F)c(F)c(F)c(F)c4F)c4nc(c(-c5c(F)c(F)c(F)c(F)c5F)c5ccc2[nH]5)C=C4)C=C3)cc1
REMARK SMILES IDX 24 1 23 2 22 3 21 4 20 5 18 6 19 7 17 8 16 9 15 10 14 11
REMARK SMILES IDX 13 12 11 13 12 14 10 16 5 17 6 18 7 19 9 20 8 21 3 22 1 23
REMARK SMILES IDX 2 24 4 26 25 27 26 28 27 29 28 30 29 31 30 32 31 33 32 34
REMARK SMILES IDX 33 35 34 36 35 37 36 38 97 39 37 40 96 41 38 42 39 43 40 44
REMARK SMILES IDX 90 45 41 46 95 47 89 48 91 49 42 50 94 51 88 52 87 53 43 55
REMARK SMILES IDX 75 56 55 57 74 58 56 59 59 60 73 61 92 62 57 63 58 64 72 66
REMARK SMILES IDX 93 67 60 68 44 69 45 70 53 71 46 72 47 73 51 74 54 75 48 76
REMARK SMILES IDX 49 77 52 78 50 79 76 80 77 81 85 82 78 83 79 84 83 85 86 86
REMARK SMILES IDX 80 87 81 88 84 89 82 90 61 91 62 92 70 93 63 94 64 95 68 96
REMARK SMILES IDX 71 97 65 98 66 99 69 100 67 101
REMARK H PARENT 13 15 2 25 91 54 59 65
REMARK Flexibility Score: inf
ROOT
ATOM      1  C   UNL A   1      40.785  19.689  26.095  1.00  0.00     0.188 C 
ENDROOT
BRANCH   1   2
ATOM      2  O   UNL A   1      40.299  20.922  26.626  1.00  0.00    -0.376 OA
BRANCH   2   3
ATOM      3  C   UNL A   1      39.204  21.542  25.956  1.00  0.00     0.202 C 
BRANCH   3   4
ATOM      4  C   UNL A   1      38.140  20.621  25.331  1.00  0.00     0.261 C 
BRANCH   4   5
ATOM      5  O   UNL A   1      37.110  21.285  24.561  1.00  0.00    -0.462 OA
BRANCH   5   6
ATOM      6  C   UNL A   1      35.902  21.397  25.169  1.00  0.00     0.332 C 
ATOM      7  O   UNL A   1      35.687  22.093  26.160  1.00  0.00    -0.250 OA
BRANCH   6   8
ATOM      8  C   UNL A   1      34.759  20.591  24.510  1.00  0.00     0.282 C 
BRANCH   8   9
ATOM      9  O   UNL A   1      33.764  19.805  25.122  1.00  0.00    -0.368 OA
BRANCH   9  10
ATOM     10  C   UNL A   1      32.697  20.450  25.817  1.00  0.00     0.182 C 
BRANCH  10  11
ATOM     11  C   UNL A   1      32.104  21.736  25.193  1.00  0.00     0.146 C 
BRANCH  11  12
ATOM     12  N   UNL A   1      32.668  22.994  25.693  1.00  0.00    -0.336 N 
ATOM     13  C   UNL A   1      32.758  24.303  25.418  1.00  0.00     0.318 C 
ATOM     14  O   UNL A   1      33.425  24.921  26.257  1.00  0.00    -0.249 OA
ATOM     15  H   UNL A   1      33.155  22.813  26.528  1.00  0.00     0.165 HD
BRANCH  13  16
ATOM     16  N   UNL A   1      32.216  24.945  24.347  1.00  0.00    -0.313 N 
ATOM     17  C   UNL A   1      32.782  26.290  23.993  1.00  0.00     0.176 C 
ATOM     18  C   UNL A   1      31.710  27.360  24.268  1.00  0.00     0.035 C 
ATOM     19  C   UNL A   1      30.381  27.042  23.581  1.00  0.00     0.004 C 
ATOM     20  C   UNL A   1      31.009  24.613  23.600  1.00  0.00     0.122 C 
ATOM     21  C   UNL A   1      29.909  25.623  23.904  1.00  0.00     0.022 C 
BRANCH  17  22
ATOM     22  C   UNL A   1      33.351  26.405  22.548  1.00  0.00     0.242 C 
ATOM     23  C   UNL A   1      33.776  28.916  22.655  1.00  0.00     0.142 C 
ATOM     24  N   UNL A   1      33.711  27.617  22.031  1.00  0.00    -0.357 N 
ATOM     25  H   UNL A   1      33.967  27.600  21.079  1.00  0.00     0.163 HD
ATOM     26  O   UNL A   1      33.476  25.432  21.802  1.00  0.00    -0.273 OA
ENDBRANCH  17  22
ENDBRANCH  13  16
ENDBRANCH  11  12
ENDBRANCH  10  11
ENDBRANCH   9  10
ENDBRANCH   8   9
ENDBRANCH   6   8
ENDBRANCH   5   6
ENDBRANCH   4   5
ENDBRANCH   3   4
ENDBRANCH   2   3
ENDBRANCH   1   2
BRANCH   1  27
ATOM     27  C   UNL A   1      42.281  19.428  26.273  1.00  0.00     0.188 C 
BRANCH  27  28
ATOM     28  O   UNL A   1      42.956  19.424  25.020  1.00  0.00    -0.377 OA
BRANCH  28  29
ATOM     29  C   UNL A   1      44.354  19.172  24.978  1.00  0.00     0.188 C 
BRANCH  29  30
ATOM     30  C   UNL A   1      45.248  20.311  24.491  1.00  0.00     0.188 C 
BRANCH  30  31
ATOM     31  O   UNL A   1      45.908  21.126  25.458  1.00  0.00    -0.376 OA
BRANCH  31  32
ATOM     32  C   UNL A   1      46.176  22.492  25.171  1.00  0.00     0.202 C 
BRANCH  32  33
ATOM     33  C   UNL A   1      45.263  23.137  24.132  1.00  0.00     0.261 C 
BRANCH  33  34
ATOM     34  O   UNL A   1      44.435  24.148  24.706  1.00  0.00    -0.460 OA
BRANCH  34  35
ATOM     35  C   UNL A   1      43.186  23.730  25.008  1.00  0.00     0.338 C 
ATOM     36  O   UNL A   1      42.667  22.651  24.762  1.00  0.00    -0.246 OA
BRANCH  35  37
ATOM     37  C   UNL A   1      42.551  24.759  25.836  1.00  0.00     0.060 A 
ATOM     38  C   UNL A   1      43.166  26.013  25.928  1.00  0.00     0.016 A 
ATOM     39  C   UNL A   1      41.387  24.467  26.550  1.00  0.00     0.016 A 
ATOM     40  C   UNL A   1      42.626  26.986  26.754  1.00  0.00     0.010 A 
ATOM     41  C   UNL A   1      40.869  25.426  27.412  1.00  0.00     0.010 A 
ATOM     42  C   UNL A   1      41.514  26.667  27.540  1.00  0.00    -0.014 A 
BRANCH  42  43
ATOM     43  C   UNL A   1      41.189  27.535  28.682  1.00  0.00     0.031 A 
ATOM     44  C   UNL A   1      42.030  27.397  29.918  1.00  0.00     0.074 A 
ATOM     45  C   UNL A   1      40.202  28.439  28.592  1.00  0.00     0.049 A 
ATOM     46  N   UNL A   1      41.902  27.982  31.078  1.00  0.00    -0.248 NA
ATOM     47  C   UNL A   1      43.172  26.468  29.832  1.00  0.00     0.031 C 
ATOM     48  C   UNL A   1      39.385  28.683  27.405  1.00  0.00     0.029 A 
ATOM     49  N   UNL A   1      39.717  29.313  29.526  1.00  0.00    -0.354 N 
ATOM     50  C   UNL A   1      42.946  27.497  31.855  1.00  0.00     0.074 A 
ATOM     51  C   UNL A   1      43.674  26.540  31.055  1.00  0.00     0.031 C 
ATOM     52  C   UNL A   1      38.483  29.638  27.690  1.00  0.00     0.029 A 
ATOM     53  C   UNL A   1      38.638  30.035  29.086  1.00  0.00     0.049 A 
ATOM     54  H   UNL A   1      40.106  29.413  30.425  1.00  0.00     0.167 HD
ATOM     55  C   UNL A   1      43.270  27.838  33.122  1.00  0.00     0.037 A 
ATOM     56  C   UNL A   1      37.854  30.895  29.764  1.00  0.00     0.037 A 
ATOM     57  C   UNL A   1      42.522  28.784  33.903  1.00  0.00     0.049 A 
ATOM     58  C   UNL A   1      38.173  31.167  31.214  1.00  0.00     0.074 A 
ATOM     59  C   UNL A   1      42.734  29.189  35.208  1.00  0.00     0.029 A 
ATOM     60  N   UNL A   1      41.408  29.473  33.442  1.00  0.00    -0.354 N 
ATOM     61  N   UNL A   1      39.158  30.709  31.950  1.00  0.00    -0.248 NA
ATOM     62  C   UNL A   1      37.270  32.079  31.926  1.00  0.00     0.031 C 
ATOM     63  C   UNL A   1      41.719  30.086  35.552  1.00  0.00     0.029 A 
ATOM     64  C   UNL A   1      40.912  30.289  34.442  1.00  0.00     0.049 A 
ATOM     65  H   UNL A   1      41.028  29.392  32.538  1.00  0.00     0.167 HD
ATOM     66  C   UNL A   1      39.019  31.311  33.194  1.00  0.00     0.074 A 
ATOM     67  C   UNL A   1      37.862  32.178  33.106  1.00  0.00     0.031 C 
ATOM     68  C   UNL A   1      39.774  31.162  34.311  1.00  0.00     0.037 A 
BRANCH  55  69
ATOM     69  C   UNL A   1      44.466  27.176  33.738  1.00  0.00     0.064 A 
ATOM     70  C   UNL A   1      45.741  27.759  33.679  1.00  0.00     0.173 A 
ATOM     71  C   UNL A   1      44.330  25.964  34.432  1.00  0.00     0.173 A 
ATOM     72  F   UNL A   1      45.929  28.906  33.009  1.00  0.00    -0.203 F 
ATOM     73  C   UNL A   1      46.838  27.147  34.279  1.00  0.00     0.198 A 
ATOM     74  C   UNL A   1      45.424  25.370  35.056  1.00  0.00     0.198 A 
ATOM     75  F   UNL A   1      43.136  25.361  34.514  1.00  0.00    -0.203 F 
ATOM     76  F   UNL A   1      48.054  27.702  34.176  1.00  0.00    -0.200 F 
ATOM     77  C   UNL A   1      46.676  25.959  34.977  1.00  0.00     0.200 A 
ATOM     78  F   UNL A   1      45.264  24.228  35.740  1.00  0.00    -0.200 F 
ATOM     79  F   UNL A   1      47.730  25.380  35.568  1.00  0.00    -0.200 F 
ENDBRANCH  55  69
BRANCH  56  80
ATOM     80  C   UNL A   1      36.687  31.539  29.104  1.00  0.00     0.064 A 
ATOM     81  C   UNL A   1      36.677  32.916  28.840  1.00  0.00     0.173 A 
ATOM     82  C   UNL A   1      35.536  30.807  28.780  1.00  0.00     0.173 A 
ATOM     83  F   UNL A   1      37.747  33.665  29.147  1.00  0.00    -0.203 F 
ATOM     84  C   UNL A   1      35.545  33.542  28.321  1.00  0.00     0.198 A 
ATOM     85  C   UNL A   1      34.418  31.427  28.226  1.00  0.00     0.198 A 
ATOM     86  F   UNL A   1      35.491  29.486  29.007  1.00  0.00    -0.203 F 
ATOM     87  F   UNL A   1      35.538  34.871  28.151  1.00  0.00    -0.200 F 
ATOM     88  C   UNL A   1      34.417  32.797  28.013  1.00  0.00     0.200 A 
ATOM     89  F   UNL A   1      33.336  30.701  27.916  1.00  0.00    -0.200 F 
ATOM     90  F   UNL A   1      33.326  33.402  27.526  1.00  0.00    -0.200 F 
ENDBRANCH  56  80
BRANCH  68  91
ATOM     91  C   UNL A   1      39.412  32.004  35.500  1.00  0.00     0.064 A 
ATOM     92  C   UNL A   1      38.440  31.600  36.426  1.00  0.00     0.173 A 
ATOM     93  C   UNL A   1      40.080  33.217  35.735  1.00  0.00     0.173 A 
ATOM     94  F   UNL A   1      37.764  30.455  36.241  1.00  0.00    -0.203 F 
ATOM     95  C   UNL A   1      38.124  32.396  37.523  1.00  0.00     0.198 A 
ATOM     96  C   UNL A   1      39.790  33.990  36.853  1.00  0.00     0.198 A 
ATOM     97  F   UNL A   1      41.028  33.642  34.885  1.00  0.00    -0.203 F 
ATOM     98  F   UNL A   1      37.149  32.021  38.362  1.00  0.00    -0.200 F 
ATOM     99  C   UNL A   1      38.804  33.585  37.740  1.00  0.00     0.200 A 
ATOM    100  F   UNL A   1      40.464  35.128  37.072  1.00  0.00    -0.200 F 
ATOM    101  F   UNL A   1      38.506  34.345  38.802  1.00  0.00    -0.200 F 
ENDBRANCH  68  91
ENDBRANCH  42  43
ENDBRANCH  35  37
ENDBRANCH  34  35
ENDBRANCH  33  34
ENDBRANCH  32  33
ENDBRANCH  31  32
ENDBRANCH  30  31
ENDBRANCH  29  30
ENDBRANCH  28  29
ENDBRANCH  27  28
ENDBRANCH   1  27
TORSDOF 26
ENDMDL
MODEL 2
REMARK VINA RESULT:      -9.9      0.947      2.262
REMARK SMILES CNC(=O)[C@H]1CCCCN1C(=O)NCCOCC(=O)OCCOCCOCCOCCOC(=O)c1ccc(-c2c3nc(c(-c4c(F)c(F)c(F)c(F)c4F)c4ccc([nH]4)c(-c4c(F)c(F)c(F)c(F)c4F)c4nc(c(-c5c(F)c(F)c(F)c(F)c5F)c5ccc2[nH]5)C=C4)C=C3)cc1
REMARK SMILES IDX 24 1 23 2 22 3 21 4 20 5 18 6 19 7 17 8 16 9 15 10 14 11
REMARK SMILES IDX 13 12 11 13 12 14 10 16 5 17 6 18 7 19 9 20 8 21 3 22 1 23
REMARK SMILES IDX 2 24 4 26 25 27 26 28 27 29 28 30 29 31 30 32 31 33 32 34
REMARK SMILES IDX 33 35 34 36 35 37 36 38 97 39 37 40 96 41 38 42 39 43 40 44
REMARK SMILES IDX 90 45 41 46 95 47 89 48 91 49 42 50 94 51 88 52 87 53 43 55
REMARK SMILES IDX 75 56 55 57 74 58 56 59 59 60 73 61 92 62 57 63 58 64 72 66
REMARK SMILES IDX 93 67 60 68 44 69 45 70 53 71 46 72 47 73 51 74 54 75 48 76
REMARK SMILES IDX 49 77 52 78 50 79 76 80 77 81 85 82 78 83 79 84 83 85 86 86
REMARK SMILES IDX 80 87 81 88 84 89 82 90 61 91 62 92 70 93 63 94 64 95 68 96
REMARK SMILES IDX 71 97 65 98 66 99 69 100 67 101
REMARK H PARENT 13 15 2 25 91 54 59 65
REMARK Flexibility Score: inf
ROOT
ATOM      1  C   UNL A   1      40.613  19.692  25.984  1.00  0.00     0.188 C 
ENDROOT
BRANCH   1   2
ATOM      2  O   UNL A   1      40.048  20.894  26.509  1.00  0.00    -0.376 OA
BRANCH   2   3
ATOM      3  C   UNL A   1      39.068  21.561  25.718  1.00  0.00     0.202 C 
BRANCH   3   4
ATOM      4  C   UNL A   1      37.916  20.712  25.147  1.00  0.00     0.261 C 
BRANCH   4   5
ATOM      5  O   UNL A   1      36.938  21.431  24.359  1.00  0.00    -0.462 OA
BRANCH   5   6
ATOM      6  C   UNL A   1      36.016  22.133  25.066  1.00  0.00     0.332 C 
ATOM      7  O   UNL A   1      36.220  23.240  25.560  1.00  0.00    -0.250 OA
BRANCH   6   8
ATOM      8  C   UNL A   1      34.635  21.452  25.200  1.00  0.00     0.282 C 
BRANCH   8   9
ATOM      9  O   UNL A   1      33.851  21.261  26.354  1.00  0.00    -0.368 OA
BRANCH   9  10
ATOM     10  C   UNL A   1      33.345  22.401  27.048  1.00  0.00     0.182 C 
BRANCH  10  11
ATOM     11  C   UNL A   1      32.689  23.523  26.209  1.00  0.00     0.146 C 
BRANCH  11  12
ATOM     12  N   UNL A   1      33.473  24.756  26.085  1.00  0.00    -0.336 N 
ATOM     13  C   UNL A   1      33.359  26.069  25.840  1.00  0.00     0.318 C 
ATOM     14  O   UNL A   1      34.452  26.651  25.852  1.00  0.00    -0.249 OA
ATOM     15  H   UNL A   1      34.422  24.543  26.235  1.00  0.00     0.165 HD
BRANCH  13  16
ATOM     16  N   UNL A   1      32.209  26.749  25.583  1.00  0.00    -0.313 N 
ATOM     17  C   UNL A   1      31.949  27.148  24.158  1.00  0.00     0.176 C 
ATOM     18  C   UNL A   1      32.034  28.681  24.056  1.00  0.00     0.035 C 
ATOM     19  C   UNL A   1      31.132  29.382  25.074  1.00  0.00     0.004 C 
ATOM     20  C   UNL A   1      31.270  27.342  26.527  1.00  0.00     0.122 C 
ATOM     21  C   UNL A   1      31.378  28.861  26.491  1.00  0.00     0.022 C 
BRANCH  17  22
ATOM     22  C   UNL A   1      30.621  26.603  23.554  1.00  0.00     0.242 C 
ATOM     23  C   UNL A   1      31.575  24.337  22.883  1.00  0.00     0.142 C 
ATOM     24  N   UNL A   1      30.573  25.372  22.966  1.00  0.00    -0.357 N 
ATOM     25  H   UNL A   1      29.717  25.156  22.527  1.00  0.00     0.163 HD
ATOM     26  O   UNL A   1      29.575  27.254  23.550  1.00  0.00    -0.273 OA
ENDBRANCH  17  22
ENDBRANCH  13  16
ENDBRANCH  11  12
ENDBRANCH  10  11
ENDBRANCH   9  10
ENDBRANCH   8   9
ENDBRANCH   6   8
ENDBRANCH   5   6
ENDBRANCH   4   5
ENDBRANCH   3   4
ENDBRANCH   2   3
ENDBRANCH   1   2
BRANCH   1  27
ATOM     27  C   UNL A   1      42.099  19.471  26.272  1.00  0.00     0.188 C 
BRANCH  27  28
ATOM     28  O   UNL A   1      42.872  19.554  25.080  1.00  0.00    -0.377 OA
BRANCH  28  29
ATOM     29  C   UNL A   1      44.276  19.343  25.139  1.00  0.00     0.188 C 
BRANCH  29  30
ATOM     30  C   UNL A   1      45.168  20.496  24.682  1.00  0.00     0.188 C 
BRANCH  30  31
ATOM     31  O   UNL A   1      45.772  21.331  25.669  1.00  0.00    -0.376 OA
BRANCH  31  32
ATOM     32  C   UNL A   1      46.044  22.695  25.376  1.00  0.00     0.202 C 
BRANCH  32  33
ATOM     33  C   UNL A   1      45.139  23.334  24.325  1.00  0.00     0.261 C 
BRANCH  33  34
ATOM     34  O   UNL A   1      44.290  24.333  24.892  1.00  0.00    -0.460 OA
BRANCH  34  35
ATOM     35  C   UNL A   1      43.056  23.886  25.215  1.00  0.00     0.338 C 
ATOM     36  O   UNL A   1      42.559  22.795  24.979  1.00  0.00    -0.246 OA
BRANCH  35  37
ATOM     37  C   UNL A   1      42.411  24.902  26.052  1.00  0.00     0.060 A 
ATOM     38  C   UNL A   1      42.974  26.183  26.097  1.00  0.00     0.016 A 
ATOM     39  C   UNL A   1      41.292  24.573  26.819  1.00  0.00     0.016 A 
ATOM     40  C   UNL A   1      42.426  27.147  26.928  1.00  0.00     0.010 A 
ATOM     41  C   UNL A   1      40.769  25.525  27.686  1.00  0.00     0.010 A 
ATOM     42  C   UNL A   1      41.363  26.795  27.766  1.00  0.00    -0.014 A 
BRANCH  42  43
ATOM     43  C   UNL A   1      41.048  27.669  28.906  1.00  0.00     0.031 A 
ATOM     44  C   UNL A   1      41.894  27.532  30.138  1.00  0.00     0.074 A 
ATOM     45  C   UNL A   1      40.065  28.577  28.817  1.00  0.00     0.049 A 
ATOM     46  N   UNL A   1      41.775  28.122  31.296  1.00  0.00    -0.248 NA
ATOM     47  C   UNL A   1      43.031  26.597  30.050  1.00  0.00     0.031 C 
ATOM     48  C   UNL A   1      39.243  28.820  27.633  1.00  0.00     0.029 A 
ATOM     49  N   UNL A   1      39.589  29.457  29.750  1.00  0.00    -0.354 N 
ATOM     50  C   UNL A   1      42.821  27.635  32.070  1.00  0.00     0.074 A 
ATOM     51  C   UNL A   1      43.540  26.671  31.270  1.00  0.00     0.031 C 
ATOM     52  C   UNL A   1      38.347  29.780  27.919  1.00  0.00     0.029 A 
ATOM     53  C   UNL A   1      38.511  30.183  29.313  1.00  0.00     0.049 A 
ATOM     54  H   UNL A   1      39.982  29.558  30.646  1.00  0.00     0.167 HD
ATOM     55  C   UNL A   1      43.153  27.980  33.334  1.00  0.00     0.037 A 
ATOM     56  C   UNL A   1      37.734  31.049  29.990  1.00  0.00     0.037 A 
ATOM     57  C   UNL A   1      42.413  28.933  34.115  1.00  0.00     0.049 A 
ATOM     58  C   UNL A   1      38.062  31.325  31.438  1.00  0.00     0.074 A 
ATOM     59  C   UNL A   1      42.633  29.342  35.417  1.00  0.00     0.029 A 
ATOM     60  N   UNL A   1      41.300  29.625  33.657  1.00  0.00    -0.354 N 
ATOM     61  N   UNL A   1      39.048  30.866  32.170  1.00  0.00    -0.248 NA
ATOM     62  C   UNL A   1      37.166  32.245  32.151  1.00  0.00     0.031 C 
ATOM     63  C   UNL A   1      41.624  30.245  35.763  1.00  0.00     0.029 A 
ATOM     64  C   UNL A   1      40.813  30.448  34.656  1.00  0.00     0.049 A 
ATOM     65  H   UNL A   1      40.915  29.542  32.755  1.00  0.00     0.167 HD
ATOM     66  C   UNL A   1      38.918  31.473  33.413  1.00  0.00     0.074 A 
ATOM     67  C   UNL A   1      37.765  32.345  33.328  1.00  0.00     0.031 C 
ATOM     68  C   UNL A   1      39.678  31.326  34.527  1.00  0.00     0.037 A 
BRANCH  55  69
ATOM     69  C   UNL A   1      44.349  27.315  33.947  1.00  0.00     0.064 A 
ATOM     70  C   UNL A   1      44.296  25.992  34.411  1.00  0.00     0.173 A 
ATOM     71  C   UNL A   1      45.573  27.993  34.036  1.00  0.00     0.173 A 
ATOM     72  F   UNL A   1      43.143  25.306  34.369  1.00  0.00    -0.203 F 
ATOM     73  C   UNL A   1      45.421  25.377  34.954  1.00  0.00     0.198 A 
ATOM     74  C   UNL A   1      46.704  27.365  34.552  1.00  0.00     0.198 A 
ATOM     75  F   UNL A   1      45.677  29.261  33.613  1.00  0.00    -0.203 F 
ATOM     76  F   UNL A   1      45.337  24.126  35.428  1.00  0.00    -0.200 F 
ATOM     77  C   UNL A   1      46.627  26.061  35.013  1.00  0.00     0.200 A 
ATOM     78  F   UNL A   1      47.871  28.023  34.598  1.00  0.00    -0.200 F 
ATOM     79  F   UNL A   1      47.713  25.462  35.521  1.00  0.00    -0.200 F 
ENDBRANCH  55  69
BRANCH  56  80
ATOM     80  C   UNL A   1      36.567  31.696  29.334  1.00  0.00     0.064 A 
ATOM     81  C   UNL A   1      35.447  30.945  28.951  1.00  0.00     0.173 A 
ATOM     82  C   UNL A   1      36.571  33.063  29.021  1.00  0.00     0.173 A 
ATOM     83  F   UNL A   1      35.401  29.629  29.212  1.00  0.00    -0.203 F 
ATOM     84  C   UNL A   1      34.398  31.525  28.241  1.00  0.00     0.198 A 
ATOM     85  C   UNL A   1      35.504  33.650  28.343  1.00  0.00     0.198 A 
ATOM     86  F   UNL A   1      37.614  33.831  29.366  1.00  0.00    -0.203 F 
ATOM     87  F   UNL A   1      33.377  30.766  27.821  1.00  0.00    -0.200 F 
ATOM     88  C   UNL A   1      34.427  32.878  27.938  1.00  0.00     0.200 A 
ATOM     89  F   UNL A   1      35.530  34.961  28.067  1.00  0.00    -0.200 F 
ATOM     90  F   UNL A   1      33.424  33.432  27.244  1.00  0.00    -0.200 F 
ENDBRANCH  56  80
BRANCH  68  91
ATOM     91  C   UNL A   1      39.326  32.174  35.714  1.00  0.00     0.064 A 
ATOM     92  C   UNL A   1      39.890  33.442  35.912  1.00  0.00     0.173 A 
ATOM     93  C   UNL A   1      38.379  31.723  36.647  1.00  0.00     0.173 A 
ATOM     94  F   UNL A   1      40.810  33.915  35.056  1.00  0.00    -0.203 F 
ATOM     95  C   UNL A   1      39.545  34.212  37.019  1.00  0.00     0.198 A 
ATOM     96  C   UNL A   1      38.007  32.512  37.730  1.00  0.00     0.198 A 
ATOM     97  F   UNL A   1      37.801  30.521  36.496  1.00  0.00    -0.203 F 
ATOM     98  F   UNL A   1      40.142  35.395  37.222  1.00  0.00    -0.200 F 
ATOM     99  C   UNL A   1      38.599  33.750  37.922  1.00  0.00     0.200 A 
ATOM    100  F   UNL A   1      37.077  32.072  38.589  1.00  0.00    -0.200 F 
ATOM    101  F   UNL A   1      38.261  34.497  38.981  1.00  0.00    -0.200 F 
ENDBRANCH  68  91
ENDBRANCH  42  43
ENDBRANCH  35  37
ENDBRANCH  34  35
ENDBRANCH  33  34
ENDBRANCH  32  33
ENDBRANCH  31  32
ENDBRANCH  30  31
ENDBRANCH  29  30
ENDBRANCH  28  29
ENDBRANCH  27  28
ENDBRANCH   1  27
TORSDOF 26
ENDMDL
MODEL 3
REMARK VINA RESULT:      -9.5      4.134      9.468
REMARK SMILES CNC(=O)[C@H]1CCCCN1C(=O)NCCOCC(=O)OCCOCCOCCOCCOC(=O)c1ccc(-c2c3nc(c(-c4c(F)c(F)c(F)c(F)c4F)c4ccc([nH]4)c(-c4c(F)c(F)c(F)c(F)c4F)c4nc(c(-c5c(F)c(F)c(F)c(F)c5F)c5ccc2[nH]5)C=C4)C=C3)cc1
REMARK SMILES IDX 24 1 23 2 22 3 21 4 20 5 18 6 19 7 17 8 16 9 15 10 14 11
REMARK SMILES IDX 13 12 11 13 12 14 10 16 5 17 6 18 7 19 9 20 8 21 3 22 1 23
REMARK SMILES IDX 2 24 4 26 25 27 26 28 27 29 28 30 29 31 30 32 31 33 32 34
REMARK SMILES IDX 33 35 34 36 35 37 36 38 97 39 37 40 96 41 38 42 39 43 40 44
REMARK SMILES IDX 90 45 41 46 95 47 89 48 91 49 42 50 94 51 88 52 87 53 43 55
REMARK SMILES IDX 75 56 55 57 74 58 56 59 59 60 73 61 92 62 57 63 58 64 72 66
REMARK SMILES IDX 93 67 60 68 44 69 45 70 53 71 46 72 47 73 51 74 54 75 48 76
REMARK SMILES IDX 49 77 52 78 50 79 76 80 77 81 85 82 78 83 79 84 83 85 86 86
REMARK SMILES IDX 80 87 81 88 84 89 82 90 61 91 62 92 70 93 63 94 64 95 68 96
REMARK SMILES IDX 71 97 65 98 66 99 69 100 67 101
REMARK H PARENT 13 15 2 25 91 54 59 65
REMARK Flexibility Score: inf
ROOT
ATOM      1  C   UNL A   1      34.397  28.876  26.235  1.00  0.00     0.188 C 
ENDROOT
BRANCH   1   2
ATOM      2  O   UNL A   1      33.843  28.198  25.106  1.00  0.00    -0.376 OA
BRANCH   2   3
ATOM      3  C   UNL A   1      33.251  28.996  24.085  1.00  0.00     0.202 C 
BRANCH   3   4
ATOM      4  C   UNL A   1      31.746  29.302  24.204  1.00  0.00     0.261 C 
BRANCH   4   5
ATOM      5  O   UNL A   1      30.988  29.209  22.975  1.00  0.00    -0.462 OA
BRANCH   5   6
ATOM      6  C   UNL A   1      30.013  28.265  22.956  1.00  0.00     0.332 C 
ATOM      7  O   UNL A   1      28.809  28.513  22.939  1.00  0.00    -0.250 OA
BRANCH   6   8
ATOM      8  C   UNL A   1      30.516  26.804  22.931  1.00  0.00     0.282 C 
BRANCH   8   9
ATOM      9  O   UNL A   1      30.097  25.710  23.713  1.00  0.00    -0.368 OA
BRANCH   9  10
ATOM     10  C   UNL A   1      29.820  25.912  25.099  1.00  0.00     0.182 C 
BRANCH  10  11
ATOM     11  C   UNL A   1      31.022  26.039  26.064  1.00  0.00     0.146 C 
BRANCH  11  12
ATOM     12  N   UNL A   1      31.360  24.824  26.812  1.00  0.00    -0.336 N 
ATOM     13  C   UNL A   1      32.172  23.757  26.798  1.00  0.00     0.318 C 
ATOM     14  O   UNL A   1      31.979  23.000  27.758  1.00  0.00    -0.249 OA
ATOM     15  H   UNL A   1      30.786  24.773  27.609  1.00  0.00     0.165 HD
BRANCH  13  16
ATOM     16  N   UNL A   1      33.111  23.466  25.857  1.00  0.00    -0.313 N 
ATOM     17  C   UNL A   1      32.712  22.533  24.750  1.00  0.00     0.176 C 
ATOM     18  C   UNL A   1      33.498  21.219  24.909  1.00  0.00     0.035 C 
ATOM     19  C   UNL A   1      35.006  21.453  25.013  1.00  0.00     0.004 C 
ATOM     20  C   UNL A   1      34.539  23.763  25.872  1.00  0.00     0.122 C 
ATOM     21  C   UNL A   1      35.339  22.485  26.092  1.00  0.00     0.022 C 
BRANCH  17  22
ATOM     22  C   UNL A   1      32.852  23.118  23.314  1.00  0.00     0.242 C 
ATOM     23  C   UNL A   1      31.913  21.068  22.126  1.00  0.00     0.142 C 
ATOM     24  N   UNL A   1      32.524  22.372  22.218  1.00  0.00    -0.357 N 
ATOM     25  H   UNL A   1      32.739  22.791  21.353  1.00  0.00     0.163 HD
ATOM     26  O   UNL A   1      33.286  24.250  23.096  1.00  0.00    -0.273 OA
ENDBRANCH  17  22
ENDBRANCH  13  16
ENDBRANCH  11  12
ENDBRANCH  10  11
ENDBRANCH   9  10
ENDBRANCH   8   9
ENDBRANCH   6   8
ENDBRANCH   5   6
ENDBRANCH   4   5
ENDBRANCH   3   4
ENDBRANCH   2   3
ENDBRANCH   1   2
BRANCH   1  27
ATOM     27  C   UNL A   1      33.526  28.902  27.492  1.00  0.00     0.188 C 
BRANCH  27  28
ATOM     28  O   UNL A   1      32.870  30.157  27.636  1.00  0.00    -0.377 OA
BRANCH  28  29
ATOM     29  C   UNL A   1      33.512  31.340  27.179  1.00  0.00     0.188 C 
BRANCH  29  30
ATOM     30  C   UNL A   1      33.527  32.532  28.134  1.00  0.00     0.188 C 
BRANCH  30  31
ATOM     31  O   UNL A   1      34.605  33.463  28.054  1.00  0.00    -0.376 OA
BRANCH  31  32
ATOM     32  C   UNL A   1      34.452  34.774  28.581  1.00  0.00     0.202 C 
BRANCH  32  33
ATOM     33  C   UNL A   1      33.181  35.012  29.393  1.00  0.00     0.261 C 
BRANCH  33  34
ATOM     34  O   UNL A   1      33.397  35.940  30.456  1.00  0.00    -0.460 OA
BRANCH  34  35
ATOM     35  C   UNL A   1      32.968  35.505  31.662  1.00  0.00     0.338 C 
ATOM     36  O   UNL A   1      31.830  35.503  32.107  1.00  0.00    -0.246 OA
BRANCH  35  37
ATOM     37  C   UNL A   1      34.103  34.877  32.346  1.00  0.00     0.060 A 
ATOM     38  C   UNL A   1      35.362  35.480  32.240  1.00  0.00     0.016 A 
ATOM     39  C   UNL A   1      33.928  33.681  33.044  1.00  0.00     0.016 A 
ATOM     40  C   UNL A   1      36.465  34.877  32.820  1.00  0.00     0.010 A 
ATOM     41  C   UNL A   1      35.041  33.052  33.589  1.00  0.00     0.010 A 
ATOM     42  C   UNL A   1      36.311  33.633  33.440  1.00  0.00    -0.014 A 
BRANCH  42  43
ATOM     43  C   UNL A   1      37.511  32.822  33.697  1.00  0.00     0.031 A 
ATOM     44  C   UNL A   1      38.260  33.078  34.972  1.00  0.00     0.074 A 
ATOM     45  C   UNL A   1      37.885  31.867  32.832  1.00  0.00     0.049 A 
ATOM     46  N   UNL A   1      39.381  32.560  35.394  1.00  0.00    -0.248 NA
ATOM     47  C   UNL A   1      37.659  34.056  35.898  1.00  0.00     0.031 C 
ATOM     48  C   UNL A   1      37.173  31.510  31.606  1.00  0.00     0.029 A 
ATOM     49  N   UNL A   1      38.966  31.029  32.856  1.00  0.00    -0.354 N 
ATOM     50  C   UNL A   1      39.617  33.143  36.632  1.00  0.00     0.074 A 
ATOM     51  C   UNL A   1      38.549  34.084  36.878  1.00  0.00     0.031 C 
ATOM     52  C   UNL A   1      37.851  30.531  30.983  1.00  0.00     0.029 A 
ATOM     53  C   UNL A   1      39.058  30.228  31.747  1.00  0.00     0.049 A 
ATOM     54  H   UNL A   1      39.614  31.005  33.597  1.00  0.00     0.167 HD
ATOM     55  C   UNL A   1      40.632  32.897  37.489  1.00  0.00     0.037 A 
ATOM     56  C   UNL A   1      40.036  29.374  31.391  1.00  0.00     0.037 A 
ATOM     57  C   UNL A   1      41.691  31.965  37.215  1.00  0.00     0.049 A 
ATOM     58  C   UNL A   1      41.216  29.209  32.317  1.00  0.00     0.074 A 
ATOM     59  C   UNL A   1      42.791  31.653  37.991  1.00  0.00     0.029 A 
ATOM     60  N   UNL A   1      41.778  31.195  36.063  1.00  0.00    -0.354 N 
ATOM     61  N   UNL A   1      41.441  29.759  33.486  1.00  0.00    -0.248 NA
ATOM     62  C   UNL A   1      42.279  28.298  31.871  1.00  0.00     0.031 C 
ATOM     63  C   UNL A   1      43.569  30.729  37.288  1.00  0.00     0.029 A 
ATOM     64  C   UNL A   1      42.921  30.418  36.101  1.00  0.00     0.049 A 
ATOM     65  H   UNL A   1      41.122  31.201  35.329  1.00  0.00     0.167 HD
ATOM     66  C   UNL A   1      42.644  29.229  33.934  1.00  0.00     0.074 A 
ATOM     67  C   UNL A   1      43.092  28.302  32.916  1.00  0.00     0.031 C 
ATOM     68  C   UNL A   1      43.322  29.483  35.081  1.00  0.00     0.037 A 
BRANCH  55  69
ATOM     69  C   UNL A   1      40.652  33.655  38.783  1.00  0.00     0.064 A 
ATOM     70  C   UNL A   1      41.468  34.781  38.963  1.00  0.00     0.173 A 
ATOM     71  C   UNL A   1      39.815  33.275  39.843  1.00  0.00     0.173 A 
ATOM     72  F   UNL A   1      42.303  35.173  37.988  1.00  0.00    -0.203 F 
ATOM     73  C   UNL A   1      41.457  35.492  40.161  1.00  0.00     0.198 A 
ATOM     74  C   UNL A   1      39.785  34.005  41.028  1.00  0.00     0.198 A 
ATOM     75  F   UNL A   1      39.019  32.202  39.726  1.00  0.00    -0.203 F 
ATOM     76  F   UNL A   1      42.275  36.541  40.324  1.00  0.00    -0.200 F 
ATOM     77  C   UNL A   1      40.607  35.109  41.187  1.00  0.00     0.200 A 
ATOM     78  F   UNL A   1      38.954  33.641  42.015  1.00  0.00    -0.200 F 
ATOM     79  F   UNL A   1      40.585  35.804  42.333  1.00  0.00    -0.200 F 
ENDBRANCH  55  69
BRANCH  56  80
ATOM     80  C   UNL A   1      39.964  28.634  30.103  1.00  0.00     0.064 A 
ATOM     81  C   UNL A   1      39.423  27.342  30.042  1.00  0.00     0.173 A 
ATOM     82  C   UNL A   1      40.490  29.174  28.920  1.00  0.00     0.173 A 
ATOM     83  F   UNL A   1      38.923  26.773  31.150  1.00  0.00    -0.203 F 
ATOM     84  C   UNL A   1      39.451  26.603  28.861  1.00  0.00     0.198 A 
ATOM     85  C   UNL A   1      40.484  28.448  27.731  1.00  0.00     0.198 A 
ATOM     86  F   UNL A   1      41.017  30.407  28.918  1.00  0.00    -0.203 F 
ATOM     87  F   UNL A   1      38.996  25.343  28.853  1.00  0.00    -0.200 F 
ATOM     88  C   UNL A   1      39.980  27.157  27.706  1.00  0.00     0.200 A 
ATOM     89  F   UNL A   1      40.982  28.994  26.613  1.00  0.00    -0.200 F 
ATOM     90  F   UNL A   1      40.018  26.441  26.575  1.00  0.00    -0.200 F 
ENDBRANCH  56  80
BRANCH  68  91
ATOM     91  C   UNL A   1      44.580  28.699  35.322  1.00  0.00     0.064 A 
ATOM     92  C   UNL A   1      44.565  27.454  35.967  1.00  0.00     0.173 A 
ATOM     93  C   UNL A   1      45.814  29.188  34.865  1.00  0.00     0.173 A 
ATOM     94  F   UNL A   1      43.413  26.948  36.435  1.00  0.00    -0.203 F 
ATOM     95  C   UNL A   1      45.744  26.744  36.176  1.00  0.00     0.198 A 
ATOM     96  C   UNL A   1      46.984  28.457  35.040  1.00  0.00     0.198 A 
ATOM     97  F   UNL A   1      45.880  30.370  34.231  1.00  0.00    -0.203 F 
ATOM     98  F   UNL A   1      45.715  25.585  36.848  1.00  0.00    -0.200 F 
ATOM     99  C   UNL A   1      46.950  27.242  35.706  1.00  0.00     0.200 A 
ATOM    100  F   UNL A   1      48.144  28.931  34.565  1.00  0.00    -0.200 F 
ATOM    101  F   UNL A   1      48.082  26.552  35.899  1.00  0.00    -0.200 F 
ENDBRANCH  68  91
ENDBRANCH  42  43
ENDBRANCH  35  37
ENDBRANCH  34  35
ENDBRANCH  33  34
ENDBRANCH  32  33
ENDBRANCH  31  32
ENDBRANCH  30  31
ENDBRANCH  29  30
ENDBRANCH  28  29
ENDBRANCH  27  28
ENDBRANCH   1  27
TORSDOF 26
ENDMDL
