MODEL 1
REMARK VINA RESULT:     -11.2      0.000      0.000
REMARK SMILES O=C(OCCOCCOCCOCCOC(=O)[C@@H]1C=C[C@@H]([NH+]2CC3(CCOCC3)C2)C1)c1ccc(-c2c3nc(c(-c4c(F)c(F)c(F)c(F)c4F)c4ccc([nH]4)c(-c4c(F)c(F)c(F)c(F)c4F)c4nc(c(-c5c(F)c(F)c(F)c(F)c5F)c5ccc2[nH]5)C=C4)C=C3)cc1
REMARK SMILES IDX 8 1 7 2 6 3 5 4 4 5 3 6 2 7 1 8 32 9 33 10 94 11 34 12 93 13
REMARK SMILES IDX 35 14 36 15 37 16 87 17 38 18 92 19 86 20 88 21 39 22 91 23
REMARK SMILES IDX 85 24 84 25 40 27 72 28 52 29 71 30 53 31 56 32 70 33 89 34
REMARK SMILES IDX 54 35 55 36 69 38 90 39 57 40 41 41 42 42 50 43 43 44 44 45
REMARK SMILES IDX 48 46 51 47 45 48 46 49 49 50 47 51 73 52 74 53 82 54 75 55
REMARK SMILES IDX 76 56 80 57 83 58 77 59 78 60 81 61 79 62 58 63 59 64 67 65
REMARK SMILES IDX 60 66 61 67 65 68 68 69 62 70 63 71 66 72 64 73 9 74 10 75
REMARK SMILES IDX 11 76 12 77 13 78 14 79 15 80 16 81 17 82 18 83 19 84 31 85
REMARK SMILES IDX 20 86 21 87 22 88 23 89 30 90 24 92 25 93 29 94 26 95 28 96
REMARK SMILES IDX 27 97
REMARK H PARENT 88 26 56 37 22 91
REMARK Flexibility Score: inf
ROOT
ATOM      1  C   UNL A   1      34.851  32.098  28.178  1.00  0.00     0.188 C 
ENDROOT
BRANCH   1   2
ATOM      2  C   UNL A   1      35.597  33.426  28.228  1.00  0.00     0.188 C 
BRANCH   2   3
ATOM      3  O   UNL A   1      34.718  34.475  27.859  1.00  0.00    -0.376 OA
BRANCH   3   4
ATOM      4  C   UNL A   1      33.414  34.518  28.412  1.00  0.00     0.202 C 
BRANCH   4   5
ATOM      5  C   UNL A   1      33.025  35.779  29.182  1.00  0.00     0.261 C 
BRANCH   5   6
ATOM      6  O   UNL A   1      32.222  35.573  30.365  1.00  0.00    -0.460 OA
BRANCH   6   7
ATOM      7  C   UNL A   1      32.559  35.706  31.672  1.00  0.00     0.338 C 
ATOM      8  O   UNL A   1      31.870  36.399  32.415  1.00  0.00    -0.246 OA
BRANCH   7   9
ATOM      9  C   UNL A   1      33.738  35.020  32.246  1.00  0.00     0.060 A 
ATOM     10  C   UNL A   1      34.961  35.649  32.397  1.00  0.00     0.016 A 
ATOM     11  C   UNL A   1      33.604  33.731  32.766  1.00  0.00     0.016 A 
ATOM     12  C   UNL A   1      36.096  34.966  32.764  1.00  0.00     0.010 A 
ATOM     13  C   UNL A   1      34.714  33.077  33.316  1.00  0.00     0.010 A 
ATOM     14  C   UNL A   1      35.981  33.675  33.251  1.00  0.00    -0.014 A 
BRANCH  14  15
ATOM     15  C   UNL A   1      37.239  32.969  33.554  1.00  0.00     0.031 A 
ATOM     16  C   UNL A   1      37.843  33.168  34.909  1.00  0.00     0.074 A 
ATOM     17  C   UNL A   1      37.696  32.024  32.706  1.00  0.00     0.049 A 
ATOM     18  N   UNL A   1      38.962  32.705  35.394  1.00  0.00    -0.248 NA
ATOM     19  C   UNL A   1      37.077  33.999  35.857  1.00  0.00     0.031 C 
ATOM     20  C   UNL A   1      37.072  31.655  31.428  1.00  0.00     0.029 A 
ATOM     21  N   UNL A   1      38.752  31.159  32.812  1.00  0.00    -0.354 N 
ATOM     22  C   UNL A   1      39.052  33.221  36.678  1.00  0.00     0.074 A 
ATOM     23  C   UNL A   1      37.888  34.045  36.900  1.00  0.00     0.031 C 
ATOM     24  C   UNL A   1      37.724  30.609  30.901  1.00  0.00     0.029 A 
ATOM     25  C   UNL A   1      38.876  30.311  31.738  1.00  0.00     0.049 A 
ATOM     26  H   UNL A   1      39.363  31.146  33.584  1.00  0.00     0.167 HD
ATOM     27  C   UNL A   1      40.031  33.016  37.588  1.00  0.00     0.037 A 
ATOM     28  C   UNL A   1      39.852  29.433  31.442  1.00  0.00     0.037 A 
ATOM     29  C   UNL A   1      41.164  32.173  37.333  1.00  0.00     0.049 A 
ATOM     30  C   UNL A   1      40.985  29.311  32.424  1.00  0.00     0.074 A 
ATOM     31  C   UNL A   1      42.278  31.952  38.119  1.00  0.00     0.029 A 
ATOM     32  N   UNL A   1      41.316  31.397  36.189  1.00  0.00    -0.354 N 
ATOM     33  N   UNL A   1      41.135  29.893  33.591  1.00  0.00    -0.248 NA
ATOM     34  C   UNL A   1      42.094  28.431  32.044  1.00  0.00     0.031 C 
ATOM     35  C   UNL A   1      43.122  31.073  37.431  1.00  0.00     0.029 A 
ATOM     36  C   UNL A   1      42.509  30.701  36.243  1.00  0.00     0.049 A 
ATOM     37  H   UNL A   1      40.667  31.350  35.449  1.00  0.00     0.167 HD
ATOM     38  C   UNL A   1      42.346  29.444  34.091  1.00  0.00     0.074 A 
ATOM     39  C   UNL A   1      42.872  28.510  33.114  1.00  0.00     0.031 C 
ATOM     40  C   UNL A   1      42.981  29.777  35.243  1.00  0.00     0.037 A 
BRANCH  27  41
ATOM     41  C   UNL A   1      39.931  33.768  38.881  1.00  0.00     0.064 A 
ATOM     42  C   UNL A   1      39.154  33.307  39.954  1.00  0.00     0.173 A 
ATOM     43  C   UNL A   1      40.591  34.997  39.030  1.00  0.00     0.173 A 
ATOM     44  F   UNL A   1      38.470  32.158  39.848  1.00  0.00    -0.203 F 
ATOM     45  C   UNL A   1      39.019  34.062  41.117  1.00  0.00     0.198 A 
ATOM     46  C   UNL A   1      40.479  35.735  40.206  1.00  0.00     0.198 A 
ATOM     47  F   UNL A   1      41.333  35.492  38.029  1.00  0.00    -0.203 F 
ATOM     48  F   UNL A   1      38.220  33.633  42.104  1.00  0.00    -0.200 F 
ATOM     49  C   UNL A   1      39.686  35.272  41.245  1.00  0.00     0.200 A 
ATOM     50  F   UNL A   1      41.123  36.904  40.325  1.00  0.00    -0.200 F 
ATOM     51  F   UNL A   1      39.551  35.999  42.362  1.00  0.00    -0.200 F 
ENDBRANCH  27  41
BRANCH  28  52
ATOM     52  C   UNL A   1      39.851  28.697  30.148  1.00  0.00     0.064 A 
ATOM     53  C   UNL A   1      39.295  27.416  30.028  1.00  0.00     0.173 A 
ATOM     54  C   UNL A   1      40.450  29.248  29.000  1.00  0.00     0.173 A 
ATOM     55  F   UNL A   1      38.725  26.832  31.092  1.00  0.00    -0.203 F 
ATOM     56  C   UNL A   1      39.367  26.705  28.830  1.00  0.00     0.198 A 
ATOM     57  C   UNL A   1      40.484  28.554  27.793  1.00  0.00     0.198 A 
ATOM     58  F   UNL A   1      41.001  30.470  29.050  1.00  0.00    -0.203 F 
ATOM     59  F   UNL A   1      38.886  25.456  28.764  1.00  0.00    -0.200 F 
ATOM     60  C   UNL A   1      39.957  27.277  27.712  1.00  0.00     0.200 A 
ATOM     61  F   UNL A   1      41.039  29.121  26.713  1.00  0.00    -0.200 F 
ATOM     62  F   UNL A   1      40.029  26.591  26.563  1.00  0.00    -0.200 F 
ENDBRANCH  28  52
BRANCH  40  63
ATOM     63  C   UNL A   1      44.289  29.094  35.504  1.00  0.00     0.064 A 
ATOM     64  C   UNL A   1      45.505  29.647  35.078  1.00  0.00     0.173 A 
ATOM     65  C   UNL A   1      44.322  27.883  36.210  1.00  0.00     0.173 A 
ATOM     66  F   UNL A   1      45.520  30.795  34.385  1.00  0.00    -0.203 F 
ATOM     67  C   UNL A   1      46.706  28.990  35.319  1.00  0.00     0.198 A 
ATOM     68  C   UNL A   1      45.528  27.249  36.481  1.00  0.00     0.198 A 
ATOM     69  F   UNL A   1      43.183  27.321  36.645  1.00  0.00    -0.203 F 
ATOM     70  F   UNL A   1      47.852  29.501  34.848  1.00  0.00    -0.200 F 
ATOM     71  C   UNL A   1      46.718  27.796  36.026  1.00  0.00     0.200 A 
ATOM     72  F   UNL A   1      45.539  26.105  37.180  1.00  0.00    -0.200 F 
ATOM     73  F   UNL A   1      47.878  27.168  36.261  1.00  0.00    -0.200 F 
ENDBRANCH  40  63
ENDBRANCH  14  15
ENDBRANCH   7   9
ENDBRANCH   6   7
ENDBRANCH   5   6
ENDBRANCH   4   5
ENDBRANCH   3   4
ENDBRANCH   2   3
ENDBRANCH   1   2
BRANCH   1  74
ATOM     74  O   UNL A   1      35.614  31.008  27.665  1.00  0.00    -0.377 OA
BRANCH  74  75
ATOM     75  C   UNL A   1      35.146  29.687  27.927  1.00  0.00     0.188 C 
BRANCH  75  76
ATOM     76  C   UNL A   1      34.411  28.940  26.800  1.00  0.00     0.188 C 
BRANCH  76  77
ATOM     77  O   UNL A   1      33.259  29.613  26.305  1.00  0.00    -0.376 OA
BRANCH  77  78
ATOM     78  C   UNL A   1      32.048  29.313  27.001  1.00  0.00     0.202 C 
BRANCH  78  79
ATOM     79  C   UNL A   1      31.923  27.901  27.612  1.00  0.00     0.261 C 
BRANCH  79  80
ATOM     80  O   UNL A   1      30.933  27.079  26.976  1.00  0.00    -0.463 OA
BRANCH  80  81
ATOM     81  C   UNL A   1      31.275  25.936  26.320  1.00  0.00     0.313 C 
ATOM     82  O   UNL A   1      31.448  24.858  26.856  1.00  0.00    -0.252 OA
BRANCH  81  83
ATOM     83  C   UNL A   1      31.169  26.174  24.802  1.00  0.00     0.128 C 
ATOM     84  C   UNL A   1      32.247  26.944  24.111  1.00  0.00    -0.010 C 
ATOM     85  C   UNL A   1      29.900  26.909  24.343  1.00  0.00     0.089 C 
ATOM     86  C   UNL A   1      31.769  28.001  23.438  1.00  0.00     0.033 C 
ATOM     87  C   UNL A   1      30.302  28.221  23.667  1.00  0.00     0.208 C 
BRANCH  87  88
ATOM     88  N   UNL A   1      29.539  28.684  22.498  1.00  0.00    -0.328 N 
ATOM     89  C   UNL A   1      29.964  30.015  22.031  1.00  0.00     0.275 C 
ATOM     90  C   UNL A   1      28.171  29.149  22.753  1.00  0.00     0.275 C 
ATOM     91  H   UNL A   1      29.652  27.862  21.905  1.00  0.00     0.348 HD
ATOM     92  C   UNL A   1      28.562  30.608  22.358  1.00  0.00     0.073 C 
ATOM     93  C   UNL A   1      27.722  31.132  21.182  1.00  0.00     0.047 C 
ATOM     94  C   UNL A   1      28.542  31.643  23.493  1.00  0.00     0.047 C 
ATOM     95  C   UNL A   1      28.154  32.545  20.810  1.00  0.00     0.161 C 
ATOM     96  C   UNL A   1      28.912  33.026  22.980  1.00  0.00     0.161 C 
ATOM     97  O   UNL A   1      28.027  33.417  21.936  1.00  0.00    -0.381 OA
ENDBRANCH  87  88
ENDBRANCH  81  83
ENDBRANCH  80  81
ENDBRANCH  79  80
ENDBRANCH  78  79
ENDBRANCH  77  78
ENDBRANCH  76  77
ENDBRANCH  75  76
ENDBRANCH  74  75
ENDBRANCH   1  74
TORSDOF 21
ENDMDL
MODEL 2
REMARK VINA RESULT:     -10.4      0.658      7.198
REMARK SMILES O=C(OCCOCCOCCOCCOC(=O)[C@@H]1C=C[C@@H]([NH+]2CC3(CCOCC3)C2)C1)c1ccc(-c2c3nc(c(-c4c(F)c(F)c(F)c(F)c4F)c4ccc([nH]4)c(-c4c(F)c(F)c(F)c(F)c4F)c4nc(c(-c5c(F)c(F)c(F)c(F)c5F)c5ccc2[nH]5)C=C4)C=C3)cc1
REMARK SMILES IDX 8 1 7 2 6 3 5 4 4 5 3 6 2 7 1 8 32 9 33 10 94 11 34 12 93 13
REMARK SMILES IDX 35 14 36 15 37 16 87 17 38 18 92 19 86 20 88 21 39 22 91 23
REMARK SMILES IDX 85 24 84 25 40 27 72 28 52 29 71 30 53 31 56 32 70 33 89 34
REMARK SMILES IDX 54 35 55 36 69 38 90 39 57 40 41 41 42 42 50 43 43 44 44 45
REMARK SMILES IDX 48 46 51 47 45 48 46 49 49 50 47 51 73 52 74 53 82 54 75 55
REMARK SMILES IDX 76 56 80 57 83 58 77 59 78 60 81 61 79 62 58 63 59 64 67 65
REMARK SMILES IDX 60 66 61 67 65 68 68 69 62 70 63 71 66 72 64 73 9 74 10 75
REMARK SMILES IDX 11 76 12 77 13 78 14 79 15 80 16 81 17 82 18 83 19 84 31 85
REMARK SMILES IDX 20 86 21 87 22 88 23 89 30 90 24 92 25 93 29 94 26 95 28 96
REMARK SMILES IDX 27 97
REMARK H PARENT 88 26 56 37 22 91
REMARK Flexibility Score: inf
ROOT
ATOM      1  C   UNL A   1      35.129  31.852  28.446  1.00  0.00     0.188 C 
ENDROOT
BRANCH   1   2
ATOM      2  C   UNL A   1      35.846  33.104  27.954  1.00  0.00     0.188 C 
BRANCH   2   3
ATOM      3  O   UNL A   1      34.888  34.069  27.552  1.00  0.00    -0.376 OA
BRANCH   3   4
ATOM      4  C   UNL A   1      33.606  34.069  28.154  1.00  0.00     0.202 C 
BRANCH   4   5
ATOM      5  C   UNL A   1      33.247  35.269  29.031  1.00  0.00     0.261 C 
BRANCH   5   6
ATOM      6  O   UNL A   1      32.671  34.961  30.317  1.00  0.00    -0.460 OA
BRANCH   6   7
ATOM      7  C   UNL A   1      33.056  35.359  31.556  1.00  0.00     0.338 C 
ATOM      8  O   UNL A   1      32.437  36.247  32.134  1.00  0.00    -0.246 OA
BRANCH   7   9
ATOM      9  C   UNL A   1      34.206  34.737  32.250  1.00  0.00     0.060 A 
ATOM     10  C   UNL A   1      35.457  35.327  32.288  1.00  0.00     0.016 A 
ATOM     11  C   UNL A   1      34.016  33.572  32.996  1.00  0.00     0.016 A 
ATOM     12  C   UNL A   1      36.561  34.673  32.779  1.00  0.00     0.010 A 
ATOM     13  C   UNL A   1      35.099  32.981  33.662  1.00  0.00     0.010 A 
ATOM     14  C   UNL A   1      36.391  33.499  33.494  1.00  0.00    -0.014 A 
BRANCH  14  15
ATOM     15  C   UNL A   1      37.618  32.805  33.926  1.00  0.00     0.031 A 
ATOM     16  C   UNL A   1      38.273  31.874  32.953  1.00  0.00     0.074 A 
ATOM     17  C   UNL A   1      38.222  33.169  35.075  1.00  0.00     0.049 A 
ATOM     18  N   UNL A   1      39.320  31.113  33.112  1.00  0.00    -0.248 NA
ATOM     19  C   UNL A   1      37.671  31.794  31.609  1.00  0.00     0.031 C 
ATOM     20  C   UNL A   1      37.726  34.190  36.010  1.00  0.00     0.029 A 
ATOM     21  N   UNL A   1      39.409  32.773  35.628  1.00  0.00    -0.354 N 
ATOM     22  C   UNL A   1      39.473  30.437  31.910  1.00  0.00     0.074 A 
ATOM     23  C   UNL A   1      38.408  30.860  31.032  1.00  0.00     0.031 C 
ATOM     24  C   UNL A   1      38.628  34.374  36.985  1.00  0.00     0.029 A 
ATOM     25  C   UNL A   1      39.701  33.406  36.813  1.00  0.00     0.049 A 
ATOM     26  H   UNL A   1      39.998  32.099  35.217  1.00  0.00     0.167 HD
ATOM     27  C   UNL A   1      40.429  29.541  31.579  1.00  0.00     0.037 A 
ATOM     28  C   UNL A   1      40.700  33.182  37.686  1.00  0.00     0.037 A 
ATOM     29  C   UNL A   1      41.482  29.160  32.476  1.00  0.00     0.049 A 
ATOM     30  C   UNL A   1      41.684  32.098  37.339  1.00  0.00     0.074 A 
ATOM     31  C   UNL A   1      42.456  28.195  32.314  1.00  0.00     0.029 A 
ATOM     32  N   UNL A   1      41.699  29.750  33.717  1.00  0.00    -0.354 N 
ATOM     33  N   UNL A   1      41.760  31.368  36.251  1.00  0.00    -0.248 NA
ATOM     34  C   UNL A   1      42.706  31.790  38.344  1.00  0.00     0.031 C 
ATOM     35  C   UNL A   1      43.238  28.174  33.476  1.00  0.00     0.029 A 
ATOM     36  C   UNL A   1      42.787  29.165  34.336  1.00  0.00     0.049 A 
ATOM     37  H   UNL A   1      41.156  30.479  34.097  1.00  0.00     0.167 HD
ATOM     38  C   UNL A   1      42.842  30.522  36.433  1.00  0.00     0.074 A 
ATOM     39  C   UNL A   1      43.413  30.857  37.723  1.00  0.00     0.031 C 
ATOM     40  C   UNL A   1      43.318  29.544  35.622  1.00  0.00     0.037 A 
BRANCH  27  41
ATOM     41  C   UNL A   1      40.315  28.885  30.236  1.00  0.00     0.064 A 
ATOM     42  C   UNL A   1      39.565  27.715  30.038  1.00  0.00     0.173 A 
ATOM     43  C   UNL A   1      41.007  29.412  29.135  1.00  0.00     0.173 A 
ATOM     44  F   UNL A   1      38.917  27.146  31.066  1.00  0.00    -0.203 F 
ATOM     45  C   UNL A   1      39.535  27.085  28.796  1.00  0.00     0.198 A 
ATOM     46  C   UNL A   1      40.951  28.797  27.888  1.00  0.00     0.198 A 
ATOM     47  F   UNL A   1      41.752  30.520  29.273  1.00  0.00    -0.203 F 
ATOM     48  F   UNL A   1      38.866  25.933  28.646  1.00  0.00    -0.200 F 
ATOM     49  C   UNL A   1      40.223  27.629  27.721  1.00  0.00     0.200 A 
ATOM     50  F   UNL A   1      41.617  29.324  26.852  1.00  0.00    -0.200 F 
ATOM     51  F   UNL A   1      40.198  27.018  26.529  1.00  0.00    -0.200 F 
ENDBRANCH  27  41
BRANCH  28  52
ATOM     52  C   UNL A   1      40.758  33.910  38.985  1.00  0.00     0.064 A 
ATOM     53  C   UNL A   1      40.026  33.484  40.102  1.00  0.00     0.173 A 
ATOM     54  C   UNL A   1      41.523  35.082  39.124  1.00  0.00     0.173 A 
ATOM     55  F   UNL A   1      39.265  32.383  40.024  1.00  0.00    -0.203 F 
ATOM     56  C   UNL A   1      40.029  34.216  41.290  1.00  0.00     0.198 A 
ATOM     57  C   UNL A   1      41.557  35.789  40.324  1.00  0.00     0.198 A 
ATOM     58  F   UNL A   1      42.245  35.541  38.092  1.00  0.00    -0.203 F 
ATOM     59  F   UNL A   1      39.267  33.822  42.319  1.00  0.00    -0.200 F 
ATOM     60  C   UNL A   1      40.799  35.365  41.402  1.00  0.00     0.200 A 
ATOM     61  F   UNL A   1      42.319  36.887  40.429  1.00  0.00    -0.200 F 
ATOM     62  F   UNL A   1      40.798  36.069  42.541  1.00  0.00    -0.200 F 
ENDBRANCH  28  52
BRANCH  40  63
ATOM     63  C   UNL A   1      44.530  28.808  36.106  1.00  0.00     0.064 A 
ATOM     64  C   UNL A   1      44.424  27.616  36.837  1.00  0.00     0.173 A 
ATOM     65  C   UNL A   1      45.812  29.294  35.813  1.00  0.00     0.173 A 
ATOM     66  F   UNL A   1      43.216  27.124  37.154  1.00  0.00    -0.203 F 
ATOM     67  C   UNL A   1      45.561  26.956  37.289  1.00  0.00     0.198 A 
ATOM     68  C   UNL A   1      46.947  28.610  36.234  1.00  0.00     0.198 A 
ATOM     69  F   UNL A   1      45.963  30.427  35.109  1.00  0.00    -0.203 F 
ATOM     70  F   UNL A   1      45.437  25.853  38.040  1.00  0.00    -0.200 F 
ATOM     71  C   UNL A   1      46.820  27.449  36.981  1.00  0.00     0.200 A 
ATOM     72  F   UNL A   1      48.163  29.079  35.921  1.00  0.00    -0.200 F 
ATOM     73  F   UNL A   1      47.914  26.808  37.414  1.00  0.00    -0.200 F 
ENDBRANCH  40  63
ENDBRANCH  14  15
ENDBRANCH   7   9
ENDBRANCH   6   7
ENDBRANCH   5   6
ENDBRANCH   4   5
ENDBRANCH   3   4
ENDBRANCH   2   3
ENDBRANCH   1   2
BRANCH   1  74
ATOM     74  O   UNL A   1      35.663  30.628  27.946  1.00  0.00    -0.377 OA
BRANCH  74  75
ATOM     75  C   UNL A   1      34.766  29.535  27.766  1.00  0.00     0.188 C 
BRANCH  75  76
ATOM     76  C   UNL A   1      34.106  29.357  26.387  1.00  0.00     0.188 C 
BRANCH  76  77
ATOM     77  O   UNL A   1      32.811  29.936  26.278  1.00  0.00    -0.376 OA
BRANCH  77  78
ATOM     78  C   UNL A   1      31.793  29.266  27.023  1.00  0.00     0.202 C 
BRANCH  78  79
ATOM     79  C   UNL A   1      32.000  27.762  27.294  1.00  0.00     0.261 C 
BRANCH  79  80
ATOM     80  O   UNL A   1      30.914  26.936  26.846  1.00  0.00    -0.463 OA
BRANCH  80  81
ATOM     81  C   UNL A   1      31.137  25.731  26.255  1.00  0.00     0.313 C 
ATOM     82  O   UNL A   1      31.362  24.697  26.857  1.00  0.00    -0.252 OA
BRANCH  81  83
ATOM     83  C   UNL A   1      30.821  25.839  24.751  1.00  0.00     0.128 C 
ATOM     84  C   UNL A   1      31.916  26.212  23.806  1.00  0.00    -0.010 C 
ATOM     85  C   UNL A   1      29.720  26.846  24.385  1.00  0.00     0.089 C 
ATOM     86  C   UNL A   1      31.609  27.289  23.067  1.00  0.00     0.033 C 
ATOM     87  C   UNL A   1      30.313  27.925  23.477  1.00  0.00     0.208 C 
BRANCH  87  88
ATOM     88  N   UNL A   1      29.495  28.463  22.381  1.00  0.00    -0.328 N 
ATOM     89  C   UNL A   1      29.918  29.812  21.964  1.00  0.00     0.275 C 
ATOM     90  C   UNL A   1      28.152  28.935  22.738  1.00  0.00     0.275 C 
ATOM     91  H   UNL A   1      29.559  27.674  21.739  1.00  0.00     0.348 HD
ATOM     92  C   UNL A   1      28.548  30.407  22.402  1.00  0.00     0.073 C 
ATOM     93  C   UNL A   1      27.653  31.008  21.306  1.00  0.00     0.047 C 
ATOM     94  C   UNL A   1      28.610  31.378  23.590  1.00  0.00     0.047 C 
ATOM     95  C   UNL A   1      28.090  32.434  20.988  1.00  0.00     0.161 C 
ATOM     96  C   UNL A   1      28.977  32.782  23.133  1.00  0.00     0.161 C 
ATOM     97  O   UNL A   1      28.043  33.244  22.164  1.00  0.00    -0.381 OA
ENDBRANCH  87  88
ENDBRANCH  81  83
ENDBRANCH  80  81
ENDBRANCH  79  80
ENDBRANCH  78  79
ENDBRANCH  77  78
ENDBRANCH  76  77
ENDBRANCH  75  76
ENDBRANCH  74  75
ENDBRANCH   1  74
TORSDOF 21
ENDMDL
MODEL 3
REMARK VINA RESULT:     -10.3      2.503      4.403
REMARK SMILES O=C(OCCOCCOCCOCCOC(=O)[C@@H]1C=C[C@@H]([NH+]2CC3(CCOCC3)C2)C1)c1ccc(-c2c3nc(c(-c4c(F)c(F)c(F)c(F)c4F)c4ccc([nH]4)c(-c4c(F)c(F)c(F)c(F)c4F)c4nc(c(-c5c(F)c(F)c(F)c(F)c5F)c5ccc2[nH]5)C=C4)C=C3)cc1
REMARK SMILES IDX 8 1 7 2 6 3 5 4 4 5 3 6 2 7 1 8 32 9 33 10 94 11 34 12 93 13
REMARK SMILES IDX 35 14 36 15 37 16 87 17 38 18 92 19 86 20 88 21 39 22 91 23
REMARK SMILES IDX 85 24 84 25 40 27 72 28 52 29 71 30 53 31 56 32 70 33 89 34
REMARK SMILES IDX 54 35 55 36 69 38 90 39 57 40 41 41 42 42 50 43 43 44 44 45
REMARK SMILES IDX 48 46 51 47 45 48 46 49 49 50 47 51 73 52 74 53 82 54 75 55
REMARK SMILES IDX 76 56 80 57 83 58 77 59 78 60 81 61 79 62 58 63 59 64 67 65
REMARK SMILES IDX 60 66 61 67 65 68 68 69 62 70 63 71 66 72 64 73 9 74 10 75
REMARK SMILES IDX 11 76 12 77 13 78 14 79 15 80 16 81 17 82 18 83 19 84 31 85
REMARK SMILES IDX 20 86 21 87 22 88 23 89 30 90 24 92 25 93 29 94 26 95 28 96
REMARK SMILES IDX 27 97
REMARK H PARENT 88 26 56 37 22 91
REMARK Flexibility Score: inf
ROOT
ATOM      1  C   UNL A   1      32.045  27.416  27.319  1.00  0.00     0.188 C 
ENDROOT
BRANCH   1   2
ATOM      2  C   UNL A   1      31.701  28.528  26.335  1.00  0.00     0.188 C 
BRANCH   2   3
ATOM      3  O   UNL A   1      31.912  29.787  26.953  1.00  0.00    -0.376 OA
BRANCH   3   4
ATOM      4  C   UNL A   1      31.771  30.970  26.186  1.00  0.00     0.202 C 
BRANCH   4   5
ATOM      5  C   UNL A   1      31.490  32.265  26.948  1.00  0.00     0.261 C 
BRANCH   5   6
ATOM      6  O   UNL A   1      32.587  33.199  27.032  1.00  0.00    -0.460 OA
BRANCH   6   7
ATOM      7  C   UNL A   1      33.284  33.619  28.117  1.00  0.00     0.338 C 
ATOM      8  O   UNL A   1      32.864  34.554  28.792  1.00  0.00    -0.246 OA
BRANCH   7   9
ATOM      9  C   UNL A   1      34.547  32.966  28.530  1.00  0.00     0.060 A 
ATOM     10  C   UNL A   1      34.633  31.609  28.786  1.00  0.00     0.016 A 
ATOM     11  C   UNL A   1      35.731  33.706  28.557  1.00  0.00     0.016 A 
ATOM     12  C   UNL A   1      35.754  31.036  29.335  1.00  0.00     0.010 A 
ATOM     13  C   UNL A   1      36.933  33.095  28.941  1.00  0.00     0.010 A 
ATOM     14  C   UNL A   1      36.928  31.769  29.398  1.00  0.00    -0.014 A 
BRANCH  14  15
ATOM     15  C   UNL A   1      38.073  31.127  30.068  1.00  0.00     0.031 A 
ATOM     16  C   UNL A   1      38.259  31.382  31.532  1.00  0.00     0.074 A 
ATOM     17  C   UNL A   1      38.786  30.185  29.417  1.00  0.00     0.049 A 
ATOM     18  N   UNL A   1      39.210  30.979  32.328  1.00  0.00    -0.248 NA
ATOM     19  C   UNL A   1      37.225  32.198  32.195  1.00  0.00     0.031 C 
ATOM     20  C   UNL A   1      38.565  29.761  28.027  1.00  0.00     0.029 A 
ATOM     21  N   UNL A   1      39.799  29.371  29.846  1.00  0.00    -0.354 N 
ATOM     22  C   UNL A   1      38.912  31.527  33.568  1.00  0.00     0.074 A 
ATOM     23  C   UNL A   1      37.703  32.303  33.423  1.00  0.00     0.031 C 
ATOM     24  C   UNL A   1      39.377  28.734  27.742  1.00  0.00     0.029 A 
ATOM     25  C   UNL A   1      40.255  28.506  28.880  1.00  0.00     0.049 A 
ATOM     26  H   UNL A   1      40.165  29.401  30.760  1.00  0.00     0.167 HD
ATOM     27  C   UNL A   1      39.598  31.385  34.724  1.00  0.00     0.037 A 
ATOM     28  C   UNL A   1      41.305  27.666  28.902  1.00  0.00     0.037 A 
ATOM     29  C   UNL A   1      40.788  30.589  34.829  1.00  0.00     0.049 A 
ATOM     30  C   UNL A   1      42.116  27.616  30.168  1.00  0.00     0.074 A 
ATOM     31  C   UNL A   1      41.639  30.434  35.904  1.00  0.00     0.029 A 
ATOM     32  N   UNL A   1      41.286  29.795  33.801  1.00  0.00    -0.354 N 
ATOM     33  N   UNL A   1      41.907  28.229  31.310  1.00  0.00    -0.248 NA
ATOM     34  C   UNL A   1      43.319  26.777  30.147  1.00  0.00     0.031 C 
ATOM     35  C   UNL A   1      42.676  29.579  35.513  1.00  0.00     0.029 A 
ATOM     36  C   UNL A   1      42.439  29.154  34.214  1.00  0.00     0.049 A 
ATOM     37  H   UNL A   1      40.877  29.703  32.909  1.00  0.00     0.167 HD
ATOM     38  C   UNL A   1      42.941  27.845  32.147  1.00  0.00     0.074 A 
ATOM     39  C   UNL A   1      43.757  26.914  31.390  1.00  0.00     0.031 C 
ATOM     40  C   UNL A   1      43.210  28.231  33.420  1.00  0.00     0.037 A 
BRANCH  27  41
ATOM     41  C   UNL A   1      39.108  32.160  35.910  1.00  0.00     0.064 A 
ATOM     42  C   UNL A   1      38.223  31.607  36.848  1.00  0.00     0.173 A 
ATOM     43  C   UNL A   1      39.496  33.497  36.084  1.00  0.00     0.173 A 
ATOM     44  F   UNL A   1      37.789  30.346  36.705  1.00  0.00    -0.203 F 
ATOM     45  C   UNL A   1      37.725  32.372  37.900  1.00  0.00     0.198 A 
ATOM     46  C   UNL A   1      39.020  34.250  37.153  1.00  0.00     0.198 A 
ATOM     47  F   UNL A   1      40.327  34.079  35.206  1.00  0.00    -0.203 F 
ATOM     48  F   UNL A   1      36.831  31.843  38.747  1.00  0.00    -0.200 F 
ATOM     49  C   UNL A   1      38.128  33.691  38.055  1.00  0.00     0.200 A 
ATOM     50  F   UNL A   1      39.410  35.524  37.300  1.00  0.00    -0.200 F 
ATOM     51  F   UNL A   1      37.644  34.427  39.065  1.00  0.00    -0.200 F 
ENDBRANCH  27  41
BRANCH  28  52
ATOM     52  C   UNL A   1      41.700  26.902  27.686  1.00  0.00     0.064 A 
ATOM     53  C   UNL A   1      41.304  25.572  27.490  1.00  0.00     0.173 A 
ATOM     54  C   UNL A   1      42.523  27.480  26.703  1.00  0.00     0.173 A 
ATOM     55  F   UNL A   1      40.532  24.962  28.401  1.00  0.00    -0.203 F 
ATOM     56  C   UNL A   1      41.741  24.843  26.383  1.00  0.00     0.198 A 
ATOM     57  C   UNL A   1      42.925  26.764  25.578  1.00  0.00     0.198 A 
ATOM     58  F   UNL A   1      42.937  28.749  26.833  1.00  0.00    -0.203 F 
ATOM     59  F   UNL A   1      41.401  23.553  26.257  1.00  0.00    -0.200 F 
ATOM     60  C   UNL A   1      42.548  25.441  25.425  1.00  0.00     0.200 A 
ATOM     61  F   UNL A   1      43.688  27.356  24.648  1.00  0.00    -0.200 F 
ATOM     62  F   UNL A   1      42.970  24.739  24.366  1.00  0.00    -0.200 F 
ENDBRANCH  28  52
BRANCH  40  63
ATOM     63  C   UNL A   1      44.413  27.612  34.064  1.00  0.00     0.064 A 
ATOM     64  C   UNL A   1      44.335  26.387  34.742  1.00  0.00     0.173 A 
ATOM     65  C   UNL A   1      45.661  28.245  33.979  1.00  0.00     0.173 A 
ATOM     66  F   UNL A   1      43.158  25.755  34.862  1.00  0.00    -0.203 F 
ATOM     67  C   UNL A   1      45.460  25.836  35.345  1.00  0.00     0.198 A 
ATOM     68  C   UNL A   1      46.791  27.672  34.550  1.00  0.00     0.198 A 
ATOM     69  F   UNL A   1      45.785  29.415  33.332  1.00  0.00    -0.203 F 
ATOM     70  F   UNL A   1      45.353  24.697  36.043  1.00  0.00    -0.200 F 
ATOM     71  C   UNL A   1      46.688  26.474  35.242  1.00  0.00     0.200 A 
ATOM     72  F   UNL A   1      47.979  28.281  34.436  1.00  0.00    -0.200 F 
ATOM     73  F   UNL A   1      47.771  25.939  35.820  1.00  0.00    -0.200 F 
ENDBRANCH  40  63
ENDBRANCH  14  15
ENDBRANCH   7   9
ENDBRANCH   6   7
ENDBRANCH   5   6
ENDBRANCH   4   5
ENDBRANCH   3   4
ENDBRANCH   2   3
ENDBRANCH   1   2
BRANCH   1  74
ATOM     74  O   UNL A   1      31.352  26.190  27.096  1.00  0.00    -0.377 OA
BRANCH  74  75
ATOM     75  C   UNL A   1      32.101  25.083  26.602  1.00  0.00     0.188 C 
BRANCH  75  76
ATOM     76  C   UNL A   1      31.552  23.667  26.848  1.00  0.00     0.188 C 
BRANCH  76  77
ATOM     77  O   UNL A   1      32.173  22.977  27.927  1.00  0.00    -0.376 OA
BRANCH  77  78
ATOM     78  C   UNL A   1      33.345  22.242  27.570  1.00  0.00     0.202 C 
BRANCH  78  79
ATOM     79  C   UNL A   1      33.245  21.326  26.333  1.00  0.00     0.261 C 
BRANCH  79  80
ATOM     80  O   UNL A   1      34.500  21.104  25.672  1.00  0.00    -0.463 OA
BRANCH  80  81
ATOM     81  C   UNL A   1      34.973  21.973  24.737  1.00  0.00     0.313 C 
ATOM     82  O   UNL A   1      36.103  21.955  24.286  1.00  0.00    -0.252 OA
BRANCH  81  83
ATOM     83  C   UNL A   1      33.801  22.804  24.181  1.00  0.00     0.128 C 
ATOM     84  C   UNL A   1      33.214  22.435  22.858  1.00  0.00    -0.010 C 
ATOM     85  C   UNL A   1      34.090  24.302  24.001  1.00  0.00     0.089 C 
ATOM     86  C   UNL A   1      33.222  23.459  21.992  1.00  0.00     0.033 C 
ATOM     87  C   UNL A   1      33.943  24.664  22.522  1.00  0.00     0.208 C 
BRANCH  87  88
ATOM     88  N   UNL A   1      33.360  25.964  22.160  1.00  0.00    -0.328 N 
ATOM     89  C   UNL A   1      32.645  26.599  23.281  1.00  0.00     0.275 C 
ATOM     90  C   UNL A   1      32.147  25.929  21.334  1.00  0.00     0.275 C 
ATOM     91  H   UNL A   1      34.190  26.398  21.756  1.00  0.00     0.348 HD
ATOM     92  C   UNL A   1      31.299  26.518  22.505  1.00  0.00     0.073 C 
ATOM     93  C   UNL A   1      30.623  27.844  22.117  1.00  0.00     0.047 C 
ATOM     94  C   UNL A   1      30.250  25.579  23.117  1.00  0.00     0.047 C 
ATOM     95  C   UNL A   1      29.829  28.398  23.293  1.00  0.00     0.161 C 
ATOM     96  C   UNL A   1      29.471  26.273  24.224  1.00  0.00     0.161 C 
ATOM     97  O   UNL A   1      28.849  27.452  23.724  1.00  0.00    -0.381 OA
ENDBRANCH  87  88
ENDBRANCH  81  83
ENDBRANCH  80  81
ENDBRANCH  79  80
ENDBRANCH  78  79
ENDBRANCH  77  78
ENDBRANCH  76  77
ENDBRANCH  75  76
ENDBRANCH  74  75
ENDBRANCH   1  74
TORSDOF 21
ENDMDL
