MODEL 1
REMARK VINA RESULT:      -9.5      0.000      0.000
REMARK SMILES O=C(OCCOCCOCCOCCOC(=O)[C@H]1C[C@H](O)CN1C(=O)CS[C@H]1CCS(=O)(=O)C1)c1ccc(-c2c3nc(c(-c4c(F)c(F)c(F)c(F)c4F)c4ccc([nH]4)c(-c4c(F)c(F)c(F)c(F)c4F)c4nc(c(-c5c(F)c(F)c(F)c(F)c5F)c5ccc2[nH]5)C=C4)C=C3)cc1
REMARK SMILES IDX 10 1 9 2 8 3 7 4 6 5 5 6 4 7 3 8 2 9 1 10 35 11 36 12 97 13
REMARK SMILES IDX 37 14 96 15 38 16 39 17 40 18 90 19 41 20 95 21 89 22 91 23
REMARK SMILES IDX 42 24 94 25 88 26 87 27 43 29 75 30 55 31 74 32 56 33 59 34
REMARK SMILES IDX 73 35 92 36 57 37 58 38 72 40 93 41 60 42 44 43 45 44 53 45
REMARK SMILES IDX 46 46 47 47 51 48 54 49 48 50 49 51 52 52 50 53 76 54 77 55
REMARK SMILES IDX 85 56 78 57 79 58 83 59 86 60 80 61 81 62 84 63 82 64 61 65
REMARK SMILES IDX 62 66 70 67 63 68 64 69 68 70 71 71 65 72 66 73 69 74 67 75
REMARK SMILES IDX 11 76 12 77 13 78 14 79 15 80 16 81 17 82 18 83 19 84 23 85
REMARK SMILES IDX 20 86 22 87 24 88 25 89 26 90 27 91 28 92 29 93 34 94 30 95
REMARK SMILES IDX 31 96 32 97 33 98 21 99
REMARK H PARENT 91 28 59 39 21 100
REMARK Flexibility Score: inf
ROOT
ATOM      1  C   UNL A   1      39.666  22.791  26.493  1.00  0.00     0.188 C 
ENDROOT
BRANCH   1   2
ATOM      2  O   UNL A   1      40.224  22.494  27.764  1.00  0.00    -0.377 OA
BRANCH   2   3
ATOM      3  C   UNL A   1      41.467  21.789  27.720  1.00  0.00     0.188 C 
BRANCH   3   4
ATOM      4  C   UNL A   1      41.376  20.257  27.607  1.00  0.00     0.188 C 
BRANCH   4   5
ATOM      5  O   UNL A   1      41.974  19.747  26.412  1.00  0.00    -0.376 OA
BRANCH   5   6
ATOM      6  C   UNL A   1      42.799  18.582  26.520  1.00  0.00     0.202 C 
BRANCH   6   7
ATOM      7  C   UNL A   1      43.394  18.080  25.213  1.00  0.00     0.261 C 
BRANCH   7   8
ATOM      8  O   UNL A   1      44.768  18.434  25.025  1.00  0.00    -0.460 OA
BRANCH   8   9
ATOM      9  C   UNL A   1      45.300  19.496  24.381  1.00  0.00     0.338 C 
ATOM     10  O   UNL A   1      46.006  19.273  23.397  1.00  0.00    -0.246 OA
BRANCH   9  11
ATOM     11  C   UNL A   1      45.085  20.928  24.753  1.00  0.00     0.060 A 
ATOM     12  C   UNL A   1      44.757  21.974  23.888  1.00  0.00     0.016 A 
ATOM     13  C   UNL A   1      45.155  21.219  26.126  1.00  0.00     0.016 A 
ATOM     14  C   UNL A   1      44.529  23.261  24.341  1.00  0.00     0.010 A 
ATOM     15  C   UNL A   1      44.955  22.514  26.599  1.00  0.00     0.010 A 
ATOM     16  C   UNL A   1      44.677  23.539  25.690  1.00  0.00    -0.014 A 
BRANCH  16  17
ATOM     17  C   UNL A   1      44.838  24.947  26.059  1.00  0.00     0.031 A 
ATOM     18  C   UNL A   1      46.176  25.555  25.788  1.00  0.00     0.074 A 
ATOM     19  C   UNL A   1      43.782  25.668  26.461  1.00  0.00     0.049 A 
ATOM     20  N   UNL A   1      46.651  26.716  26.140  1.00  0.00    -0.248 NA
ATOM     21  C   UNL A   1      47.111  24.735  24.996  1.00  0.00     0.031 C 
ATOM     22  C   UNL A   1      42.406  25.175  26.545  1.00  0.00     0.029 A 
ATOM     23  N   UNL A   1      43.701  26.971  26.857  1.00  0.00    -0.354 N 
ATOM     24  C   UNL A   1      47.955  26.737  25.665  1.00  0.00     0.074 A 
ATOM     25  C   UNL A   1      48.199  25.486  24.991  1.00  0.00     0.031 C 
ATOM     26  C   UNL A   1      41.616  26.167  26.986  1.00  0.00     0.029 A 
ATOM     27  C   UNL A   1      42.450  27.324  27.292  1.00  0.00     0.049 A 
ATOM     28  H   UNL A   1      44.463  27.595  26.832  1.00  0.00     0.167 HD
ATOM     29  C   UNL A   1      48.865  27.724  25.814  1.00  0.00     0.037 A 
ATOM     30  C   UNL A   1      42.061  28.442  27.931  1.00  0.00     0.037 A 
ATOM     31  C   UNL A   1      48.556  28.948  26.499  1.00  0.00     0.049 A 
ATOM     32  C   UNL A   1      43.116  29.484  28.196  1.00  0.00     0.074 A 
ATOM     33  C   UNL A   1      49.380  30.012  26.799  1.00  0.00     0.029 A 
ATOM     34  N   UNL A   1      47.292  29.258  26.994  1.00  0.00    -0.354 N 
ATOM     35  N   UNL A   1      44.386  29.477  27.859  1.00  0.00    -0.248 NA
ATOM     36  C   UNL A   1      42.698  30.675  28.941  1.00  0.00     0.031 C 
ATOM     37  C   UNL A   1      48.629  30.939  27.531  1.00  0.00     0.029 A 
ATOM     38  C   UNL A   1      47.317  30.489  27.619  1.00  0.00     0.049 A 
ATOM     39  H   UNL A   1      46.497  28.684  26.912  1.00  0.00     0.167 HD
ATOM     40  C   UNL A   1      44.916  30.672  28.320  1.00  0.00     0.074 A 
ATOM     41  C   UNL A   1      43.822  31.379  28.963  1.00  0.00     0.031 C 
ATOM     42  C   UNL A   1      46.183  31.149  28.224  1.00  0.00     0.037 A 
BRANCH  29  43
ATOM     43  C   UNL A   1      50.260  27.442  25.336  1.00  0.00     0.064 A 
ATOM     44  C   UNL A   1      50.626  27.522  23.984  1.00  0.00     0.173 A 
ATOM     45  C   UNL A   1      51.229  26.990  26.247  1.00  0.00     0.173 A 
ATOM     46  F   UNL A   1      49.731  27.910  23.063  1.00  0.00    -0.203 F 
ATOM     47  C   UNL A   1      51.890  27.116  23.556  1.00  0.00     0.198 A 
ATOM     48  C   UNL A   1      52.501  26.620  25.822  1.00  0.00     0.198 A 
ATOM     49  F   UNL A   1      50.932  26.880  27.552  1.00  0.00    -0.203 F 
ATOM     50  F   UNL A   1      52.185  27.117  22.248  1.00  0.00    -0.200 F 
ATOM     51  C   UNL A   1      52.826  26.667  24.475  1.00  0.00     0.200 A 
ATOM     52  F   UNL A   1      53.404  26.189  26.713  1.00  0.00    -0.200 F 
ATOM     53  F   UNL A   1      54.033  26.260  24.060  1.00  0.00    -0.200 F 
ENDBRANCH  29  43
BRANCH  30  54
ATOM     54  C   UNL A   1      40.659  28.579  28.404  1.00  0.00     0.064 A 
ATOM     55  C   UNL A   1      40.303  28.285  29.726  1.00  0.00     0.173 A 
ATOM     56  C   UNL A   1      39.646  29.039  27.547  1.00  0.00     0.173 A 
ATOM     57  F   UNL A   1      41.228  27.828  30.583  1.00  0.00    -0.203 F 
ATOM     58  C   UNL A   1      38.990  28.438  30.171  1.00  0.00     0.198 A 
ATOM     59  C   UNL A   1      38.340  29.222  28.000  1.00  0.00     0.198 A 
ATOM     60  F   UNL A   1      39.928  29.338  26.270  1.00  0.00    -0.203 F 
ATOM     61  F   UNL A   1      38.671  28.120  31.432  1.00  0.00    -0.200 F 
ATOM     62  C   UNL A   1      38.012  28.915  29.310  1.00  0.00     0.200 A 
ATOM     63  F   UNL A   1      37.405  29.701  27.168  1.00  0.00    -0.200 F 
ATOM     64  F   UNL A   1      36.754  29.075  29.743  1.00  0.00    -0.200 F 
ENDBRANCH  30  54
BRANCH  42  65
ATOM     65  C   UNL A   1      46.430  32.523  28.765  1.00  0.00     0.064 A 
ATOM     66  C   UNL A   1      46.235  33.671  27.986  1.00  0.00     0.173 A 
ATOM     67  C   UNL A   1      46.782  32.685  30.114  1.00  0.00     0.173 A 
ATOM     68  F   UNL A   1      45.910  33.562  26.689  1.00  0.00    -0.203 F 
ATOM     69  C   UNL A   1      46.400  34.938  28.537  1.00  0.00     0.198 A 
ATOM     70  C   UNL A   1      46.910  33.952  30.669  1.00  0.00     0.198 A 
ATOM     71  F   UNL A   1      46.969  31.613  30.898  1.00  0.00    -0.203 F 
ATOM     72  F   UNL A   1      46.248  36.024  27.768  1.00  0.00    -0.200 F 
ATOM     73  C   UNL A   1      46.724  35.076  29.880  1.00  0.00     0.200 A 
ATOM     74  F   UNL A   1      47.203  34.084  31.970  1.00  0.00    -0.200 F 
ATOM     75  F   UNL A   1      46.860  36.298  30.413  1.00  0.00    -0.200 F 
ENDBRANCH  42  65
ENDBRANCH  16  17
ENDBRANCH   9  11
ENDBRANCH   8   9
ENDBRANCH   7   8
ENDBRANCH   6   7
ENDBRANCH   5   6
ENDBRANCH   4   5
ENDBRANCH   3   4
ENDBRANCH   2   3
ENDBRANCH   1   2
BRANCH   1  76
ATOM     76  C   UNL A   1      38.798  21.705  25.802  1.00  0.00     0.188 C 
BRANCH  76  77
ATOM     77  O   UNL A   1      37.467  22.122  25.506  1.00  0.00    -0.376 OA
BRANCH  77  78
ATOM     78  C   UNL A   1      36.966  21.788  24.213  1.00  0.00     0.202 C 
BRANCH  78  79
ATOM     79  C   UNL A   1      36.518  22.943  23.295  1.00  0.00     0.261 C 
BRANCH  79  80
ATOM     80  O   UNL A   1      35.530  23.803  23.877  1.00  0.00    -0.462 OA
BRANCH  80  81
ATOM     81  C   UNL A   1      34.248  23.678  23.452  1.00  0.00     0.329 C 
ATOM     82  O   UNL A   1      33.764  22.667  22.959  1.00  0.00    -0.250 OA
BRANCH  81  83
ATOM     83  C   UNL A   1      33.473  24.960  23.795  1.00  0.00     0.197 C 
ATOM     84  C   UNL A   1      34.148  26.240  23.381  1.00  0.00     0.070 C 
ATOM     85  N   UNL A   1      32.169  24.986  23.166  1.00  0.00    -0.325 N 
ATOM     86  C   UNL A   1      33.653  26.412  21.952  1.00  0.00     0.136 C 
ATOM     87  C   UNL A   1      32.272  25.716  21.911  1.00  0.00     0.152 C 
BRANCH  85  88
ATOM     88  C   UNL A   1      31.113  24.347  23.787  1.00  0.00     0.233 C 
ATOM     89  O   UNL A   1      30.290  23.702  23.127  1.00  0.00    -0.274 OA
BRANCH  88  90
ATOM     90  C   UNL A   1      30.979  24.408  25.294  1.00  0.00     0.169 C 
BRANCH  90  91
ATOM     91  S   UNL A   1      29.736  25.658  25.817  1.00  0.00    -0.148 SA
BRANCH  91  92
ATOM     92  C   UNL A   1      30.834  27.076  26.023  1.00  0.00     0.063 C 
ATOM     93  C   UNL A   1      32.247  26.737  26.494  1.00  0.00     0.031 C 
ATOM     94  C   UNL A   1      31.025  27.898  24.756  1.00  0.00     0.151 C 
ATOM     95  C   UNL A   1      32.947  28.098  26.586  1.00  0.00     0.138 C 
ATOM     96  S   UNL A   1      32.237  29.096  25.274  1.00  0.00     0.151 S 
ATOM     97  O   UNL A   1      31.520  30.208  25.865  1.00  0.00    -0.229 OA
ATOM     98  O   UNL A   1      33.211  29.271  24.215  1.00  0.00    -0.229 OA
ENDBRANCH  91  92
ENDBRANCH  90  91
ENDBRANCH  88  90
ENDBRANCH  85  88
BRANCH  86  99
ATOM     99  O   UNL A   1      33.572  27.791  21.627  1.00  0.00    -0.391 OA
ATOM    100  H   UNL A   1      34.251  28.280  22.118  1.00  0.00     0.211 HD
ENDBRANCH  86  99
ENDBRANCH  81  83
ENDBRANCH  80  81
ENDBRANCH  79  80
ENDBRANCH  78  79
ENDBRANCH  77  78
ENDBRANCH  76  77
ENDBRANCH   1  76
TORSDOF 25
ENDMDL
MODEL 2
REMARK VINA RESULT:      -9.4      1.566      7.310
REMARK SMILES O=C(OCCOCCOCCOCCOC(=O)[C@H]1C[C@H](O)CN1C(=O)CS[C@H]1CCS(=O)(=O)C1)c1ccc(-c2c3nc(c(-c4c(F)c(F)c(F)c(F)c4F)c4ccc([nH]4)c(-c4c(F)c(F)c(F)c(F)c4F)c4nc(c(-c5c(F)c(F)c(F)c(F)c5F)c5ccc2[nH]5)C=C4)C=C3)cc1
REMARK SMILES IDX 10 1 9 2 8 3 7 4 6 5 5 6 4 7 3 8 2 9 1 10 35 11 36 12 97 13
REMARK SMILES IDX 37 14 96 15 38 16 39 17 40 18 90 19 41 20 95 21 89 22 91 23
REMARK SMILES IDX 42 24 94 25 88 26 87 27 43 29 75 30 55 31 74 32 56 33 59 34
REMARK SMILES IDX 73 35 92 36 57 37 58 38 72 40 93 41 60 42 44 43 45 44 53 45
REMARK SMILES IDX 46 46 47 47 51 48 54 49 48 50 49 51 52 52 50 53 76 54 77 55
REMARK SMILES IDX 85 56 78 57 79 58 83 59 86 60 80 61 81 62 84 63 82 64 61 65
REMARK SMILES IDX 62 66 70 67 63 68 64 69 68 70 71 71 65 72 66 73 69 74 67 75
REMARK SMILES IDX 11 76 12 77 13 78 14 79 15 80 16 81 17 82 18 83 19 84 23 85
REMARK SMILES IDX 20 86 22 87 24 88 25 89 26 90 27 91 28 92 29 93 34 94 30 95
REMARK SMILES IDX 31 96 32 97 33 98 21 99
REMARK H PARENT 91 28 59 39 21 100
REMARK Flexibility Score: inf
ROOT
ATOM      1  C   UNL A   1      40.019  22.928  26.483  1.00  0.00     0.188 C 
ENDROOT
BRANCH   1   2
ATOM      2  O   UNL A   1      40.546  22.630  27.767  1.00  0.00    -0.377 OA
BRANCH   2   3
ATOM      3  C   UNL A   1      41.592  21.654  27.771  1.00  0.00     0.188 C 
BRANCH   3   4
ATOM      4  C   UNL A   1      41.174  20.209  27.454  1.00  0.00     0.188 C 
BRANCH   4   5
ATOM      5  O   UNL A   1      41.874  19.654  26.336  1.00  0.00    -0.376 OA
BRANCH   5   6
ATOM      6  C   UNL A   1      42.845  18.635  26.592  1.00  0.00     0.202 C 
BRANCH   6   7
ATOM      7  C   UNL A   1      43.547  18.078  25.363  1.00  0.00     0.261 C 
BRANCH   7   8
ATOM      8  O   UNL A   1      44.636  18.883  24.899  1.00  0.00    -0.460 OA
BRANCH   8   9
ATOM      9  C   UNL A   1      44.613  20.013  24.159  1.00  0.00     0.338 C 
ATOM     10  O   UNL A   1      44.562  19.895  22.934  1.00  0.00    -0.246 OA
BRANCH   9  11
ATOM     11  C   UNL A   1      44.624  21.405  24.707  1.00  0.00     0.060 A 
ATOM     12  C   UNL A   1      44.246  22.568  24.035  1.00  0.00     0.016 A 
ATOM     13  C   UNL A   1      44.986  21.524  26.060  1.00  0.00     0.016 A 
ATOM     14  C   UNL A   1      44.244  23.808  24.650  1.00  0.00     0.010 A 
ATOM     15  C   UNL A   1      45.016  22.767  26.689  1.00  0.00     0.010 A 
ATOM     16  C   UNL A   1      44.676  23.911  25.962  1.00  0.00    -0.014 A 
BRANCH  16  17
ATOM     17  C   UNL A   1      45.050  25.248  26.429  1.00  0.00     0.031 A 
ATOM     18  C   UNL A   1      43.985  26.029  27.127  1.00  0.00     0.074 A 
ATOM     19  C   UNL A   1      46.325  25.656  26.367  1.00  0.00     0.049 A 
ATOM     20  N   UNL A   1      43.978  27.275  27.508  1.00  0.00    -0.248 NA
ATOM     21  C   UNL A   1      42.748  25.293  27.449  1.00  0.00     0.031 C 
ATOM     22  C   UNL A   1      47.448  24.850  25.883  1.00  0.00     0.029 A 
ATOM     23  N   UNL A   1      46.892  26.844  26.728  1.00  0.00    -0.354 N 
ATOM     24  C   UNL A   1      42.720  27.483  28.057  1.00  0.00     0.074 A 
ATOM     25  C   UNL A   1      41.992  26.241  27.974  1.00  0.00     0.031 C 
ATOM     26  C   UNL A   1      48.572  25.578  25.962  1.00  0.00     0.029 A 
ATOM     27  C   UNL A   1      48.225  26.920  26.419  1.00  0.00     0.049 A 
ATOM     28  H   UNL A   1      46.393  27.572  27.166  1.00  0.00     0.167 HD
ATOM     29  C   UNL A   1      42.227  28.635  28.562  1.00  0.00     0.037 A 
ATOM     30  C   UNL A   1      49.039  27.991  26.444  1.00  0.00     0.037 A 
ATOM     31  C   UNL A   1      43.009  29.839  28.615  1.00  0.00     0.049 A 
ATOM     32  C   UNL A   1      48.441  29.297  26.896  1.00  0.00     0.074 A 
ATOM     33  C   UNL A   1      42.638  31.103  29.024  1.00  0.00     0.029 A 
ATOM     34  N   UNL A   1      44.345  29.911  28.230  1.00  0.00    -0.354 N 
ATOM     35  N   UNL A   1      47.220  29.546  27.312  1.00  0.00    -0.248 NA
ATOM     36  C   UNL A   1      49.318  30.471  26.869  1.00  0.00     0.031 C 
ATOM     37  C   UNL A   1      43.733  31.952  28.830  1.00  0.00     0.029 A 
ATOM     38  C   UNL A   1      44.811  31.203  28.373  1.00  0.00     0.049 A 
ATOM     39  H   UNL A   1      44.880  29.151  27.904  1.00  0.00     0.167 HD
ATOM     40  C   UNL A   1      47.185  30.896  27.626  1.00  0.00     0.074 A 
ATOM     41  C   UNL A   1      48.516  31.411  27.351  1.00  0.00     0.031 C 
ATOM     42  C   UNL A   1      46.158  31.646  28.099  1.00  0.00     0.037 A 
BRANCH  29  43
ATOM     43  C   UNL A   1      40.780  28.640  28.960  1.00  0.00     0.064 A 
ATOM     44  C   UNL A   1      39.749  28.940  28.057  1.00  0.00     0.173 A 
ATOM     45  C   UNL A   1      40.428  28.427  30.302  1.00  0.00     0.173 A 
ATOM     46  F   UNL A   1      40.029  29.191  26.769  1.00  0.00    -0.203 F 
ATOM     47  C   UNL A   1      38.430  29.077  28.490  1.00  0.00     0.198 A 
ATOM     48  C   UNL A   1      39.106  28.527  30.726  1.00  0.00     0.198 A 
ATOM     49  F   UNL A   1      41.373  28.149  31.214  1.00  0.00    -0.203 F 
ATOM     50  F   UNL A   1      37.477  29.453  27.626  1.00  0.00    -0.200 F 
ATOM     51  C   UNL A   1      38.110  28.868  29.824  1.00  0.00     0.200 A 
ATOM     52  F   UNL A   1      38.800  28.323  32.014  1.00  0.00    -0.200 F 
ATOM     53  F   UNL A   1      36.846  29.016  30.242  1.00  0.00    -0.200 F 
ENDBRANCH  29  43
BRANCH  30  54
ATOM     54  C   UNL A   1      50.442  27.869  25.971  1.00  0.00     0.064 A 
ATOM     55  C   UNL A   1      51.510  27.776  26.871  1.00  0.00     0.173 A 
ATOM     56  C   UNL A   1      50.744  27.814  24.600  1.00  0.00     0.173 A 
ATOM     57  F   UNL A   1      51.281  27.839  28.191  1.00  0.00    -0.203 F 
ATOM     58  C   UNL A   1      52.824  27.638  26.422  1.00  0.00     0.198 A 
ATOM     59  C   UNL A   1      52.053  27.645  24.152  1.00  0.00     0.198 A 
ATOM     60  F   UNL A   1      49.761  27.897  23.690  1.00  0.00    -0.203 F 
ATOM     61  F   UNL A   1      53.829  27.582  27.305  1.00  0.00    -0.200 F 
ATOM     62  C   UNL A   1      53.092  27.564  25.062  1.00  0.00     0.200 A 
ATOM     63  F   UNL A   1      52.302  27.556  22.837  1.00  0.00    -0.200 F 
ATOM     64  F   UNL A   1      54.353  27.418  24.632  1.00  0.00    -0.200 F 
ENDBRANCH  30  54
BRANCH  42  65
ATOM     65  C   UNL A   1      46.458  33.080  28.413  1.00  0.00     0.064 A 
ATOM     66  C   UNL A   1      46.843  33.492  29.695  1.00  0.00     0.173 A 
ATOM     67  C   UNL A   1      46.441  34.033  27.384  1.00  0.00     0.173 A 
ATOM     68  F   UNL A   1      46.860  32.615  30.711  1.00  0.00    -0.203 F 
ATOM     69  C   UNL A   1      47.187  34.817  29.940  1.00  0.00     0.198 A 
ATOM     70  C   UNL A   1      46.820  35.348  27.625  1.00  0.00     0.198 A 
ATOM     71  F   UNL A   1      46.087  33.680  26.139  1.00  0.00    -0.203 F 
ATOM     72  F   UNL A   1      47.516  35.203  31.180  1.00  0.00    -0.200 F 
ATOM     73  C   UNL A   1      47.188  35.740  28.902  1.00  0.00     0.200 A 
ATOM     74  F   UNL A   1      46.841  36.232  26.618  1.00  0.00    -0.200 F 
ATOM     75  F   UNL A   1      47.543  37.011  29.137  1.00  0.00    -0.200 F 
ENDBRANCH  42  65
ENDBRANCH  16  17
ENDBRANCH   9  11
ENDBRANCH   8   9
ENDBRANCH   7   8
ENDBRANCH   6   7
ENDBRANCH   5   6
ENDBRANCH   4   5
ENDBRANCH   3   4
ENDBRANCH   2   3
ENDBRANCH   1   2
BRANCH   1  76
ATOM     76  C   UNL A   1      38.559  22.502  26.173  1.00  0.00     0.188 C 
BRANCH  76  77
ATOM     77  O   UNL A   1      37.685  23.589  25.876  1.00  0.00    -0.376 OA
BRANCH  77  78
ATOM     78  C   UNL A   1      36.293  23.366  26.093  1.00  0.00     0.202 C 
BRANCH  78  79
ATOM     79  C   UNL A   1      35.356  23.425  24.869  1.00  0.00     0.261 C 
BRANCH  79  80
ATOM     80  O   UNL A   1      34.794  24.721  24.625  1.00  0.00    -0.462 OA
BRANCH  80  81
ATOM     81  C   UNL A   1      33.444  24.826  24.551  1.00  0.00     0.329 C 
ATOM     82  O   UNL A   1      32.648  24.093  25.122  1.00  0.00    -0.250 OA
BRANCH  81  83
ATOM     83  C   UNL A   1      33.077  26.078  23.739  1.00  0.00     0.197 C 
ATOM     84  C   UNL A   1      33.765  26.193  22.404  1.00  0.00     0.070 C 
ATOM     85  N   UNL A   1      31.659  26.138  23.452  1.00  0.00    -0.325 N 
ATOM     86  C   UNL A   1      32.824  25.417  21.494  1.00  0.00     0.136 C 
ATOM     87  C   UNL A   1      31.425  25.556  22.139  1.00  0.00     0.152 C 
BRANCH  85  88
ATOM     88  C   UNL A   1      30.807  26.673  24.398  1.00  0.00     0.233 C 
ATOM     89  O   UNL A   1      29.651  26.247  24.519  1.00  0.00    -0.274 OA
BRANCH  88  90
ATOM     90  C   UNL A   1      31.300  27.767  25.322  1.00  0.00     0.169 C 
BRANCH  90  91
ATOM     91  S   UNL A   1      31.652  29.322  24.406  1.00  0.00    -0.148 SA
BRANCH  91  92
ATOM     92  C   UNL A   1      29.974  29.718  23.871  1.00  0.00     0.063 C 
ATOM     93  C   UNL A   1      29.592  31.194  23.977  1.00  0.00     0.031 C 
ATOM     94  C   UNL A   1      29.680  29.336  22.427  1.00  0.00     0.151 C 
ATOM     95  C   UNL A   1      28.145  31.243  23.472  1.00  0.00     0.138 C 
ATOM     96  S   UNL A   1      28.033  29.976  22.205  1.00  0.00     0.151 S 
ATOM     97  O   UNL A   1      27.108  28.951  22.645  1.00  0.00    -0.229 OA
ATOM     98  O   UNL A   1      27.941  30.601  20.900  1.00  0.00    -0.229 OA
ENDBRANCH  91  92
ENDBRANCH  90  91
ENDBRANCH  88  90
ENDBRANCH  85  88
BRANCH  86  99
ATOM     99  O   UNL A   1      32.868  25.950  20.179  1.00  0.00    -0.391 OA
ATOM    100  H   UNL A   1      33.093  26.893  20.219  1.00  0.00     0.211 HD
ENDBRANCH  86  99
ENDBRANCH  81  83
ENDBRANCH  80  81
ENDBRANCH  79  80
ENDBRANCH  78  79
ENDBRANCH  77  78
ENDBRANCH  76  77
ENDBRANCH   1  76
TORSDOF 25
ENDMDL
MODEL 3
REMARK VINA RESULT:      -9.4      4.841      9.521
REMARK SMILES O=C(OCCOCCOCCOCCOC(=O)[C@H]1C[C@H](O)CN1C(=O)CS[C@H]1CCS(=O)(=O)C1)c1ccc(-c2c3nc(c(-c4c(F)c(F)c(F)c(F)c4F)c4ccc([nH]4)c(-c4c(F)c(F)c(F)c(F)c4F)c4nc(c(-c5c(F)c(F)c(F)c(F)c5F)c5ccc2[nH]5)C=C4)C=C3)cc1
REMARK SMILES IDX 10 1 9 2 8 3 7 4 6 5 5 6 4 7 3 8 2 9 1 10 35 11 36 12 97 13
REMARK SMILES IDX 37 14 96 15 38 16 39 17 40 18 90 19 41 20 95 21 89 22 91 23
REMARK SMILES IDX 42 24 94 25 88 26 87 27 43 29 75 30 55 31 74 32 56 33 59 34
REMARK SMILES IDX 73 35 92 36 57 37 58 38 72 40 93 41 60 42 44 43 45 44 53 45
REMARK SMILES IDX 46 46 47 47 51 48 54 49 48 50 49 51 52 52 50 53 76 54 77 55
REMARK SMILES IDX 85 56 78 57 79 58 83 59 86 60 80 61 81 62 84 63 82 64 61 65
REMARK SMILES IDX 62 66 70 67 63 68 64 69 68 70 71 71 65 72 66 73 69 74 67 75
REMARK SMILES IDX 11 76 12 77 13 78 14 79 15 80 16 81 17 82 18 83 19 84 23 85
REMARK SMILES IDX 20 86 22 87 24 88 25 89 26 90 27 91 28 92 29 93 34 94 30 95
REMARK SMILES IDX 31 96 32 97 33 98 21 99
REMARK H PARENT 91 28 59 39 21 100
REMARK Flexibility Score: inf
ROOT
ATOM      1  C   UNL A   1      41.086  21.793  27.861  1.00  0.00     0.188 C 
ENDROOT
BRANCH   1   2
ATOM      2  O   UNL A   1      42.472  21.533  28.030  1.00  0.00    -0.377 OA
BRANCH   2   3
ATOM      3  C   UNL A   1      43.224  22.628  28.558  1.00  0.00     0.188 C 
BRANCH   3   4
ATOM      4  C   UNL A   1      44.357  23.166  27.667  1.00  0.00     0.188 C 
BRANCH   4   5
ATOM      5  O   UNL A   1      44.248  22.744  26.305  1.00  0.00    -0.376 OA
BRANCH   5   6
ATOM      6  C   UNL A   1      45.412  22.836  25.478  1.00  0.00     0.202 C 
BRANCH   6   7
ATOM      7  C   UNL A   1      46.138  24.172  25.519  1.00  0.00     0.261 C 
BRANCH   7   8
ATOM      8  O   UNL A   1      45.474  25.218  24.803  1.00  0.00    -0.460 OA
BRANCH   8   9
ATOM      9  C   UNL A   1      45.430  26.543  25.063  1.00  0.00     0.338 C 
ATOM     10  O   UNL A   1      46.115  27.288  24.361  1.00  0.00    -0.246 OA
BRANCH   9  11
ATOM     11  C   UNL A   1      44.597  27.187  26.126  1.00  0.00     0.060 A 
ATOM     12  C   UNL A   1      44.634  28.527  26.515  1.00  0.00     0.016 A 
ATOM     13  C   UNL A   1      43.636  26.360  26.731  1.00  0.00     0.016 A 
ATOM     14  C   UNL A   1      43.783  29.038  27.479  1.00  0.00     0.010 A 
ATOM     15  C   UNL A   1      42.788  26.850  27.723  1.00  0.00     0.010 A 
ATOM     16  C   UNL A   1      42.894  28.187  28.116  1.00  0.00    -0.014 A 
BRANCH  16  17
ATOM     17  C   UNL A   1      42.325  28.656  29.381  1.00  0.00     0.031 A 
ATOM     18  C   UNL A   1      40.944  29.222  29.318  1.00  0.00     0.074 A 
ATOM     19  C   UNL A   1      42.963  28.426  30.538  1.00  0.00     0.049 A 
ATOM     20  N   UNL A   1      40.254  29.842  30.233  1.00  0.00    -0.248 NA
ATOM     21  C   UNL A   1      40.234  29.057  28.035  1.00  0.00     0.031 C 
ATOM     22  C   UNL A   1      44.220  27.690  30.677  1.00  0.00     0.029 A 
ATOM     23  N   UNL A   1      42.630  28.775  31.815  1.00  0.00    -0.354 N 
ATOM     24  C   UNL A   1      39.060  30.191  29.618  1.00  0.00     0.074 A 
ATOM     25  C   UNL A   1      39.107  29.708  28.260  1.00  0.00     0.031 C 
ATOM     26  C   UNL A   1      44.563  27.658  31.975  1.00  0.00     0.029 A 
ATOM     27  C   UNL A   1      43.593  28.443  32.731  1.00  0.00     0.049 A 
ATOM     28  H   UNL A   1      41.784  29.219  32.053  1.00  0.00     0.167 HD
ATOM     29  C   UNL A   1      38.032  30.881  30.157  1.00  0.00     0.037 A 
ATOM     30  C   UNL A   1      43.694  28.808  34.022  1.00  0.00     0.037 A 
ATOM     31  C   UNL A   1      38.050  31.334  31.520  1.00  0.00     0.049 A 
ATOM     32  C   UNL A   1      42.597  29.678  34.577  1.00  0.00     0.074 A 
ATOM     33  C   UNL A   1      37.127  32.104  32.196  1.00  0.00     0.029 A 
ATOM     34  N   UNL A   1      39.074  31.042  32.417  1.00  0.00    -0.354 N 
ATOM     35  N   UNL A   1      41.512  30.119  33.982  1.00  0.00    -0.248 NA
ATOM     36  C   UNL A   1      42.740  30.117  35.968  1.00  0.00     0.031 C 
ATOM     37  C   UNL A   1      37.624  32.329  33.485  1.00  0.00     0.029 A 
ATOM     38  C   UNL A   1      38.818  31.636  33.638  1.00  0.00     0.049 A 
ATOM     39  H   UNL A   1      39.866  30.494  32.212  1.00  0.00     0.167 HD
ATOM     40  C   UNL A   1      40.825  30.862  34.928  1.00  0.00     0.074 A 
ATOM     41  C   UNL A   1      41.621  30.809  36.142  1.00  0.00     0.031 C 
ATOM     42  C   UNL A   1      39.646  31.525  34.817  1.00  0.00     0.037 A 
BRANCH  29  43
ATOM     43  C   UNL A   1      36.910  31.263  29.236  1.00  0.00     0.064 A 
ATOM     44  C   UNL A   1      36.738  32.570  28.755  1.00  0.00     0.173 A 
ATOM     45  C   UNL A   1      35.932  30.313  28.900  1.00  0.00     0.173 A 
ATOM     46  F   UNL A   1      37.620  33.530  29.075  1.00  0.00    -0.203 F 
ATOM     47  C   UNL A   1      35.608  32.923  28.019  1.00  0.00     0.198 A 
ATOM     48  C   UNL A   1      34.823  30.659  28.134  1.00  0.00     0.198 A 
ATOM     49  F   UNL A   1      36.036  29.050  29.341  1.00  0.00    -0.203 F 
ATOM     50  F   UNL A   1      35.422  34.198  27.649  1.00  0.00    -0.200 F 
ATOM     51  C   UNL A   1      34.653  31.967  27.707  1.00  0.00     0.200 A 
ATOM     52  F   UNL A   1      33.904  29.733  27.832  1.00  0.00    -0.200 F 
ATOM     53  F   UNL A   1      33.559  32.311  27.015  1.00  0.00    -0.200 F 
ENDBRANCH  29  43
BRANCH  30  54
ATOM     54  C   UNL A   1      44.885  28.410  34.817  1.00  0.00     0.064 A 
ATOM     55  C   UNL A   1      44.914  27.210  35.537  1.00  0.00     0.173 A 
ATOM     56  C   UNL A   1      46.037  29.213  34.849  1.00  0.00     0.173 A 
ATOM     57  F   UNL A   1      43.836  26.412  35.553  1.00  0.00    -0.203 F 
ATOM     58  C   UNL A   1      46.044  26.830  36.262  1.00  0.00     0.198 A 
ATOM     59  C   UNL A   1      47.176  28.819  35.548  1.00  0.00     0.198 A 
ATOM     60  F   UNL A   1      46.068  30.374  34.177  1.00  0.00    -0.203 F 
ATOM     61  F   UNL A   1      46.033  25.691  36.966  1.00  0.00    -0.200 F 
ATOM     62  C   UNL A   1      47.176  27.631  36.259  1.00  0.00     0.200 A 
ATOM     63  F   UNL A   1      48.274  29.589  35.526  1.00  0.00    -0.200 F 
ATOM     64  F   UNL A   1      48.266  27.258  36.945  1.00  0.00    -0.200 F 
ENDBRANCH  30  54
BRANCH  42  65
ATOM     65  C   UNL A   1      39.121  32.183  36.056  1.00  0.00     0.064 A 
ATOM     66  C   UNL A   1      39.399  33.522  36.357  1.00  0.00     0.173 A 
ATOM     67  C   UNL A   1      38.253  31.477  36.901  1.00  0.00     0.173 A 
ATOM     68  F   UNL A   1      40.234  34.231  35.582  1.00  0.00    -0.203 F 
ATOM     69  C   UNL A   1      38.836  34.129  37.476  1.00  0.00     0.198 A 
ATOM     70  C   UNL A   1      37.665  32.096  37.996  1.00  0.00     0.198 A 
ATOM     71  F   UNL A   1      37.951  30.194  36.644  1.00  0.00    -0.203 F 
ATOM     72  F   UNL A   1      39.144  35.399  37.771  1.00  0.00    -0.200 F 
ATOM     73  C   UNL A   1      37.960  33.419  38.285  1.00  0.00     0.200 A 
ATOM     74  F   UNL A   1      36.803  31.416  38.765  1.00  0.00    -0.200 F 
ATOM     75  F   UNL A   1      37.402  34.013  39.349  1.00  0.00    -0.200 F 
ENDBRANCH  42  65
ENDBRANCH  16  17
ENDBRANCH   9  11
ENDBRANCH   8   9
ENDBRANCH   7   8
ENDBRANCH   6   7
ENDBRANCH   5   6
ENDBRANCH   4   5
ENDBRANCH   3   4
ENDBRANCH   2   3
ENDBRANCH   1   2
BRANCH   1  76
ATOM     76  C   UNL A   1      40.669  22.961  26.926  1.00  0.00     0.188 C 
BRANCH  76  77
ATOM     77  O   UNL A   1      39.399  23.531  27.237  1.00  0.00    -0.376 OA
BRANCH  77  78
ATOM     78  C   UNL A   1      38.637  24.030  26.139  1.00  0.00     0.202 C 
BRANCH  78  79
ATOM     79  C   UNL A   1      37.100  23.968  26.244  1.00  0.00     0.261 C 
BRANCH  79  80
ATOM     80  O   UNL A   1      36.523  22.782  25.684  1.00  0.00    -0.462 OA
BRANCH  80  81
ATOM     81  C   UNL A   1      35.192  22.582  25.851  1.00  0.00     0.329 C 
ATOM     82  O   UNL A   1      34.507  23.088  26.731  1.00  0.00    -0.250 OA
BRANCH  81  83
ATOM     83  C   UNL A   1      34.661  21.720  24.695  1.00  0.00     0.197 C 
ATOM     84  C   UNL A   1      34.283  20.313  25.074  1.00  0.00     0.070 C 
ATOM     85  N   UNL A   1      33.473  22.293  24.096  1.00  0.00    -0.325 N 
ATOM     86  C   UNL A   1      32.836  20.480  25.516  1.00  0.00     0.136 C 
ATOM     87  C   UNL A   1      32.302  21.692  24.716  1.00  0.00     0.152 C 
BRANCH  85  88
ATOM     88  C   UNL A   1      33.616  23.263  23.123  1.00  0.00     0.233 C 
ATOM     89  O   UNL A   1      34.622  23.294  22.405  1.00  0.00    -0.274 OA
BRANCH  88  90
ATOM     90  C   UNL A   1      32.513  24.280  22.908  1.00  0.00     0.169 C 
BRANCH  90  91
ATOM     91  S   UNL A   1      33.189  25.931  22.463  1.00  0.00    -0.148 SA
BRANCH  91  92
ATOM     92  C   UNL A   1      31.662  26.890  22.541  1.00  0.00     0.063 C 
ATOM     93  C   UNL A   1      30.689  26.469  23.641  1.00  0.00     0.031 C 
ATOM     94  C   UNL A   1      31.880  28.382  22.754  1.00  0.00     0.151 C 
ATOM     95  C   UNL A   1      29.503  27.427  23.478  1.00  0.00     0.138 C 
ATOM     96  S   UNL A   1      30.209  28.978  22.914  1.00  0.00     0.151 S 
ATOM     97  O   UNL A   1      29.721  29.259  21.579  1.00  0.00    -0.229 OA
ATOM     98  O   UNL A   1      30.157  29.954  23.985  1.00  0.00    -0.229 OA
ENDBRANCH  91  92
ENDBRANCH  90  91
ENDBRANCH  88  90
ENDBRANCH  85  88
BRANCH  86  99
ATOM     99  O   UNL A   1      32.105  19.293  25.250  1.00  0.00    -0.391 OA
ATOM    100  H   UNL A   1      31.206  19.381  25.602  1.00  0.00     0.211 HD
ENDBRANCH  86  99
ENDBRANCH  81  83
ENDBRANCH  80  81
ENDBRANCH  79  80
ENDBRANCH  78  79
ENDBRANCH  77  78
ENDBRANCH  76  77
ENDBRANCH   1  76
TORSDOF 25
ENDMDL
