MODEL 1
REMARK VINA RESULT:     -11.1      0.000      0.000
REMARK SMILES O=C(OCCOCCOCCOCCOC(=O)c1ccc(-c2c3nc(c(-c4c(F)c(F)c(F)c(F)c4F)c4ccc([nH]4)c(-c4c(F)c(F)c(F)c(F)c4F)c4nc(c(-c5c(F)c(F)c(F)c(F)c5F)c5ccc2[nH]5)C=C4)C=C3)cc1)C1=Cc2cc(S(F)(F)(F)(F)F)cc(Br)c2O[C@@H]1C(F)(F)F
REMARK SMILES IDX 10 1 9 2 8 3 7 4 6 5 5 6 4 7 3 8 2 9 1 10 81 11 82 12 97 13
REMARK SMILES IDX 83 14 96 15 84 16 95 17 85 18 93 19 92 20 94 21 98 22 99 23
REMARK SMILES IDX 100 24 101 25 86 26 87 27 88 28 89 29 90 30 91 31 11 32
REMARK SMILES IDX 12 33 13 34 14 35 15 36 16 37 17 38 18 39 19 40 80 41 20 42
REMARK SMILES IDX 79 43 21 44 22 45 23 46 73 47 24 48 78 49 72 50 74 51 25 52
REMARK SMILES IDX 77 53 71 54 70 55 26 57 58 58 38 59 57 60 39 61 42 62 56 63
REMARK SMILES IDX 75 64 40 65 41 66 55 68 76 69 43 70 27 71 28 72 36 73 29 74
REMARK SMILES IDX 30 75 34 76 37 77 31 78 32 79 35 80 33 81 59 82 60 83 68 84
REMARK SMILES IDX 61 85 62 86 66 87 69 88 63 89 64 90 67 91 65 92 44 93 45 94
REMARK SMILES IDX 53 95 46 96 47 97 51 98 54 99 48 100 49 101 52 102 50 103
REMARK H PARENT 74 56 42 67
REMARK Flexibility Score: inf
ROOT
ATOM      1  C   UNL A   1      31.186  26.597  24.329  1.00  0.00     0.188 C 
ENDROOT
BRANCH   1   2
ATOM      2  O   UNL A   1      31.659  26.456  22.998  1.00  0.00    -0.377 OA
BRANCH   2   3
ATOM      3  C   UNL A   1      31.512  25.105  22.584  1.00  0.00     0.188 C 
BRANCH   3   4
ATOM      4  C   UNL A   1      32.879  24.520  22.268  1.00  0.00     0.188 C 
BRANCH   4   5
ATOM      5  O   UNL A   1      33.116  23.392  23.098  1.00  0.00    -0.376 OA
BRANCH   5   6
ATOM      6  C   UNL A   1      31.902  22.676  23.279  1.00  0.00     0.202 C 
BRANCH   6   7
ATOM      7  C   UNL A   1      32.019  21.309  22.627  1.00  0.00     0.261 C 
BRANCH   7   8
ATOM      8  O   UNL A   1      33.139  20.622  23.166  1.00  0.00    -0.460 OA
BRANCH   8   9
ATOM      9  C   UNL A   1      32.950  19.422  23.901  1.00  0.00     0.338 C 
ATOM     10  O   UNL A   1      31.782  19.079  24.267  1.00  0.00    -0.246 OA
BRANCH   9  11
ATOM     11  C   UNL A   1      34.144  18.548  24.249  1.00  0.00     0.087 C 
ATOM     12  C   UNL A   1      35.201  19.078  24.921  1.00  0.00     0.027 C 
ATOM     13  C   UNL A   1      34.157  17.082  23.846  1.00  0.00     0.316 C 
ATOM     14  C   UNL A   1      35.188  20.544  25.324  1.00  0.00     0.020 A 
ATOM     15  O   UNL A   1      32.942  20.132  25.985  1.00  0.00    -0.474 OA
ATOM     16  C   UNL A   1      36.244  21.394  25.045  1.00  0.00     0.036 A 
ATOM     17  C   UNL A   1      34.061  20.998  25.860  1.00  0.00     0.142 A 
ATOM     18  C   UNL A   1      36.123  22.673  25.638  1.00  0.00     0.109 A 
ATOM     19  C   UNL A   1      33.967  22.298  26.295  1.00  0.00     0.062 A 
ATOM     20  C   UNL A   1      34.996  23.178  26.104  1.00  0.00     0.044 A 
ATOM     21  Br  UNL A   1      32.336  22.898  27.200  1.00  0.00    -0.047 Br
BRANCH  13  22
ATOM     22  C   UNL A   1      34.272  16.216  25.090  1.00  0.00     0.430 C 
ATOM     23  F   UNL A   1      33.656  15.056  24.880  1.00  0.00    -0.167 F 
ATOM     24  F   UNL A   1      35.555  15.995  25.358  1.00  0.00    -0.167 F 
ATOM     25  F   UNL A   1      33.705  16.840  26.118  1.00  0.00    -0.167 F 
ENDBRANCH  13  22
BRANCH  18  26
ATOM     26  S   UNL A   1      37.617  23.687  25.766  1.00  0.00     0.310 S 
ATOM     27  F   UNL A   1      38.561  22.488  25.332  1.00  0.00    -0.094 F 
ATOM     28  F   UNL A   1      37.800  23.201  27.254  1.00  0.00    -0.094 F 
ATOM     29  F   UNL A   1      38.892  24.571  25.869  1.00  0.00    -0.094 F 
ATOM     30  F   UNL A   1      37.499  24.051  24.234  1.00  0.00    -0.094 F 
ATOM     31  F   UNL A   1      36.388  22.706  25.613  1.00  0.00    -0.094 F 
ENDBRANCH  18  26
ENDBRANCH   9  11
ENDBRANCH   8   9
ENDBRANCH   7   8
ENDBRANCH   6   7
ENDBRANCH   5   6
ENDBRANCH   4   5
ENDBRANCH   3   4
ENDBRANCH   2   3
ENDBRANCH   1   2
BRANCH   1  32
ATOM     32  C   UNL A   1      31.559  27.973  24.855  1.00  0.00     0.188 C 
BRANCH  32  33
ATOM     33  O   UNL A   1      32.208  27.841  26.111  1.00  0.00    -0.376 OA
BRANCH  33  34
ATOM     34  C   UNL A   1      31.784  28.885  26.975  1.00  0.00     0.202 C 
BRANCH  34  35
ATOM     35  C   UNL A   1      31.739  30.195  26.204  1.00  0.00     0.261 C 
BRANCH  35  36
ATOM     36  O   UNL A   1      33.051  30.728  26.102  1.00  0.00    -0.460 OA
BRANCH  36  37
ATOM     37  C   UNL A   1      33.556  31.572  27.126  1.00  0.00     0.338 C 
ATOM     38  O   UNL A   1      32.892  32.589  27.498  1.00  0.00    -0.246 OA
BRANCH  37  39
ATOM     39  C   UNL A   1      34.894  31.258  27.777  1.00  0.00     0.060 A 
ATOM     40  C   UNL A   1      35.857  32.227  28.007  1.00  0.00     0.016 A 
ATOM     41  C   UNL A   1      35.030  30.026  28.251  1.00  0.00     0.016 A 
ATOM     42  C   UNL A   1      37.078  31.715  28.507  1.00  0.00     0.010 A 
ATOM     43  C   UNL A   1      36.203  29.633  28.851  1.00  0.00     0.010 A 
ATOM     44  C   UNL A   1      37.220  30.522  29.057  1.00  0.00    -0.014 A 
BRANCH  44  45
ATOM     45  C   UNL A   1      38.449  30.159  29.874  1.00  0.00     0.031 A 
ATOM     46  C   UNL A   1      39.315  29.230  29.296  1.00  0.00     0.074 A 
ATOM     47  C   UNL A   1      38.573  30.632  31.170  1.00  0.00     0.049 A 
ATOM     48  N   UNL A   1      40.396  28.674  29.845  1.00  0.00    -0.248 NA
ATOM     49  C   UNL A   1      39.166  28.700  27.933  1.00  0.00     0.031 C 
ATOM     50  C   UNL A   1      37.708  31.576  31.757  1.00  0.00     0.029 A 
ATOM     51  N   UNL A   1      39.523  30.291  32.106  1.00  0.00    -0.354 N 
ATOM     52  C   UNL A   1      40.981  27.847  28.978  1.00  0.00     0.074 A 
ATOM     53  C   UNL A   1      40.195  27.847  27.736  1.00  0.00     0.031 C 
ATOM     54  C   UNL A   1      38.123  31.792  33.032  1.00  0.00     0.029 A 
ATOM     55  C   UNL A   1      39.255  30.988  33.264  1.00  0.00     0.049 A 
ATOM     56  H   UNL A   1      40.265  29.658  31.972  1.00  0.00     0.167 HD
ATOM     57  C   UNL A   1      42.141  27.093  29.171  1.00  0.00     0.037 A 
ATOM     58  C   UNL A   1      39.946  30.937  34.464  1.00  0.00     0.037 A 
ATOM     59  C   UNL A   1      42.856  27.076  30.357  1.00  0.00     0.049 A 
ATOM     60  C   UNL A   1      41.073  30.138  34.677  1.00  0.00     0.074 A 
ATOM     61  C   UNL A   1      44.031  26.327  30.566  1.00  0.00     0.029 A 
ATOM     62  N   UNL A   1      42.575  27.754  31.523  1.00  0.00    -0.354 N 
ATOM     63  N   UNL A   1      41.680  29.342  33.795  1.00  0.00    -0.248 NA
ATOM     64  C   UNL A   1      41.794  30.052  35.954  1.00  0.00     0.031 C 
ATOM     65  C   UNL A   1      44.447  26.544  31.843  1.00  0.00     0.029 A 
ATOM     66  C   UNL A   1      43.538  27.430  32.452  1.00  0.00     0.049 A 
ATOM     67  H   UNL A   1      41.815  28.363  31.666  1.00  0.00     0.167 HD
ATOM     68  C   UNL A   1      42.737  28.755  34.360  1.00  0.00     0.074 A 
ATOM     69  C   UNL A   1      42.820  29.197  35.758  1.00  0.00     0.031 C 
ATOM     70  C   UNL A   1      43.637  27.869  33.764  1.00  0.00     0.037 A 
BRANCH  57  71
ATOM     71  C   UNL A   1      42.646  26.245  28.016  1.00  0.00     0.064 A 
ATOM     72  C   UNL A   1      43.581  26.739  27.121  1.00  0.00     0.173 A 
ATOM     73  C   UNL A   1      42.039  25.082  27.806  1.00  0.00     0.173 A 
ATOM     74  F   UNL A   1      44.391  27.755  27.406  1.00  0.00    -0.203 F 
ATOM     75  C   UNL A   1      43.598  26.064  25.878  1.00  0.00     0.198 A 
ATOM     76  C   UNL A   1      42.207  24.410  26.620  1.00  0.00     0.198 A 
ATOM     77  F   UNL A   1      41.261  24.565  28.753  1.00  0.00    -0.203 F 
ATOM     78  F   UNL A   1      44.183  26.672  24.851  1.00  0.00    -0.200 F 
ATOM     79  C   UNL A   1      43.071  24.871  25.666  1.00  0.00     0.200 A 
ATOM     80  F   UNL A   1      41.520  23.293  26.397  1.00  0.00    -0.200 F 
ATOM     81  F   UNL A   1      43.366  24.158  24.583  1.00  0.00    -0.200 F 
ENDBRANCH  57  71
BRANCH  58  82
ATOM     82  C   UNL A   1      39.450  31.799  35.614  1.00  0.00     0.064 A 
ATOM     83  C   UNL A   1      38.554  31.362  36.576  1.00  0.00     0.173 A 
ATOM     84  C   UNL A   1      40.045  32.982  35.713  1.00  0.00     0.173 A 
ATOM     85  F   UNL A   1      38.132  30.103  36.656  1.00  0.00    -0.203 F 
ATOM     86  C   UNL A   1      38.130  32.376  37.467  1.00  0.00     0.198 A 
ATOM     87  C   UNL A   1      39.675  33.871  36.692  1.00  0.00     0.198 A 
ATOM     88  F   UNL A   1      41.009  33.308  34.857  1.00  0.00    -0.203 F 
ATOM     89  F   UNL A   1      37.027  32.154  38.176  1.00  0.00    -0.200 F 
ATOM     90  C   UNL A   1      38.752  33.528  37.641  1.00  0.00     0.200 A 
ATOM     91  F   UNL A   1      40.220  35.084  36.717  1.00  0.00    -0.200 F 
ATOM     92  F   UNL A   1      38.495  34.312  38.684  1.00  0.00    -0.200 F 
ENDBRANCH  58  82
BRANCH  70  93
ATOM     93  C   UNL A   1      44.796  27.358  34.602  1.00  0.00     0.064 A 
ATOM     94  C   UNL A   1      45.984  28.059  34.722  1.00  0.00     0.173 A 
ATOM     95  C   UNL A   1      44.582  26.243  35.292  1.00  0.00     0.173 A 
ATOM     96  F   UNL A   1      46.148  29.294  34.258  1.00  0.00    -0.203 F 
ATOM     97  C   UNL A   1      47.009  27.342  35.386  1.00  0.00     0.198 A 
ATOM     98  C   UNL A   1      45.591  25.671  36.027  1.00  0.00     0.198 A 
ATOM     99  F   UNL A   1      43.379  25.677  35.269  1.00  0.00    -0.203 F 
ATOM    100  F   UNL A   1      48.260  27.769  35.235  1.00  0.00    -0.200 F 
ATOM    101  C   UNL A   1      46.810  26.279  36.143  1.00  0.00     0.200 A 
ATOM    102  F   UNL A   1      45.378  24.508  36.637  1.00  0.00    -0.200 F 
ATOM    103  F   UNL A   1      47.744  25.824  36.972  1.00  0.00    -0.200 F 
ENDBRANCH  70  93
ENDBRANCH  44  45
ENDBRANCH  37  39
ENDBRANCH  36  37
ENDBRANCH  35  36
ENDBRANCH  34  35
ENDBRANCH  33  34
ENDBRANCH  32  33
ENDBRANCH   1  32
TORSDOF 22
ENDMDL
MODEL 2
REMARK VINA RESULT:     -10.9      2.123      7.172
REMARK SMILES O=C(OCCOCCOCCOCCOC(=O)c1ccc(-c2c3nc(c(-c4c(F)c(F)c(F)c(F)c4F)c4ccc([nH]4)c(-c4c(F)c(F)c(F)c(F)c4F)c4nc(c(-c5c(F)c(F)c(F)c(F)c5F)c5ccc2[nH]5)C=C4)C=C3)cc1)C1=Cc2cc(S(F)(F)(F)(F)F)cc(Br)c2O[C@@H]1C(F)(F)F
REMARK SMILES IDX 10 1 9 2 8 3 7 4 6 5 5 6 4 7 3 8 2 9 1 10 81 11 82 12 97 13
REMARK SMILES IDX 83 14 96 15 84 16 95 17 85 18 93 19 92 20 94 21 98 22 99 23
REMARK SMILES IDX 100 24 101 25 86 26 87 27 88 28 89 29 90 30 91 31 11 32
REMARK SMILES IDX 12 33 13 34 14 35 15 36 16 37 17 38 18 39 19 40 80 41 20 42
REMARK SMILES IDX 79 43 21 44 22 45 23 46 73 47 24 48 78 49 72 50 74 51 25 52
REMARK SMILES IDX 77 53 71 54 70 55 26 57 58 58 38 59 57 60 39 61 42 62 56 63
REMARK SMILES IDX 75 64 40 65 41 66 55 68 76 69 43 70 27 71 28 72 36 73 29 74
REMARK SMILES IDX 30 75 34 76 37 77 31 78 32 79 35 80 33 81 59 82 60 83 68 84
REMARK SMILES IDX 61 85 62 86 66 87 69 88 63 89 64 90 67 91 65 92 44 93 45 94
REMARK SMILES IDX 53 95 46 96 47 97 51 98 54 99 48 100 49 101 52 102 50 103
REMARK H PARENT 74 56 42 67
REMARK Flexibility Score: inf
ROOT
ATOM      1  C   UNL A   1      31.219  27.358  23.131  1.00  0.00     0.188 C 
ENDROOT
BRANCH   1   2
ATOM      2  O   UNL A   1      31.712  26.260  23.885  1.00  0.00    -0.377 OA
BRANCH   2   3
ATOM      3  C   UNL A   1      30.663  25.329  24.108  1.00  0.00     0.188 C 
BRANCH   3   4
ATOM      4  C   UNL A   1      31.238  23.924  24.177  1.00  0.00     0.188 C 
BRANCH   4   5
ATOM      5  O   UNL A   1      32.656  23.990  24.135  1.00  0.00    -0.376 OA
BRANCH   5   6
ATOM      6  C   UNL A   1      33.147  23.036  23.203  1.00  0.00     0.202 C 
BRANCH   6   7
ATOM      7  C   UNL A   1      32.214  21.838  23.166  1.00  0.00     0.261 C 
BRANCH   7   8
ATOM      8  O   UNL A   1      32.979  20.645  23.067  1.00  0.00    -0.460 OA
BRANCH   8   9
ATOM      9  C   UNL A   1      32.832  19.624  24.042  1.00  0.00     0.338 C 
ATOM     10  O   UNL A   1      31.802  19.600  24.787  1.00  0.00    -0.246 OA
BRANCH   9  11
ATOM     11  C   UNL A   1      33.906  18.560  24.196  1.00  0.00     0.087 C 
ATOM     12  C   UNL A   1      35.090  18.869  24.789  1.00  0.00     0.027 C 
ATOM     13  C   UNL A   1      33.657  17.149  23.687  1.00  0.00     0.316 C 
ATOM     14  C   UNL A   1      35.339  20.280  25.298  1.00  0.00     0.020 A 
ATOM     15  O   UNL A   1      33.130  20.140  26.162  1.00  0.00    -0.474 OA
ATOM     16  C   UNL A   1      36.482  20.991  24.971  1.00  0.00     0.036 A 
ATOM     17  C   UNL A   1      34.351  20.843  25.983  1.00  0.00     0.142 A 
ATOM     18  C   UNL A   1      36.614  22.215  25.667  1.00  0.00     0.109 A 
ATOM     19  C   UNL A   1      34.498  22.098  26.520  1.00  0.00     0.062 A 
ATOM     20  C   UNL A   1      35.626  22.835  26.286  1.00  0.00     0.044 A 
ATOM     21  Br  UNL A   1      33.070  22.845  27.636  1.00  0.00    -0.047 Br
BRANCH  13  22
ATOM     22  C   UNL A   1      33.756  16.168  24.844  1.00  0.00     0.430 C 
ATOM     23  F   UNL A   1      33.006  15.100  24.584  1.00  0.00    -0.167 F 
ATOM     24  F   UNL A   1      35.021  15.794  25.001  1.00  0.00    -0.167 F 
ATOM     25  F   UNL A   1      33.324  16.752  25.957  1.00  0.00    -0.167 F 
ENDBRANCH  13  22
BRANCH  18  26
ATOM     26  S   UNL A   1      38.250  22.988  25.708  1.00  0.00     0.310 S 
ATOM     27  F   UNL A   1      37.868  23.910  26.942  1.00  0.00    -0.094 F 
ATOM     28  F   UNL A   1      37.714  24.137  24.772  1.00  0.00    -0.094 F 
ATOM     29  F   UNL A   1      39.663  23.637  25.741  1.00  0.00    -0.094 F 
ATOM     30  F   UNL A   1      38.731  21.910  26.757  1.00  0.00    -0.094 F 
ATOM     31  F   UNL A   1      36.792  22.383  25.776  1.00  0.00    -0.094 F 
ENDBRANCH  18  26
ENDBRANCH   9  11
ENDBRANCH   8   9
ENDBRANCH   7   8
ENDBRANCH   6   7
ENDBRANCH   5   6
ENDBRANCH   4   5
ENDBRANCH   3   4
ENDBRANCH   2   3
ENDBRANCH   1   2
BRANCH   1  32
ATOM     32  C   UNL A   1      31.102  28.577  24.031  1.00  0.00     0.188 C 
BRANCH  32  33
ATOM     33  O   UNL A   1      32.387  29.146  24.228  1.00  0.00    -0.376 OA
BRANCH  33  34
ATOM     34  C   UNL A   1      32.400  29.876  25.446  1.00  0.00     0.202 C 
BRANCH  34  35
ATOM     35  C   UNL A   1      33.333  29.196  26.435  1.00  0.00     0.261 C 
BRANCH  35  36
ATOM     36  O   UNL A   1      33.441  29.991  27.607  1.00  0.00    -0.460 OA
BRANCH  36  37
ATOM     37  C   UNL A   1      34.562  30.844  27.786  1.00  0.00     0.338 C 
ATOM     38  O   UNL A   1      34.437  32.099  27.630  1.00  0.00    -0.246 OA
BRANCH  37  39
ATOM     39  C   UNL A   1      35.911  30.255  28.164  1.00  0.00     0.060 A 
ATOM     40  C   UNL A   1      37.036  30.399  27.369  1.00  0.00     0.016 A 
ATOM     41  C   UNL A   1      35.988  29.719  29.375  1.00  0.00     0.016 A 
ATOM     42  C   UNL A   1      38.161  29.675  27.831  1.00  0.00     0.010 A 
ATOM     43  C   UNL A   1      37.160  29.149  29.815  1.00  0.00     0.010 A 
ATOM     44  C   UNL A   1      38.296  29.202  29.056  1.00  0.00    -0.014 A 
BRANCH  44  45
ATOM     45  C   UNL A   1      39.640  28.741  29.595  1.00  0.00     0.031 A 
ATOM     46  C   UNL A   1      40.256  29.592  30.513  1.00  0.00     0.074 A 
ATOM     47  C   UNL A   1      40.241  27.614  29.059  1.00  0.00     0.049 A 
ATOM     48  N   UNL A   1      41.471  29.469  31.049  1.00  0.00    -0.248 NA
ATOM     49  C   UNL A   1      39.632  30.808  31.057  1.00  0.00     0.031 C 
ATOM     50  C   UNL A   1      39.623  26.745  28.139  1.00  0.00     0.029 A 
ATOM     51  N   UNL A   1      41.509  27.136  29.305  1.00  0.00    -0.354 N 
ATOM     52  C   UNL A   1      41.703  30.469  31.902  1.00  0.00     0.074 A 
ATOM     53  C   UNL A   1      40.526  31.348  31.915  1.00  0.00     0.031 C 
ATOM     54  C   UNL A   1      40.509  25.764  27.826  1.00  0.00     0.029 A 
ATOM     55  C   UNL A   1      41.695  26.002  28.545  1.00  0.00     0.049 A 
ATOM     56  H   UNL A   1      42.168  27.535  29.917  1.00  0.00     0.167 HD
ATOM     57  C   UNL A   1      42.849  30.682  32.670  1.00  0.00     0.037 A 
ATOM     58  C   UNL A   1      42.829  25.209  28.468  1.00  0.00     0.037 A 
ATOM     59  C   UNL A   1      43.966  29.864  32.626  1.00  0.00     0.049 A 
ATOM     60  C   UNL A   1      43.998  25.455  29.193  1.00  0.00     0.074 A 
ATOM     61  C   UNL A   1      45.126  30.060  33.399  1.00  0.00     0.029 A 
ATOM     62  N   UNL A   1      44.162  28.744  31.848  1.00  0.00    -0.354 N 
ATOM     63  N   UNL A   1      44.214  26.432  30.075  1.00  0.00    -0.248 NA
ATOM     64  C   UNL A   1      45.216  24.640  29.096  1.00  0.00     0.031 C 
ATOM     65  C   UNL A   1      46.014  29.077  33.086  1.00  0.00     0.029 A 
ATOM     66  C   UNL A   1      45.421  28.253  32.110  1.00  0.00     0.049 A 
ATOM     67  H   UNL A   1      43.514  28.362  31.213  1.00  0.00     0.167 HD
ATOM     68  C   UNL A   1      45.445  26.331  30.579  1.00  0.00     0.074 A 
ATOM     69  C   UNL A   1      46.110  25.182  29.951  1.00  0.00     0.031 C 
ATOM     70  C   UNL A   1      46.041  27.150  31.541  1.00  0.00     0.037 A 
BRANCH  57  71
ATOM     71  C   UNL A   1      42.871  31.877  33.608  1.00  0.00     0.064 A 
ATOM     72  C   UNL A   1      42.391  31.779  34.904  1.00  0.00     0.173 A 
ATOM     73  C   UNL A   1      43.216  33.050  33.088  1.00  0.00     0.173 A 
ATOM     74  F   UNL A   1      42.275  30.621  35.549  1.00  0.00    -0.203 F 
ATOM     75  C   UNL A   1      42.036  33.021  35.479  1.00  0.00     0.198 A 
ATOM     76  C   UNL A   1      42.962  34.217  33.767  1.00  0.00     0.198 A 
ATOM     77  F   UNL A   1      43.813  33.094  31.901  1.00  0.00    -0.203 F 
ATOM     78  F   UNL A   1      41.247  33.005  36.550  1.00  0.00    -0.200 F 
ATOM     79  C   UNL A   1      42.433  34.197  35.027  1.00  0.00     0.200 A 
ATOM     80  F   UNL A   1      43.234  35.383  33.188  1.00  0.00    -0.200 F 
ATOM     81  F   UNL A   1      42.325  35.303  35.759  1.00  0.00    -0.200 F 
ENDBRANCH  57  71
BRANCH  58  82
ATOM     82  C   UNL A   1      42.800  24.004  27.542  1.00  0.00     0.064 A 
ATOM     83  C   UNL A   1      43.296  24.011  26.249  1.00  0.00     0.173 A 
ATOM     84  C   UNL A   1      42.376  22.881  28.112  1.00  0.00     0.173 A 
ATOM     85  F   UNL A   1      43.957  25.042  25.731  1.00  0.00    -0.203 F 
ATOM     86  C   UNL A   1      43.035  22.821  25.529  1.00  0.00     0.198 A 
ATOM     87  C   UNL A   1      42.276  21.722  27.382  1.00  0.00     0.198 A 
ATOM     88  F   UNL A   1      42.048  22.880  29.401  1.00  0.00    -0.203 F 
ATOM     89  F   UNL A   1      43.143  22.864  24.204  1.00  0.00    -0.200 F 
ATOM     90  C   UNL A   1      42.692  21.671  26.081  1.00  0.00     0.200 A 
ATOM     91  F   UNL A   1      41.765  20.633  27.950  1.00  0.00    -0.200 F 
ATOM     92  F   UNL A   1      42.749  20.526  25.407  1.00  0.00    -0.200 F 
ENDBRANCH  58  82
BRANCH  70  93
ATOM     93  C   UNL A   1      47.451  26.812  31.992  1.00  0.00     0.064 A 
ATOM     94  C   UNL A   1      47.702  25.910  33.013  1.00  0.00     0.173 A 
ATOM     95  C   UNL A   1      48.443  27.357  31.296  1.00  0.00     0.173 A 
ATOM     96  F   UNL A   1      46.756  25.154  33.562  1.00  0.00    -0.203 F 
ATOM     97  C   UNL A   1      49.058  25.864  33.418  1.00  0.00     0.198 A 
ATOM     98  C   UNL A   1      49.750  27.160  31.669  1.00  0.00     0.198 A 
ATOM     99  F   UNL A   1      48.166  28.101  30.229  1.00  0.00    -0.203 F 
ATOM    100  F   UNL A   1      49.333  25.318  34.599  1.00  0.00    -0.200 F 
ATOM    101  C   UNL A   1      50.068  26.327  32.706  1.00  0.00     0.200 A 
ATOM    102  F   UNL A   1      50.721  27.789  31.011  1.00  0.00    -0.200 F 
ATOM    103  F   UNL A   1      51.328  26.002  32.981  1.00  0.00    -0.200 F 
ENDBRANCH  70  93
ENDBRANCH  44  45
ENDBRANCH  37  39
ENDBRANCH  36  37
ENDBRANCH  35  36
ENDBRANCH  34  35
ENDBRANCH  33  34
ENDBRANCH  32  33
ENDBRANCH   1  32
TORSDOF 22
ENDMDL
MODEL 3
REMARK VINA RESULT:     -10.9      3.040      7.166
REMARK SMILES O=C(OCCOCCOCCOCCOC(=O)c1ccc(-c2c3nc(c(-c4c(F)c(F)c(F)c(F)c4F)c4ccc([nH]4)c(-c4c(F)c(F)c(F)c(F)c4F)c4nc(c(-c5c(F)c(F)c(F)c(F)c5F)c5ccc2[nH]5)C=C4)C=C3)cc1)C1=Cc2cc(S(F)(F)(F)(F)F)cc(Br)c2O[C@@H]1C(F)(F)F
REMARK SMILES IDX 10 1 9 2 8 3 7 4 6 5 5 6 4 7 3 8 2 9 1 10 81 11 82 12 97 13
REMARK SMILES IDX 83 14 96 15 84 16 95 17 85 18 93 19 92 20 94 21 98 22 99 23
REMARK SMILES IDX 100 24 101 25 86 26 87 27 88 28 89 29 90 30 91 31 11 32
REMARK SMILES IDX 12 33 13 34 14 35 15 36 16 37 17 38 18 39 19 40 80 41 20 42
REMARK SMILES IDX 79 43 21 44 22 45 23 46 73 47 24 48 78 49 72 50 74 51 25 52
REMARK SMILES IDX 77 53 71 54 70 55 26 57 58 58 38 59 57 60 39 61 42 62 56 63
REMARK SMILES IDX 75 64 40 65 41 66 55 68 76 69 43 70 27 71 28 72 36 73 29 74
REMARK SMILES IDX 30 75 34 76 37 77 31 78 32 79 35 80 33 81 59 82 60 83 68 84
REMARK SMILES IDX 61 85 62 86 66 87 69 88 63 89 64 90 67 91 65 92 44 93 45 94
REMARK SMILES IDX 53 95 46 96 47 97 51 98 54 99 48 100 49 101 52 102 50 103
REMARK H PARENT 74 56 42 67
REMARK Flexibility Score: inf
ROOT
ATOM      1  C   UNL A   1      31.246  26.355  24.078  1.00  0.00     0.188 C 
ENDROOT
BRANCH   1   2
ATOM      2  O   UNL A   1      31.871  26.526  22.815  1.00  0.00    -0.377 OA
BRANCH   2   3
ATOM      3  C   UNL A   1      32.488  25.308  22.422  1.00  0.00     0.188 C 
BRANCH   3   4
ATOM      4  C   UNL A   1      33.379  24.806  23.546  1.00  0.00     0.188 C 
BRANCH   4   5
ATOM      5  O   UNL A   1      33.444  23.388  23.501  1.00  0.00    -0.376 OA
BRANCH   5   6
ATOM      6  C   UNL A   1      32.129  22.853  23.547  1.00  0.00     0.202 C 
BRANCH   6   7
ATOM      7  C   UNL A   1      32.085  21.549  22.768  1.00  0.00     0.261 C 
BRANCH   7   8
ATOM      8  O   UNL A   1      33.154  20.713  23.186  1.00  0.00    -0.460 OA
BRANCH   8   9
ATOM      9  C   UNL A   1      32.896  19.597  24.025  1.00  0.00     0.338 C 
ATOM     10  O   UNL A   1      31.778  19.494  24.621  1.00  0.00    -0.246 OA
BRANCH   9  11
ATOM     11  C   UNL A   1      33.957  18.524  24.211  1.00  0.00     0.087 C 
ATOM     12  C   UNL A   1      35.134  18.830  24.821  1.00  0.00     0.027 C 
ATOM     13  C   UNL A   1      33.704  17.110  23.715  1.00  0.00     0.316 C 
ATOM     14  C   UNL A   1      35.387  20.245  25.317  1.00  0.00     0.020 A 
ATOM     15  O   UNL A   1      33.161  20.136  26.143  1.00  0.00    -0.474 OA
ATOM     16  C   UNL A   1      36.542  20.941  25.001  1.00  0.00     0.036 A 
ATOM     17  C   UNL A   1      34.392  20.825  25.977  1.00  0.00     0.142 A 
ATOM     18  C   UNL A   1      36.673  22.173  25.684  1.00  0.00     0.109 A 
ATOM     19  C   UNL A   1      34.541  22.086  26.501  1.00  0.00     0.062 A 
ATOM     20  C   UNL A   1      35.680  22.810  26.278  1.00  0.00     0.044 A 
ATOM     21  Br  UNL A   1      33.101  22.860  27.583  1.00  0.00    -0.047 Br
BRANCH  13  22
ATOM     22  C   UNL A   1      33.773  16.142  24.885  1.00  0.00     0.430 C 
ATOM     23  F   UNL A   1      33.328  16.745  25.985  1.00  0.00    -0.167 F 
ATOM     24  F   UNL A   1      33.019  15.079  24.626  1.00  0.00    -0.167 F 
ATOM     25  F   UNL A   1      35.033  15.759  25.069  1.00  0.00    -0.167 F 
ENDBRANCH  13  22
BRANCH  18  26
ATOM     26  S   UNL A   1      38.316  22.931  25.745  1.00  0.00     0.310 S 
ATOM     27  F   UNL A   1      37.924  23.864  26.967  1.00  0.00    -0.094 F 
ATOM     28  F   UNL A   1      37.804  24.079  24.795  1.00  0.00    -0.094 F 
ATOM     29  F   UNL A   1      39.733  23.568  25.794  1.00  0.00    -0.094 F 
ATOM     30  F   UNL A   1      38.771  21.855  26.807  1.00  0.00    -0.094 F 
ATOM     31  F   UNL A   1      36.851  22.340  25.795  1.00  0.00    -0.094 F 
ENDBRANCH  18  26
ENDBRANCH   9  11
ENDBRANCH   8   9
ENDBRANCH   7   8
ENDBRANCH   6   7
ENDBRANCH   5   6
ENDBRANCH   4   5
ENDBRANCH   3   4
ENDBRANCH   2   3
ENDBRANCH   1   2
BRANCH   1  32
ATOM     32  C   UNL A   1      31.416  27.620  24.903  1.00  0.00     0.188 C 
BRANCH  32  33
ATOM     33  O   UNL A   1      32.251  27.350  26.019  1.00  0.00    -0.376 OA
BRANCH  33  34
ATOM     34  C   UNL A   1      31.746  28.025  27.161  1.00  0.00     0.202 C 
BRANCH  34  35
ATOM     35  C   UNL A   1      32.480  29.345  27.336  1.00  0.00     0.261 C 
BRANCH  35  36
ATOM     36  O   UNL A   1      33.880  29.108  27.354  1.00  0.00    -0.460 OA
BRANCH  36  37
ATOM     37  C   UNL A   1      34.776  30.171  27.644  1.00  0.00     0.338 C 
ATOM     38  O   UNL A   1      34.409  31.376  27.475  1.00  0.00    -0.246 OA
BRANCH  37  39
ATOM     39  C   UNL A   1      36.175  29.866  28.154  1.00  0.00     0.060 A 
ATOM     40  C   UNL A   1      36.410  29.328  29.409  1.00  0.00     0.016 A 
ATOM     41  C   UNL A   1      37.155  30.006  27.270  1.00  0.00     0.016 A 
ATOM     42  C   UNL A   1      37.782  29.234  29.744  1.00  0.00     0.010 A 
ATOM     43  C   UNL A   1      38.460  29.766  27.628  1.00  0.00     0.010 A 
ATOM     44  C   UNL A   1      38.772  29.290  28.871  1.00  0.00    -0.014 A 
BRANCH  44  45
ATOM     45  C   UNL A   1      40.181  28.848  29.229  1.00  0.00     0.031 A 
ATOM     46  C   UNL A   1      40.985  29.807  29.847  1.00  0.00     0.074 A 
ATOM     47  C   UNL A   1      40.638  27.611  28.807  1.00  0.00     0.049 A 
ATOM     48  N   UNL A   1      42.276  29.705  30.165  1.00  0.00    -0.248 NA
ATOM     49  C   UNL A   1      40.510  31.135  30.265  1.00  0.00     0.031 C 
ATOM     50  C   UNL A   1      39.832  26.634  28.191  1.00  0.00     0.029 A 
ATOM     51  N   UNL A   1      41.916  27.105  28.899  1.00  0.00    -0.354 N 
ATOM     52  C   UNL A   1      42.694  30.822  30.763  1.00  0.00     0.074 A 
ATOM     53  C   UNL A   1      41.566  31.760  30.831  1.00  0.00     0.031 C 
ATOM     54  C   UNL A   1      40.614  25.561  27.905  1.00  0.00     0.029 A 
ATOM     55  C   UNL A   1      41.922  25.847  28.338  1.00  0.00     0.049 A 
ATOM     56  H   UNL A   1      42.691  27.564  29.297  1.00  0.00     0.167 HD
ATOM     57  C   UNL A   1      43.971  31.094  31.256  1.00  0.00     0.037 A 
ATOM     58  C   UNL A   1      42.998  24.985  28.201  1.00  0.00     0.037 A 
ATOM     59  C   UNL A   1      45.037  30.214  31.158  1.00  0.00     0.049 A 
ATOM     60  C   UNL A   1      44.290  25.281  28.642  1.00  0.00     0.074 A 
ATOM     61  C   UNL A   1      46.329  30.470  31.656  1.00  0.00     0.029 A 
ATOM     62  N   UNL A   1      45.050  28.966  30.575  1.00  0.00    -0.354 N 
ATOM     63  N   UNL A   1      44.698  26.382  29.276  1.00  0.00    -0.248 NA
ATOM     64  C   UNL A   1      45.445  24.388  28.473  1.00  0.00     0.031 C 
ATOM     65  C   UNL A   1      47.112  29.396  31.370  1.00  0.00     0.029 A 
ATOM     66  C   UNL A   1      46.322  28.452  30.687  1.00  0.00     0.049 A 
ATOM     67  H   UNL A   1      44.281  28.520  30.151  1.00  0.00     0.167 HD
ATOM     68  C   UNL A   1      46.000  26.295  29.555  1.00  0.00     0.074 A 
ATOM     69  C   UNL A   1      46.500  25.015  29.036  1.00  0.00     0.031 C 
ATOM     70  C   UNL A   1      46.790  27.231  30.225  1.00  0.00     0.037 A 
BRANCH  57  71
ATOM     71  C   UNL A   1      44.206  32.431  31.940  1.00  0.00     0.064 A 
ATOM     72  C   UNL A   1      44.686  33.522  31.233  1.00  0.00     0.173 A 
ATOM     73  C   UNL A   1      44.089  32.465  33.263  1.00  0.00     0.173 A 
ATOM     74  F   UNL A   1      44.584  33.631  29.911  1.00  0.00    -0.203 F 
ATOM     75  C   UNL A   1      45.292  34.509  32.044  1.00  0.00     0.198 A 
ATOM     76  C   UNL A   1      44.585  33.526  33.981  1.00  0.00     0.198 A 
ATOM     77  F   UNL A   1      43.487  31.463  33.897  1.00  0.00    -0.203 F 
ATOM     78  F   UNL A   1      46.086  35.396  31.451  1.00  0.00    -0.200 F 
ATOM     79  C   UNL A   1      45.126  34.611  33.350  1.00  0.00     0.200 A 
ATOM     80  F   UNL A   1      44.537  33.496  35.311  1.00  0.00    -0.200 F 
ATOM     81  F   UNL A   1      45.467  35.711  34.017  1.00  0.00    -0.200 F 
ENDBRANCH  57  71
BRANCH  58  82
ATOM     82  C   UNL A   1      42.759  23.641  27.532  1.00  0.00     0.064 A 
ATOM     83  C   UNL A   1      42.239  22.536  28.185  1.00  0.00     0.173 A 
ATOM     84  C   UNL A   1      42.964  23.634  26.220  1.00  0.00     0.173 A 
ATOM     85  F   UNL A   1      41.784  22.578  29.434  1.00  0.00    -0.203 F 
ATOM     86  C   UNL A   1      42.234  21.357  27.401  1.00  0.00     0.198 A 
ATOM     87  C   UNL A   1      42.809  22.477  25.495  1.00  0.00     0.198 A 
ATOM     88  F   UNL A   1      43.321  24.756  25.603  1.00  0.00    -0.203 F 
ATOM     89  F   UNL A   1      42.101  20.194  28.034  1.00  0.00    -0.200 F 
ATOM     90  C   UNL A   1      42.355  21.332  26.086  1.00  0.00     0.200 A 
ATOM     91  F   UNL A   1      43.106  22.472  24.199  1.00  0.00    -0.200 F 
ATOM     92  F   UNL A   1      42.051  20.249  25.376  1.00  0.00    -0.200 F 
ENDBRANCH  58  82
BRANCH  70  93
ATOM     93  C   UNL A   1      48.252  26.891  30.464  1.00  0.00     0.064 A 
ATOM     94  C   UNL A   1      49.260  27.345  29.630  1.00  0.00     0.173 A 
ATOM     95  C   UNL A   1      48.528  26.207  31.569  1.00  0.00     0.173 A 
ATOM     96  F   UNL A   1      49.056  28.237  28.664  1.00  0.00    -0.203 F 
ATOM     97  C   UNL A   1      50.527  26.777  29.899  1.00  0.00     0.198 A 
ATOM     98  C   UNL A   1      49.812  25.800  31.836  1.00  0.00     0.198 A 
ATOM     99  F   UNL A   1      47.552  25.916  32.423  1.00  0.00    -0.203 F 
ATOM    100  F   UNL A   1      51.459  26.865  28.954  1.00  0.00    -0.200 F 
ATOM    101  C   UNL A   1      50.850  26.164  31.023  1.00  0.00     0.200 A 
ATOM    102  F   UNL A   1      50.050  25.041  32.903  1.00  0.00    -0.200 F 
ATOM    103  F   UNL A   1      52.115  25.913  31.347  1.00  0.00    -0.200 F 
ENDBRANCH  70  93
ENDBRANCH  44  45
ENDBRANCH  37  39
ENDBRANCH  36  37
ENDBRANCH  35  36
ENDBRANCH  34  35
ENDBRANCH  33  34
ENDBRANCH  32  33
ENDBRANCH   1  32
TORSDOF 22
ENDMDL
