MODEL 1
REMARK VINA RESULT:     -10.0      0.000      0.000
REMARK SMILES COc1cc(F)ccc1-c1ccc(=O)n(CC(=O)NCc2ccc(C(=O)OCCOCCOCCOCCOC(=O)c3ccc(-c4c5nc(c(-c6c(F)c(F)c(F)c(F)c6F)c6ccc([nH]6)c(-c6c(F)c(F)c(F)c(F)c6F)c6nc(c(-c7c(F)c(F)c(F)c(F)c7F)c7ccc4[nH]7)C=C6)C=C5)cc3)cc2)n1
REMARK SMILES IDX 31 1 30 2 29 3 28 4 27 5 25 6 26 7 24 8 21 9 22 10 106 11
REMARK SMILES IDX 23 12 105 13 20 14 19 15 17 16 18 17 16 19 15 20 10 21 11 22
REMARK SMILES IDX 107 23 12 24 13 25 14 26 9 27 3 28 4 29 5 30 8 31 6 32 7 33
REMARK SMILES IDX 2 34 1 35 32 36 33 37 34 38 35 39 36 40 37 41 38 42 39 43
REMARK SMILES IDX 40 44 41 45 42 46 43 47 104 48 44 49 103 50 45 51 46 52
REMARK SMILES IDX 47 53 97 54 48 55 102 56 96 57 98 58 49 59 101 60 95 61
REMARK SMILES IDX 94 62 50 64 82 65 62 66 81 67 63 68 66 69 80 70 99 71 64 72
REMARK SMILES IDX 65 73 79 75 100 76 67 77 51 78 52 79 60 80 53 81 54 82 58 83
REMARK SMILES IDX 61 84 55 85 56 86 59 87 57 88 83 89 84 90 92 91 85 92 86 93
REMARK SMILES IDX 90 94 93 95 87 96 88 97 91 98 89 99 68 100 69 101 77 102
REMARK SMILES IDX 70 103 71 104 75 105 78 106 72 107 73 108 76 109 74 110
REMARK H PARENT 19 18 98 63 66 74
REMARK Flexibility Score: inf
ROOT
ATOM      1  C   UNL A   1      33.043  36.842  30.627  1.00  0.00     0.188 C 
ENDROOT
BRANCH   1   2
ATOM      2  O   UNL A   1      32.439  35.852  29.803  1.00  0.00    -0.376 OA
BRANCH   2   3
ATOM      3  C   UNL A   1      33.208  35.308  28.743  1.00  0.00     0.202 C 
BRANCH   3   4
ATOM      4  C   UNL A   1      34.519  34.584  29.086  1.00  0.00     0.261 C 
BRANCH   4   5
ATOM      5  O   UNL A   1      34.473  33.154  29.032  1.00  0.00    -0.460 OA
BRANCH   5   6
ATOM      6  C   UNL A   1      35.387  32.514  28.272  1.00  0.00     0.338 C 
ATOM      7  O   UNL A   1      36.575  32.767  28.191  1.00  0.00    -0.246 OA
BRANCH   6   8
ATOM      8  C   UNL A   1      34.735  31.302  27.708  1.00  0.00     0.060 A 
ATOM      9  C   UNL A   1      33.499  28.902  26.884  1.00  0.00    -0.029 A 
ATOM     10  C   UNL A   1      34.863  28.931  27.214  1.00  0.00     0.006 A 
ATOM     11  C   UNL A   1      32.764  30.090  26.988  1.00  0.00     0.006 A 
ATOM     12  C   UNL A   1      35.478  30.118  27.629  1.00  0.00     0.016 A 
ATOM     13  C   UNL A   1      33.376  31.286  27.379  1.00  0.00     0.016 A 
BRANCH   9  14
ATOM     14  C   UNL A   1      32.891  27.621  26.355  1.00  0.00     0.151 C 
BRANCH  14  15
ATOM     15  N   UNL A   1      33.564  27.078  25.194  1.00  0.00    -0.350 N 
ATOM     16  C   UNL A   1      33.040  26.394  24.134  1.00  0.00     0.242 C 
ATOM     17  O   UNL A   1      33.738  26.325  23.117  1.00  0.00    -0.273 OA
ATOM     18  H   UNL A   1      34.537  27.223  25.164  1.00  0.00     0.163 HD
BRANCH  16  19
ATOM     19  C   UNL A   1      31.594  25.886  24.136  1.00  0.00     0.248 C 
BRANCH  19  20
ATOM     20  N   UNL A   1      31.404  24.679  24.929  1.00  0.00    -0.220 N 
ATOM     21  C   UNL A   1      32.035  22.521  25.332  1.00  0.00     0.095 A 
ATOM     22  C   UNL A   1      31.047  22.358  26.413  1.00  0.00     0.037 A 
ATOM     23  N   UNL A   1      32.207  23.596  24.628  1.00  0.00    -0.169 NA
ATOM     24  C   UNL A   1      30.336  23.440  26.732  1.00  0.00     0.075 A 
ATOM     25  C   UNL A   1      30.518  24.710  25.999  1.00  0.00     0.267 A 
ATOM     26  O   UNL A   1      29.849  25.686  26.328  1.00  0.00    -0.268 OA
BRANCH  21  27
ATOM     27  C   UNL A   1      32.865  21.335  25.057  1.00  0.00     0.044 A 
ATOM     28  C   UNL A   1      34.242  21.371  25.319  1.00  0.00     0.131 A 
ATOM     29  C   UNL A   1      35.015  20.239  25.057  1.00  0.00     0.086 A 
ATOM     30  C   UNL A   1      34.411  19.107  24.518  1.00  0.00     0.126 A 
ATOM     31  C   UNL A   1      32.264  20.194  24.512  1.00  0.00     0.017 A 
ATOM     32  F   UNL A   1      35.156  18.021  24.272  1.00  0.00    -0.207 F 
ATOM     33  C   UNL A   1      33.047  19.074  24.241  1.00  0.00     0.040 A 
BRANCH  28  34
ATOM     34  O   UNL A   1      34.764  22.483  25.924  1.00  0.00    -0.496 OA
ATOM     35  C   UNL A   1      35.950  22.961  25.292  1.00  0.00     0.278 C 
ENDBRANCH  28  34
ENDBRANCH  21  27
ENDBRANCH  19  20
ENDBRANCH  16  19
ENDBRANCH  14  15
ENDBRANCH   9  14
ENDBRANCH   6   8
ENDBRANCH   5   6
ENDBRANCH   4   5
ENDBRANCH   3   4
ENDBRANCH   2   3
ENDBRANCH   1   2
BRANCH   1  36
ATOM     36  C   UNL A   1      33.183  36.396  32.092  1.00  0.00     0.188 C 
BRANCH  36  37
ATOM     37  O   UNL A   1      34.394  35.733  32.418  1.00  0.00    -0.377 OA
BRANCH  37  38
ATOM     38  C   UNL A   1      34.483  35.030  33.657  1.00  0.00     0.188 C 
BRANCH  38  39
ATOM     39  C   UNL A   1      34.746  33.505  33.755  1.00  0.00     0.188 C 
BRANCH  39  40
ATOM     40  O   UNL A   1      34.591  32.788  32.540  1.00  0.00    -0.376 OA
BRANCH  40  41
ATOM     41  C   UNL A   1      35.741  32.160  31.999  1.00  0.00     0.202 C 
BRANCH  41  42
ATOM     42  C   UNL A   1      37.029  32.349  32.806  1.00  0.00     0.261 C 
BRANCH  42  43
ATOM     43  O   UNL A   1      38.169  32.792  32.059  1.00  0.00    -0.460 OA
BRANCH  43  44
ATOM     44  C   UNL A   1      38.334  34.128  31.887  1.00  0.00     0.338 C 
ATOM     45  O   UNL A   1      37.643  35.018  32.311  1.00  0.00    -0.246 OA
BRANCH  44  46
ATOM     46  C   UNL A   1      39.653  34.296  31.230  1.00  0.00     0.060 A 
ATOM     47  C   UNL A   1      39.719  34.543  29.857  1.00  0.00     0.016 A 
ATOM     48  C   UNL A   1      40.824  34.126  31.979  1.00  0.00     0.016 A 
ATOM     49  C   UNL A   1      40.962  34.631  29.233  1.00  0.00     0.010 A 
ATOM     50  C   UNL A   1      42.071  34.205  31.349  1.00  0.00     0.010 A 
ATOM     51  C   UNL A   1      42.147  34.474  29.974  1.00  0.00    -0.014 A 
BRANCH  51  52
ATOM     52  C   UNL A   1      43.448  34.773  29.328  1.00  0.00     0.031 A 
ATOM     53  C   UNL A   1      43.918  36.172  29.081  1.00  0.00     0.074 A 
ATOM     54  C   UNL A   1      44.224  33.729  28.982  1.00  0.00     0.049 A 
ATOM     55  N   UNL A   1      45.077  36.579  28.624  1.00  0.00    -0.248 NA
ATOM     56  C   UNL A   1      42.973  37.257  29.376  1.00  0.00     0.031 C 
ATOM     57  C   UNL A   1      43.851  32.323  29.154  1.00  0.00     0.029 A 
ATOM     58  N   UNL A   1      45.478  33.679  28.433  1.00  0.00    -0.354 N 
ATOM     59  C   UNL A   1      45.014  37.964  28.596  1.00  0.00     0.074 A 
ATOM     60  C   UNL A   1      43.682  38.330  29.038  1.00  0.00     0.031 C 
ATOM     61  C   UNL A   1      44.867  31.550  28.746  1.00  0.00     0.029 A 
ATOM     62  C   UNL A   1      45.949  32.401  28.262  1.00  0.00     0.049 A 
ATOM     63  H   UNL A   1      45.992  34.481  28.185  1.00  0.00     0.167 HD
ATOM     64  C   UNL A   1      45.987  38.842  28.250  1.00  0.00     0.037 A 
ATOM     65  C   UNL A   1      47.125  31.960  27.776  1.00  0.00     0.037 A 
ATOM     66  C   UNL A   1      47.306  38.463  27.799  1.00  0.00     0.049 A 
ATOM     67  C   UNL A   1      48.171  32.956  27.364  1.00  0.00     0.074 A 
ATOM     68  C   UNL A   1      48.371  39.285  27.471  1.00  0.00     0.029 A 
ATOM     69  N   UNL A   1      47.735  37.159  27.600  1.00  0.00    -0.354 N 
ATOM     70  N   UNL A   1      48.128  34.265  27.416  1.00  0.00    -0.248 NA
ATOM     71  C   UNL A   1      49.430  32.417  26.833  1.00  0.00     0.031 C 
ATOM     72  C   UNL A   1      49.421  38.484  27.013  1.00  0.00     0.029 A 
ATOM     73  C   UNL A   1      49.037  37.158  27.118  1.00  0.00     0.049 A 
ATOM     74  H   UNL A   1      47.196  36.354  27.774  1.00  0.00     0.167 HD
ATOM     75  C   UNL A   1      49.359  34.705  26.950  1.00  0.00     0.074 A 
ATOM     76  C   UNL A   1      50.132  33.523  26.632  1.00  0.00     0.031 C 
ATOM     77  C   UNL A   1      49.802  35.977  26.800  1.00  0.00     0.037 A 
BRANCH  64  78
ATOM     78  C   UNL A   1      45.685  40.310  28.345  1.00  0.00     0.064 A 
ATOM     79  C   UNL A   1      45.870  41.001  29.554  1.00  0.00     0.173 A 
ATOM     80  C   UNL A   1      45.103  41.008  27.276  1.00  0.00     0.173 A 
ATOM     81  F   UNL A   1      46.409  40.380  30.613  1.00  0.00    -0.203 F 
ATOM     82  C   UNL A   1      45.466  42.328  29.692  1.00  0.00     0.198 A 
ATOM     83  C   UNL A   1      44.727  42.343  27.410  1.00  0.00     0.198 A 
ATOM     84  F   UNL A   1      44.905  40.396  26.099  1.00  0.00    -0.203 F 
ATOM     85  F   UNL A   1      45.614  42.953  30.868  1.00  0.00    -0.200 F 
ATOM     86  C   UNL A   1      44.897  42.997  28.620  1.00  0.00     0.200 A 
ATOM     87  F   UNL A   1      44.196  42.995  26.366  1.00  0.00    -0.200 F 
ATOM     88  F   UNL A   1      44.512  44.274  28.753  1.00  0.00    -0.200 F 
ENDBRANCH  64  78
BRANCH  65  89
ATOM     89  C   UNL A   1      47.373  30.498  27.696  1.00  0.00     0.064 A 
ATOM     90  C   UNL A   1      46.922  29.743  26.604  1.00  0.00     0.173 A 
ATOM     91  C   UNL A   1      48.024  29.820  28.736  1.00  0.00     0.173 A 
ATOM     92  F   UNL A   1      46.287  30.346  25.588  1.00  0.00    -0.203 F 
ATOM     93  C   UNL A   1      47.092  28.362  26.564  1.00  0.00     0.198 A 
ATOM     94  C   UNL A   1      48.220  28.442  28.682  1.00  0.00     0.198 A 
ATOM     95  F   UNL A   1      48.486  30.502  29.795  1.00  0.00    -0.203 F 
ATOM     96  F   UNL A   1      46.616  27.659  25.529  1.00  0.00    -0.200 F 
ATOM     97  C   UNL A   1      47.745  27.713  27.602  1.00  0.00     0.200 A 
ATOM     98  F   UNL A   1      48.871  27.822  29.675  1.00  0.00    -0.200 F 
ATOM     99  F   UNL A   1      47.919  26.385  27.559  1.00  0.00    -0.200 F 
ENDBRANCH  65  89
BRANCH  77 100
ATOM    100  C   UNL A   1      51.198  36.173  26.280  1.00  0.00     0.064 A 
ATOM    101  C   UNL A   1      51.434  36.287  24.901  1.00  0.00     0.173 A 
ATOM    102  C   UNL A   1      52.308  36.166  27.136  1.00  0.00     0.173 A 
ATOM    103  F   UNL A   1      50.408  36.292  24.036  1.00  0.00    -0.203 F 
ATOM    104  C   UNL A   1      52.731  36.370  24.399  1.00  0.00     0.198 A 
ATOM    105  C   UNL A   1      53.602  36.280  26.633  1.00  0.00     0.198 A 
ATOM    106  F   UNL A   1      52.137  36.073  28.463  1.00  0.00    -0.203 F 
ATOM    107  F   UNL A   1      52.933  36.439  23.076  1.00  0.00    -0.200 F 
ATOM    108  C   UNL A   1      53.813  36.370  25.265  1.00  0.00     0.200 A 
ATOM    109  F   UNL A   1      54.646  36.306  27.473  1.00  0.00    -0.200 F 
ATOM    110  F   UNL A   1      55.060  36.458  24.782  1.00  0.00    -0.200 F 
ENDBRANCH  77 100
ENDBRANCH  51  52
ENDBRANCH  44  46
ENDBRANCH  43  44
ENDBRANCH  42  43
ENDBRANCH  41  42
ENDBRANCH  40  41
ENDBRANCH  39  40
ENDBRANCH  38  39
ENDBRANCH  37  38
ENDBRANCH  36  37
ENDBRANCH   1  36
TORSDOF 26
ENDMDL
MODEL 2
REMARK VINA RESULT:      -9.9      3.354      6.031
REMARK SMILES COc1cc(F)ccc1-c1ccc(=O)n(CC(=O)NCc2ccc(C(=O)OCCOCCOCCOCCOC(=O)c3ccc(-c4c5nc(c(-c6c(F)c(F)c(F)c(F)c6F)c6ccc([nH]6)c(-c6c(F)c(F)c(F)c(F)c6F)c6nc(c(-c7c(F)c(F)c(F)c(F)c7F)c7ccc4[nH]7)C=C6)C=C5)cc3)cc2)n1
REMARK SMILES IDX 31 1 30 2 29 3 28 4 27 5 25 6 26 7 24 8 21 9 22 10 106 11
REMARK SMILES IDX 23 12 105 13 20 14 19 15 17 16 18 17 16 19 15 20 10 21 11 22
REMARK SMILES IDX 107 23 12 24 13 25 14 26 9 27 3 28 4 29 5 30 8 31 6 32 7 33
REMARK SMILES IDX 2 34 1 35 32 36 33 37 34 38 35 39 36 40 37 41 38 42 39 43
REMARK SMILES IDX 40 44 41 45 42 46 43 47 104 48 44 49 103 50 45 51 46 52
REMARK SMILES IDX 47 53 97 54 48 55 102 56 96 57 98 58 49 59 101 60 95 61
REMARK SMILES IDX 94 62 50 64 82 65 62 66 81 67 63 68 66 69 80 70 99 71 64 72
REMARK SMILES IDX 65 73 79 75 100 76 67 77 51 78 52 79 60 80 53 81 54 82 58 83
REMARK SMILES IDX 61 84 55 85 56 86 59 87 57 88 83 89 84 90 92 91 85 92 86 93
REMARK SMILES IDX 90 94 93 95 87 96 88 97 91 98 89 99 68 100 69 101 77 102
REMARK SMILES IDX 70 103 71 104 75 105 78 106 72 107 73 108 76 109 74 110
REMARK H PARENT 19 18 98 63 66 74
REMARK Flexibility Score: inf
ROOT
ATOM      1  C   UNL A   1      32.920  36.468  30.775  1.00  0.00     0.188 C 
ENDROOT
BRANCH   1   2
ATOM      2  O   UNL A   1      32.471  35.304  30.091  1.00  0.00    -0.376 OA
BRANCH   2   3
ATOM      3  C   UNL A   1      33.351  34.698  29.159  1.00  0.00     0.202 C 
BRANCH   3   4
ATOM      4  C   UNL A   1      34.479  33.802  29.693  1.00  0.00     0.261 C 
BRANCH   4   5
ATOM      5  O   UNL A   1      34.445  32.436  29.264  1.00  0.00    -0.460 OA
BRANCH   5   6
ATOM      6  C   UNL A   1      35.045  32.118  28.098  1.00  0.00     0.338 C 
ATOM      7  O   UNL A   1      36.124  32.518  27.699  1.00  0.00    -0.246 OA
BRANCH   6   8
ATOM      8  C   UNL A   1      34.261  31.021  27.472  1.00  0.00     0.060 A 
ATOM      9  C   UNL A   1      32.781  28.814  26.519  1.00  0.00    -0.029 A 
ATOM     10  C   UNL A   1      34.163  28.710  26.745  1.00  0.00     0.006 A 
ATOM     11  C   UNL A   1      32.153  30.037  26.793  1.00  0.00     0.006 A 
ATOM     12  C   UNL A   1      34.898  29.800  27.223  1.00  0.00     0.016 A 
ATOM     13  C   UNL A   1      32.885  31.138  27.249  1.00  0.00     0.016 A 
BRANCH   9  14
ATOM     14  C   UNL A   1      32.036  27.642  25.918  1.00  0.00     0.151 C 
BRANCH  14  15
ATOM     15  N   UNL A   1      32.384  27.359  24.542  1.00  0.00    -0.350 N 
ATOM     16  C   UNL A   1      31.831  26.455  23.681  1.00  0.00     0.242 C 
ATOM     17  O   UNL A   1      32.059  26.620  22.477  1.00  0.00    -0.273 OA
ATOM     18  H   UNL A   1      33.124  27.895  24.174  1.00  0.00     0.163 HD
BRANCH  16  19
ATOM     19  C   UNL A   1      30.836  25.390  24.156  1.00  0.00     0.248 C 
BRANCH  19  20
ATOM     20  N   UNL A   1      31.395  24.472  25.140  1.00  0.00    -0.220 N 
ATOM     21  C   UNL A   1      33.155  23.157  25.764  1.00  0.00     0.095 A 
ATOM     22  C   UNL A   1      32.474  22.702  26.989  1.00  0.00     0.037 A 
ATOM     23  N   UNL A   1      32.660  23.977  24.891  1.00  0.00    -0.169 NA
ATOM     24  C   UNL A   1      31.285  23.250  27.242  1.00  0.00     0.075 A 
ATOM     25  C   UNL A   1      30.685  24.227  26.310  1.00  0.00     0.267 A 
ATOM     26  O   UNL A   1      29.592  24.714  26.583  1.00  0.00    -0.268 OA
BRANCH  21  27
ATOM     27  C   UNL A   1      34.502  22.600  25.553  1.00  0.00     0.044 A 
ATOM     28  C   UNL A   1      34.650  21.326  24.989  1.00  0.00     0.131 A 
ATOM     29  C   UNL A   1      35.933  20.812  24.792  1.00  0.00     0.086 A 
ATOM     30  C   UNL A   1      37.039  21.563  25.182  1.00  0.00     0.126 A 
ATOM     31  C   UNL A   1      35.618  23.349  25.946  1.00  0.00     0.017 A 
ATOM     32  F   UNL A   1      38.268  21.069  24.987  1.00  0.00    -0.207 F 
ATOM     33  C   UNL A   1      36.894  22.822  25.758  1.00  0.00     0.040 A 
BRANCH  28  34
ATOM     34  O   UNL A   1      33.531  20.670  24.551  1.00  0.00    -0.496 OA
ATOM     35  C   UNL A   1      33.602  19.257  24.730  1.00  0.00     0.278 C 
ENDBRANCH  28  34
ENDBRANCH  21  27
ENDBRANCH  19  20
ENDBRANCH  16  19
ENDBRANCH  14  15
ENDBRANCH   9  14
ENDBRANCH   6   8
ENDBRANCH   5   6
ENDBRANCH   4   5
ENDBRANCH   3   4
ENDBRANCH   2   3
ENDBRANCH   1   2
BRANCH   1  36
ATOM     36  C   UNL A   1      33.364  36.177  32.219  1.00  0.00     0.188 C 
BRANCH  36  37
ATOM     37  O   UNL A   1      34.651  35.598  32.359  1.00  0.00    -0.377 OA
BRANCH  37  38
ATOM     38  C   UNL A   1      35.053  35.114  33.641  1.00  0.00     0.188 C 
BRANCH  38  39
ATOM     39  C   UNL A   1      34.866  33.643  34.094  1.00  0.00     0.188 C 
BRANCH  39  40
ATOM     40  O   UNL A   1      34.730  32.701  33.042  1.00  0.00    -0.376 OA
BRANCH  40  41
ATOM     41  C   UNL A   1      35.899  32.023  32.616  1.00  0.00     0.202 C 
BRANCH  41  42
ATOM     42  C   UNL A   1      37.072  32.060  33.601  1.00  0.00     0.261 C 
BRANCH  42  43
ATOM     43  O   UNL A   1      38.365  31.807  33.036  1.00  0.00    -0.460 OA
BRANCH  43  44
ATOM     44  C   UNL A   1      38.989  32.830  32.399  1.00  0.00     0.338 C 
ATOM     45  O   UNL A   1      38.785  34.009  32.520  1.00  0.00    -0.246 OA
BRANCH  44  46
ATOM     46  C   UNL A   1      40.119  32.219  31.656  1.00  0.00     0.060 A 
ATOM     47  C   UNL A   1      40.137  32.262  30.261  1.00  0.00     0.016 A 
ATOM     48  C   UNL A   1      41.118  31.536  32.360  1.00  0.00     0.016 A 
ATOM     49  C   UNL A   1      41.165  31.626  29.566  1.00  0.00     0.010 A 
ATOM     50  C   UNL A   1      42.145  30.891  31.661  1.00  0.00     0.010 A 
ATOM     51  C   UNL A   1      42.183  30.947  30.260  1.00  0.00    -0.014 A 
BRANCH  51  52
ATOM     52  C   UNL A   1      43.366  30.458  29.511  1.00  0.00     0.031 A 
ATOM     53  C   UNL A   1      44.560  31.320  29.248  1.00  0.00     0.074 A 
ATOM     54  C   UNL A   1      43.346  29.182  29.083  1.00  0.00     0.049 A 
ATOM     55  N   UNL A   1      45.705  30.989  28.700  1.00  0.00    -0.248 NA
ATOM     56  C   UNL A   1      44.466  32.732  29.639  1.00  0.00     0.031 C 
ATOM     57  C   UNL A   1      42.221  28.262  29.263  1.00  0.00     0.029 A 
ATOM     58  N   UNL A   1      44.289  28.435  28.428  1.00  0.00    -0.354 N 
ATOM     59  C   UNL A   1      46.476  32.142  28.701  1.00  0.00     0.074 A 
ATOM     60  C   UNL A   1      45.652  33.196  29.260  1.00  0.00     0.031 C 
ATOM     61  C   UNL A   1      42.551  27.065  28.758  1.00  0.00     0.029 A 
ATOM     62  C   UNL A   1      43.897  27.140  28.197  1.00  0.00     0.049 A 
ATOM     63  H   UNL A   1      45.164  28.791  28.151  1.00  0.00     0.167 HD
ATOM     64  C   UNL A   1      47.758  32.294  28.288  1.00  0.00     0.037 A 
ATOM     65  C   UNL A   1      44.548  26.120  27.606  1.00  0.00     0.037 A 
ATOM     66  C   UNL A   1      48.564  31.238  27.721  1.00  0.00     0.049 A 
ATOM     67  C   UNL A   1      45.955  26.328  27.123  1.00  0.00     0.074 A 
ATOM     68  C   UNL A   1      49.887  31.289  27.317  1.00  0.00     0.029 A 
ATOM     69  N   UNL A   1      48.120  29.948  27.464  1.00  0.00    -0.354 N 
ATOM     70  N   UNL A   1      46.703  27.402  27.200  1.00  0.00    -0.248 NA
ATOM     71  C   UNL A   1      46.612  25.183  26.479  1.00  0.00     0.031 C 
ATOM     72  C   UNL A   1      50.226  30.053  26.758  1.00  0.00     0.029 A 
ATOM     73  C   UNL A   1      49.135  29.207  26.874  1.00  0.00     0.049 A 
ATOM     74  H   UNL A   1      47.220  29.609  27.670  1.00  0.00     0.167 HD
ATOM     75  C   UNL A   1      47.924  27.057  26.638  1.00  0.00     0.074 A 
ATOM     76  C   UNL A   1      47.822  25.670  26.237  1.00  0.00     0.031 C 
ATOM     77  C   UNL A   1      49.027  27.826  26.472  1.00  0.00     0.037 A 
BRANCH  64  78
ATOM     78  C   UNL A   1      48.396  33.646  28.433  1.00  0.00     0.064 A 
ATOM     79  C   UNL A   1      48.312  34.591  27.397  1.00  0.00     0.173 A 
ATOM     80  C   UNL A   1      49.190  33.964  29.545  1.00  0.00     0.173 A 
ATOM     81  F   UNL A   1      47.578  34.335  26.304  1.00  0.00    -0.203 F 
ATOM     82  C   UNL A   1      49.012  35.794  27.463  1.00  0.00     0.198 A 
ATOM     83  C   UNL A   1      49.866  35.180  29.620  1.00  0.00     0.198 A 
ATOM     84  F   UNL A   1      49.304  33.097  30.562  1.00  0.00    -0.203 F 
ATOM     85  F   UNL A   1      48.950  36.662  26.444  1.00  0.00    -0.200 F 
ATOM     86  C   UNL A   1      49.787  36.087  28.575  1.00  0.00     0.200 A 
ATOM     87  F   UNL A   1      50.598  35.471  30.705  1.00  0.00    -0.200 F 
ATOM     88  F   UNL A   1      50.458  37.246  28.639  1.00  0.00    -0.200 F 
ENDBRANCH  64  78
BRANCH  65  89
ATOM     89  C   UNL A   1      43.873  24.804  27.481  1.00  0.00     0.064 A 
ATOM     90  C   UNL A   1      43.761  23.938  28.579  1.00  0.00     0.173 A 
ATOM     91  C   UNL A   1      43.369  24.366  26.249  1.00  0.00     0.173 A 
ATOM     92  F   UNL A   1      44.235  24.308  29.777  1.00  0.00    -0.203 F 
ATOM     93  C   UNL A   1      43.192  22.675  28.443  1.00  0.00     0.198 A 
ATOM     94  C   UNL A   1      42.773  23.114  26.121  1.00  0.00     0.198 A 
ATOM     95  F   UNL A   1      43.440  25.166  25.174  1.00  0.00    -0.203 F 
ATOM     96  F   UNL A   1      43.135  21.851  29.498  1.00  0.00    -0.200 F 
ATOM     97  C   UNL A   1      42.694  22.265  27.215  1.00  0.00     0.200 A 
ATOM     98  F   UNL A   1      42.273  22.731  24.939  1.00  0.00    -0.200 F 
ATOM     99  F   UNL A   1      42.136  21.054  27.087  1.00  0.00    -0.200 F 
ENDBRANCH  65  89
BRANCH  77 100
ATOM    100  C   UNL A   1      50.232  27.190  25.839  1.00  0.00     0.064 A 
ATOM    101  C   UNL A   1      51.226  26.599  26.635  1.00  0.00     0.173 A 
ATOM    102  C   UNL A   1      50.443  27.236  24.453  1.00  0.00     0.173 A 
ATOM    103  F   UNL A   1      51.078  26.535  27.967  1.00  0.00    -0.203 F 
ATOM    104  C   UNL A   1      52.393  26.093  26.068  1.00  0.00     0.198 A 
ATOM    105  C   UNL A   1      51.598  26.702  23.887  1.00  0.00     0.198 A 
ATOM    106  F   UNL A   1      49.519  27.777  23.647  1.00  0.00    -0.203 F 
ATOM    107  F   UNL A   1      53.346  25.570  26.852  1.00  0.00    -0.200 F 
ATOM    108  C   UNL A   1      52.577  26.142  24.694  1.00  0.00     0.200 A 
ATOM    109  F   UNL A   1      51.763  26.726  22.557  1.00  0.00    -0.200 F 
ATOM    110  F   UNL A   1      53.697  25.649  24.148  1.00  0.00    -0.200 F 
ENDBRANCH  77 100
ENDBRANCH  51  52
ENDBRANCH  44  46
ENDBRANCH  43  44
ENDBRANCH  42  43
ENDBRANCH  41  42
ENDBRANCH  40  41
ENDBRANCH  39  40
ENDBRANCH  38  39
ENDBRANCH  37  38
ENDBRANCH  36  37
ENDBRANCH   1  36
TORSDOF 26
ENDMDL
MODEL 3
REMARK VINA RESULT:      -9.3      3.378      8.114
REMARK SMILES COc1cc(F)ccc1-c1ccc(=O)n(CC(=O)NCc2ccc(C(=O)OCCOCCOCCOCCOC(=O)c3ccc(-c4c5nc(c(-c6c(F)c(F)c(F)c(F)c6F)c6ccc([nH]6)c(-c6c(F)c(F)c(F)c(F)c6F)c6nc(c(-c7c(F)c(F)c(F)c(F)c7F)c7ccc4[nH]7)C=C6)C=C5)cc3)cc2)n1
REMARK SMILES IDX 31 1 30 2 29 3 28 4 27 5 25 6 26 7 24 8 21 9 22 10 106 11
REMARK SMILES IDX 23 12 105 13 20 14 19 15 17 16 18 17 16 19 15 20 10 21 11 22
REMARK SMILES IDX 107 23 12 24 13 25 14 26 9 27 3 28 4 29 5 30 8 31 6 32 7 33
REMARK SMILES IDX 2 34 1 35 32 36 33 37 34 38 35 39 36 40 37 41 38 42 39 43
REMARK SMILES IDX 40 44 41 45 42 46 43 47 104 48 44 49 103 50 45 51 46 52
REMARK SMILES IDX 47 53 97 54 48 55 102 56 96 57 98 58 49 59 101 60 95 61
REMARK SMILES IDX 94 62 50 64 82 65 62 66 81 67 63 68 66 69 80 70 99 71 64 72
REMARK SMILES IDX 65 73 79 75 100 76 67 77 51 78 52 79 60 80 53 81 54 82 58 83
REMARK SMILES IDX 61 84 55 85 56 86 59 87 57 88 83 89 84 90 92 91 85 92 86 93
REMARK SMILES IDX 90 94 93 95 87 96 88 97 91 98 89 99 68 100 69 101 77 102
REMARK SMILES IDX 70 103 71 104 75 105 78 106 72 107 73 108 76 109 74 110
REMARK H PARENT 19 18 98 63 66 74
REMARK Flexibility Score: inf
ROOT
ATOM      1  C   UNL A   1      33.117  36.337  30.972  1.00  0.00     0.188 C 
ENDROOT
BRANCH   1   2
ATOM      2  O   UNL A   1      32.713  35.068  30.472  1.00  0.00    -0.376 OA
BRANCH   2   3
ATOM      3  C   UNL A   1      33.597  34.384  29.600  1.00  0.00     0.202 C 
BRANCH   3   4
ATOM      4  C   UNL A   1      34.552  33.339  30.197  1.00  0.00     0.261 C 
BRANCH   4   5
ATOM      5  O   UNL A   1      34.684  32.121  29.456  1.00  0.00    -0.460 OA
BRANCH   5   6
ATOM      6  C   UNL A   1      34.977  32.201  28.141  1.00  0.00     0.338 C 
ATOM      7  O   UNL A   1      35.836  32.893  27.626  1.00  0.00    -0.246 OA
BRANCH   6   8
ATOM      8  C   UNL A   1      34.212  31.134  27.443  1.00  0.00     0.060 A 
ATOM      9  C   UNL A   1      32.764  28.973  26.347  1.00  0.00    -0.029 A 
ATOM     10  C   UNL A   1      34.139  28.859  26.608  1.00  0.00     0.006 A 
ATOM     11  C   UNL A   1      32.127  30.182  26.658  1.00  0.00     0.006 A 
ATOM     12  C   UNL A   1      34.859  29.926  27.157  1.00  0.00     0.016 A 
ATOM     13  C   UNL A   1      32.844  31.262  27.184  1.00  0.00     0.016 A 
BRANCH   9  14
ATOM     14  C   UNL A   1      32.039  27.830  25.671  1.00  0.00     0.151 C 
BRANCH  14  15
ATOM     15  N   UNL A   1      32.788  27.197  24.606  1.00  0.00    -0.350 N 
ATOM     16  C   UNL A   1      32.377  26.262  23.700  1.00  0.00     0.242 C 
ATOM     17  O   UNL A   1      33.077  26.119  22.691  1.00  0.00    -0.273 OA
ATOM     18  H   UNL A   1      33.727  27.482  24.523  1.00  0.00     0.163 HD
BRANCH  16  19
ATOM     19  C   UNL A   1      31.028  25.547  23.832  1.00  0.00     0.248 C 
BRANCH  19  20
ATOM     20  N   UNL A   1      31.053  24.430  24.768  1.00  0.00    -0.220 N 
ATOM     21  C   UNL A   1      31.932  22.393  25.311  1.00  0.00     0.095 A 
ATOM     22  C   UNL A   1      31.104  22.278  26.524  1.00  0.00     0.037 A 
ATOM     23  N   UNL A   1      31.913  23.388  24.481  1.00  0.00    -0.169 NA
ATOM     24  C   UNL A   1      30.336  23.329  26.817  1.00  0.00     0.075 A 
ATOM     25  C   UNL A   1      30.304  24.515  25.935  1.00  0.00     0.267 A 
ATOM     26  O   UNL A   1      29.590  25.464  26.244  1.00  0.00    -0.268 OA
BRANCH  21  27
ATOM     27  C   UNL A   1      32.833  21.255  25.058  1.00  0.00     0.044 A 
ATOM     28  C   UNL A   1      34.211  21.394  25.273  1.00  0.00     0.131 A 
ATOM     29  C   UNL A   1      35.052  20.307  25.032  1.00  0.00     0.086 A 
ATOM     30  C   UNL A   1      34.511  19.115  24.558  1.00  0.00     0.126 A 
ATOM     31  C   UNL A   1      32.296  20.055  24.577  1.00  0.00     0.017 A 
ATOM     32  F   UNL A   1      35.321  18.073  24.332  1.00  0.00    -0.207 F 
ATOM     33  C   UNL A   1      33.145  18.979  24.326  1.00  0.00     0.040 A 
BRANCH  28  34
ATOM     34  O   UNL A   1      34.674  22.563  25.817  1.00  0.00    -0.496 OA
ATOM     35  C   UNL A   1      35.547  23.280  24.946  1.00  0.00     0.278 C 
ENDBRANCH  28  34
ENDBRANCH  21  27
ENDBRANCH  19  20
ENDBRANCH  16  19
ENDBRANCH  14  15
ENDBRANCH   9  14
ENDBRANCH   6   8
ENDBRANCH   5   6
ENDBRANCH   4   5
ENDBRANCH   3   4
ENDBRANCH   2   3
ENDBRANCH   1   2
BRANCH   1  36
ATOM     36  C   UNL A   1      33.772  36.250  32.362  1.00  0.00     0.188 C 
BRANCH  36  37
ATOM     37  O   UNL A   1      35.005  35.550  32.415  1.00  0.00    -0.377 OA
BRANCH  37  38
ATOM     38  C   UNL A   1      35.583  35.269  33.689  1.00  0.00     0.188 C 
BRANCH  38  39
ATOM     39  C   UNL A   1      35.262  33.992  34.508  1.00  0.00     0.188 C 
BRANCH  39  40
ATOM     40  O   UNL A   1      35.197  32.792  33.753  1.00  0.00    -0.376 OA
BRANCH  40  41
ATOM     41  C   UNL A   1      36.417  32.250  33.280  1.00  0.00     0.202 C 
BRANCH  41  42
ATOM     42  C   UNL A   1      37.684  32.895  33.851  1.00  0.00     0.261 C 
BRANCH  42  43
ATOM     43  O   UNL A   1      38.906  32.564  33.177  1.00  0.00    -0.460 OA
BRANCH  43  44
ATOM     44  C   UNL A   1      39.510  33.537  32.449  1.00  0.00     0.338 C 
ATOM     45  O   UNL A   1      39.254  34.712  32.430  1.00  0.00    -0.246 OA
BRANCH  44  46
ATOM     46  C   UNL A   1      40.691  32.899  31.817  1.00  0.00     0.060 A 
ATOM     47  C   UNL A   1      41.692  32.342  32.615  1.00  0.00     0.016 A 
ATOM     48  C   UNL A   1      40.829  32.930  30.423  1.00  0.00     0.016 A 
ATOM     49  C   UNL A   1      42.831  31.806  32.018  1.00  0.00     0.010 A 
ATOM     50  C   UNL A   1      41.978  32.399  29.825  1.00  0.00     0.010 A 
ATOM     51  C   UNL A   1      42.978  31.819  30.620  1.00  0.00    -0.014 A 
BRANCH  51  52
ATOM     52  C   UNL A   1      44.096  31.064  30.003  1.00  0.00     0.031 A 
ATOM     53  C   UNL A   1      43.983  29.617  29.642  1.00  0.00     0.074 A 
ATOM     54  C   UNL A   1      45.234  31.737  29.751  1.00  0.00     0.049 A 
ATOM     55  N   UNL A   1      44.843  28.862  29.002  1.00  0.00    -0.248 NA
ATOM     56  C   UNL A   1      42.757  28.918  30.051  1.00  0.00     0.031 C 
ATOM     57  C   UNL A   1      45.461  33.144  30.087  1.00  0.00     0.029 A 
ATOM     58  N   UNL A   1      46.401  31.343  29.149  1.00  0.00    -0.354 N 
ATOM     59  C   UNL A   1      44.257  27.608  28.909  1.00  0.00     0.074 A 
ATOM     60  C   UNL A   1      42.986  27.688  29.603  1.00  0.00     0.031 C 
ATOM     61  C   UNL A   1      46.679  33.504  29.660  1.00  0.00     0.029 A 
ATOM     62  C   UNL A   1      47.328  32.350  29.045  1.00  0.00     0.049 A 
ATOM     63  H   UNL A   1      46.559  30.428  28.823  1.00  0.00     0.167 HD
ATOM     64  C   UNL A   1      44.735  26.503  28.287  1.00  0.00     0.037 A 
ATOM     65  C   UNL A   1      48.563  32.350  28.507  1.00  0.00     0.037 A 
ATOM     66  C   UNL A   1      46.009  26.433  27.610  1.00  0.00     0.049 A 
ATOM     67  C   UNL A   1      49.082  31.099  27.857  1.00  0.00     0.074 A 
ATOM     68  C   UNL A   1      46.555  25.369  26.912  1.00  0.00     0.029 A 
ATOM     69  N   UNL A   1      46.941  27.460  27.559  1.00  0.00    -0.354 N 
ATOM     70  N   UNL A   1      48.487  29.940  27.706  1.00  0.00    -0.248 NA
ATOM     71  C   UNL A   1      50.437  31.155  27.296  1.00  0.00     0.031 C 
ATOM     72  C   UNL A   1      47.839  25.728  26.494  1.00  0.00     0.029 A 
ATOM     73  C   UNL A   1      48.071  27.040  26.871  1.00  0.00     0.049 A 
ATOM     74  H   UNL A   1      46.818  28.355  27.951  1.00  0.00     0.167 HD
ATOM     75  C   UNL A   1      49.383  29.139  27.014  1.00  0.00     0.074 A 
ATOM     76  C   UNL A   1      50.557  29.948  26.761  1.00  0.00     0.031 C 
ATOM     77  C   UNL A   1      49.240  27.849  26.625  1.00  0.00     0.037 A 
BRANCH  64  78
ATOM     78  C   UNL A   1      43.886  25.264  28.288  1.00  0.00     0.064 A 
ATOM     79  C   UNL A   1      43.025  24.986  27.214  1.00  0.00     0.173 A 
ATOM     80  C   UNL A   1      43.836  24.414  29.403  1.00  0.00     0.173 A 
ATOM     81  F   UNL A   1      43.021  25.773  26.128  1.00  0.00    -0.203 F 
ATOM     82  C   UNL A   1      42.135  23.915  27.265  1.00  0.00     0.198 A 
ATOM     83  C   UNL A   1      42.964  23.327  29.438  1.00  0.00     0.198 A 
ATOM     84  F   UNL A   1      44.637  24.633  30.456  1.00  0.00    -0.203 F 
ATOM     85  F   UNL A   1      41.294  23.694  26.245  1.00  0.00    -0.200 F 
ATOM     86  C   UNL A   1      42.106  23.087  28.376  1.00  0.00     0.200 A 
ATOM     87  F   UNL A   1      42.952  22.515  30.504  1.00  0.00    -0.200 F 
ATOM     88  F   UNL A   1      41.252  22.055  28.423  1.00  0.00    -0.200 F 
ENDBRANCH  64  78
BRANCH  65  89
ATOM     89  C   UNL A   1      49.365  33.598  28.536  1.00  0.00     0.064 A 
ATOM     90  C   UNL A   1      49.193  34.595  27.565  1.00  0.00     0.173 A 
ATOM     91  C   UNL A   1      50.356  33.795  29.507  1.00  0.00     0.173 A 
ATOM     92  F   UNL A   1      48.263  34.448  26.609  1.00  0.00    -0.203 F 
ATOM     93  C   UNL A   1      49.996  35.732  27.551  1.00  0.00     0.198 A 
ATOM     94  C   UNL A   1      51.139  34.947  29.510  1.00  0.00     0.198 A 
ATOM     95  F   UNL A   1      50.548  32.876  30.465  1.00  0.00    -0.203 F 
ATOM     96  F   UNL A   1      49.838  36.650  26.589  1.00  0.00    -0.200 F 
ATOM     97  C   UNL A   1      50.966  35.910  28.527  1.00  0.00     0.200 A 
ATOM     98  F   UNL A   1      52.059  35.126  30.467  1.00  0.00    -0.200 F 
ATOM     99  F   UNL A   1      51.731  37.009  28.520  1.00  0.00    -0.200 F 
ENDBRANCH  65  89
BRANCH  77 100
ATOM    100  C   UNL A   1      50.374  27.218  25.869  1.00  0.00     0.064 A 
ATOM    101  C   UNL A   1      51.392  26.532  26.551  1.00  0.00     0.173 A 
ATOM    102  C   UNL A   1      50.499  27.360  24.479  1.00  0.00     0.173 A 
ATOM    103  F   UNL A   1      51.326  26.373  27.882  1.00  0.00    -0.203 F 
ATOM    104  C   UNL A   1      52.498  26.028  25.873  1.00  0.00     0.198 A 
ATOM    105  C   UNL A   1      51.592  26.828  23.800  1.00  0.00     0.198 A 
ATOM    106  F   UNL A   1      49.549  27.995  23.777  1.00  0.00    -0.203 F 
ATOM    107  F   UNL A   1      53.476  25.412  26.552  1.00  0.00    -0.200 F 
ATOM    108  C   UNL A   1      52.596  26.174  24.498  1.00  0.00     0.200 A 
ATOM    109  F   UNL A   1      51.673  26.947  22.467  1.00  0.00    -0.200 F 
ATOM    110  F   UNL A   1      53.658  25.682  23.844  1.00  0.00    -0.200 F 
ENDBRANCH  77 100
ENDBRANCH  51  52
ENDBRANCH  44  46
ENDBRANCH  43  44
ENDBRANCH  42  43
ENDBRANCH  41  42
ENDBRANCH  40  41
ENDBRANCH  39  40
ENDBRANCH  38  39
ENDBRANCH  37  38
ENDBRANCH  36  37
ENDBRANCH   1  36
TORSDOF 26
ENDMDL
