MODEL 1
REMARK VINA RESULT:      -8.4      0.000      0.000
REMARK SMILES Cc1ccc2oc(CCCC(=O)OCCOCCOCCOCCOC(=O)c3ccc(-c4c5nc(c(-c6c(F)c(F)c(F)c(F)c6F)c6ccc([nH]6)c(-c6c(F)c(F)c(F)c(F)c6F)c6nc(c(-c7c(F)c(F)c(F)c(F)c7F)c7ccc4[nH]7)C=C6)C=C5)cc3)cc(=O)c2c1
REMARK SMILES IDX 18 1 17 2 16 3 15 4 14 5 13 6 11 7 12 8 10 9 9 10 8 11 7 12
REMARK SMILES IDX 1 13 2 14 3 15 95 16 4 17 94 18 5 19 92 20 6 21 91 22 93 23
REMARK SMILES IDX 19 24 20 25 21 26 22 27 23 28 24 29 25 30 26 31 27 32 28 33
REMARK SMILES IDX 29 34 90 35 30 36 89 37 31 38 32 39 33 40 83 41 34 42 88 43
REMARK SMILES IDX 82 44 84 45 35 46 87 47 81 48 80 49 36 51 68 52 48 53 67 54
REMARK SMILES IDX 49 55 52 56 66 57 85 58 50 59 51 60 65 62 86 63 53 64 37 65
REMARK SMILES IDX 38 66 46 67 39 68 40 69 44 70 47 71 41 72 42 73 45 74 43 75
REMARK SMILES IDX 69 76 70 77 78 78 71 79 72 80 76 81 79 82 73 83 74 84 77 85
REMARK SMILES IDX 75 86 54 87 55 88 63 89 56 90 57 91 61 92 64 93 58 94 59 95
REMARK SMILES IDX 62 96 60 97
REMARK H PARENT 84 50 52 61
REMARK Flexibility Score: inf
ROOT
ATOM      1  C   UNL A   1      43.376  19.075  25.381  1.00  0.00     0.188 C 
ENDROOT
BRANCH   1   2
ATOM      2  C   UNL A   1      42.434  18.479  26.440  1.00  0.00     0.188 C 
BRANCH   2   3
ATOM      3  O   UNL A   1      42.259  19.311  27.565  1.00  0.00    -0.376 OA
BRANCH   3   4
ATOM      4  C   UNL A   1      41.327  20.376  27.498  1.00  0.00     0.202 C 
BRANCH   4   5
ATOM      5  C   UNL A   1      41.766  21.854  27.523  1.00  0.00     0.261 C 
BRANCH   5   6
ATOM      6  O   UNL A   1      40.773  22.810  27.921  1.00  0.00    -0.463 OA
BRANCH   6   7
ATOM      7  C   UNL A   1      41.087  24.117  27.823  1.00  0.00     0.305 C 
ATOM      8  O   UNL A   1      42.231  24.555  27.905  1.00  0.00    -0.252 OA
BRANCH   7   9
ATOM      9  C   UNL A   1      39.910  25.023  27.484  1.00  0.00     0.123 C 
BRANCH   9  10
ATOM     10  C   UNL A   1      39.687  26.420  28.096  1.00  0.00     0.020 C 
BRANCH  10  11
ATOM     11  C   UNL A   1      40.616  26.938  29.200  1.00  0.00     0.076 C 
BRANCH  11  12
ATOM     12  C   UNL A   1      39.938  27.999  30.007  1.00  0.00     0.108 A 
ATOM     13  C   UNL A   1      38.229  34.036  31.469  1.00  0.00     0.044 C 
ATOM     14  C   UNL A   1      38.867  32.731  31.099  1.00  0.00    -0.050 A 
ATOM     15  C   UNL A   1      40.156  32.700  30.549  1.00  0.00     0.007 A 
ATOM     16  C   UNL A   1      38.173  31.531  31.314  1.00  0.00     0.019 A 
ATOM     17  C   UNL A   1      40.757  31.485  30.237  1.00  0.00     0.048 A 
ATOM     18  C   UNL A   1      38.774  30.318  30.984  1.00  0.00     0.065 A 
ATOM     19  C   UNL A   1      40.062  30.301  30.460  1.00  0.00     0.138 A 
ATOM     20  C   UNL A   1      38.060  29.038  31.130  1.00  0.00     0.192 A 
ATOM     21  O   UNL A   1      40.699  29.142  30.129  1.00  0.00    -0.461 OA
ATOM     22  C   UNL A   1      38.701  27.865  30.507  1.00  0.00     0.095 A 
ATOM     23  O   UNL A   1      36.966  28.947  31.670  1.00  0.00    -0.289 OA
ENDBRANCH  11  12
ENDBRANCH  10  11
ENDBRANCH   9  10
ENDBRANCH   7   9
ENDBRANCH   6   7
ENDBRANCH   5   6
ENDBRANCH   4   5
ENDBRANCH   3   4
ENDBRANCH   2   3
ENDBRANCH   1   2
BRANCH   1  24
ATOM     24  O   UNL A   1      44.629  18.456  25.120  1.00  0.00    -0.377 OA
BRANCH  24  25
ATOM     25  C   UNL A   1      45.805  19.257  25.021  1.00  0.00     0.188 C 
BRANCH  25  26
ATOM     26  C   UNL A   1      45.745  20.776  25.291  1.00  0.00     0.188 C 
BRANCH  26  27
ATOM     27  O   UNL A   1      45.688  21.587  24.130  1.00  0.00    -0.376 OA
BRANCH  27  28
ATOM     28  C   UNL A   1      44.524  22.375  23.937  1.00  0.00     0.202 C 
BRANCH  28  29
ATOM     29  C   UNL A   1      44.088  23.296  25.088  1.00  0.00     0.261 C 
BRANCH  29  30
ATOM     30  O   UNL A   1      44.158  24.710  24.832  1.00  0.00    -0.460 OA
BRANCH  30  31
ATOM     31  C   UNL A   1      45.337  25.330  25.040  1.00  0.00     0.338 C 
ATOM     32  O   UNL A   1      46.408  25.091  24.504  1.00  0.00    -0.246 OA
BRANCH  31  33
ATOM     33  C   UNL A   1      45.084  26.489  25.914  1.00  0.00     0.060 A 
ATOM     34  C   UNL A   1      46.167  27.146  26.513  1.00  0.00     0.016 A 
ATOM     35  C   UNL A   1      43.777  26.924  26.144  1.00  0.00     0.016 A 
ATOM     36  C   UNL A   1      45.944  28.224  27.369  1.00  0.00     0.010 A 
ATOM     37  C   UNL A   1      43.552  27.988  27.021  1.00  0.00     0.010 A 
ATOM     38  C   UNL A   1      44.633  28.621  27.661  1.00  0.00    -0.014 A 
BRANCH  38  39
ATOM     39  C   UNL A   1      44.377  29.559  28.781  1.00  0.00     0.031 A 
ATOM     40  C   UNL A   1      44.127  28.985  30.147  1.00  0.00     0.074 A 
ATOM     41  C   UNL A   1      44.378  30.891  28.596  1.00  0.00     0.049 A 
ATOM     42  N   UNL A   1      43.802  29.590  31.261  1.00  0.00    -0.248 NA
ATOM     43  C   UNL A   1      44.259  27.524  30.273  1.00  0.00     0.031 C 
ATOM     44  C   UNL A   1      44.659  31.569  27.332  1.00  0.00     0.029 A 
ATOM     45  N   UNL A   1      44.120  31.911  29.478  1.00  0.00    -0.354 N 
ATOM     46  C   UNL A   1      43.680  28.586  32.212  1.00  0.00     0.074 A 
ATOM     47  C   UNL A   1      43.937  27.331  31.542  1.00  0.00     0.031 C 
ATOM     48  C   UNL A   1      44.539  32.895  27.517  1.00  0.00     0.029 A 
ATOM     49  C   UNL A   1      44.134  33.155  28.897  1.00  0.00     0.049 A 
ATOM     50  H   UNL A   1      43.940  31.764  30.434  1.00  0.00     0.167 HD
ATOM     51  C   UNL A   1      43.386  28.702  33.529  1.00  0.00     0.037 A 
ATOM     52  C   UNL A   1      43.823  34.359  29.418  1.00  0.00     0.037 A 
ATOM     53  C   UNL A   1      43.126  29.953  34.190  1.00  0.00     0.049 A 
ATOM     54  C   UNL A   1      43.407  34.453  30.866  1.00  0.00     0.074 A 
ATOM     55  C   UNL A   1      42.836  30.181  35.523  1.00  0.00     0.029 A 
ATOM     56  N   UNL A   1      43.112  31.191  33.561  1.00  0.00    -0.354 N 
ATOM     57  N   UNL A   1      43.318  33.505  31.768  1.00  0.00    -0.248 NA
ATOM     58  C   UNL A   1      43.048  35.787  31.368  1.00  0.00     0.031 C 
ATOM     59  C   UNL A   1      42.581  31.546  35.688  1.00  0.00     0.029 A 
ATOM     60  C   UNL A   1      42.782  32.181  34.472  1.00  0.00     0.049 A 
ATOM     61  H   UNL A   1      43.308  31.342  32.608  1.00  0.00     0.167 HD
ATOM     62  C   UNL A   1      42.922  34.130  32.945  1.00  0.00     0.074 A 
ATOM     63  C   UNL A   1      42.807  35.541  32.647  1.00  0.00     0.031 C 
ATOM     64  C   UNL A   1      42.676  33.584  34.163  1.00  0.00     0.037 A 
BRANCH  51  65
ATOM     65  C   UNL A   1      43.292  27.437  34.333  1.00  0.00     0.064 A 
ATOM     66  C   UNL A   1      44.425  26.837  34.906  1.00  0.00     0.173 A 
ATOM     67  C   UNL A   1      42.047  26.833  34.558  1.00  0.00     0.173 A 
ATOM     68  F   UNL A   1      45.642  27.364  34.708  1.00  0.00    -0.203 F 
ATOM     69  C   UNL A   1      44.315  25.664  35.648  1.00  0.00     0.198 A 
ATOM     70  C   UNL A   1      41.936  25.679  35.329  1.00  0.00     0.198 A 
ATOM     71  F   UNL A   1      40.931  27.367  34.037  1.00  0.00    -0.203 F 
ATOM     72  F   UNL A   1      45.416  25.079  36.140  1.00  0.00    -0.200 F 
ATOM     73  C   UNL A   1      43.071  25.091  35.866  1.00  0.00     0.200 A 
ATOM     74  F   UNL A   1      40.732  25.136  35.551  1.00  0.00    -0.200 F 
ATOM     75  F   UNL A   1      42.967  23.967  36.588  1.00  0.00    -0.200 F 
ENDBRANCH  51  65
BRANCH  52  76
ATOM     76  C   UNL A   1      43.866  35.577  28.564  1.00  0.00     0.064 A 
ATOM     77  C   UNL A   1      45.067  36.262  28.336  1.00  0.00     0.173 A 
ATOM     78  C   UNL A   1      42.700  36.100  27.983  1.00  0.00     0.173 A 
ATOM     79  F   UNL A   1      46.205  35.820  28.893  1.00  0.00    -0.203 F 
ATOM     80  C   UNL A   1      45.098  37.432  27.580  1.00  0.00     0.198 A 
ATOM     81  C   UNL A   1      42.737  37.251  27.199  1.00  0.00     0.198 A 
ATOM     82  F   UNL A   1      41.521  35.487  28.174  1.00  0.00    -0.203 F 
ATOM     83  F   UNL A   1      46.251  38.097  27.425  1.00  0.00    -0.200 F 
ATOM     84  C   UNL A   1      43.935  37.922  27.007  1.00  0.00     0.200 A 
ATOM     85  F   UNL A   1      41.612  37.714  26.638  1.00  0.00    -0.200 F 
ATOM     86  F   UNL A   1      43.966  39.046  26.279  1.00  0.00    -0.200 F 
ENDBRANCH  52  76
BRANCH  64  87
ATOM     87  C   UNL A   1      42.293  34.517  35.278  1.00  0.00     0.064 A 
ATOM     88  C   UNL A   1      43.256  35.166  36.064  1.00  0.00     0.173 A 
ATOM     89  C   UNL A   1      40.941  34.801  35.533  1.00  0.00     0.173 A 
ATOM     90  F   UNL A   1      44.561  34.922  35.872  1.00  0.00    -0.203 F 
ATOM     91  C   UNL A   1      42.881  36.040  37.081  1.00  0.00     0.198 A 
ATOM     92  C   UNL A   1      40.570  35.703  36.525  1.00  0.00     0.198 A 
ATOM     93  F   UNL A   1      39.978  34.216  34.804  1.00  0.00    -0.203 F 
ATOM     94  F   UNL A   1      43.817  36.608  37.854  1.00  0.00    -0.200 F 
ATOM     95  C   UNL A   1      41.539  36.315  37.304  1.00  0.00     0.200 A 
ATOM     96  F   UNL A   1      39.275  35.980  36.727  1.00  0.00    -0.200 F 
ATOM     97  F   UNL A   1      41.180  37.165  38.277  1.00  0.00    -0.200 F 
ENDBRANCH  64  87
ENDBRANCH  38  39
ENDBRANCH  31  33
ENDBRANCH  30  31
ENDBRANCH  29  30
ENDBRANCH  28  29
ENDBRANCH  27  28
ENDBRANCH  26  27
ENDBRANCH  25  26
ENDBRANCH  24  25
ENDBRANCH   1  24
TORSDOF 23
ENDMDL
MODEL 2
REMARK VINA RESULT:      -8.3      4.177      6.023
REMARK SMILES Cc1ccc2oc(CCCC(=O)OCCOCCOCCOCCOC(=O)c3ccc(-c4c5nc(c(-c6c(F)c(F)c(F)c(F)c6F)c6ccc([nH]6)c(-c6c(F)c(F)c(F)c(F)c6F)c6nc(c(-c7c(F)c(F)c(F)c(F)c7F)c7ccc4[nH]7)C=C6)C=C5)cc3)cc(=O)c2c1
REMARK SMILES IDX 18 1 17 2 16 3 15 4 14 5 13 6 11 7 12 8 10 9 9 10 8 11 7 12
REMARK SMILES IDX 1 13 2 14 3 15 95 16 4 17 94 18 5 19 92 20 6 21 91 22 93 23
REMARK SMILES IDX 19 24 20 25 21 26 22 27 23 28 24 29 25 30 26 31 27 32 28 33
REMARK SMILES IDX 29 34 90 35 30 36 89 37 31 38 32 39 33 40 83 41 34 42 88 43
REMARK SMILES IDX 82 44 84 45 35 46 87 47 81 48 80 49 36 51 68 52 48 53 67 54
REMARK SMILES IDX 49 55 52 56 66 57 85 58 50 59 51 60 65 62 86 63 53 64 37 65
REMARK SMILES IDX 38 66 46 67 39 68 40 69 44 70 47 71 41 72 42 73 45 74 43 75
REMARK SMILES IDX 69 76 70 77 78 78 71 79 72 80 76 81 79 82 73 83 74 84 77 85
REMARK SMILES IDX 75 86 54 87 55 88 63 89 56 90 57 91 61 92 64 93 58 94 59 95
REMARK SMILES IDX 62 96 60 97
REMARK H PARENT 84 50 52 61
REMARK Flexibility Score: inf
ROOT
ATOM      1  C   UNL A   1      42.469  18.878  26.089  1.00  0.00     0.188 C 
ENDROOT
BRANCH   1   2
ATOM      2  C   UNL A   1      42.275  20.344  26.505  1.00  0.00     0.188 C 
BRANCH   2   3
ATOM      3  O   UNL A   1      41.209  20.981  25.835  1.00  0.00    -0.376 OA
BRANCH   3   4
ATOM      4  C   UNL A   1      39.888  20.804  26.313  1.00  0.00     0.202 C 
BRANCH   4   5
ATOM      5  C   UNL A   1      38.664  20.833  25.374  1.00  0.00     0.261 C 
BRANCH   5   6
ATOM      6  O   UNL A   1      37.737  21.911  25.566  1.00  0.00    -0.463 OA
BRANCH   6   7
ATOM      7  C   UNL A   1      36.784  22.091  24.630  1.00  0.00     0.305 C 
ATOM      8  O   UNL A   1      37.003  22.537  23.507  1.00  0.00    -0.252 OA
BRANCH   7   9
ATOM      9  C   UNL A   1      35.404  21.588  25.033  1.00  0.00     0.123 C 
BRANCH   9  10
ATOM     10  C   UNL A   1      34.428  22.366  25.937  1.00  0.00     0.020 C 
BRANCH  10  11
ATOM     11  C   UNL A   1      32.964  22.544  25.521  1.00  0.00     0.076 C 
BRANCH  11  12
ATOM     12  C   UNL A   1      32.713  23.941  25.050  1.00  0.00     0.108 A 
ATOM     13  C   UNL A   1      31.916  30.295  25.754  1.00  0.00     0.044 C 
ATOM     14  C   UNL A   1      31.935  28.796  25.791  1.00  0.00    -0.050 A 
ATOM     15  C   UNL A   1      31.405  28.106  26.890  1.00  0.00     0.007 A 
ATOM     16  C   UNL A   1      32.478  28.080  24.715  1.00  0.00     0.019 A 
ATOM     17  C   UNL A   1      31.396  26.714  26.906  1.00  0.00     0.048 A 
ATOM     18  C   UNL A   1      32.481  26.686  24.745  1.00  0.00     0.065 A 
ATOM     19  C   UNL A   1      31.932  26.015  25.831  1.00  0.00     0.138 A 
ATOM     20  C   UNL A   1      33.100  25.893  23.669  1.00  0.00     0.192 A 
ATOM     21  O   UNL A   1      31.900  24.654  25.906  1.00  0.00    -0.461 OA
ATOM     22  C   UNL A   1      33.268  24.453  23.942  1.00  0.00     0.095 A 
ATOM     23  O   UNL A   1      33.519  26.392  22.634  1.00  0.00    -0.289 OA
ENDBRANCH  11  12
ENDBRANCH  10  11
ENDBRANCH   9  10
ENDBRANCH   7   9
ENDBRANCH   6   7
ENDBRANCH   5   6
ENDBRANCH   4   5
ENDBRANCH   3   4
ENDBRANCH   2   3
ENDBRANCH   1   2
BRANCH   1  24
ATOM     24  O   UNL A   1      43.743  18.432  25.641  1.00  0.00    -0.377 OA
BRANCH  24  25
ATOM     25  C   UNL A   1      44.462  19.200  24.677  1.00  0.00     0.188 C 
BRANCH  25  26
ATOM     26  C   UNL A   1      45.957  19.522  24.887  1.00  0.00     0.188 C 
BRANCH  26  27
ATOM     27  O   UNL A   1      46.344  20.832  24.510  1.00  0.00    -0.376 OA
BRANCH  27  28
ATOM     28  C   UNL A   1      45.359  21.660  23.911  1.00  0.00     0.202 C 
BRANCH  28  29
ATOM     29  C   UNL A   1      45.418  23.167  24.209  1.00  0.00     0.261 C 
BRANCH  29  30
ATOM     30  O   UNL A   1      44.412  23.679  25.101  1.00  0.00    -0.460 OA
BRANCH  30  31
ATOM     31  C   UNL A   1      44.485  23.327  26.400  1.00  0.00     0.338 C 
ATOM     32  O   UNL A   1      45.119  22.403  26.886  1.00  0.00    -0.246 OA
BRANCH  31  33
ATOM     33  C   UNL A   1      43.800  24.369  27.184  1.00  0.00     0.060 A 
ATOM     34  C   UNL A   1      44.318  25.671  27.194  1.00  0.00     0.016 A 
ATOM     35  C   UNL A   1      42.649  24.059  27.912  1.00  0.00     0.016 A 
ATOM     36  C   UNL A   1      43.701  26.663  27.957  1.00  0.00     0.010 A 
ATOM     37  C   UNL A   1      42.046  25.045  28.695  1.00  0.00     0.010 A 
ATOM     38  C   UNL A   1      42.589  26.343  28.746  1.00  0.00    -0.014 A 
BRANCH  38  39
ATOM     39  C   UNL A   1      42.111  27.300  29.773  1.00  0.00     0.031 A 
ATOM     40  C   UNL A   1      42.808  27.321  31.105  1.00  0.00     0.074 A 
ATOM     41  C   UNL A   1      41.090  28.141  29.530  1.00  0.00     0.049 A 
ATOM     42  N   UNL A   1      42.527  28.005  32.184  1.00  0.00    -0.248 NA
ATOM     43  C   UNL A   1      43.984  26.446  31.237  1.00  0.00     0.031 C 
ATOM     44  C   UNL A   1      40.370  28.251  28.264  1.00  0.00     0.029 A 
ATOM     45  N   UNL A   1      40.476  29.054  30.351  1.00  0.00    -0.354 N 
ATOM     46  C   UNL A   1      43.481  27.636  33.123  1.00  0.00     0.074 A 
ATOM     47  C   UNL A   1      44.331  26.647  32.498  1.00  0.00     0.031 C 
ATOM     48  C   UNL A   1      39.397  29.170  28.398  1.00  0.00     0.029 A 
ATOM     49  C   UNL A   1      39.401  29.679  29.768  1.00  0.00     0.049 A 
ATOM     50  H   UNL A   1      40.778  29.242  31.268  1.00  0.00     0.167 HD
ATOM     51  C   UNL A   1      43.636  28.085  34.390  1.00  0.00     0.037 A 
ATOM     52  C   UNL A   1      38.507  30.539  30.296  1.00  0.00     0.037 A 
ATOM     53  C   UNL A   1      42.784  29.066  35.008  1.00  0.00     0.049 A 
ATOM     54  C   UNL A   1      38.646  30.955  31.740  1.00  0.00     0.074 A 
ATOM     55  C   UNL A   1      42.866  29.602  36.281  1.00  0.00     0.029 A 
ATOM     56  N   UNL A   1      41.681  29.649  34.400  1.00  0.00    -0.354 N 
ATOM     57  N   UNL A   1      39.564  30.623  32.616  1.00  0.00    -0.248 NA
ATOM     58  C   UNL A   1      37.621  31.867  32.269  1.00  0.00     0.031 C 
ATOM     59  C   UNL A   1      41.777  30.458  36.466  1.00  0.00     0.029 A 
ATOM     60  C   UNL A   1      41.054  30.512  35.285  1.00  0.00     0.049 A 
ATOM     61  H   UNL A   1      41.388  29.475  33.477  1.00  0.00     0.167 HD
ATOM     62  C   UNL A   1      39.245  31.305  33.785  1.00  0.00     0.074 A 
ATOM     63  C   UNL A   1      38.059  32.085  33.501  1.00  0.00     0.031 C 
ATOM     64  C   UNL A   1      39.876  31.287  34.986  1.00  0.00     0.037 A 
BRANCH  51  65
ATOM     65  C   UNL A   1      44.749  27.492  35.206  1.00  0.00     0.064 A 
ATOM     66  C   UNL A   1      46.018  28.089  35.275  1.00  0.00     0.173 A 
ATOM     67  C   UNL A   1      44.534  26.324  35.952  1.00  0.00     0.173 A 
ATOM     68  F   UNL A   1      46.282  29.197  34.568  1.00  0.00    -0.203 F 
ATOM     69  C   UNL A   1      47.035  27.521  36.037  1.00  0.00     0.198 A 
ATOM     70  C   UNL A   1      45.543  25.779  36.740  1.00  0.00     0.198 A 
ATOM     71  F   UNL A   1      43.338  25.714  35.925  1.00  0.00    -0.203 F 
ATOM     72  F   UNL A   1      48.254  28.078  36.045  1.00  0.00    -0.200 F 
ATOM     73  C   UNL A   1      46.795  26.372  36.775  1.00  0.00     0.200 A 
ATOM     74  F   UNL A   1      45.303  24.677  37.464  1.00  0.00    -0.200 F 
ATOM     75  F   UNL A   1      47.773  25.833  37.516  1.00  0.00    -0.200 F 
ENDBRANCH  51  65
BRANCH  52  76
ATOM     76  C   UNL A   1      37.381  31.049  29.467  1.00  0.00     0.064 A 
ATOM     77  C   UNL A   1      37.351  32.377  29.022  1.00  0.00     0.173 A 
ATOM     78  C   UNL A   1      36.294  30.226  29.132  1.00  0.00     0.173 A 
ATOM     79  F   UNL A   1      38.353  33.212  29.341  1.00  0.00    -0.203 F 
ATOM     80  C   UNL A   1      36.272  32.869  28.291  1.00  0.00     0.198 A 
ATOM     81  C   UNL A   1      35.230  30.710  28.372  1.00  0.00     0.198 A 
ATOM     82  F   UNL A   1      36.268  28.948  29.538  1.00  0.00    -0.203 F 
ATOM     83  F   UNL A   1      36.245  34.158  27.925  1.00  0.00    -0.200 F 
ATOM     84  C   UNL A   1      35.216  32.034  27.961  1.00  0.00     0.200 A 
ATOM     85  F   UNL A   1      34.218  29.896  28.046  1.00  0.00    -0.200 F 
ATOM     86  F   UNL A   1      34.179  32.508  27.257  1.00  0.00    -0.200 F 
ENDBRANCH  52  76
BRANCH  64  87
ATOM     87  C   UNL A   1      39.323  32.163  36.075  1.00  0.00     0.064 A 
ATOM     88  C   UNL A   1      38.320  31.714  36.948  1.00  0.00     0.173 A 
ATOM     89  C   UNL A   1      39.836  33.454  36.278  1.00  0.00     0.173 A 
ATOM     90  F   UNL A   1      37.785  30.494  36.791  1.00  0.00    -0.203 F 
ATOM     91  C   UNL A   1      37.832  32.535  37.962  1.00  0.00     0.198 A 
ATOM     92  C   UNL A   1      39.373  34.258  37.315  1.00  0.00     0.198 A 
ATOM     93  F   UNL A   1      40.803  33.930  35.479  1.00  0.00    -0.203 F 
ATOM     94  F   UNL A   1      36.837  32.104  38.750  1.00  0.00    -0.200 F 
ATOM     95  C   UNL A   1      38.365  33.801  38.150  1.00  0.00     0.200 A 
ATOM     96  F   UNL A   1      39.902  35.474  37.506  1.00  0.00    -0.200 F 
ATOM     97  F   UNL A   1      37.902  34.586  39.134  1.00  0.00    -0.200 F 
ENDBRANCH  64  87
ENDBRANCH  38  39
ENDBRANCH  31  33
ENDBRANCH  30  31
ENDBRANCH  29  30
ENDBRANCH  28  29
ENDBRANCH  27  28
ENDBRANCH  26  27
ENDBRANCH  25  26
ENDBRANCH  24  25
ENDBRANCH   1  24
TORSDOF 23
ENDMDL
MODEL 3
REMARK VINA RESULT:      -8.3      6.216     11.151
REMARK SMILES Cc1ccc2oc(CCCC(=O)OCCOCCOCCOCCOC(=O)c3ccc(-c4c5nc(c(-c6c(F)c(F)c(F)c(F)c6F)c6ccc([nH]6)c(-c6c(F)c(F)c(F)c(F)c6F)c6nc(c(-c7c(F)c(F)c(F)c(F)c7F)c7ccc4[nH]7)C=C6)C=C5)cc3)cc(=O)c2c1
REMARK SMILES IDX 18 1 17 2 16 3 15 4 14 5 13 6 11 7 12 8 10 9 9 10 8 11 7 12
REMARK SMILES IDX 1 13 2 14 3 15 95 16 4 17 94 18 5 19 92 20 6 21 91 22 93 23
REMARK SMILES IDX 19 24 20 25 21 26 22 27 23 28 24 29 25 30 26 31 27 32 28 33
REMARK SMILES IDX 29 34 90 35 30 36 89 37 31 38 32 39 33 40 83 41 34 42 88 43
REMARK SMILES IDX 82 44 84 45 35 46 87 47 81 48 80 49 36 51 68 52 48 53 67 54
REMARK SMILES IDX 49 55 52 56 66 57 85 58 50 59 51 60 65 62 86 63 53 64 37 65
REMARK SMILES IDX 38 66 46 67 39 68 40 69 44 70 47 71 41 72 42 73 45 74 43 75
REMARK SMILES IDX 69 76 70 77 78 78 71 79 72 80 76 81 79 82 73 83 74 84 77 85
REMARK SMILES IDX 75 86 54 87 55 88 63 89 56 90 57 91 61 92 64 93 58 94 59 95
REMARK SMILES IDX 62 96 60 97
REMARK H PARENT 84 50 52 61
REMARK Flexibility Score: inf
ROOT
ATOM      1  C   UNL A   1      33.720  29.074  26.119  1.00  0.00     0.188 C 
ENDROOT
BRANCH   1   2
ATOM      2  C   UNL A   1      32.879  28.005  26.834  1.00  0.00     0.188 C 
BRANCH   2   3
ATOM      3  O   UNL A   1      33.239  26.685  26.490  1.00  0.00    -0.376 OA
BRANCH   3   4
ATOM      4  C   UNL A   1      33.924  26.451  25.273  1.00  0.00     0.202 C 
BRANCH   4   5
ATOM      5  C   UNL A   1      34.192  25.028  24.742  1.00  0.00     0.261 C 
BRANCH   5   6
ATOM      6  O   UNL A   1      33.709  23.944  25.547  1.00  0.00    -0.463 OA
BRANCH   6   7
ATOM      7  C   UNL A   1      32.612  23.287  25.120  1.00  0.00     0.305 C 
ATOM      8  O   UNL A   1      32.646  22.303  24.385  1.00  0.00    -0.252 OA
BRANCH   7   9
ATOM      9  C   UNL A   1      31.305  23.793  25.713  1.00  0.00     0.123 C 
BRANCH   9  10
ATOM     10  C   UNL A   1      30.601  25.094  25.278  1.00  0.00     0.020 C 
BRANCH  10  11
ATOM     11  C   UNL A   1      29.930  25.187  23.904  1.00  0.00     0.076 C 
BRANCH  11  12
ATOM     12  C   UNL A   1      29.229  26.499  23.745  1.00  0.00     0.108 A 
ATOM     13  C   UNL A   1      27.997  32.167  20.943  1.00  0.00     0.044 C 
ATOM     14  C   UNL A   1      28.535  30.918  21.573  1.00  0.00    -0.050 A 
ATOM     15  C   UNL A   1      29.899  30.606  21.481  1.00  0.00     0.007 A 
ATOM     16  C   UNL A   1      27.670  30.060  22.268  1.00  0.00     0.019 A 
ATOM     17  C   UNL A   1      30.400  29.461  22.094  1.00  0.00     0.048 A 
ATOM     18  C   UNL A   1      28.175  28.908  22.867  1.00  0.00     0.065 A 
ATOM     19  C   UNL A   1      29.533  28.622  22.786  1.00  0.00     0.138 A 
ATOM     20  C   UNL A   1      27.295  27.944  23.550  1.00  0.00     0.192 A 
ATOM     21  O   UNL A   1      30.080  27.513  23.361  1.00  0.00    -0.461 OA
ATOM     22  C   UNL A   1      27.907  26.650  23.907  1.00  0.00     0.095 A 
ATOM     23  O   UNL A   1      26.108  28.159  23.753  1.00  0.00    -0.289 OA
ENDBRANCH  11  12
ENDBRANCH  10  11
ENDBRANCH   9  10
ENDBRANCH   7   9
ENDBRANCH   6   7
ENDBRANCH   5   6
ENDBRANCH   4   5
ENDBRANCH   3   4
ENDBRANCH   2   3
ENDBRANCH   1   2
BRANCH   1  24
ATOM     24  O   UNL A   1      33.263  30.420  26.071  1.00  0.00    -0.377 OA
BRANCH  24  25
ATOM     25  C   UNL A   1      32.916  31.091  27.280  1.00  0.00     0.188 C 
BRANCH  25  26
ATOM     26  C   UNL A   1      33.819  32.209  27.845  1.00  0.00     0.188 C 
BRANCH  26  27
ATOM     27  O   UNL A   1      33.173  33.454  28.047  1.00  0.00    -0.376 OA
BRANCH  27  28
ATOM     28  C   UNL A   1      33.949  34.518  28.576  1.00  0.00     0.202 C 
BRANCH  28  29
ATOM     29  C   UNL A   1      33.222  35.580  29.417  1.00  0.00     0.261 C 
BRANCH  29  30
ATOM     30  O   UNL A   1      32.478  35.095  30.548  1.00  0.00    -0.460 OA
BRANCH  30  31
ATOM     31  C   UNL A   1      32.717  35.661  31.748  1.00  0.00     0.338 C 
ATOM     32  O   UNL A   1      32.036  36.492  32.329  1.00  0.00    -0.246 OA
BRANCH  31  33
ATOM     33  C   UNL A   1      33.874  34.969  32.345  1.00  0.00     0.060 A 
ATOM     34  C   UNL A   1      35.121  35.608  32.362  1.00  0.00     0.016 A 
ATOM     35  C   UNL A   1      33.726  33.690  32.884  1.00  0.00     0.016 A 
ATOM     36  C   UNL A   1      36.233  34.956  32.892  1.00  0.00     0.010 A 
ATOM     37  C   UNL A   1      34.845  33.027  33.393  1.00  0.00     0.010 A 
ATOM     38  C   UNL A   1      36.109  33.645  33.370  1.00  0.00    -0.014 A 
BRANCH  38  39
ATOM     39  C   UNL A   1      37.324  32.845  33.660  1.00  0.00     0.031 A 
ATOM     40  C   UNL A   1      38.064  33.115  34.940  1.00  0.00     0.074 A 
ATOM     41  C   UNL A   1      37.757  31.893  32.814  1.00  0.00     0.049 A 
ATOM     42  N   UNL A   1      39.188  32.608  35.377  1.00  0.00    -0.248 NA
ATOM     43  C   UNL A   1      37.450  34.093  35.852  1.00  0.00     0.031 C 
ATOM     44  C   UNL A   1      37.098  31.505  31.570  1.00  0.00     0.029 A 
ATOM     45  N   UNL A   1      38.869  31.090  32.876  1.00  0.00    -0.354 N 
ATOM     46  C   UNL A   1      39.420  33.213  36.605  1.00  0.00     0.074 A 
ATOM     47  C   UNL A   1      38.338  34.145  36.832  1.00  0.00     0.031 C 
ATOM     48  C   UNL A   1      37.830  30.547  30.974  1.00  0.00     0.029 A 
ATOM     49  C   UNL A   1      39.026  30.286  31.773  1.00  0.00     0.049 A 
ATOM     50  H   UNL A   1      39.493  31.091  33.637  1.00  0.00     0.167 HD
ATOM     51  C   UNL A   1      40.443  33.006  37.469  1.00  0.00     0.037 A 
ATOM     52  C   UNL A   1      40.038  29.461  31.439  1.00  0.00     0.037 A 
ATOM     53  C   UNL A   1      41.520  32.081  37.235  1.00  0.00     0.049 A 
ATOM     54  C   UNL A   1      41.213  29.316  32.374  1.00  0.00     0.074 A 
ATOM     55  C   UNL A   1      42.595  31.785  38.055  1.00  0.00     0.029 A 
ATOM     56  N   UNL A   1      41.667  31.312  36.090  1.00  0.00    -0.354 N 
ATOM     57  N   UNL A   1      41.416  29.871  33.545  1.00  0.00    -0.248 NA
ATOM     58  C   UNL A   1      42.302  28.429  31.939  1.00  0.00     0.031 C 
ATOM     59  C   UNL A   1      43.425  30.886  37.377  1.00  0.00     0.029 A 
ATOM     60  C   UNL A   1      42.833  30.568  36.165  1.00  0.00     0.049 A 
ATOM     61  H   UNL A   1      41.034  31.298  35.335  1.00  0.00     0.167 HD
ATOM     62  C   UNL A   1      42.637  29.379  33.997  1.00  0.00     0.074 A 
ATOM     63  C   UNL A   1      43.118  28.467  32.983  1.00  0.00     0.031 C 
ATOM     64  C   UNL A   1      43.298  29.658  35.149  1.00  0.00     0.037 A 
BRANCH  51  65
ATOM     65  C   UNL A   1      40.463  33.822  38.729  1.00  0.00     0.064 A 
ATOM     66  C   UNL A   1      39.772  33.422  39.883  1.00  0.00     0.173 A 
ATOM     67  C   UNL A   1      41.209  35.009  38.791  1.00  0.00     0.173 A 
ATOM     68  F   UNL A   1      39.030  32.305  39.873  1.00  0.00    -0.203 F 
ATOM     69  C   UNL A   1      39.805  34.195  41.041  1.00  0.00     0.198 A 
ATOM     70  C   UNL A   1      41.268  35.761  39.961  1.00  0.00     0.198 A 
ATOM     71  F   UNL A   1      41.892  35.436  37.717  1.00  0.00    -0.203 F 
ATOM     72  F   UNL A   1      39.094  33.821  42.114  1.00  0.00    -0.200 F 
ATOM     73  C   UNL A   1      40.559  35.358  41.082  1.00  0.00     0.200 A 
ATOM     74  F   UNL A   1      42.008  36.876  40.002  1.00  0.00    -0.200 F 
ATOM     75  F   UNL A   1      40.596  36.095  42.201  1.00  0.00    -0.200 F 
ENDBRANCH  51  65
BRANCH  52  76
ATOM     76  C   UNL A   1      40.005  28.723  30.146  1.00  0.00     0.064 A 
ATOM     77  C   UNL A   1      39.430  27.449  30.053  1.00  0.00     0.173 A 
ATOM     78  C   UNL A   1      40.578  29.265  28.985  1.00  0.00     0.173 A 
ATOM     79  F   UNL A   1      38.895  26.875  31.142  1.00  0.00    -0.203 F 
ATOM     80  C   UNL A   1      39.446  26.736  28.856  1.00  0.00     0.198 A 
ATOM     81  C   UNL A   1      40.564  28.565  27.780  1.00  0.00     0.198 A 
ATOM     82  F   UNL A   1      41.147  30.478  29.019  1.00  0.00    -0.203 F 
ATOM     83  F   UNL A   1      38.939  25.497  28.810  1.00  0.00    -0.200 F 
ATOM     84  C   UNL A   1      40.007  27.296  27.719  1.00  0.00     0.200 A 
ATOM     85  F   UNL A   1      41.096  29.116  26.681  1.00  0.00    -0.200 F 
ATOM     86  F   UNL A   1      40.021  26.611  26.568  1.00  0.00    -0.200 F 
ENDBRANCH  52  76
BRANCH  64  87
ATOM     87  C   UNL A   1      44.597  28.944  35.394  1.00  0.00     0.064 A 
ATOM     88  C   UNL A   1      44.644  27.683  36.007  1.00  0.00     0.173 A 
ATOM     89  C   UNL A   1      45.810  29.509  34.968  1.00  0.00     0.173 A 
ATOM     90  F   UNL A   1      43.517  27.102  36.445  1.00  0.00    -0.203 F 
ATOM     91  C   UNL A   1      45.857  27.029  36.210  1.00  0.00     0.198 A 
ATOM     92  C   UNL A   1      47.016  28.837  35.139  1.00  0.00     0.198 A 
ATOM     93  F   UNL A   1      45.822  30.709  34.367  1.00  0.00    -0.203 F 
ATOM     94  F   UNL A   1      45.883  25.849  36.845  1.00  0.00    -0.200 F 
ATOM     95  C   UNL A   1      47.040  27.602  35.768  1.00  0.00     0.200 A 
ATOM     96  F   UNL A   1      48.156  29.385  34.695  1.00  0.00    -0.200 F 
ATOM     97  F   UNL A   1      48.206  26.967  35.955  1.00  0.00    -0.200 F 
ENDBRANCH  64  87
ENDBRANCH  38  39
ENDBRANCH  31  33
ENDBRANCH  30  31
ENDBRANCH  29  30
ENDBRANCH  28  29
ENDBRANCH  27  28
ENDBRANCH  26  27
ENDBRANCH  25  26
ENDBRANCH  24  25
ENDBRANCH   1  24
TORSDOF 23
ENDMDL
