MODEL 1
REMARK VINA RESULT:      -9.5      0.000      0.000
REMARK SMILES CC(C)n1cncc1[C@@H](NC(=O)OC(C)(C)C)C(=O)OCCOCCOCCOCCOC(=O)c1ccc(-c2c3nc(c(-c4c(F)c(F)c(F)c(F)c4F)c4ccc([nH]4)c(-c4c(F)c(F)c(F)c(F)c4F)c4nc(c(-c5c(F)c(F)c(F)c(F)c5F)c5ccc2[nH]5)C=C4)C=C3)cc1
REMARK SMILES IDX 25 1 24 2 23 3 22 4 21 5 20 6 18 7 19 8 9 9 8 10 4 11 5 12
REMARK SMILES IDX 6 13 7 14 2 15 1 16 3 17 10 18 11 19 12 21 13 22 14 23 15 24
REMARK SMILES IDX 16 25 17 26 26 27 27 28 28 29 29 30 30 31 31 32 32 33 33 34
REMARK SMILES IDX 34 35 35 36 36 37 97 38 37 39 96 40 38 41 39 42 40 43 90 44
REMARK SMILES IDX 41 45 95 46 89 47 91 48 42 49 94 50 88 51 87 52 43 54 75 55
REMARK SMILES IDX 55 56 74 57 56 58 59 59 73 60 92 61 57 62 58 63 72 65 93 66
REMARK SMILES IDX 60 67 44 68 45 69 53 70 46 71 47 72 51 73 54 74 48 75 49 76
REMARK SMILES IDX 52 77 50 78 76 79 77 80 85 81 78 82 79 83 83 84 86 85 80 86
REMARK SMILES IDX 81 87 84 88 82 89 61 90 62 91 70 92 63 93 64 94 68 95 71 96
REMARK SMILES IDX 65 97 66 98 69 99 67 100
REMARK H PARENT 10 20 91 53 59 64
REMARK Flexibility Score: inf
ROOT
ATOM      1  C   UNL A   1      33.429  33.879  28.338  1.00  0.00     0.188 C 
ENDROOT
BRANCH   1   2
ATOM      2  C   UNL A   1      32.888  32.913  27.254  1.00  0.00     0.188 C 
BRANCH   2   3
ATOM      3  O   UNL A   1      32.732  31.531  27.537  1.00  0.00    -0.376 OA
BRANCH   3   4
ATOM      4  C   UNL A   1      33.080  30.599  26.533  1.00  0.00     0.202 C 
BRANCH   4   5
ATOM      5  C   UNL A   1      33.810  29.315  26.920  1.00  0.00     0.261 C 
BRANCH   5   6
ATOM      6  O   UNL A   1      33.080  28.083  26.976  1.00  0.00    -0.461 OA
BRANCH   6   7
ATOM      7  C   UNL A   1      33.392  27.149  26.038  1.00  0.00     0.335 C 
ATOM      8  O   UNL A   1      34.537  26.815  25.743  1.00  0.00    -0.249 OA
BRANCH   7   9
ATOM      9  C   UNL A   1      32.170  26.673  25.244  1.00  0.00     0.244 C 
BRANCH   9  10
ATOM     10  C   UNL A   1      32.398  26.268  23.806  1.00  0.00     0.072 A 
ATOM     11  N   UNL A   1      31.681  26.624  22.658  1.00  0.00    -0.330 N 
ATOM     12  C   UNL A   1      32.217  25.872  21.628  1.00  0.00     0.199 A 
ATOM     13  N   UNL A   1      33.262  25.179  21.997  1.00  0.00    -0.245 NA
ATOM     14  C   UNL A   1      33.392  25.424  23.329  1.00  0.00     0.137 A 
BRANCH  11  15
ATOM     15  C   UNL A   1      30.550  27.538  22.419  1.00  0.00     0.082 C 
ATOM     16  C   UNL A   1      29.396  27.486  23.421  1.00  0.00     0.031 C 
ATOM     17  C   UNL A   1      30.983  29.027  22.344  1.00  0.00     0.031 C 
ENDBRANCH  11  15
ENDBRANCH   9  10
BRANCH   9  18
ATOM     18  N   UNL A   1      31.396  25.645  25.929  1.00  0.00    -0.302 N 
ATOM     19  C   UNL A   1      31.785  24.539  26.634  1.00  0.00     0.408 C 
ATOM     20  H   UNL A   1      30.421  25.767  25.875  1.00  0.00     0.168 HD
ATOM     21  O   UNL A   1      30.925  23.887  27.212  1.00  0.00    -0.225 OA
BRANCH  19  22
ATOM     22  O   UNL A   1      33.120  24.257  26.644  1.00  0.00    -0.444 OA
BRANCH  22  23
ATOM     23  C   UNL A   1      33.582  22.934  26.223  1.00  0.00     0.106 C 
ATOM     24  C   UNL A   1      33.774  22.037  27.448  1.00  0.00     0.056 C 
ATOM     25  C   UNL A   1      32.650  22.351  25.154  1.00  0.00     0.056 C 
ATOM     26  C   UNL A   1      34.968  23.052  25.558  1.00  0.00     0.056 C 
ENDBRANCH  22  23
ENDBRANCH  19  22
ENDBRANCH   9  18
ENDBRANCH   7   9
ENDBRANCH   6   7
ENDBRANCH   5   6
ENDBRANCH   4   5
ENDBRANCH   3   4
ENDBRANCH   2   3
ENDBRANCH   1   2
BRANCH   1  27
ATOM     27  O   UNL A   1      32.516  34.849  28.820  1.00  0.00    -0.377 OA
BRANCH  27  28
ATOM     28  C   UNL A   1      33.062  35.875  29.639  1.00  0.00     0.188 C 
BRANCH  28  29
ATOM     29  C   UNL A   1      32.883  35.734  31.170  1.00  0.00     0.188 C 
BRANCH  29  30
ATOM     30  O   UNL A   1      34.064  35.395  31.885  1.00  0.00    -0.376 OA
BRANCH  30  31
ATOM     31  C   UNL A   1      34.256  34.170  32.566  1.00  0.00     0.202 C 
BRANCH  31  32
ATOM     32  C   UNL A   1      34.522  32.891  31.774  1.00  0.00     0.261 C 
BRANCH  32  33
ATOM     33  O   UNL A   1      35.761  32.867  31.102  1.00  0.00    -0.460 OA
BRANCH  33  34
ATOM     34  C   UNL A   1      35.981  31.746  30.391  1.00  0.00     0.338 C 
ATOM     35  O   UNL A   1      35.414  31.385  29.379  1.00  0.00    -0.246 OA
BRANCH  34  36
ATOM     36  C   UNL A   1      36.947  30.932  31.126  1.00  0.00     0.060 A 
ATOM     37  C   UNL A   1      38.136  31.581  31.448  1.00  0.00     0.016 A 
ATOM     38  C   UNL A   1      36.829  29.535  31.049  1.00  0.00     0.016 A 
ATOM     39  C   UNL A   1      39.284  30.843  31.365  1.00  0.00     0.010 A 
ATOM     40  C   UNL A   1      37.980  28.804  30.948  1.00  0.00     0.010 A 
ATOM     41  C   UNL A   1      39.184  29.494  30.999  1.00  0.00    -0.014 A 
BRANCH  41  42
ATOM     42  C   UNL A   1      40.416  28.788  30.777  1.00  0.00     0.031 A 
ATOM     43  C   UNL A   1      41.166  28.603  32.031  1.00  0.00     0.074 A 
ATOM     44  C   UNL A   1      40.778  28.328  29.567  1.00  0.00     0.049 A 
ATOM     45  N   UNL A   1      42.300  29.135  32.335  1.00  0.00    -0.248 NA
ATOM     46  C   UNL A   1      40.485  27.930  33.149  1.00  0.00     0.031 C 
ATOM     47  C   UNL A   1      39.989  28.270  28.337  1.00  0.00     0.029 A 
ATOM     48  N   UNL A   1      41.933  27.708  29.217  1.00  0.00    -0.354 N 
ATOM     49  C   UNL A   1      42.581  28.679  33.614  1.00  0.00     0.074 A 
ATOM     50  C   UNL A   1      41.364  28.117  34.134  1.00  0.00     0.031 C 
ATOM     51  C   UNL A   1      40.596  27.433  27.463  1.00  0.00     0.029 A 
ATOM     52  C   UNL A   1      41.858  26.991  28.032  1.00  0.00     0.049 A 
ATOM     53  H   UNL A   1      42.754  27.762  29.757  1.00  0.00     0.167 HD
ATOM     54  C   UNL A   1      43.871  28.525  34.004  1.00  0.00     0.037 A 
ATOM     55  C   UNL A   1      42.730  26.023  27.646  1.00  0.00     0.037 A 
ATOM     56  C   UNL A   1      44.756  29.358  33.226  1.00  0.00     0.049 A 
ATOM     57  C   UNL A   1      43.988  26.231  28.420  1.00  0.00     0.074 A 
ATOM     58  C   UNL A   1      44.793  30.714  32.949  1.00  0.00     0.029 A 
ATOM     59  N   UNL A   1      45.541  28.768  32.263  1.00  0.00    -0.354 N 
ATOM     60  N   UNL A   1      44.790  27.243  28.236  1.00  0.00    -0.248 NA
ATOM     61  C   UNL A   1      44.092  25.586  29.725  1.00  0.00     0.031 C 
ATOM     62  C   UNL A   1      45.158  30.803  31.575  1.00  0.00     0.029 A 
ATOM     63  C   UNL A   1      45.403  29.509  31.117  1.00  0.00     0.049 A 
ATOM     64  H   UNL A   1      46.097  27.963  32.376  1.00  0.00     0.167 HD
ATOM     65  C   UNL A   1      45.157  27.639  29.513  1.00  0.00     0.074 A 
ATOM     66  C   UNL A   1      44.757  26.538  30.387  1.00  0.00     0.031 C 
ATOM     67  C   UNL A   1      45.467  28.939  29.793  1.00  0.00     0.037 A 
BRANCH  54  68
ATOM     68  C   UNL A   1      44.332  27.314  34.767  1.00  0.00     0.064 A 
ATOM     69  C   UNL A   1      45.218  27.488  35.844  1.00  0.00     0.173 A 
ATOM     70  C   UNL A   1      44.190  25.985  34.300  1.00  0.00     0.173 A 
ATOM     71  F   UNL A   1      45.450  28.713  36.343  1.00  0.00    -0.203 F 
ATOM     72  C   UNL A   1      45.963  26.427  36.359  1.00  0.00     0.198 A 
ATOM     73  C   UNL A   1      44.890  24.921  34.856  1.00  0.00     0.198 A 
ATOM     74  F   UNL A   1      43.470  25.675  33.216  1.00  0.00    -0.203 F 
ATOM     75  F   UNL A   1      46.896  26.664  37.290  1.00  0.00    -0.200 F 
ATOM     76  C   UNL A   1      45.802  25.146  35.862  1.00  0.00     0.200 A 
ATOM     77  F   UNL A   1      44.735  23.692  34.341  1.00  0.00    -0.200 F 
ATOM     78  F   UNL A   1      46.563  24.140  36.310  1.00  0.00    -0.200 F 
ENDBRANCH  54  68
BRANCH  55  79
ATOM     79  C   UNL A   1      42.427  24.754  26.934  1.00  0.00     0.064 A 
ATOM     80  C   UNL A   1      43.155  24.381  25.790  1.00  0.00     0.173 A 
ATOM     81  C   UNL A   1      41.608  23.754  27.497  1.00  0.00     0.173 A 
ATOM     82  F   UNL A   1      43.995  25.251  25.210  1.00  0.00    -0.203 F 
ATOM     83  C   UNL A   1      43.089  23.085  25.264  1.00  0.00     0.198 A 
ATOM     84  C   UNL A   1      41.532  22.467  26.963  1.00  0.00     0.198 A 
ATOM     85  F   UNL A   1      40.929  23.967  28.632  1.00  0.00    -0.203 F 
ATOM     86  F   UNL A   1      43.850  22.751  24.212  1.00  0.00    -0.200 F 
ATOM     87  C   UNL A   1      42.285  22.126  25.857  1.00  0.00     0.200 A 
ATOM     88  F   UNL A   1      40.773  21.542  27.568  1.00  0.00    -0.200 F 
ATOM     89  F   UNL A   1      42.264  20.871  25.390  1.00  0.00    -0.200 F 
ENDBRANCH  55  79
BRANCH  67  90
ATOM     90  C   UNL A   1      45.657  29.895  28.649  1.00  0.00     0.064 A 
ATOM     91  C   UNL A   1      44.607  30.551  27.981  1.00  0.00     0.173 A 
ATOM     92  C   UNL A   1      46.966  30.272  28.313  1.00  0.00     0.173 A 
ATOM     93  F   UNL A   1      43.329  30.336  28.320  1.00  0.00    -0.203 F 
ATOM     94  C   UNL A   1      44.861  31.498  26.988  1.00  0.00     0.198 A 
ATOM     95  C   UNL A   1      47.215  31.248  27.353  1.00  0.00     0.198 A 
ATOM     96  F   UNL A   1      48.008  29.724  28.956  1.00  0.00    -0.203 F 
ATOM     97  F   UNL A   1      43.842  32.095  26.353  1.00  0.00    -0.200 F 
ATOM     98  C   UNL A   1      46.164  31.849  26.681  1.00  0.00     0.200 A 
ATOM     99  F   UNL A   1      48.476  31.624  27.098  1.00  0.00    -0.200 F 
ATOM    100  F   UNL A   1      46.409  32.790  25.756  1.00  0.00    -0.200 F 
ENDBRANCH  67  90
ENDBRANCH  41  42
ENDBRANCH  34  36
ENDBRANCH  33  34
ENDBRANCH  32  33
ENDBRANCH  31  32
ENDBRANCH  30  31
ENDBRANCH  29  30
ENDBRANCH  28  29
ENDBRANCH  27  28
ENDBRANCH   1  27
TORSDOF 25
ENDMDL
MODEL 2
REMARK VINA RESULT:      -9.4      3.947      9.514
REMARK SMILES CC(C)n1cncc1[C@@H](NC(=O)OC(C)(C)C)C(=O)OCCOCCOCCOCCOC(=O)c1ccc(-c2c3nc(c(-c4c(F)c(F)c(F)c(F)c4F)c4ccc([nH]4)c(-c4c(F)c(F)c(F)c(F)c4F)c4nc(c(-c5c(F)c(F)c(F)c(F)c5F)c5ccc2[nH]5)C=C4)C=C3)cc1
REMARK SMILES IDX 25 1 24 2 23 3 22 4 21 5 20 6 18 7 19 8 9 9 8 10 4 11 5 12
REMARK SMILES IDX 6 13 7 14 2 15 1 16 3 17 10 18 11 19 12 21 13 22 14 23 15 24
REMARK SMILES IDX 16 25 17 26 26 27 27 28 28 29 29 30 30 31 31 32 32 33 33 34
REMARK SMILES IDX 34 35 35 36 36 37 97 38 37 39 96 40 38 41 39 42 40 43 90 44
REMARK SMILES IDX 41 45 95 46 89 47 91 48 42 49 94 50 88 51 87 52 43 54 75 55
REMARK SMILES IDX 55 56 74 57 56 58 59 59 73 60 92 61 57 62 58 63 72 65 93 66
REMARK SMILES IDX 60 67 44 68 45 69 53 70 46 71 47 72 51 73 54 74 48 75 49 76
REMARK SMILES IDX 52 77 50 78 76 79 77 80 85 81 78 82 79 83 83 84 86 85 80 86
REMARK SMILES IDX 81 87 84 88 82 89 61 90 62 91 70 92 63 93 64 94 68 95 71 96
REMARK SMILES IDX 65 97 66 98 69 99 67 100
REMARK H PARENT 10 20 91 53 59 64
REMARK Flexibility Score: inf
ROOT
ATOM      1  C   UNL A   1      34.664  22.707  23.153  1.00  0.00     0.188 C 
ENDROOT
BRANCH   1   2
ATOM      2  C   UNL A   1      33.264  22.986  23.754  1.00  0.00     0.188 C 
BRANCH   2   3
ATOM      3  O   UNL A   1      32.425  23.982  23.189  1.00  0.00    -0.376 OA
BRANCH   3   4
ATOM      4  C   UNL A   1      32.767  24.504  21.921  1.00  0.00     0.202 C 
BRANCH   4   5
ATOM      5  C   UNL A   1      32.873  26.016  21.735  1.00  0.00     0.261 C 
BRANCH   5   6
ATOM      6  O   UNL A   1      31.696  26.823  21.866  1.00  0.00    -0.461 OA
BRANCH   6   7
ATOM      7  C   UNL A   1      31.802  27.931  22.648  1.00  0.00     0.335 C 
ATOM      8  O   UNL A   1      32.695  28.769  22.548  1.00  0.00    -0.249 OA
BRANCH   7   9
ATOM      9  C   UNL A   1      30.790  27.944  23.799  1.00  0.00     0.244 C 
BRANCH   9  10
ATOM     10  C   UNL A   1      30.915  26.852  24.837  1.00  0.00     0.072 A 
ATOM     11  N   UNL A   1      32.057  26.373  25.490  1.00  0.00    -0.330 N 
ATOM     12  C   UNL A   1      31.640  25.281  26.230  1.00  0.00     0.199 A 
ATOM     13  N   UNL A   1      30.344  25.108  26.194  1.00  0.00    -0.245 NA
ATOM     14  C   UNL A   1      29.887  26.074  25.352  1.00  0.00     0.137 A 
BRANCH  11  15
ATOM     15  C   UNL A   1      33.472  26.783  25.477  1.00  0.00     0.082 C 
ATOM     16  C   UNL A   1      33.841  28.019  26.299  1.00  0.00     0.031 C 
ATOM     17  C   UNL A   1      34.431  25.657  25.948  1.00  0.00     0.031 C 
ENDBRANCH  11  15
ENDBRANCH   9  10
BRANCH   9  18
ATOM     18  N   UNL A   1      30.675  29.239  24.458  1.00  0.00    -0.302 N 
ATOM     19  C   UNL A   1      30.115  30.417  24.045  1.00  0.00     0.408 C 
ATOM     20  H   UNL A   1      31.069  29.273  25.359  1.00  0.00     0.168 HD
ATOM     21  O   UNL A   1      30.053  31.342  24.845  1.00  0.00    -0.225 OA
BRANCH  19  22
ATOM     22  O   UNL A   1      29.655  30.460  22.761  1.00  0.00    -0.444 OA
BRANCH  22  23
ATOM     23  C   UNL A   1      28.215  30.520  22.512  1.00  0.00     0.106 C 
ATOM     24  C   UNL A   1      27.560  31.504  23.486  1.00  0.00     0.056 C 
ATOM     25  C   UNL A   1      27.933  30.814  21.034  1.00  0.00     0.056 C 
ATOM     26  C   UNL A   1      27.577  29.146  22.801  1.00  0.00     0.056 C 
ENDBRANCH  22  23
ENDBRANCH  19  22
ENDBRANCH   9  18
ENDBRANCH   7   9
ENDBRANCH   6   7
ENDBRANCH   5   6
ENDBRANCH   4   5
ENDBRANCH   3   4
ENDBRANCH   2   3
ENDBRANCH   1   2
BRANCH   1  27
ATOM     27  O   UNL A   1      35.772  23.071  23.955  1.00  0.00    -0.377 OA
BRANCH  27  28
ATOM     28  C   UNL A   1      36.919  22.236  23.863  1.00  0.00     0.188 C 
BRANCH  28  29
ATOM     29  C   UNL A   1      37.250  21.344  25.084  1.00  0.00     0.188 C 
BRANCH  29  30
ATOM     30  O   UNL A   1      38.237  21.870  25.962  1.00  0.00    -0.376 OA
BRANCH  30  31
ATOM     31  C   UNL A   1      39.551  21.357  26.079  1.00  0.00     0.202 C 
BRANCH  31  32
ATOM     32  C   UNL A   1      40.621  22.165  26.813  1.00  0.00     0.261 C 
BRANCH  32  33
ATOM     33  O   UNL A   1      40.664  23.530  26.465  1.00  0.00    -0.460 OA
BRANCH  33  34
ATOM     34  C   UNL A   1      41.745  24.183  26.927  1.00  0.00     0.338 C 
ATOM     35  O   UNL A   1      42.905  24.019  26.608  1.00  0.00    -0.246 OA
BRANCH  34  36
ATOM     36  C   UNL A   1      41.308  25.058  28.014  1.00  0.00     0.060 A 
ATOM     37  C   UNL A   1      40.128  25.754  27.768  1.00  0.00     0.016 A 
ATOM     38  C   UNL A   1      42.266  25.474  28.954  1.00  0.00     0.016 A 
ATOM     39  C   UNL A   1      40.065  27.042  28.223  1.00  0.00     0.010 A 
ATOM     40  C   UNL A   1      42.208  26.767  29.391  1.00  0.00     0.010 A 
ATOM     41  C   UNL A   1      41.163  27.555  28.925  1.00  0.00    -0.014 A 
BRANCH  41  42
ATOM     42  C   UNL A   1      41.125  28.953  29.259  1.00  0.00     0.031 A 
ATOM     43  C   UNL A   1      42.248  29.684  28.648  1.00  0.00     0.074 A 
ATOM     44  C   UNL A   1      40.142  29.493  29.998  1.00  0.00     0.049 A 
ATOM     45  N   UNL A   1      43.229  30.246  29.267  1.00  0.00    -0.248 NA
ATOM     46  C   UNL A   1      42.414  29.599  27.187  1.00  0.00     0.031 C 
ATOM     47  C   UNL A   1      38.888  28.883  30.439  1.00  0.00     0.029 A 
ATOM     48  N   UNL A   1      40.026  30.774  30.432  1.00  0.00    -0.354 N 
ATOM     49  C   UNL A   1      44.028  30.781  28.269  1.00  0.00     0.074 A 
ATOM     50  C   UNL A   1      43.597  30.193  27.028  1.00  0.00     0.031 C 
ATOM     51  C   UNL A   1      38.045  29.858  30.853  1.00  0.00     0.029 A 
ATOM     52  C   UNL A   1      38.740  31.134  30.806  1.00  0.00     0.049 A 
ATOM     53  H   UNL A   1      40.789  31.394  30.476  1.00  0.00     0.167 HD
ATOM     54  C   UNL A   1      44.762  31.894  28.518  1.00  0.00     0.037 A 
ATOM     55  C   UNL A   1      38.291  32.409  30.937  1.00  0.00     0.037 A 
ATOM     56  C   UNL A   1      45.015  32.047  29.931  1.00  0.00     0.049 A 
ATOM     57  C   UNL A   1      39.488  33.282  31.112  1.00  0.00     0.074 A 
ATOM     58  C   UNL A   1      45.569  31.224  30.896  1.00  0.00     0.029 A 
ATOM     59  N   UNL A   1      44.316  33.005  30.626  1.00  0.00    -0.354 N 
ATOM     60  N   UNL A   1      40.238  33.272  32.180  1.00  0.00    -0.248 NA
ATOM     61  C   UNL A   1      40.130  33.796  29.907  1.00  0.00     0.031 C 
ATOM     62  C   UNL A   1      44.767  31.420  32.057  1.00  0.00     0.029 A 
ATOM     63  C   UNL A   1      43.829  32.407  31.762  1.00  0.00     0.049 A 
ATOM     64  H   UNL A   1      44.188  33.945  30.360  1.00  0.00     0.167 HD
ATOM     65  C   UNL A   1      41.537  33.343  31.698  1.00  0.00     0.074 A 
ATOM     66  C   UNL A   1      41.407  33.738  30.297  1.00  0.00     0.031 C 
ATOM     67  C   UNL A   1      42.579  32.781  32.379  1.00  0.00     0.037 A 
BRANCH  54  68
ATOM     68  C   UNL A   1      44.847  33.029  27.534  1.00  0.00     0.064 A 
ATOM     69  C   UNL A   1      45.995  33.146  26.734  1.00  0.00     0.173 A 
ATOM     70  C   UNL A   1      44.001  34.163  27.563  1.00  0.00     0.173 A 
ATOM     71  F   UNL A   1      46.880  32.139  26.662  1.00  0.00    -0.203 F 
ATOM     72  C   UNL A   1      46.313  34.336  26.078  1.00  0.00     0.198 A 
ATOM     73  C   UNL A   1      44.291  35.327  26.860  1.00  0.00     0.198 A 
ATOM     74  F   UNL A   1      42.931  34.246  28.361  1.00  0.00    -0.203 F 
ATOM     75  F   UNL A   1      47.485  34.448  25.441  1.00  0.00    -0.200 F 
ATOM     76  C   UNL A   1      45.463  35.426  26.145  1.00  0.00     0.200 A 
ATOM     77  F   UNL A   1      43.465  36.378  26.959  1.00  0.00    -0.200 F 
ATOM     78  F   UNL A   1      45.798  36.588  25.570  1.00  0.00    -0.200 F 
ENDBRANCH  54  68
BRANCH  55  79
ATOM     79  C   UNL A   1      36.953  32.947  30.573  1.00  0.00     0.064 A 
ATOM     80  C   UNL A   1      36.091  33.457  31.561  1.00  0.00     0.173 A 
ATOM     81  C   UNL A   1      36.592  33.219  29.238  1.00  0.00     0.173 A 
ATOM     82  F   UNL A   1      36.377  33.287  32.861  1.00  0.00    -0.203 F 
ATOM     83  C   UNL A   1      34.960  34.214  31.232  1.00  0.00     0.198 A 
ATOM     84  C   UNL A   1      35.456  33.962  28.912  1.00  0.00     0.198 A 
ATOM     85  F   UNL A   1      37.376  32.854  28.216  1.00  0.00    -0.203 F 
ATOM     86  F   UNL A   1      34.202  34.739  32.205  1.00  0.00    -0.200 F 
ATOM     87  C   UNL A   1      34.648  34.473  29.908  1.00  0.00     0.200 A 
ATOM     88  F   UNL A   1      35.186  34.230  27.626  1.00  0.00    -0.200 F 
ATOM     89  F   UNL A   1      33.599  35.245  29.594  1.00  0.00    -0.200 F 
ENDBRANCH  55  79
BRANCH  67  90
ATOM     90  C   UNL A   1      42.346  32.305  33.786  1.00  0.00     0.064 A 
ATOM     91  C   UNL A   1      41.864  31.026  34.121  1.00  0.00     0.173 A 
ATOM     92  C   UNL A   1      42.767  33.129  34.840  1.00  0.00     0.173 A 
ATOM     93  F   UNL A   1      41.550  30.134  33.173  1.00  0.00    -0.203 F 
ATOM     94  C   UNL A   1      41.760  30.619  35.451  1.00  0.00     0.198 A 
ATOM     95  C   UNL A   1      42.702  32.703  36.163  1.00  0.00     0.198 A 
ATOM     96  F   UNL A   1      43.289  34.338  34.580  1.00  0.00    -0.203 F 
ATOM     97  F   UNL A   1      41.280  29.402  35.745  1.00  0.00    -0.200 F 
ATOM     98  C   UNL A   1      42.186  31.455  36.469  1.00  0.00     0.200 A 
ATOM     99  F   UNL A   1      43.165  33.494  37.140  1.00  0.00    -0.200 F 
ATOM    100  F   UNL A   1      42.125  31.048  37.745  1.00  0.00    -0.200 F 
ENDBRANCH  67  90
ENDBRANCH  41  42
ENDBRANCH  34  36
ENDBRANCH  33  34
ENDBRANCH  32  33
ENDBRANCH  31  32
ENDBRANCH  30  31
ENDBRANCH  29  30
ENDBRANCH  28  29
ENDBRANCH  27  28
ENDBRANCH   1  27
TORSDOF 25
ENDMDL
MODEL 3
REMARK VINA RESULT:      -9.3      1.961      6.536
REMARK SMILES CC(C)n1cncc1[C@@H](NC(=O)OC(C)(C)C)C(=O)OCCOCCOCCOCCOC(=O)c1ccc(-c2c3nc(c(-c4c(F)c(F)c(F)c(F)c4F)c4ccc([nH]4)c(-c4c(F)c(F)c(F)c(F)c4F)c4nc(c(-c5c(F)c(F)c(F)c(F)c5F)c5ccc2[nH]5)C=C4)C=C3)cc1
REMARK SMILES IDX 25 1 24 2 23 3 22 4 21 5 20 6 18 7 19 8 9 9 8 10 4 11 5 12
REMARK SMILES IDX 6 13 7 14 2 15 1 16 3 17 10 18 11 19 12 21 13 22 14 23 15 24
REMARK SMILES IDX 16 25 17 26 26 27 27 28 28 29 29 30 30 31 31 32 32 33 33 34
REMARK SMILES IDX 34 35 35 36 36 37 97 38 37 39 96 40 38 41 39 42 40 43 90 44
REMARK SMILES IDX 41 45 95 46 89 47 91 48 42 49 94 50 88 51 87 52 43 54 75 55
REMARK SMILES IDX 55 56 74 57 56 58 59 59 73 60 92 61 57 62 58 63 72 65 93 66
REMARK SMILES IDX 60 67 44 68 45 69 53 70 46 71 47 72 51 73 54 74 48 75 49 76
REMARK SMILES IDX 52 77 50 78 76 79 77 80 85 81 78 82 79 83 83 84 86 85 80 86
REMARK SMILES IDX 81 87 84 88 82 89 61 90 62 91 70 92 63 93 64 94 68 95 71 96
REMARK SMILES IDX 65 97 66 98 69 99 67 100
REMARK H PARENT 10 20 91 53 59 64
REMARK Flexibility Score: inf
ROOT
ATOM      1  C   UNL A   1      34.879  31.275  27.838  1.00  0.00     0.188 C 
ENDROOT
BRANCH   1   2
ATOM      2  C   UNL A   1      34.442  29.936  27.194  1.00  0.00     0.188 C 
BRANCH   2   3
ATOM      3  O   UNL A   1      33.105  29.752  26.754  1.00  0.00    -0.376 OA
BRANCH   3   4
ATOM      4  C   UNL A   1      32.236  28.982  27.559  1.00  0.00     0.202 C 
BRANCH   4   5
ATOM      5  C   UNL A   1      31.308  27.963  26.900  1.00  0.00     0.261 C 
BRANCH   5   6
ATOM      6  O   UNL A   1      31.428  26.578  27.248  1.00  0.00    -0.461 OA
BRANCH   6   7
ATOM      7  C   UNL A   1      31.157  25.679  26.265  1.00  0.00     0.335 C 
ATOM      8  O   UNL A   1      30.110  25.042  26.174  1.00  0.00    -0.249 OA
BRANCH   7   9
ATOM      9  C   UNL A   1      32.368  25.397  25.368  1.00  0.00     0.244 C 
BRANCH   9  10
ATOM     10  C   UNL A   1      32.903  26.552  24.553  1.00  0.00     0.072 A 
ATOM     11  N   UNL A   1      32.380  27.140  23.395  1.00  0.00    -0.330 N 
ATOM     12  C   UNL A   1      33.326  28.058  22.976  1.00  0.00     0.199 A 
ATOM     13  N   UNL A   1      34.321  28.181  23.815  1.00  0.00    -0.245 NA
ATOM     14  C   UNL A   1      34.066  27.271  24.794  1.00  0.00     0.137 A 
BRANCH  11  15
ATOM     15  C   UNL A   1      31.142  26.925  22.626  1.00  0.00     0.082 C 
ATOM     16  C   UNL A   1      30.258  28.149  22.383  1.00  0.00     0.031 C 
ATOM     17  C   UNL A   1      31.400  26.301  21.229  1.00  0.00     0.031 C 
ENDBRANCH  11  15
ENDBRANCH   9  10
BRANCH   9  18
ATOM     18  N   UNL A   1      33.465  24.734  26.063  1.00  0.00    -0.302 N 
ATOM     19  C   UNL A   1      33.792  23.411  26.180  1.00  0.00     0.408 C 
ATOM     20  H   UNL A   1      34.077  25.345  26.531  1.00  0.00     0.168 HD
ATOM     21  O   UNL A   1      34.843  23.121  26.737  1.00  0.00    -0.225 OA
BRANCH  19  22
ATOM     22  O   UNL A   1      32.915  22.513  25.647  1.00  0.00    -0.444 OA
BRANCH  22  23
ATOM     23  C   UNL A   1      33.191  21.924  24.336  1.00  0.00     0.106 C 
ATOM     24  C   UNL A   1      32.089  22.319  23.349  1.00  0.00     0.056 C 
ATOM     25  C   UNL A   1      34.608  22.277  23.872  1.00  0.00     0.056 C 
ATOM     26  C   UNL A   1      33.147  20.386  24.433  1.00  0.00     0.056 C 
ENDBRANCH  22  23
ENDBRANCH  19  22
ENDBRANCH   9  18
ENDBRANCH   7   9
ENDBRANCH   6   7
ENDBRANCH   5   6
ENDBRANCH   4   5
ENDBRANCH   3   4
ENDBRANCH   2   3
ENDBRANCH   1   2
BRANCH   1  27
ATOM     27  O   UNL A   1      33.837  32.166  28.192  1.00  0.00    -0.377 OA
BRANCH  27  28
ATOM     28  C   UNL A   1      34.176  33.546  28.238  1.00  0.00     0.188 C 
BRANCH  28  29
ATOM     29  C   UNL A   1      33.884  34.308  29.553  1.00  0.00     0.188 C 
BRANCH  29  30
ATOM     30  O   UNL A   1      34.836  34.106  30.589  1.00  0.00    -0.376 OA
BRANCH  30  31
ATOM     31  C   UNL A   1      35.002  32.887  31.289  1.00  0.00     0.202 C 
BRANCH  31  32
ATOM     32  C   UNL A   1      36.357  32.178  31.274  1.00  0.00     0.261 C 
BRANCH  32  33
ATOM     33  O   UNL A   1      36.357  30.934  30.610  1.00  0.00    -0.460 OA
BRANCH  33  34
ATOM     34  C   UNL A   1      36.687  29.892  31.394  1.00  0.00     0.338 C 
ATOM     35  O   UNL A   1      36.514  29.778  32.591  1.00  0.00    -0.246 OA
BRANCH  34  36
ATOM     36  C   UNL A   1      37.439  28.941  30.579  1.00  0.00     0.060 A 
ATOM     37  C   UNL A   1      38.148  27.983  31.299  1.00  0.00     0.016 A 
ATOM     38  C   UNL A   1      37.762  29.308  29.262  1.00  0.00     0.016 A 
ATOM     39  C   UNL A   1      39.380  27.636  30.819  1.00  0.00     0.010 A 
ATOM     40  C   UNL A   1      39.001  28.974  28.794  1.00  0.00     0.010 A 
ATOM     41  C   UNL A   1      39.826  28.235  29.633  1.00  0.00    -0.014 A 
BRANCH  41  42
ATOM     42  C   UNL A   1      41.181  27.962  29.237  1.00  0.00     0.031 A 
ATOM     43  C   UNL A   1      41.309  26.623  28.638  1.00  0.00     0.074 A 
ATOM     44  C   UNL A   1      42.168  28.864  29.368  1.00  0.00     0.049 A 
ATOM     45  N   UNL A   1      41.954  25.620  29.126  1.00  0.00    -0.248 NA
ATOM     46  C   UNL A   1      40.453  26.298  27.484  1.00  0.00     0.031 C 
ATOM     47  C   UNL A   1      42.074  30.278  29.734  1.00  0.00     0.029 A 
ATOM     48  N   UNL A   1      43.488  28.709  29.093  1.00  0.00    -0.354 N 
ATOM     49  C   UNL A   1      41.764  24.591  28.217  1.00  0.00     0.074 A 
ATOM     50  C   UNL A   1      40.691  24.994  27.348  1.00  0.00     0.031 C 
ATOM     51  C   UNL A   1      43.236  30.893  29.415  1.00  0.00     0.029 A 
ATOM     52  C   UNL A   1      44.179  29.900  28.931  1.00  0.00     0.049 A 
ATOM     53  H   UNL A   1      43.917  27.827  29.016  1.00  0.00     0.167 HD
ATOM     54  C   UNL A   1      42.720  23.639  28.070  1.00  0.00     0.037 A 
ATOM     55  C   UNL A   1      45.388  30.026  28.324  1.00  0.00     0.037 A 
ATOM     56  C   UNL A   1      43.544  23.538  29.251  1.00  0.00     0.049 A 
ATOM     57  C   UNL A   1      46.032  28.681  28.340  1.00  0.00     0.074 A 
ATOM     58  C   UNL A   1      43.268  23.337  30.592  1.00  0.00     0.029 A 
ATOM     59  N   UNL A   1      44.816  24.057  29.213  1.00  0.00    -0.354 N 
ATOM     60  N   UNL A   1      46.465  28.100  29.425  1.00  0.00    -0.248 NA
ATOM     61  C   UNL A   1      45.741  27.781  27.228  1.00  0.00     0.031 C 
ATOM     62  C   UNL A   1      44.158  24.206  31.288  1.00  0.00     0.029 A 
ATOM     63  C   UNL A   1      44.976  24.820  30.342  1.00  0.00     0.049 A 
ATOM     64  H   UNL A   1      45.487  23.909  28.508  1.00  0.00     0.167 HD
ATOM     65  C   UNL A   1      46.078  26.774  29.294  1.00  0.00     0.074 A 
ATOM     66  C   UNL A   1      45.702  26.620  27.890  1.00  0.00     0.031 C 
ATOM     67  C   UNL A   1      45.800  26.004  30.387  1.00  0.00     0.037 A 
BRANCH  54  68
ATOM     68  C   UNL A   1      43.150  23.145  26.716  1.00  0.00     0.064 A 
ATOM     69  C   UNL A   1      43.079  21.769  26.442  1.00  0.00     0.173 A 
ATOM     70  C   UNL A   1      43.908  23.914  25.800  1.00  0.00     0.173 A 
ATOM     71  F   UNL A   1      42.411  20.945  27.266  1.00  0.00    -0.203 F 
ATOM     72  C   UNL A   1      43.779  21.197  25.381  1.00  0.00     0.198 A 
ATOM     73  C   UNL A   1      44.555  23.347  24.709  1.00  0.00     0.198 A 
ATOM     74  F   UNL A   1      44.159  25.215  25.984  1.00  0.00    -0.203 F 
ATOM     75  F   UNL A   1      43.795  19.865  25.240  1.00  0.00    -0.200 F 
ATOM     76  C   UNL A   1      44.520  21.984  24.518  1.00  0.00     0.200 A 
ATOM     77  F   UNL A   1      45.287  24.128  23.901  1.00  0.00    -0.200 F 
ATOM     78  F   UNL A   1      45.244  21.428  23.538  1.00  0.00    -0.200 F 
ENDBRANCH  54  68
BRANCH  55  79
ATOM     79  C   UNL A   1      45.854  31.128  27.440  1.00  0.00     0.064 A 
ATOM     80  C   UNL A   1      44.989  31.704  26.493  1.00  0.00     0.173 A 
ATOM     81  C   UNL A   1      47.061  31.818  27.675  1.00  0.00     0.173 A 
ATOM     82  F   UNL A   1      43.798  31.142  26.235  1.00  0.00    -0.203 F 
ATOM     83  C   UNL A   1      45.299  32.907  25.847  1.00  0.00     0.198 A 
ATOM     84  C   UNL A   1      47.374  33.010  27.020  1.00  0.00     0.198 A 
ATOM     85  F   UNL A   1      47.927  31.410  28.611  1.00  0.00    -0.203 F 
ATOM     86  F   UNL A   1      44.417  33.458  25.002  1.00  0.00    -0.200 F 
ATOM     87  C   UNL A   1      46.487  33.564  26.118  1.00  0.00     0.200 A 
ATOM     88  F   UNL A   1      48.515  33.650  27.318  1.00  0.00    -0.200 F 
ATOM     89  F   UNL A   1      46.760  34.744  25.545  1.00  0.00    -0.200 F 
ENDBRANCH  55  79
BRANCH  67  90
ATOM     90  C   UNL A   1      46.166  26.528  31.748  1.00  0.00     0.064 A 
ATOM     91  C   UNL A   1      45.329  27.338  32.537  1.00  0.00     0.173 A 
ATOM     92  C   UNL A   1      47.354  26.068  32.335  1.00  0.00     0.173 A 
ATOM     93  F   UNL A   1      44.125  27.725  32.097  1.00  0.00    -0.203 F 
ATOM     94  C   UNL A   1      45.695  27.711  33.830  1.00  0.00     0.198 A 
ATOM     95  C   UNL A   1      47.695  26.407  33.641  1.00  0.00     0.198 A 
ATOM     96  F   UNL A   1      48.166  25.246  31.653  1.00  0.00    -0.203 F 
ATOM     97  F   UNL A   1      44.888  28.499  34.555  1.00  0.00    -0.200 F 
ATOM     98  C   UNL A   1      46.874  27.239  34.382  1.00  0.00     0.200 A 
ATOM     99  F   UNL A   1      48.810  25.904  34.189  1.00  0.00    -0.200 F 
ATOM    100  F   UNL A   1      47.206  27.563  35.641  1.00  0.00    -0.200 F 
ENDBRANCH  67  90
ENDBRANCH  41  42
ENDBRANCH  34  36
ENDBRANCH  33  34
ENDBRANCH  32  33
ENDBRANCH  31  32
ENDBRANCH  30  31
ENDBRANCH  29  30
ENDBRANCH  28  29
ENDBRANCH  27  28
ENDBRANCH   1  27
TORSDOF 25
ENDMDL
