MODEL 1
REMARK VINA RESULT:     -10.8      0.000      0.000
REMARK SMILES NC(=O)c1cc(-c2cc(C(=O)OCCOCCOCCOCCOC(=O)c3ccc(-c4c5nc(c(-c6c(F)c(F)c(F)c(F)c6F)c6ccc([nH]6)c(-c6c(F)c(F)c(F)c(F)c6F)c6nc(c(-c7c(F)c(F)c(F)c(F)c7F)c7ccc4[nH]7)C=C6)C=C5)cc3)cc([N+](=O)[O-])c2)ccc1Cl
REMARK SMILES IDX 18 1 17 2 16 3 15 4 14 5 13 6 12 7 10 8 11 9 9 10 7 11 8 12
REMARK SMILES IDX 95 13 91 14 90 15 6 16 4 17 5 18 98 19 97 20 99 21 96 22
REMARK SMILES IDX 2 23 1 24 3 27 92 28 93 29 94 30 19 31 20 32 21 33 22 34
REMARK SMILES IDX 23 35 24 36 25 37 26 38 27 39 28 40 89 41 29 42 88 43 30 44
REMARK SMILES IDX 31 45 32 46 82 47 33 48 87 49 81 50 83 51 34 52 86 53 80 54
REMARK SMILES IDX 79 55 35 57 67 58 47 59 66 60 48 61 51 62 65 63 84 64 49 65
REMARK SMILES IDX 50 66 64 68 85 69 52 70 36 71 37 72 45 73 38 74 39 75 43 76
REMARK SMILES IDX 46 77 40 78 41 79 44 80 42 81 68 82 69 83 77 84 70 85 71 86
REMARK SMILES IDX 75 87 78 88 72 89 73 90 76 91 74 92 53 93 54 94 62 95 55 96
REMARK SMILES IDX 56 97 60 98 63 99 57 100 58 101 61 102 59 103
REMARK H PARENT 1 25 1 26 83 56 51 67
REMARK Flexibility Score: inf
ROOT
ATOM      1  O   UNL A   1      34.668  23.595  25.451  1.00  0.00    -0.377 OA
ENDROOT
BRANCH   1   2
ATOM      2  C   UNL A   1      34.721  24.988  25.188  1.00  0.00     0.188 C 
BRANCH   2   3
ATOM      3  C   UNL A   1      33.896  25.896  26.119  1.00  0.00     0.188 C 
BRANCH   3   4
ATOM      4  O   UNL A   1      34.237  27.267  25.994  1.00  0.00    -0.376 OA
BRANCH   4   5
ATOM      5  C   UNL A   1      33.753  28.189  26.951  1.00  0.00     0.202 C 
BRANCH   5   6
ATOM      6  C   UNL A   1      33.734  29.693  26.630  1.00  0.00     0.261 C 
BRANCH   6   7
ATOM      7  O   UNL A   1      33.042  30.085  25.439  1.00  0.00    -0.460 OA
BRANCH   7   8
ATOM      8  C   UNL A   1      31.740  30.424  25.541  1.00  0.00     0.338 C 
ATOM      9  O   UNL A   1      31.277  31.415  26.071  1.00  0.00    -0.246 OA
BRANCH   8  10
ATOM     10  C   UNL A   1      30.984  29.493  24.664  1.00  0.00     0.067 A 
ATOM     11  C   UNL A   1      30.499  27.174  24.064  1.00  0.00    -0.011 A 
ATOM     12  C   UNL A   1      31.289  28.123  24.735  1.00  0.00     0.025 A 
ATOM     13  C   UNL A   1      29.418  27.628  23.290  1.00  0.00     0.094 A 
ATOM     14  C   UNL A   1      29.132  29.000  23.205  1.00  0.00     0.270 A 
ATOM     15  C   UNL A   1      29.904  29.940  23.897  1.00  0.00     0.101 A 
BRANCH  11  16
ATOM     16  C   UNL A   1      30.809  25.743  24.149  1.00  0.00    -0.017 A 
ATOM     17  C   UNL A   1      30.920  23.633  25.394  1.00  0.00     0.058 A 
ATOM     18  C   UNL A   1      30.595  25.004  25.324  1.00  0.00     0.024 A 
ATOM     19  C   UNL A   1      31.438  22.990  24.265  1.00  0.00     0.053 A 
ATOM     20  C   UNL A   1      31.645  23.718  23.089  1.00  0.00     0.022 A 
ATOM     21  Cl  UNL A   1      31.811  21.304  24.207  1.00  0.00    -0.083 Cl
ATOM     22  C   UNL A   1      31.336  25.079  23.035  1.00  0.00     0.010 A 
BRANCH  17  23
ATOM     23  C   UNL A   1      30.665  22.959  26.693  1.00  0.00     0.250 C 
ATOM     24  N   UNL A   1      29.413  22.464  26.917  1.00  0.00    -0.366 N 
ATOM     25  H   UNL A   1      29.208  22.011  27.767  1.00  0.00     0.159 HD
ATOM     26  H   UNL A   1      28.716  22.559  26.229  1.00  0.00     0.159 HD
ATOM     27  O   UNL A   1      31.566  22.800  27.506  1.00  0.00    -0.269 OA
ENDBRANCH  17  23
ENDBRANCH  11  16
BRANCH  14  28
ATOM     28  N   UNL A   1      28.003  29.452  22.383  1.00  0.00     0.062 N 
ATOM     29  O   UNL A   1      26.898  29.563  22.932  1.00  0.00    -0.258 OA
ATOM     30  O   UNL A   1      28.226  29.711  21.192  1.00  0.00    -0.258 OA
ENDBRANCH  14  28
ENDBRANCH   8  10
ENDBRANCH   7   8
ENDBRANCH   6   7
ENDBRANCH   5   6
ENDBRANCH   4   5
ENDBRANCH   3   4
ENDBRANCH   2   3
ENDBRANCH   1   2
BRANCH   1  31
ATOM     31  C   UNL A   1      35.298  22.690  24.541  1.00  0.00     0.188 C 
BRANCH  31  32
ATOM     32  C   UNL A   1      36.833  22.476  24.496  1.00  0.00     0.188 C 
BRANCH  32  33
ATOM     33  O   UNL A   1      37.276  21.210  24.950  1.00  0.00    -0.376 OA
BRANCH  33  34
ATOM     34  C   UNL A   1      38.538  21.142  25.591  1.00  0.00     0.202 C 
BRANCH  34  35
ATOM     35  C   UNL A   1      39.302  19.821  25.440  1.00  0.00     0.261 C 
BRANCH  35  36
ATOM     36  O   UNL A   1      40.243  19.520  26.485  1.00  0.00    -0.460 OA
BRANCH  36  37
ATOM     37  C   UNL A   1      41.562  19.586  26.177  1.00  0.00     0.338 C 
ATOM     38  O   UNL A   1      42.243  18.735  25.659  1.00  0.00    -0.246 OA
BRANCH  37  39
ATOM     39  C   UNL A   1      41.987  20.984  26.426  1.00  0.00     0.060 A 
ATOM     40  C   UNL A   1      42.157  21.426  27.746  1.00  0.00     0.016 A 
ATOM     41  C   UNL A   1      42.262  21.832  25.354  1.00  0.00     0.016 A 
ATOM     42  C   UNL A   1      42.610  22.724  27.993  1.00  0.00     0.010 A 
ATOM     43  C   UNL A   1      42.688  23.138  25.604  1.00  0.00     0.010 A 
ATOM     44  C   UNL A   1      42.854  23.595  26.924  1.00  0.00    -0.014 A 
BRANCH  44  45
ATOM     45  C   UNL A   1      43.154  25.027  27.164  1.00  0.00     0.031 A 
ATOM     46  C   UNL A   1      44.552  25.519  26.919  1.00  0.00     0.074 A 
ATOM     47  C   UNL A   1      42.213  25.867  27.625  1.00  0.00     0.049 A 
ATOM     48  N   UNL A   1      45.082  26.685  27.184  1.00  0.00    -0.248 NA
ATOM     49  C   UNL A   1      45.476  24.563  26.292  1.00  0.00     0.031 C 
ATOM     50  C   UNL A   1      40.812  25.522  27.859  1.00  0.00     0.029 A 
ATOM     51  N   UNL A   1      42.304  27.185  28.006  1.00  0.00    -0.354 N 
ATOM     52  C   UNL A   1      46.404  26.599  26.769  1.00  0.00     0.074 A 
ATOM     53  C   UNL A   1      46.601  25.261  26.253  1.00  0.00     0.031 C 
ATOM     54  C   UNL A   1      40.178  26.594  28.366  1.00  0.00     0.029 A 
ATOM     55  C   UNL A   1      41.139  27.684  28.538  1.00  0.00     0.049 A 
ATOM     56  H   UNL A   1      43.123  27.719  27.906  1.00  0.00     0.167 HD
ATOM     57  C   UNL A   1      47.365  27.551  26.813  1.00  0.00     0.037 A 
ATOM     58  C   UNL A   1      40.892  28.867  29.134  1.00  0.00     0.037 A 
ATOM     59  C   UNL A   1      47.165  28.877  27.336  1.00  0.00     0.049 A 
ATOM     60  C   UNL A   1      42.009  29.874  29.269  1.00  0.00     0.074 A 
ATOM     61  C   UNL A   1      48.068  29.924  27.399  1.00  0.00     0.029 A 
ATOM     62  N   UNL A   1      45.984  29.332  27.903  1.00  0.00    -0.354 N 
ATOM     63  N   UNL A   1      43.246  29.803  28.843  1.00  0.00    -0.248 NA
ATOM     64  C   UNL A   1      41.693  31.125  29.977  1.00  0.00     0.031 C 
ATOM     65  C   UNL A   1      47.454  30.990  28.065  1.00  0.00     0.029 A 
ATOM     66  C   UNL A   1      46.148  30.631  28.359  1.00  0.00     0.049 A 
ATOM     67  H   UNL A   1      45.152  28.810  27.971  1.00  0.00     0.167 HD
ATOM     68  C   UNL A   1      43.850  31.000  29.213  1.00  0.00     0.074 A 
ATOM     69  C   UNL A   1      42.836  31.790  29.878  1.00  0.00     0.031 C 
ATOM     70  C   UNL A   1      45.130  31.406  29.020  1.00  0.00     0.037 A 
BRANCH  57  71
ATOM     71  C   UNL A   1      48.733  27.183  26.316  1.00  0.00     0.064 A 
ATOM     72  C   UNL A   1      49.098  27.343  24.970  1.00  0.00     0.173 A 
ATOM     73  C   UNL A   1      49.703  26.698  27.207  1.00  0.00     0.173 A 
ATOM     74  F   UNL A   1      48.205  27.790  24.075  1.00  0.00    -0.203 F 
ATOM     75  C   UNL A   1      50.377  27.006  24.532  1.00  0.00     0.198 A 
ATOM     76  C   UNL A   1      50.988  26.393  26.770  1.00  0.00     0.198 A 
ATOM     77  F   UNL A   1      49.406  26.531  28.504  1.00  0.00    -0.203 F 
ATOM     78  F   UNL A   1      50.689  27.121  23.234  1.00  0.00    -0.200 F 
ATOM     79  C   UNL A   1      51.322  26.539  25.433  1.00  0.00     0.200 A 
ATOM     80  F   UNL A   1      51.905  25.956  27.646  1.00  0.00    -0.200 F 
ATOM     81  F   UNL A   1      52.555  26.225  25.011  1.00  0.00    -0.200 F 
ENDBRANCH  57  71
BRANCH  58  82
ATOM     82  C   UNL A   1      39.542  29.157  29.688  1.00  0.00     0.064 A 
ATOM     83  C   UNL A   1      39.217  28.822  31.010  1.00  0.00     0.173 A 
ATOM     84  C   UNL A   1      38.541  29.746  28.901  1.00  0.00     0.173 A 
ATOM     85  F   UNL A   1      40.128  28.228  31.794  1.00  0.00    -0.203 F 
ATOM     86  C   UNL A   1      37.939  29.050  31.517  1.00  0.00     0.198 A 
ATOM     87  C   UNL A   1      37.273  30.003  29.419  1.00  0.00     0.198 A 
ATOM     88  F   UNL A   1      38.795  30.077  27.626  1.00  0.00    -0.203 F 
ATOM     89  F   UNL A   1      37.639  28.673  32.767  1.00  0.00    -0.200 F 
ATOM     90  C   UNL A   1      36.970  29.647  30.724  1.00  0.00     0.200 A 
ATOM     91  F   UNL A   1      36.344  30.589  28.652  1.00  0.00    -0.200 F 
ATOM     92  F   UNL A   1      35.742  29.869  31.213  1.00  0.00    -0.200 F 
ENDBRANCH  58  82
BRANCH  70  93
ATOM     93  C   UNL A   1      45.509  32.771  29.519  1.00  0.00     0.064 A 
ATOM     94  C   UNL A   1      45.323  33.919  28.734  1.00  0.00     0.173 A 
ATOM     95  C   UNL A   1      46.005  32.942  30.822  1.00  0.00     0.173 A 
ATOM     96  F   UNL A   1      44.865  33.811  27.478  1.00  0.00    -0.203 F 
ATOM     97  C   UNL A   1      45.633  35.184  29.229  1.00  0.00     0.198 A 
ATOM     98  C   UNL A   1      46.284  34.211  31.324  1.00  0.00     0.198 A 
ATOM     99  F   UNL A   1      46.196  31.879  31.617  1.00  0.00    -0.203 F 
ATOM    100  F   UNL A   1      45.485  36.261  28.446  1.00  0.00    -0.200 F 
ATOM    101  C   UNL A   1      46.103  35.329  30.525  1.00  0.00     0.200 A 
ATOM    102  F   UNL A   1      46.721  34.350  32.583  1.00  0.00    -0.200 F 
ATOM    103  F   UNL A   1      46.386  36.548  31.005  1.00  0.00    -0.200 F 
ENDBRANCH  70  93
ENDBRANCH  44  45
ENDBRANCH  37  39
ENDBRANCH  36  37
ENDBRANCH  35  36
ENDBRANCH  34  35
ENDBRANCH  33  34
ENDBRANCH  32  33
ENDBRANCH  31  32
ENDBRANCH   1  31
TORSDOF 23
ENDMDL
MODEL 2
REMARK VINA RESULT:     -10.7      0.963      6.946
REMARK SMILES NC(=O)c1cc(-c2cc(C(=O)OCCOCCOCCOCCOC(=O)c3ccc(-c4c5nc(c(-c6c(F)c(F)c(F)c(F)c6F)c6ccc([nH]6)c(-c6c(F)c(F)c(F)c(F)c6F)c6nc(c(-c7c(F)c(F)c(F)c(F)c7F)c7ccc4[nH]7)C=C6)C=C5)cc3)cc([N+](=O)[O-])c2)ccc1Cl
REMARK SMILES IDX 18 1 17 2 16 3 15 4 14 5 13 6 12 7 10 8 11 9 9 10 7 11 8 12
REMARK SMILES IDX 95 13 91 14 90 15 6 16 4 17 5 18 98 19 97 20 99 21 96 22
REMARK SMILES IDX 2 23 1 24 3 27 92 28 93 29 94 30 19 31 20 32 21 33 22 34
REMARK SMILES IDX 23 35 24 36 25 37 26 38 27 39 28 40 89 41 29 42 88 43 30 44
REMARK SMILES IDX 31 45 32 46 82 47 33 48 87 49 81 50 83 51 34 52 86 53 80 54
REMARK SMILES IDX 79 55 35 57 67 58 47 59 66 60 48 61 51 62 65 63 84 64 49 65
REMARK SMILES IDX 50 66 64 68 85 69 52 70 36 71 37 72 45 73 38 74 39 75 43 76
REMARK SMILES IDX 46 77 40 78 41 79 44 80 42 81 68 82 69 83 77 84 70 85 71 86
REMARK SMILES IDX 75 87 78 88 72 89 73 90 76 91 74 92 53 93 54 94 62 95 55 96
REMARK SMILES IDX 56 97 60 98 63 99 57 100 58 101 61 102 59 103
REMARK H PARENT 1 25 1 26 83 56 51 67
REMARK Flexibility Score: inf
ROOT
ATOM      1  O   UNL A   1      34.674  23.502  25.077  1.00  0.00    -0.377 OA
ENDROOT
BRANCH   1   2
ATOM      2  C   UNL A   1      35.100  24.805  25.440  1.00  0.00     0.188 C 
BRANCH   2   3
ATOM      3  C   UNL A   1      33.999  25.871  25.595  1.00  0.00     0.188 C 
BRANCH   3   4
ATOM      4  O   UNL A   1      34.489  27.093  26.124  1.00  0.00    -0.376 OA
BRANCH   4   5
ATOM      5  C   UNL A   1      33.619  27.918  26.875  1.00  0.00     0.202 C 
BRANCH   5   6
ATOM      6  C   UNL A   1      33.659  29.445  26.693  1.00  0.00     0.261 C 
BRANCH   6   7
ATOM      7  O   UNL A   1      33.058  29.964  25.502  1.00  0.00    -0.460 OA
BRANCH   7   8
ATOM      8  C   UNL A   1      31.761  30.338  25.553  1.00  0.00     0.338 C 
ATOM      9  O   UNL A   1      31.298  31.311  26.114  1.00  0.00    -0.246 OA
BRANCH   8  10
ATOM     10  C   UNL A   1      31.030  29.482  24.583  1.00  0.00     0.067 A 
ATOM     11  C   UNL A   1      30.613  27.227  23.740  1.00  0.00    -0.011 A 
ATOM     12  C   UNL A   1      31.377  28.122  24.507  1.00  0.00     0.025 A 
ATOM     13  C   UNL A   1      29.515  27.726  23.020  1.00  0.00     0.094 A 
ATOM     14  C   UNL A   1      29.186  29.091  23.082  1.00  0.00     0.270 A 
ATOM     15  C   UNL A   1      29.933  29.975  23.870  1.00  0.00     0.101 A 
BRANCH  11  16
ATOM     16  C   UNL A   1      30.966  25.805  23.672  1.00  0.00    -0.017 A 
ATOM     17  C   UNL A   1      31.038  23.553  24.643  1.00  0.00     0.058 A 
ATOM     18  C   UNL A   1      30.670  24.913  24.716  1.00  0.00     0.024 A 
ATOM     19  C   UNL A   1      31.684  23.076  23.497  1.00  0.00     0.053 A 
ATOM     20  C   UNL A   1      31.974  23.957  22.450  1.00  0.00     0.022 A 
ATOM     21  Cl  UNL A   1      32.123  21.422  23.261  1.00  0.00    -0.083 Cl
ATOM     22  C   UNL A   1      31.620  25.305  22.539  1.00  0.00     0.010 A 
BRANCH  17  23
ATOM     23  C   UNL A   1      30.688  22.709  25.813  1.00  0.00     0.250 C 
ATOM     24  N   UNL A   1      29.892  23.258  26.777  1.00  0.00    -0.366 N 
ATOM     25  H   UNL A   1      29.640  22.727  27.567  1.00  0.00     0.159 HD
ATOM     26  H   UNL A   1      29.570  24.183  26.682  1.00  0.00     0.159 HD
ATOM     27  O   UNL A   1      31.051  21.542  25.878  1.00  0.00    -0.269 OA
ENDBRANCH  17  23
ENDBRANCH  11  16
BRANCH  14  28
ATOM     28  N   UNL A   1      28.040  29.593  22.315  1.00  0.00     0.062 N 
ATOM     29  O   UNL A   1      26.915  29.479  22.820  1.00  0.00    -0.258 OA
ATOM     30  O   UNL A   1      28.270  30.115  21.215  1.00  0.00    -0.258 OA
ENDBRANCH  14  28
ENDBRANCH   8  10
ENDBRANCH   7   8
ENDBRANCH   6   7
ENDBRANCH   5   6
ENDBRANCH   4   5
ENDBRANCH   3   4
ENDBRANCH   2   3
ENDBRANCH   1   2
BRANCH   1  31
ATOM     31  C   UNL A   1      35.375  22.801  24.048  1.00  0.00     0.188 C 
BRANCH  31  32
ATOM     32  C   UNL A   1      36.898  22.515  24.113  1.00  0.00     0.188 C 
BRANCH  32  33
ATOM     33  O   UNL A   1      37.251  21.276  24.702  1.00  0.00    -0.376 OA
BRANCH  33  34
ATOM     34  C   UNL A   1      38.459  21.216  25.441  1.00  0.00     0.202 C 
BRANCH  34  35
ATOM     35  C   UNL A   1      39.222  19.888  25.381  1.00  0.00     0.261 C 
BRANCH  35  36
ATOM     36  O   UNL A   1      40.152  19.651  26.451  1.00  0.00    -0.460 OA
BRANCH  36  37
ATOM     37  C   UNL A   1      41.467  19.572  26.132  1.00  0.00     0.338 C 
ATOM     38  O   UNL A   1      42.027  18.698  25.517  1.00  0.00    -0.246 OA
BRANCH  37  39
ATOM     39  C   UNL A   1      42.076  20.867  26.519  1.00  0.00     0.060 A 
ATOM     40  C   UNL A   1      42.219  21.181  27.878  1.00  0.00     0.016 A 
ATOM     41  C   UNL A   1      42.545  21.740  25.538  1.00  0.00     0.016 A 
ATOM     42  C   UNL A   1      42.841  22.373  28.257  1.00  0.00     0.010 A 
ATOM     43  C   UNL A   1      43.143  22.944  25.918  1.00  0.00     0.010 A 
ATOM     44  C   UNL A   1      43.284  23.272  27.279  1.00  0.00    -0.014 A 
BRANCH  44  45
ATOM     45  C   UNL A   1      43.775  24.620  27.653  1.00  0.00     0.031 A 
ATOM     46  C   UNL A   1      42.770  25.684  27.987  1.00  0.00     0.074 A 
ATOM     47  C   UNL A   1      45.088  24.904  27.660  1.00  0.00     0.049 A 
ATOM     48  N   UNL A   1      42.951  26.960  28.209  1.00  0.00    -0.248 NA
ATOM     49  C   UNL A   1      41.369  25.247  28.081  1.00  0.00     0.031 C 
ATOM     50  C   UNL A   1      46.162  23.948  27.398  1.00  0.00     0.029 A 
ATOM     51  N   UNL A   1      45.741  26.095  27.873  1.00  0.00    -0.354 N 
ATOM     52  C   UNL A   1      41.687  27.481  28.456  1.00  0.00     0.074 A 
ATOM     53  C   UNL A   1      40.746  26.388  28.337  1.00  0.00     0.031 C 
ATOM     54  C   UNL A   1      47.340  24.595  27.442  1.00  0.00     0.029 A 
ATOM     55  C   UNL A   1      47.100  26.017  27.686  1.00  0.00     0.049 A 
ATOM     56  H   UNL A   1      45.279  26.923  28.134  1.00  0.00     0.167 HD
ATOM     57  C   UNL A   1      41.346  28.756  28.757  1.00  0.00     0.037 A 
ATOM     58  C   UNL A   1      48.033  26.989  27.671  1.00  0.00     0.037 A 
ATOM     59  C   UNL A   1      42.286  29.840  28.865  1.00  0.00     0.049 A 
ATOM     60  C   UNL A   1      47.613  28.421  27.902  1.00  0.00     0.074 A 
ATOM     61  C   UNL A   1      42.042  31.162  29.192  1.00  0.00     0.029 A 
ATOM     62  N   UNL A   1      43.648  29.730  28.628  1.00  0.00    -0.354 N 
ATOM     63  N   UNL A   1      46.424  28.904  28.170  1.00  0.00    -0.248 NA
ATOM     64  C   UNL A   1      48.667  29.444  27.818  1.00  0.00     0.031 C 
ATOM     65  C   UNL A   1      43.247  31.867  29.089  1.00  0.00     0.029 A 
ATOM     66  C   UNL A   1      44.252  30.971  28.760  1.00  0.00     0.049 A 
ATOM     67  H   UNL A   1      44.117  28.895  28.402  1.00  0.00     0.167 HD
ATOM     68  C   UNL A   1      46.588  30.278  28.306  1.00  0.00     0.074 A 
ATOM     69  C   UNL A   1      47.997  30.550  28.112  1.00  0.00     0.031 C 
ATOM     70  C   UNL A   1      45.656  31.228  28.564  1.00  0.00     0.037 A 
BRANCH  57  71
ATOM     71  C   UNL A   1      39.889  29.057  28.954  1.00  0.00     0.064 A 
ATOM     72  C   UNL A   1      39.041  29.350  27.874  1.00  0.00     0.173 A 
ATOM     73  C   UNL A   1      39.326  29.017  30.239  1.00  0.00     0.173 A 
ATOM     74  F   UNL A   1      39.532  29.414  26.627  1.00  0.00    -0.203 F 
ATOM     75  C   UNL A   1      37.689  29.616  28.078  1.00  0.00     0.198 A 
ATOM     76  C   UNL A   1      37.968  29.253  30.434  1.00  0.00     0.198 A 
ATOM     77  F   UNL A   1      40.091  28.739  31.304  1.00  0.00    -0.203 F 
ATOM     78  F   UNL A   1      36.908  29.940  27.038  1.00  0.00    -0.200 F 
ATOM     79  C   UNL A   1      37.152  29.560  29.356  1.00  0.00     0.200 A 
ATOM     80  F   UNL A   1      37.449  29.183  31.668  1.00  0.00    -0.200 F 
ATOM     81  F   UNL A   1      35.850  29.806  29.549  1.00  0.00    -0.200 F 
ENDBRANCH  57  71
BRANCH  58  82
ATOM     82  C   UNL A   1      49.455  26.656  27.387  1.00  0.00     0.064 A 
ATOM     83  C   UNL A   1      49.914  26.508  26.071  1.00  0.00     0.173 A 
ATOM     84  C   UNL A   1      50.377  26.447  28.425  1.00  0.00     0.173 A 
ATOM     85  F   UNL A   1      49.066  26.664  25.044  1.00  0.00    -0.203 F 
ATOM     86  C   UNL A   1      51.234  26.149  25.805  1.00  0.00     0.198 A 
ATOM     87  C   UNL A   1      51.705  26.121  28.156  1.00  0.00     0.198 A 
ATOM     88  F   UNL A   1      49.988  26.566  29.703  1.00  0.00    -0.203 F 
ATOM     89  F   UNL A   1      51.633  25.963  24.539  1.00  0.00    -0.200 F 
ATOM     90  C   UNL A   1      52.131  25.963  26.847  1.00  0.00     0.200 A 
ATOM     91  F   UNL A   1      52.569  25.953  29.166  1.00  0.00    -0.200 F 
ATOM     92  F   UNL A   1      53.401  25.622  26.589  1.00  0.00    -0.200 F 
ENDBRANCH  58  82
BRANCH  70  93
ATOM     93  C   UNL A   1      46.124  32.652  28.671  1.00  0.00     0.064 A 
ATOM     94  C   UNL A   1      46.123  33.511  27.561  1.00  0.00     0.173 A 
ATOM     95  C   UNL A   1      46.516  33.183  29.909  1.00  0.00     0.173 A 
ATOM     96  F   UNL A   1      45.771  33.051  26.351  1.00  0.00    -0.203 F 
ATOM     97  C   UNL A   1      46.512  34.843  27.685  1.00  0.00     0.198 A 
ATOM     98  C   UNL A   1      46.874  34.523  30.036  1.00  0.00     0.198 A 
ATOM     99  F   UNL A   1      46.529  32.408  31.004  1.00  0.00    -0.203 F 
ATOM    100  F   UNL A   1      46.542  35.633  26.603  1.00  0.00    -0.200 F 
ATOM    101  C   UNL A   1      46.877  35.349  28.923  1.00  0.00     0.200 A 
ATOM    102  F   UNL A   1      47.208  35.015  31.237  1.00  0.00    -0.200 F 
ATOM    103  F   UNL A   1      47.235  36.635  29.043  1.00  0.00    -0.200 F 
ENDBRANCH  70  93
ENDBRANCH  44  45
ENDBRANCH  37  39
ENDBRANCH  36  37
ENDBRANCH  35  36
ENDBRANCH  34  35
ENDBRANCH  33  34
ENDBRANCH  32  33
ENDBRANCH  31  32
ENDBRANCH   1  31
TORSDOF 23
ENDMDL
MODEL 3
REMARK VINA RESULT:     -10.3      2.745      7.927
REMARK SMILES NC(=O)c1cc(-c2cc(C(=O)OCCOCCOCCOCCOC(=O)c3ccc(-c4c5nc(c(-c6c(F)c(F)c(F)c(F)c6F)c6ccc([nH]6)c(-c6c(F)c(F)c(F)c(F)c6F)c6nc(c(-c7c(F)c(F)c(F)c(F)c7F)c7ccc4[nH]7)C=C6)C=C5)cc3)cc([N+](=O)[O-])c2)ccc1Cl
REMARK SMILES IDX 18 1 17 2 16 3 15 4 14 5 13 6 12 7 10 8 11 9 9 10 7 11 8 12
REMARK SMILES IDX 95 13 91 14 90 15 6 16 4 17 5 18 98 19 97 20 99 21 96 22
REMARK SMILES IDX 2 23 1 24 3 27 92 28 93 29 94 30 19 31 20 32 21 33 22 34
REMARK SMILES IDX 23 35 24 36 25 37 26 38 27 39 28 40 89 41 29 42 88 43 30 44
REMARK SMILES IDX 31 45 32 46 82 47 33 48 87 49 81 50 83 51 34 52 86 53 80 54
REMARK SMILES IDX 79 55 35 57 67 58 47 59 66 60 48 61 51 62 65 63 84 64 49 65
REMARK SMILES IDX 50 66 64 68 85 69 52 70 36 71 37 72 45 73 38 74 39 75 43 76
REMARK SMILES IDX 46 77 40 78 41 79 44 80 42 81 68 82 69 83 77 84 70 85 71 86
REMARK SMILES IDX 75 87 78 88 72 89 73 90 76 91 74 92 53 93 54 94 62 95 55 96
REMARK SMILES IDX 56 97 60 98 63 99 57 100 58 101 61 102 59 103
REMARK H PARENT 1 25 1 26 83 56 51 67
REMARK Flexibility Score: inf
ROOT
ATOM      1  O   UNL A   1      36.688  32.085  28.666  1.00  0.00    -0.377 OA
ENDROOT
BRANCH   1   2
ATOM      2  C   UNL A   1      36.851  30.728  29.046  1.00  0.00     0.188 C 
BRANCH   2   3
ATOM      3  C   UNL A   1      37.149  29.727  27.914  1.00  0.00     0.188 C 
BRANCH   3   4
ATOM      4  O   UNL A   1      36.082  29.612  26.986  1.00  0.00    -0.376 OA
BRANCH   4   5
ATOM      5  C   UNL A   1      34.775  29.361  27.465  1.00  0.00     0.202 C 
BRANCH   5   6
ATOM      6  C   UNL A   1      33.648  30.371  27.191  1.00  0.00     0.261 C 
BRANCH   6   7
ATOM      7  O   UNL A   1      32.370  29.826  26.845  1.00  0.00    -0.460 OA
BRANCH   7   8
ATOM      8  C   UNL A   1      31.532  30.585  26.108  1.00  0.00     0.338 C 
ATOM      9  O   UNL A   1      31.362  31.786  26.190  1.00  0.00    -0.246 OA
BRANCH   8  10
ATOM     10  C   UNL A   1      31.037  29.726  25.001  1.00  0.00     0.067 A 
ATOM     11  C   UNL A   1      30.748  27.461  24.130  1.00  0.00    -0.011 A 
ATOM     12  C   UNL A   1      31.329  28.352  25.048  1.00  0.00     0.025 A 
ATOM     13  C   UNL A   1      29.897  27.978  23.140  1.00  0.00     0.094 A 
ATOM     14  C   UNL A   1      29.627  29.356  23.083  1.00  0.00     0.270 A 
ATOM     15  C   UNL A   1      30.185  30.236  24.017  1.00  0.00     0.101 A 
BRANCH  11  16
ATOM     16  C   UNL A   1      31.041  26.025  24.188  1.00  0.00    -0.017 A 
ATOM     17  C   UNL A   1      31.081  23.880  25.377  1.00  0.00     0.058 A 
ATOM     18  C   UNL A   1      30.771  25.256  25.332  1.00  0.00     0.024 A 
ATOM     19  C   UNL A   1      31.640  23.264  24.253  1.00  0.00     0.053 A 
ATOM     20  C   UNL A   1      31.904  24.022  23.108  1.00  0.00     0.022 A 
ATOM     21  Cl  UNL A   1      32.001  21.576  24.164  1.00  0.00    -0.083 Cl
ATOM     22  C   UNL A   1      31.609  25.387  23.079  1.00  0.00     0.010 A 
BRANCH  17  23
ATOM     23  C   UNL A   1      30.765  23.173  26.644  1.00  0.00     0.250 C 
ATOM     24  N   UNL A   1      29.765  22.244  26.622  1.00  0.00    -0.366 N 
ATOM     25  H   UNL A   1      29.529  21.757  27.443  1.00  0.00     0.159 HD
ATOM     26  H   UNL A   1      29.281  22.062  25.784  1.00  0.00     0.159 HD
ATOM     27  O   UNL A   1      31.423  23.374  27.657  1.00  0.00    -0.269 OA
ENDBRANCH  17  23
ENDBRANCH  11  16
BRANCH  14  28
ATOM     28  N   UNL A   1      28.742  29.875  22.034  1.00  0.00     0.062 N 
ATOM     29  O   UNL A   1      29.266  30.453  21.072  1.00  0.00    -0.258 OA
ATOM     30  O   UNL A   1      27.523  29.691  22.167  1.00  0.00    -0.258 OA
ENDBRANCH  14  28
ENDBRANCH   8  10
ENDBRANCH   7   8
ENDBRANCH   6   7
ENDBRANCH   5   6
ENDBRANCH   4   5
ENDBRANCH   3   4
ENDBRANCH   2   3
ENDBRANCH   1   2
BRANCH   1  31
ATOM     31  C   UNL A   1      35.651  32.859  29.271  1.00  0.00     0.188 C 
BRANCH  31  32
ATOM     32  C   UNL A   1      34.798  32.340  30.457  1.00  0.00     0.188 C 
BRANCH  32  33
ATOM     33  O   UNL A   1      34.128  33.343  31.199  1.00  0.00    -0.376 OA
BRANCH  33  34
ATOM     34  C   UNL A   1      34.800  34.574  31.404  1.00  0.00     0.202 C 
BRANCH  34  35
ATOM     35  C   UNL A   1      35.573  34.710  32.721  1.00  0.00     0.261 C 
BRANCH  35  36
ATOM     36  O   UNL A   1      36.907  34.176  32.722  1.00  0.00    -0.460 OA
BRANCH  36  37
ATOM     37  C   UNL A   1      37.087  32.939  33.248  1.00  0.00     0.338 C 
ATOM     38  O   UNL A   1      36.353  32.341  33.997  1.00  0.00    -0.246 OA
BRANCH  37  39
ATOM     39  C   UNL A   1      38.278  32.363  32.581  1.00  0.00     0.060 A 
ATOM     40  C   UNL A   1      38.649  32.830  31.312  1.00  0.00     0.016 A 
ATOM     41  C   UNL A   1      39.049  31.403  33.235  1.00  0.00     0.016 A 
ATOM     42  C   UNL A   1      39.801  32.336  30.696  1.00  0.00     0.010 A 
ATOM     43  C   UNL A   1      40.186  30.890  32.606  1.00  0.00     0.010 A 
ATOM     44  C   UNL A   1      40.562  31.345  31.329  1.00  0.00    -0.014 A 
BRANCH  44  45
ATOM     45  C   UNL A   1      41.678  30.675  30.619  1.00  0.00     0.031 A 
ATOM     46  C   UNL A   1      42.962  31.428  30.426  1.00  0.00     0.074 A 
ATOM     47  C   UNL A   1      41.540  29.434  30.123  1.00  0.00     0.049 A 
ATOM     48  N   UNL A   1      44.019  31.106  29.726  1.00  0.00    -0.248 NA
ATOM     49  C   UNL A   1      43.065  32.723  31.115  1.00  0.00     0.031 C 
ATOM     50  C   UNL A   1      40.362  28.585  30.284  1.00  0.00     0.029 A 
ATOM     51  N   UNL A   1      42.398  28.681  29.357  1.00  0.00    -0.354 N 
ATOM     52  C   UNL A   1      44.907  32.162  29.879  1.00  0.00     0.074 A 
ATOM     53  C   UNL A   1      44.259  33.144  30.721  1.00  0.00     0.031 C 
ATOM     54  C   UNL A   1      40.560  27.435  29.615  1.00  0.00     0.029 A 
ATOM     55  C   UNL A   1      41.857  27.488  28.941  1.00  0.00     0.049 A 
ATOM     56  H   UNL A   1      43.311  28.968  29.129  1.00  0.00     0.167 HD
ATOM     57  C   UNL A   1      46.152  32.297  29.365  1.00  0.00     0.037 A 
ATOM     58  C   UNL A   1      42.338  26.569  28.080  1.00  0.00     0.037 A 
ATOM     59  C   UNL A   1      46.788  31.320  28.521  1.00  0.00     0.049 A 
ATOM     60  C   UNL A   1      43.684  26.793  27.434  1.00  0.00     0.074 A 
ATOM     61  C   UNL A   1      48.058  31.353  27.972  1.00  0.00     0.029 A 
ATOM     62  N   UNL A   1      46.194  30.145  28.088  1.00  0.00    -0.354 N 
ATOM     63  N   UNL A   1      44.535  27.774  27.609  1.00  0.00    -0.248 NA
ATOM     64  C   UNL A   1      44.130  25.783  26.461  1.00  0.00     0.031 C 
ATOM     65  C   UNL A   1      48.208  30.228  27.153  1.00  0.00     0.029 A 
ATOM     66  C   UNL A   1      47.056  29.463  27.242  1.00  0.00     0.049 A 
ATOM     67  H   UNL A   1      45.294  29.839  28.344  1.00  0.00     0.167 HD
ATOM     68  C   UNL A   1      45.621  27.493  26.788  1.00  0.00     0.074 A 
ATOM     69  C   UNL A   1      45.331  26.236  26.131  1.00  0.00     0.031 C 
ATOM     70  C   UNL A   1      46.754  28.212  26.594  1.00  0.00     0.037 A 
BRANCH  57  71
ATOM     71  C   UNL A   1      46.896  33.565  29.670  1.00  0.00     0.064 A 
ATOM     72  C   UNL A   1      47.876  33.624  30.673  1.00  0.00     0.173 A 
ATOM     73  C   UNL A   1      46.651  34.726  28.922  1.00  0.00     0.173 A 
ATOM     74  F   UNL A   1      48.139  32.546  31.426  1.00  0.00    -0.203 F 
ATOM     75  C   UNL A   1      48.563  34.808  30.932  1.00  0.00     0.198 A 
ATOM     76  C   UNL A   1      47.363  35.898  29.163  1.00  0.00     0.198 A 
ATOM     77  F   UNL A   1      45.728  34.722  27.949  1.00  0.00    -0.203 F 
ATOM     78  F   UNL A   1      49.460  34.855  31.927  1.00  0.00    -0.200 F 
ATOM     79  C   UNL A   1      48.312  35.941  30.172  1.00  0.00     0.200 A 
ATOM     80  F   UNL A   1      47.129  36.987  28.417  1.00  0.00    -0.200 F 
ATOM     81  F   UNL A   1      48.981  37.075  30.416  1.00  0.00    -0.200 F 
ENDBRANCH  57  71
BRANCH  58  82
ATOM     82  C   UNL A   1      41.528  25.367  27.742  1.00  0.00     0.064 A 
ATOM     83  C   UNL A   1      40.436  25.454  26.868  1.00  0.00     0.173 A 
ATOM     84  C   UNL A   1      41.810  24.114  28.308  1.00  0.00     0.173 A 
ATOM     85  F   UNL A   1      40.105  26.635  26.325  1.00  0.00    -0.203 F 
ATOM     86  C   UNL A   1      39.648  24.340  26.586  1.00  0.00     0.198 A 
ATOM     87  C   UNL A   1      41.041  22.993  28.000  1.00  0.00     0.198 A 
ATOM     88  F   UNL A   1      42.837  23.976  29.159  1.00  0.00    -0.203 F 
ATOM     89  F   UNL A   1      38.578  24.463  25.787  1.00  0.00    -0.200 F 
ATOM     90  C   UNL A   1      39.955  23.109  27.146  1.00  0.00     0.200 A 
ATOM     91  F   UNL A   1      41.348  21.805  28.536  1.00  0.00    -0.200 F 
ATOM     92  F   UNL A   1      39.199  22.037  26.872  1.00  0.00    -0.200 F 
ENDBRANCH  58  82
BRANCH  70  93
ATOM     93  C   UNL A   1      47.779  27.656  25.646  1.00  0.00     0.064 A 
ATOM     94  C   UNL A   1      47.708  27.893  24.265  1.00  0.00     0.173 A 
ATOM     95  C   UNL A   1      48.880  26.932  26.130  1.00  0.00     0.173 A 
ATOM     96  F   UNL A   1      46.669  28.567  23.749  1.00  0.00    -0.203 F 
ATOM     97  C   UNL A   1      48.692  27.414  23.404  1.00  0.00     0.198 A 
ATOM     98  C   UNL A   1      49.879  26.482  25.270  1.00  0.00     0.198 A 
ATOM     99  F   UNL A   1      49.001  26.683  27.443  1.00  0.00    -0.203 F 
ATOM    100  F   UNL A   1      48.581  27.618  22.084  1.00  0.00    -0.200 F 
ATOM    101  C   UNL A   1      49.780  26.718  23.908  1.00  0.00     0.200 A 
ATOM    102  F   UNL A   1      50.938  25.826  25.762  1.00  0.00    -0.200 F 
ATOM    103  F   UNL A   1      50.734  26.271  23.080  1.00  0.00    -0.200 F 
ENDBRANCH  70  93
ENDBRANCH  44  45
ENDBRANCH  37  39
ENDBRANCH  36  37
ENDBRANCH  35  36
ENDBRANCH  34  35
ENDBRANCH  33  34
ENDBRANCH  32  33
ENDBRANCH  31  32
ENDBRANCH   1  31
TORSDOF 23
ENDMDL
