MODEL 1
REMARK VINA RESULT:     -10.4      0.000      0.000
REMARK SMILES Cc1c([C@H](C)NC(=O)c2cnn(CC(=O)OCCOCCOCCOCCOC(=O)c3ccc(-c4c5nc(c(-c6c(F)c(F)c(F)c(F)c6F)c6ccc([nH]6)c(-c6c(F)c(F)c(F)c(F)c6F)c6nc(c(-c7c(F)c(F)c(F)c(F)c7F)c7ccc4[nH]7)C=C6)C=C5)cc3)c2)cnn1C
REMARK SMILES IDX 21 1 20 2 19 3 18 4 17 5 16 6 14 7 15 8 13 9 12 10 9 11
REMARK SMILES IDX 10 12 94 13 11 14 7 15 6 16 8 18 4 19 5 20 3 21 1 22 2 23
REMARK SMILES IDX 97 24 95 25 96 26 98 27 22 28 23 29 24 30 25 31 26 32 27 33
REMARK SMILES IDX 28 34 29 35 30 36 31 37 32 38 93 39 33 40 92 41 34 42 35 43
REMARK SMILES IDX 36 44 86 45 37 46 91 47 85 48 87 49 38 50 90 51 84 52 83 53
REMARK SMILES IDX 39 55 71 56 51 57 70 58 52 59 55 60 69 61 88 62 53 63 54 64
REMARK SMILES IDX 68 66 89 67 56 68 40 69 41 70 49 71 42 72 43 73 47 74 50 75
REMARK SMILES IDX 44 76 45 77 48 78 46 79 72 80 73 81 81 82 74 83 75 84 79 85
REMARK SMILES IDX 82 86 76 87 77 88 80 89 78 90 57 91 58 92 66 93 59 94 60 95
REMARK SMILES IDX 64 96 67 97 61 98 62 99 65 100 63 101
REMARK H PARENT 6 17 87 54 55 65
REMARK Flexibility Score: inf
ROOT
ATOM      1  C   UNL A   1      32.900  35.656  28.701  1.00  0.00     0.188 C 
ENDROOT
BRANCH   1   2
ATOM      2  C   UNL A   1      34.338  35.195  28.391  1.00  0.00     0.188 C 
BRANCH   2   3
ATOM      3  O   UNL A   1      34.565  34.046  27.583  1.00  0.00    -0.376 OA
BRANCH   3   4
ATOM      4  C   UNL A   1      35.161  32.893  28.156  1.00  0.00     0.202 C 
BRANCH   4   5
ATOM      5  C   UNL A   1      34.615  31.511  27.760  1.00  0.00     0.261 C 
BRANCH   5   6
ATOM      6  O   UNL A   1      33.223  31.448  27.365  1.00  0.00    -0.462 OA
BRANCH   6   7
ATOM      7  C   UNL A   1      32.821  30.304  26.760  1.00  0.00     0.327 C 
ATOM      8  O   UNL A   1      32.334  30.274  25.629  1.00  0.00    -0.250 OA
BRANCH   7   9
ATOM      9  C   UNL A   1      32.966  29.025  27.542  1.00  0.00     0.266 C 
BRANCH   9  10
ATOM     10  N   UNL A   1      32.772  27.744  26.873  1.00  0.00    -0.261 N 
ATOM     11  C   UNL A   1      31.816  26.114  25.706  1.00  0.00     0.077 A 
ATOM     12  C   UNL A   1      33.195  26.237  25.445  1.00  0.00     0.149 A 
ATOM     13  C   UNL A   1      31.577  27.115  26.633  1.00  0.00     0.123 A 
ATOM     14  N   UNL A   1      33.764  27.257  26.090  1.00  0.00    -0.180 NA
BRANCH  11  15
ATOM     15  C   UNL A   1      30.821  25.294  25.039  1.00  0.00     0.254 C 
ATOM     16  N   UNL A   1      30.633  23.990  25.418  1.00  0.00    -0.345 N 
ATOM     17  H   UNL A   1      30.337  23.373  24.710  1.00  0.00     0.164 HD
ATOM     18  O   UNL A   1      30.161  25.730  24.097  1.00  0.00    -0.269 OA
BRANCH  16  19
ATOM     19  C   UNL A   1      30.815  23.409  26.733  1.00  0.00     0.113 C 
ATOM     20  C   UNL A   1      29.566  22.596  27.098  1.00  0.00     0.036 C 
BRANCH  19  21
ATOM     21  C   UNL A   1      32.081  22.601  26.713  1.00  0.00     0.015 A 
ATOM     22  C   UNL A   1      32.011  21.410  24.382  1.00  0.00     0.067 C 
ATOM     23  C   UNL A   1      32.590  21.817  25.683  1.00  0.00     0.040 A 
ATOM     24  N   UNL A   1      33.843  21.427  26.083  1.00  0.00    -0.273 N 
ATOM     25  C   UNL A   1      33.046  22.449  27.741  1.00  0.00     0.141 A 
ATOM     26  N   UNL A   1      34.120  21.768  27.349  1.00  0.00    -0.181 NA
ATOM     27  C   UNL A   1      34.828  20.725  25.291  1.00  0.00     0.174 C 
ENDBRANCH  19  21
ENDBRANCH  16  19
ENDBRANCH  11  15
ENDBRANCH   9  10
ENDBRANCH   7   9
ENDBRANCH   6   7
ENDBRANCH   5   6
ENDBRANCH   4   5
ENDBRANCH   3   4
ENDBRANCH   2   3
ENDBRANCH   1   2
BRANCH   1  28
ATOM     28  O   UNL A   1      32.560  35.765  30.071  1.00  0.00    -0.377 OA
BRANCH  28  29
ATOM     29  C   UNL A   1      33.244  36.775  30.789  1.00  0.00     0.188 C 
BRANCH  29  30
ATOM     30  C   UNL A   1      33.341  36.586  32.314  1.00  0.00     0.188 C 
BRANCH  30  31
ATOM     31  O   UNL A   1      34.310  35.617  32.714  1.00  0.00    -0.376 OA
BRANCH  31  32
ATOM     32  C   UNL A   1      33.915  34.264  32.894  1.00  0.00     0.202 C 
BRANCH  32  33
ATOM     33  C   UNL A   1      34.366  33.313  31.787  1.00  0.00     0.261 C 
BRANCH  33  34
ATOM     34  O   UNL A   1      35.778  33.236  31.646  1.00  0.00    -0.460 OA
BRANCH  34  35
ATOM     35  C   UNL A   1      36.384  32.140  32.118  1.00  0.00     0.338 C 
ATOM     36  O   UNL A   1      36.419  31.749  33.291  1.00  0.00    -0.246 OA
BRANCH  35  37
ATOM     37  C   UNL A   1      37.095  31.484  31.025  1.00  0.00     0.060 A 
ATOM     38  C   UNL A   1      36.771  30.150  30.771  1.00  0.00     0.016 A 
ATOM     39  C   UNL A   1      38.263  32.074  30.525  1.00  0.00     0.016 A 
ATOM     40  C   UNL A   1      37.773  29.322  30.328  1.00  0.00     0.010 A 
ATOM     41  C   UNL A   1      39.254  31.246  30.084  1.00  0.00     0.010 A 
ATOM     42  C   UNL A   1      39.036  29.879  30.137  1.00  0.00    -0.014 A 
BRANCH  42  43
ATOM     43  C   UNL A   1      40.189  29.015  30.163  1.00  0.00     0.031 A 
ATOM     44  C   UNL A   1      40.780  28.812  31.491  1.00  0.00     0.074 A 
ATOM     45  C   UNL A   1      40.593  28.355  29.061  1.00  0.00     0.049 A 
ATOM     46  N   UNL A   1      41.909  29.258  31.922  1.00  0.00    -0.248 NA
ATOM     47  C   UNL A   1      39.955  28.141  32.504  1.00  0.00     0.031 C 
ATOM     48  C   UNL A   1      39.898  28.180  27.782  1.00  0.00     0.029 A 
ATOM     49  N   UNL A   1      41.722  27.619  28.901  1.00  0.00    -0.354 N 
ATOM     50  C   UNL A   1      42.021  28.776  33.218  1.00  0.00     0.074 A 
ATOM     51  C   UNL A   1      40.727  28.261  33.582  1.00  0.00     0.031 C 
ATOM     52  C   UNL A   1      40.538  27.233  27.056  1.00  0.00     0.029 A 
ATOM     53  C   UNL A   1      41.741  26.830  27.764  1.00  0.00     0.049 A 
ATOM     54  H   UNL A   1      42.469  27.644  29.542  1.00  0.00     0.167 HD
ATOM     55  C   UNL A   1      43.235  28.621  33.809  1.00  0.00     0.037 A 
ATOM     56  C   UNL A   1      42.652  25.865  27.487  1.00  0.00     0.037 A 
ATOM     57  C   UNL A   1      44.260  29.361  33.121  1.00  0.00     0.049 A 
ATOM     58  C   UNL A   1      43.840  26.124  28.342  1.00  0.00     0.074 A 
ATOM     59  C   UNL A   1      44.457  30.701  32.841  1.00  0.00     0.029 A 
ATOM     60  N   UNL A   1      45.093  28.681  32.266  1.00  0.00    -0.354 N 
ATOM     61  N   UNL A   1      44.635  27.149  28.197  1.00  0.00    -0.248 NA
ATOM     62  C   UNL A   1      43.887  25.479  29.646  1.00  0.00     0.031 C 
ATOM     63  C   UNL A   1      45.025  30.731  31.533  1.00  0.00     0.029 A 
ATOM     64  C   UNL A   1      45.175  29.411  31.107  1.00  0.00     0.049 A 
ATOM     65  H   UNL A   1      45.548  27.828  32.453  1.00  0.00     0.167 HD
ATOM     66  C   UNL A   1      44.967  27.529  29.491  1.00  0.00     0.074 A 
ATOM     67  C   UNL A   1      44.556  26.409  30.334  1.00  0.00     0.031 C 
ATOM     68  C   UNL A   1      45.278  28.824  29.790  1.00  0.00     0.037 A 
BRANCH  55  69
ATOM     69  C   UNL A   1      43.531  27.545  34.812  1.00  0.00     0.064 A 
ATOM     70  C   UNL A   1      43.881  27.902  36.125  1.00  0.00     0.173 A 
ATOM     71  C   UNL A   1      43.731  26.187  34.471  1.00  0.00     0.173 A 
ATOM     72  F   UNL A   1      43.765  29.173  36.538  1.00  0.00    -0.203 F 
ATOM     73  C   UNL A   1      44.432  26.978  37.016  1.00  0.00     0.198 A 
ATOM     74  C   UNL A   1      44.219  25.255  35.382  1.00  0.00     0.198 A 
ATOM     75  F   UNL A   1      43.567  25.735  33.223  1.00  0.00    -0.203 F 
ATOM     76  F   UNL A   1      44.855  27.388  38.219  1.00  0.00    -0.200 F 
ATOM     77  C   UNL A   1      44.597  25.656  36.645  1.00  0.00     0.200 A 
ATOM     78  F   UNL A   1      44.390  23.983  34.995  1.00  0.00    -0.200 F 
ATOM     79  F   UNL A   1      45.166  24.780  37.482  1.00  0.00    -0.200 F 
ENDBRANCH  55  69
BRANCH  56  80
ATOM     80  C   UNL A   1      42.428  24.569  26.808  1.00  0.00     0.064 A 
ATOM     81  C   UNL A   1      43.167  24.197  25.676  1.00  0.00     0.173 A 
ATOM     82  C   UNL A   1      41.670  23.552  27.419  1.00  0.00     0.173 A 
ATOM     83  F   UNL A   1      43.953  25.093  25.063  1.00  0.00    -0.203 F 
ATOM     84  C   UNL A   1      43.157  22.883  25.194  1.00  0.00     0.198 A 
ATOM     85  C   UNL A   1      41.650  22.245  26.934  1.00  0.00     0.198 A 
ATOM     86  F   UNL A   1      41.005  23.788  28.554  1.00  0.00    -0.203 F 
ATOM     87  F   UNL A   1      43.917  22.551  24.141  1.00  0.00    -0.200 F 
ATOM     88  C   UNL A   1      42.404  21.906  25.828  1.00  0.00     0.200 A 
ATOM     89  F   UNL A   1      40.939  21.306  27.576  1.00  0.00    -0.200 F 
ATOM     90  F   UNL A   1      42.434  20.638  25.397  1.00  0.00    -0.200 F 
ENDBRANCH  56  80
BRANCH  68  91
ATOM     91  C   UNL A   1      45.489  29.772  28.639  1.00  0.00     0.064 A 
ATOM     92  C   UNL A   1      44.449  30.483  28.016  1.00  0.00     0.173 A 
ATOM     93  C   UNL A   1      46.799  30.080  28.251  1.00  0.00     0.173 A 
ATOM     94  F   UNL A   1      43.179  30.329  28.404  1.00  0.00    -0.203 F 
ATOM     95  C   UNL A   1      44.707  31.423  27.017  1.00  0.00     0.198 A 
ATOM     96  C   UNL A   1      47.057  31.045  27.280  1.00  0.00     0.198 A 
ATOM     97  F   UNL A   1      47.837  29.477  28.853  1.00  0.00    -0.203 F 
ATOM     98  F   UNL A   1      43.694  32.079  26.433  1.00  0.00    -0.200 F 
ATOM     99  C   UNL A   1      46.013  31.707  26.656  1.00  0.00     0.200 A 
ATOM    100  F   UNL A   1      48.323  31.356  26.970  1.00  0.00    -0.200 F 
ATOM    101  F   UNL A   1      46.265  32.641  25.728  1.00  0.00    -0.200 F 
ENDBRANCH  68  91
ENDBRANCH  42  43
ENDBRANCH  35  37
ENDBRANCH  34  35
ENDBRANCH  33  34
ENDBRANCH  32  33
ENDBRANCH  31  32
ENDBRANCH  30  31
ENDBRANCH  29  30
ENDBRANCH  28  29
ENDBRANCH   1  28
TORSDOF 24
ENDMDL
MODEL 2
REMARK VINA RESULT:     -10.2      2.667      4.363
REMARK SMILES Cc1c([C@H](C)NC(=O)c2cnn(CC(=O)OCCOCCOCCOCCOC(=O)c3ccc(-c4c5nc(c(-c6c(F)c(F)c(F)c(F)c6F)c6ccc([nH]6)c(-c6c(F)c(F)c(F)c(F)c6F)c6nc(c(-c7c(F)c(F)c(F)c(F)c7F)c7ccc4[nH]7)C=C6)C=C5)cc3)c2)cnn1C
REMARK SMILES IDX 21 1 20 2 19 3 18 4 17 5 16 6 14 7 15 8 13 9 12 10 9 11
REMARK SMILES IDX 10 12 94 13 11 14 7 15 6 16 8 18 4 19 5 20 3 21 1 22 2 23
REMARK SMILES IDX 97 24 95 25 96 26 98 27 22 28 23 29 24 30 25 31 26 32 27 33
REMARK SMILES IDX 28 34 29 35 30 36 31 37 32 38 93 39 33 40 92 41 34 42 35 43
REMARK SMILES IDX 36 44 86 45 37 46 91 47 85 48 87 49 38 50 90 51 84 52 83 53
REMARK SMILES IDX 39 55 71 56 51 57 70 58 52 59 55 60 69 61 88 62 53 63 54 64
REMARK SMILES IDX 68 66 89 67 56 68 40 69 41 70 49 71 42 72 43 73 47 74 50 75
REMARK SMILES IDX 44 76 45 77 48 78 46 79 72 80 73 81 81 82 74 83 75 84 79 85
REMARK SMILES IDX 82 86 76 87 77 88 80 89 78 90 57 91 58 92 66 93 59 94 60 95
REMARK SMILES IDX 64 96 67 97 61 98 62 99 65 100 63 101
REMARK H PARENT 6 17 87 54 55 65
REMARK Flexibility Score: inf
ROOT
ATOM      1  C   UNL A   1      33.406  29.559  25.971  1.00  0.00     0.188 C 
ENDROOT
BRANCH   1   2
ATOM      2  C   UNL A   1      31.907  29.344  26.258  1.00  0.00     0.188 C 
BRANCH   2   3
ATOM      3  O   UNL A   1      31.024  28.955  25.212  1.00  0.00    -0.376 OA
BRANCH   3   4
ATOM      4  C   UNL A   1      30.570  29.923  24.280  1.00  0.00     0.202 C 
BRANCH   4   5
ATOM      5  C   UNL A   1      29.683  29.459  23.113  1.00  0.00     0.261 C 
BRANCH   5   6
ATOM      6  O   UNL A   1      30.347  28.782  22.018  1.00  0.00    -0.462 OA
BRANCH   6   7
ATOM      7  C   UNL A   1      31.106  27.708  22.347  1.00  0.00     0.327 C 
ATOM      8  O   UNL A   1      32.336  27.737  22.383  1.00  0.00    -0.250 OA
BRANCH   7   9
ATOM      9  C   UNL A   1      30.382  26.424  22.655  1.00  0.00     0.266 C 
BRANCH   9  10
ATOM     10  N   UNL A   1      31.001  25.441  23.538  1.00  0.00    -0.261 N 
ATOM     11  C   UNL A   1      31.270  23.996  25.203  1.00  0.00     0.077 A 
ATOM     12  C   UNL A   1      31.906  23.585  24.015  1.00  0.00     0.149 A 
ATOM     13  C   UNL A   1      30.686  25.202  24.851  1.00  0.00     0.123 A 
ATOM     14  N   UNL A   1      31.694  24.413  22.991  1.00  0.00    -0.180 NA
BRANCH  11  15
ATOM     15  C   UNL A   1      31.076  23.268  26.444  1.00  0.00     0.254 C 
ATOM     16  N   UNL A   1      31.874  22.195  26.747  1.00  0.00    -0.345 N 
ATOM     17  H   UNL A   1      31.459  21.489  27.293  1.00  0.00     0.164 HD
ATOM     18  O   UNL A   1      30.173  23.564  27.224  1.00  0.00    -0.269 OA
BRANCH  16  19
ATOM     19  C   UNL A   1      33.253  21.972  26.362  1.00  0.00     0.113 C 
ATOM     20  C   UNL A   1      34.133  21.992  27.618  1.00  0.00     0.036 C 
BRANCH  19  21
ATOM     21  C   UNL A   1      33.319  20.683  25.594  1.00  0.00     0.015 A 
ATOM     22  C   UNL A   1      35.861  20.450  25.006  1.00  0.00     0.067 C 
ATOM     23  C   UNL A   1      34.441  20.035  25.089  1.00  0.00     0.040 A 
ATOM     24  N   UNL A   1      34.004  18.820  24.623  1.00  0.00    -0.273 N 
ATOM     25  C   UNL A   1      32.253  19.833  25.205  1.00  0.00     0.141 A 
ATOM     26  N   UNL A   1      32.669  18.699  24.649  1.00  0.00    -0.181 NA
ATOM     27  C   UNL A   1      34.820  17.729  24.144  1.00  0.00     0.174 C 
ENDBRANCH  19  21
ENDBRANCH  16  19
ENDBRANCH  11  15
ENDBRANCH   9  10
ENDBRANCH   7   9
ENDBRANCH   6   7
ENDBRANCH   5   6
ENDBRANCH   4   5
ENDBRANCH   3   4
ENDBRANCH   2   3
ENDBRANCH   1   2
BRANCH   1  28
ATOM     28  O   UNL A   1      34.211  29.907  27.083  1.00  0.00    -0.377 OA
BRANCH  28  29
ATOM     29  C   UNL A   1      33.976  31.194  27.624  1.00  0.00     0.188 C 
BRANCH  29  30
ATOM     30  C   UNL A   1      35.220  32.034  27.961  1.00  0.00     0.188 C 
BRANCH  30  31
ATOM     31  O   UNL A   1      35.090  33.417  27.627  1.00  0.00    -0.376 OA
BRANCH  31  32
ATOM     32  C   UNL A   1      35.285  34.401  28.633  1.00  0.00     0.202 C 
BRANCH  32  33
ATOM     33  C   UNL A   1      34.077  34.638  29.539  1.00  0.00     0.261 C 
BRANCH  33  34
ATOM     34  O   UNL A   1      34.089  33.845  30.718  1.00  0.00    -0.460 OA
BRANCH  34  35
ATOM     35  C   UNL A   1      34.052  34.487  31.892  1.00  0.00     0.338 C 
ATOM     36  O   UNL A   1      33.236  35.346  32.250  1.00  0.00    -0.246 OA
BRANCH  35  37
ATOM     37  C   UNL A   1      35.200  34.076  32.693  1.00  0.00     0.060 A 
ATOM     38  C   UNL A   1      36.350  34.864  32.600  1.00  0.00     0.016 A 
ATOM     39  C   UNL A   1      35.226  32.781  33.226  1.00  0.00     0.016 A 
ATOM     40  C   UNL A   1      37.566  34.233  32.705  1.00  0.00     0.010 A 
ATOM     41  C   UNL A   1      36.438  32.162  33.331  1.00  0.00     0.010 A 
ATOM     42  C   UNL A   1      37.565  32.857  32.925  1.00  0.00    -0.014 A 
BRANCH  42  43
ATOM     43  C   UNL A   1      38.730  32.094  32.558  1.00  0.00     0.031 A 
ATOM     44  C   UNL A   1      39.644  31.789  33.665  1.00  0.00     0.074 A 
ATOM     45  C   UNL A   1      38.881  31.601  31.314  1.00  0.00     0.049 A 
ATOM     46  N   UNL A   1      40.821  32.274  33.867  1.00  0.00    -0.248 NA
ATOM     47  C   UNL A   1      39.133  30.940  34.749  1.00  0.00     0.031 C 
ATOM     48  C   UNL A   1      37.898  31.518  30.228  1.00  0.00     0.029 A 
ATOM     49  N   UNL A   1      39.970  30.984  30.791  1.00  0.00    -0.354 N 
ATOM     50  C   UNL A   1      41.277  31.657  35.022  1.00  0.00     0.074 A 
ATOM     51  C   UNL A   1      40.143  30.998  35.616  1.00  0.00     0.031 C 
ATOM     52  C   UNL A   1      38.385  30.717  29.251  1.00  0.00     0.029 A 
ATOM     53  C   UNL A   1      39.745  30.336  29.588  1.00  0.00     0.049 A 
ATOM     54  H   UNL A   1      40.851  30.997  31.230  1.00  0.00     0.167 HD
ATOM     55  C   UNL A   1      42.606  31.536  35.278  1.00  0.00     0.037 A 
ATOM     56  C   UNL A   1      40.607  29.487  28.976  1.00  0.00     0.037 A 
ATOM     57  C   UNL A   1      43.388  32.432  34.466  1.00  0.00     0.049 A 
ATOM     58  C   UNL A   1      41.956  29.743  29.545  1.00  0.00     0.074 A 
ATOM     59  C   UNL A   1      43.439  33.807  34.327  1.00  0.00     0.029 A 
ATOM     60  N   UNL A   1      44.015  31.926  33.354  1.00  0.00    -0.354 N 
ATOM     61  N   UNL A   1      42.636  30.840  29.350  1.00  0.00    -0.248 NA
ATOM     62  C   UNL A   1      42.360  28.959  30.703  1.00  0.00     0.031 C 
ATOM     63  C   UNL A   1      43.660  34.034  32.936  1.00  0.00     0.029 A 
ATOM     64  C   UNL A   1      43.767  32.789  32.316  1.00  0.00     0.049 A 
ATOM     65  H   UNL A   1      44.545  31.097  33.311  1.00  0.00     0.167 HD
ATOM     66  C   UNL A   1      43.260  31.094  30.564  1.00  0.00     0.074 A 
ATOM     67  C   UNL A   1      43.130  29.855  31.326  1.00  0.00     0.031 C 
ATOM     68  C   UNL A   1      43.568  32.368  30.947  1.00  0.00     0.037 A 
BRANCH  55  69
ATOM     69  C   UNL A   1      43.198  30.379  36.028  1.00  0.00     0.064 A 
ATOM     70  C   UNL A   1      44.004  30.626  37.153  1.00  0.00     0.173 A 
ATOM     71  C   UNL A   1      43.214  29.052  35.542  1.00  0.00     0.173 A 
ATOM     72  F   UNL A   1      44.089  31.861  37.671  1.00  0.00    -0.203 F 
ATOM     73  C   UNL A   1      44.799  29.628  37.719  1.00  0.00     0.198 A 
ATOM     74  C   UNL A   1      43.958  28.045  36.148  1.00  0.00     0.198 A 
ATOM     75  F   UNL A   1      42.601  28.703  34.404  1.00  0.00    -0.203 F 
ATOM     76  F   UNL A   1      45.637  29.935  38.719  1.00  0.00    -0.200 F 
ATOM     77  C   UNL A   1      44.774  28.339  37.220  1.00  0.00     0.200 A 
ATOM     78  F   UNL A   1      43.932  26.806  35.635  1.00  0.00    -0.200 F 
ATOM     79  F   UNL A   1      45.569  27.393  37.733  1.00  0.00    -0.200 F 
ENDBRANCH  55  69
BRANCH  56  80
ATOM     80  C   UNL A   1      40.288  28.264  28.205  1.00  0.00     0.064 A 
ATOM     81  C   UNL A   1      40.856  28.021  26.947  1.00  0.00     0.173 A 
ATOM     82  C   UNL A   1      39.627  27.179  28.811  1.00  0.00     0.173 A 
ATOM     83  F   UNL A   1      41.544  28.987  26.323  1.00  0.00    -0.203 F 
ATOM     84  C   UNL A   1      40.776  26.763  26.338  1.00  0.00     0.198 A 
ATOM     85  C   UNL A   1      39.538  25.927  28.202  1.00  0.00     0.198 A 
ATOM     86  F   UNL A   1      39.133  27.287  30.048  1.00  0.00    -0.203 F 
ATOM     87  F   UNL A   1      41.376  26.552  25.158  1.00  0.00    -0.200 F 
ATOM     88  C   UNL A   1      40.124  25.715  26.970  1.00  0.00     0.200 A 
ATOM     89  F   UNL A   1      38.928  24.917  28.839  1.00  0.00    -0.200 F 
ATOM     90  F   UNL A   1      40.092  24.498  26.411  1.00  0.00    -0.200 F 
ENDBRANCH  56  80
BRANCH  68  91
ATOM     91  C   UNL A   1      43.437  33.456  29.915  1.00  0.00     0.064 A 
ATOM     92  C   UNL A   1      42.252  34.182  29.695  1.00  0.00     0.173 A 
ATOM     93  C   UNL A   1      44.582  33.876  29.228  1.00  0.00     0.173 A 
ATOM     94  F   UNL A   1      41.142  33.915  30.391  1.00  0.00    -0.203 F 
ATOM     95  C   UNL A   1      42.209  35.246  28.794  1.00  0.00     0.198 A 
ATOM     96  C   UNL A   1      44.546  34.963  28.357  1.00  0.00     0.198 A 
ATOM     97  F   UNL A   1      45.757  33.262  29.442  1.00  0.00    -0.203 F 
ATOM     98  F   UNL A   1      41.062  35.913  28.597  1.00  0.00    -0.200 F 
ATOM     99  C   UNL A   1      43.358  35.639  28.132  1.00  0.00     0.200 A 
ATOM    100  F   UNL A   1      45.671  35.374  27.758  1.00  0.00    -0.200 F 
ATOM    101  F   UNL A   1      43.328  36.689  27.299  1.00  0.00    -0.200 F 
ENDBRANCH  68  91
ENDBRANCH  42  43
ENDBRANCH  35  37
ENDBRANCH  34  35
ENDBRANCH  33  34
ENDBRANCH  32  33
ENDBRANCH  31  32
ENDBRANCH  30  31
ENDBRANCH  29  30
ENDBRANCH  28  29
ENDBRANCH   1  28
TORSDOF 24
ENDMDL
MODEL 3
REMARK VINA RESULT:      -9.9      1.543      2.503
REMARK SMILES Cc1c([C@H](C)NC(=O)c2cnn(CC(=O)OCCOCCOCCOCCOC(=O)c3ccc(-c4c5nc(c(-c6c(F)c(F)c(F)c(F)c6F)c6ccc([nH]6)c(-c6c(F)c(F)c(F)c(F)c6F)c6nc(c(-c7c(F)c(F)c(F)c(F)c7F)c7ccc4[nH]7)C=C6)C=C5)cc3)c2)cnn1C
REMARK SMILES IDX 21 1 20 2 19 3 18 4 17 5 16 6 14 7 15 8 13 9 12 10 9 11
REMARK SMILES IDX 10 12 94 13 11 14 7 15 6 16 8 18 4 19 5 20 3 21 1 22 2 23
REMARK SMILES IDX 97 24 95 25 96 26 98 27 22 28 23 29 24 30 25 31 26 32 27 33
REMARK SMILES IDX 28 34 29 35 30 36 31 37 32 38 93 39 33 40 92 41 34 42 35 43
REMARK SMILES IDX 36 44 86 45 37 46 91 47 85 48 87 49 38 50 90 51 84 52 83 53
REMARK SMILES IDX 39 55 71 56 51 57 70 58 52 59 55 60 69 61 88 62 53 63 54 64
REMARK SMILES IDX 68 66 89 67 56 68 40 69 41 70 49 71 42 72 43 73 47 74 50 75
REMARK SMILES IDX 44 76 45 77 48 78 46 79 72 80 73 81 81 82 74 83 75 84 79 85
REMARK SMILES IDX 82 86 76 87 77 88 80 89 78 90 57 91 58 92 66 93 59 94 60 95
REMARK SMILES IDX 64 96 67 97 61 98 62 99 65 100 63 101
REMARK H PARENT 6 17 87 54 55 65
REMARK Flexibility Score: inf
ROOT
ATOM      1  C   UNL A   1      35.605  31.322  27.660  1.00  0.00     0.188 C 
ENDROOT
BRANCH   1   2
ATOM      2  C   UNL A   1      35.349  29.805  27.574  1.00  0.00     0.188 C 
BRANCH   2   3
ATOM      3  O   UNL A   1      34.272  29.301  26.792  1.00  0.00    -0.376 OA
BRANCH   3   4
ATOM      4  C   UNL A   1      33.145  28.728  27.436  1.00  0.00     0.202 C 
BRANCH   4   5
ATOM      5  C   UNL A   1      31.754  28.959  26.822  1.00  0.00     0.261 C 
BRANCH   5   6
ATOM      6  O   UNL A   1      31.418  28.171  25.655  1.00  0.00    -0.462 OA
BRANCH   6   7
ATOM      7  C   UNL A   1      31.106  28.864  24.531  1.00  0.00     0.327 C 
ATOM      8  O   UNL A   1      30.657  30.010  24.548  1.00  0.00    -0.250 OA
BRANCH   7   9
ATOM      9  C   UNL A   1      31.309  28.163  23.214  1.00  0.00     0.266 C 
BRANCH   9  10
ATOM     10  N   UNL A   1      32.155  26.977  23.151  1.00  0.00    -0.261 N 
ATOM     11  C   UNL A   1      33.023  25.057  22.448  1.00  0.00     0.077 A 
ATOM     12  C   UNL A   1      33.990  25.931  22.982  1.00  0.00     0.149 A 
ATOM     13  C   UNL A   1      31.844  25.775  22.568  1.00  0.00     0.123 A 
ATOM     14  N   UNL A   1      33.489  27.113  23.344  1.00  0.00    -0.180 NA
BRANCH  11  15
ATOM     15  C   UNL A   1      33.204  23.798  21.747  1.00  0.00     0.254 C 
ATOM     16  N   UNL A   1      33.382  22.635  22.451  1.00  0.00    -0.345 N 
ATOM     17  H   UNL A   1      33.934  21.947  22.015  1.00  0.00     0.164 HD
ATOM     18  O   UNL A   1      33.247  23.750  20.519  1.00  0.00    -0.269 OA
BRANCH  16  19
ATOM     19  C   UNL A   1      32.857  22.295  23.759  1.00  0.00     0.113 C 
ATOM     20  C   UNL A   1      32.602  20.784  23.818  1.00  0.00     0.036 C 
BRANCH  19  21
ATOM     21  C   UNL A   1      33.829  22.789  24.793  1.00  0.00     0.015 A 
ATOM     22  C   UNL A   1      36.154  22.018  23.864  1.00  0.00     0.067 C 
ATOM     23  C   UNL A   1      35.217  22.712  24.779  1.00  0.00     0.040 A 
ATOM     24  N   UNL A   1      35.652  23.449  25.852  1.00  0.00    -0.273 N 
ATOM     25  C   UNL A   1      33.554  23.441  26.021  1.00  0.00     0.141 A 
ATOM     26  N   UNL A   1      34.652  23.865  26.641  1.00  0.00    -0.181 NA
ATOM     27  C   UNL A   1      37.018  23.794  26.172  1.00  0.00     0.174 C 
ENDBRANCH  19  21
ENDBRANCH  16  19
ENDBRANCH  11  15
ENDBRANCH   9  10
ENDBRANCH   7   9
ENDBRANCH   6   7
ENDBRANCH   5   6
ENDBRANCH   4   5
ENDBRANCH   3   4
ENDBRANCH   2   3
ENDBRANCH   1   2
BRANCH   1  28
ATOM     28  O   UNL A   1      34.784  32.044  28.561  1.00  0.00    -0.377 OA
BRANCH  28  29
ATOM     29  C   UNL A   1      34.071  33.129  27.997  1.00  0.00     0.188 C 
BRANCH  29  30
ATOM     30  C   UNL A   1      33.541  34.187  28.982  1.00  0.00     0.188 C 
BRANCH  30  31
ATOM     31  O   UNL A   1      34.514  34.633  29.928  1.00  0.00    -0.376 OA
BRANCH  31  32
ATOM     32  C   UNL A   1      34.192  34.641  31.312  1.00  0.00     0.202 C 
BRANCH  32  33
ATOM     33  C   UNL A   1      35.171  33.876  32.202  1.00  0.00     0.261 C 
BRANCH  33  34
ATOM     34  O   UNL A   1      36.140  33.135  31.473  1.00  0.00    -0.460 OA
BRANCH  34  35
ATOM     35  C   UNL A   1      36.557  31.979  32.002  1.00  0.00     0.338 C 
ATOM     36  O   UNL A   1      36.486  31.629  33.187  1.00  0.00    -0.246 OA
BRANCH  35  37
ATOM     37  C   UNL A   1      37.207  31.188  30.962  1.00  0.00     0.060 A 
ATOM     38  C   UNL A   1      36.832  29.847  30.862  1.00  0.00     0.016 A 
ATOM     39  C   UNL A   1      38.373  31.682  30.364  1.00  0.00     0.016 A 
ATOM     40  C   UNL A   1      37.791  28.942  30.476  1.00  0.00     0.010 A 
ATOM     41  C   UNL A   1      39.321  30.777  29.980  1.00  0.00     0.010 A 
ATOM     42  C   UNL A   1      39.063  29.432  30.186  1.00  0.00    -0.014 A 
BRANCH  42  43
ATOM     43  C   UNL A   1      40.188  28.536  30.265  1.00  0.00     0.031 A 
ATOM     44  C   UNL A   1      40.710  28.315  31.618  1.00  0.00     0.074 A 
ATOM     45  C   UNL A   1      40.626  27.865  29.182  1.00  0.00     0.049 A 
ATOM     46  N   UNL A   1      41.829  28.729  32.104  1.00  0.00    -0.248 NA
ATOM     47  C   UNL A   1      39.819  27.668  32.590  1.00  0.00     0.031 C 
ATOM     48  C   UNL A   1      39.987  27.711  27.871  1.00  0.00     0.029 A 
ATOM     49  N   UNL A   1      41.740  27.098  29.074  1.00  0.00    -0.354 N 
ATOM     50  C   UNL A   1      41.865  28.243  33.403  1.00  0.00     0.074 A 
ATOM     51  C   UNL A   1      40.541  27.765  33.704  1.00  0.00     0.031 C 
ATOM     52  C   UNL A   1      40.635  26.746  27.174  1.00  0.00     0.029 A 
ATOM     53  C   UNL A   1      41.790  26.310  27.938  1.00  0.00     0.049 A 
ATOM     54  H   UNL A   1      42.456  27.102  29.750  1.00  0.00     0.167 HD
ATOM     55  C   UNL A   1      43.045  28.054  34.051  1.00  0.00     0.037 A 
ATOM     56  C   UNL A   1      42.686  25.319  27.703  1.00  0.00     0.037 A 
ATOM     57  C   UNL A   1      44.122  28.765  33.414  1.00  0.00     0.049 A 
ATOM     58  C   UNL A   1      43.839  25.544  28.614  1.00  0.00     0.074 A 
ATOM     59  C   UNL A   1      44.370  30.099  33.146  1.00  0.00     0.029 A 
ATOM     60  N   UNL A   1      44.975  28.062  32.598  1.00  0.00    -0.354 N 
ATOM     61  N   UNL A   1      44.668  26.547  28.509  1.00  0.00    -0.248 NA
ATOM     62  C   UNL A   1      43.805  24.897  29.917  1.00  0.00     0.031 C 
ATOM     63  C   UNL A   1      45.000  30.114  31.866  1.00  0.00     0.029 A 
ATOM     64  C   UNL A   1      45.133  28.791  31.445  1.00  0.00     0.049 A 
ATOM     65  H   UNL A   1      45.396  27.197  32.805  1.00  0.00     0.167 HD
ATOM     66  C   UNL A   1      44.949  26.916  29.818  1.00  0.00     0.074 A 
ATOM     67  C   UNL A   1      44.467  25.808  30.638  1.00  0.00     0.031 C 
ATOM     68  C   UNL A   1      45.281  28.202  30.134  1.00  0.00     0.037 A 
BRANCH  55  69
ATOM     69  C   UNL A   1      43.262  26.969  35.064  1.00  0.00     0.064 A 
ATOM     70  C   UNL A   1      43.514  27.316  36.403  1.00  0.00     0.173 A 
ATOM     71  C   UNL A   1      43.484  25.614  34.729  1.00  0.00     0.173 A 
ATOM     72  F   UNL A   1      43.370  28.584  36.816  1.00  0.00    -0.203 F 
ATOM     73  C   UNL A   1      43.994  26.383  37.325  1.00  0.00     0.198 A 
ATOM     74  C   UNL A   1      43.900  24.673  35.666  1.00  0.00     0.198 A 
ATOM     75  F   UNL A   1      43.413  25.171  33.468  1.00  0.00    -0.203 F 
ATOM     76  F   UNL A   1      44.327  26.782  38.560  1.00  0.00    -0.200 F 
ATOM     77  C   UNL A   1      44.184  25.063  36.958  1.00  0.00     0.200 A 
ATOM     78  F   UNL A   1      44.097  23.403  35.283  1.00  0.00    -0.200 F 
ATOM     79  F   UNL A   1      44.686  24.179  37.828  1.00  0.00    -0.200 F 
ENDBRANCH  55  69
BRANCH  56  80
ATOM     80  C   UNL A   1      42.458  24.030  27.011  1.00  0.00     0.064 A 
ATOM     81  C   UNL A   1      43.376  23.526  26.079  1.00  0.00     0.173 A 
ATOM     82  C   UNL A   1      41.465  23.137  27.454  1.00  0.00     0.173 A 
ATOM     83  F   UNL A   1      44.382  24.297  25.643  1.00  0.00    -0.203 F 
ATOM     84  C   UNL A   1      43.310  22.203  25.627  1.00  0.00     0.198 A 
ATOM     85  C   UNL A   1      41.390  21.821  26.997  1.00  0.00     0.198 A 
ATOM     86  F   UNL A   1      40.601  23.497  28.408  1.00  0.00    -0.203 F 
ATOM     87  F   UNL A   1      44.235  21.740  24.776  1.00  0.00    -0.200 F 
ATOM     88  C   UNL A   1      42.321  21.350  26.093  1.00  0.00     0.200 A 
ATOM     89  F   UNL A   1      40.445  21.000  27.479  1.00  0.00    -0.200 F 
ATOM     90  F   UNL A   1      42.288  20.069  25.699  1.00  0.00    -0.200 F 
ENDBRANCH  56  80
BRANCH  68  91
ATOM     91  C   UNL A   1      45.574  29.144  28.996  1.00  0.00     0.064 A 
ATOM     92  C   UNL A   1      46.837  29.265  28.391  1.00  0.00     0.173 A 
ATOM     93  C   UNL A   1      44.511  29.838  28.405  1.00  0.00     0.173 A 
ATOM     94  F   UNL A   1      47.881  28.552  28.827  1.00  0.00    -0.203 F 
ATOM     95  C   UNL A   1      47.034  30.082  27.277  1.00  0.00     0.198 A 
ATOM     96  C   UNL A   1      44.702  30.623  27.270  1.00  0.00     0.198 A 
ATOM     97  F   UNL A   1      43.269  29.714  28.901  1.00  0.00    -0.203 F 
ATOM     98  F   UNL A   1      48.253  30.186  26.728  1.00  0.00    -0.200 F 
ATOM     99  C   UNL A   1      45.964  30.754  26.714  1.00  0.00     0.200 A 
ATOM    100  F   UNL A   1      43.654  31.231  26.696  1.00  0.00    -0.200 F 
ATOM    101  F   UNL A   1      46.143  31.504  25.617  1.00  0.00    -0.200 F 
ENDBRANCH  68  91
ENDBRANCH  42  43
ENDBRANCH  35  37
ENDBRANCH  34  35
ENDBRANCH  33  34
ENDBRANCH  32  33
ENDBRANCH  31  32
ENDBRANCH  30  31
ENDBRANCH  29  30
ENDBRANCH  28  29
ENDBRANCH   1  28
TORSDOF 24
ENDMDL
