MODEL 1
REMARK VINA RESULT:     -10.5      0.000      0.000
REMARK SMILES O=C(OCCOCCOCCOCCOC(=O)C(Cl)(c1ccccc1)c1ccccc1)c1ccc(-c2c3nc(c(-c4c(F)c(F)c(F)c(F)c4F)c4ccc([nH]4)c(-c4c(F)c(F)c(F)c(F)c4F)c4nc(c(-c5c(F)c(F)c(F)c(F)c5F)c5ccc2[nH]5)C=C4)C=C3)cc1
REMARK SMILES IDX 8 1 7 2 6 3 5 4 4 5 3 6 2 7 1 8 32 9 33 10 94 11 34 12 93 13
REMARK SMILES IDX 35 14 36 15 37 16 87 17 38 18 92 19 86 20 88 21 39 22 91 23
REMARK SMILES IDX 85 24 84 25 40 27 72 28 52 29 71 30 53 31 56 32 70 33 89 34
REMARK SMILES IDX 54 35 55 36 69 38 90 39 57 40 41 41 42 42 50 43 43 44 44 45
REMARK SMILES IDX 48 46 51 47 45 48 46 49 49 50 47 51 73 52 74 53 82 54 75 55
REMARK SMILES IDX 76 56 80 57 83 58 77 59 78 60 81 61 79 62 58 63 59 64 67 65
REMARK SMILES IDX 60 66 61 67 65 68 68 69 62 70 63 71 66 72 64 73 9 74 10 75
REMARK SMILES IDX 11 76 12 77 13 78 14 79 15 80 16 81 17 82 18 83 19 84 20 85
REMARK SMILES IDX 21 86 25 87 22 88 24 89 23 90 26 91 27 92 31 93 28 94 30 95
REMARK SMILES IDX 29 96
REMARK H PARENT 88 26 56 37
REMARK Flexibility Score: inf
ROOT
ATOM      1  C   UNL A   1      31.889  28.779  25.711  1.00  0.00     0.188 C 
ENDROOT
BRANCH   1   2
ATOM      2  C   UNL A   1      32.118  29.316  27.115  1.00  0.00     0.188 C 
BRANCH   2   3
ATOM      3  O   UNL A   1      32.485  30.689  27.007  1.00  0.00    -0.376 OA
BRANCH   3   4
ATOM      4  C   UNL A   1      31.473  31.550  26.503  1.00  0.00     0.202 C 
BRANCH   4   5
ATOM      5  C   UNL A   1      31.870  33.023  26.544  1.00  0.00     0.261 C 
BRANCH   5   6
ATOM      6  O   UNL A   1      31.982  33.528  27.884  1.00  0.00    -0.460 OA
BRANCH   6   7
ATOM      7  C   UNL A   1      32.950  34.329  28.394  1.00  0.00     0.338 C 
ATOM      8  O   UNL A   1      32.795  35.546  28.326  1.00  0.00    -0.246 OA
BRANCH   7   9
ATOM      9  C   UNL A   1      34.197  33.835  29.064  1.00  0.00     0.060 A 
ATOM     10  C   UNL A   1      35.488  34.312  28.832  1.00  0.00     0.016 A 
ATOM     11  C   UNL A   1      34.027  32.900  30.100  1.00  0.00     0.016 A 
ATOM     12  C   UNL A   1      36.576  33.888  29.583  1.00  0.00     0.010 A 
ATOM     13  C   UNL A   1      35.113  32.467  30.867  1.00  0.00     0.010 A 
ATOM     14  C   UNL A   1      36.394  32.963  30.604  1.00  0.00    -0.014 A 
BRANCH  14  15
ATOM     15  C   UNL A   1      37.589  32.427  31.276  1.00  0.00     0.031 A 
ATOM     16  C   UNL A   1      38.380  31.383  30.556  1.00  0.00     0.074 A 
ATOM     17  C   UNL A   1      38.004  32.951  32.443  1.00  0.00     0.049 A 
ATOM     18  N   UNL A   1      39.384  30.665  30.977  1.00  0.00    -0.248 NA
ATOM     19  C   UNL A   1      37.992  31.119  29.158  1.00  0.00     0.031 C 
ATOM     20  C   UNL A   1      37.372  34.077  33.135  1.00  0.00     0.029 A 
ATOM     21  N   UNL A   1      39.060  32.616  33.247  1.00  0.00    -0.354 N 
ATOM     22  C   UNL A   1      39.715  29.833  29.917  1.00  0.00     0.074 A 
ATOM     23  C   UNL A   1      38.827  30.148  28.822  1.00  0.00     0.031 C 
ATOM     24  C   UNL A   1      38.052  34.335  34.264  1.00  0.00     0.029 A 
ATOM     25  C   UNL A   1      39.113  33.344  34.411  1.00  0.00     0.049 A 
ATOM     26  H   UNL A   1      39.718  31.922  33.014  1.00  0.00     0.167 HD
ATOM     27  C   UNL A   1      40.667  28.875  29.885  1.00  0.00     0.037 A 
ATOM     28  C   UNL A   1      39.899  33.175  35.493  1.00  0.00     0.037 A 
ATOM     29  C   UNL A   1      41.541  28.604  30.991  1.00  0.00     0.049 A 
ATOM     30  C   UNL A   1      40.885  32.035  35.469  1.00  0.00     0.074 A 
ATOM     31  C   UNL A   1      42.525  27.642  31.104  1.00  0.00     0.029 A 
ATOM     32  N   UNL A   1      41.525  29.313  32.185  1.00  0.00    -0.354 N 
ATOM     33  N   UNL A   1      41.161  31.201  34.494  1.00  0.00    -0.248 NA
ATOM     34  C   UNL A   1      41.643  31.787  36.701  1.00  0.00     0.031 C 
ATOM     35  C   UNL A   1      43.074  27.740  32.387  1.00  0.00     0.029 A 
ATOM     36  C   UNL A   1      42.460  28.788  33.057  1.00  0.00     0.049 A 
ATOM     37  H   UNL A   1      40.936  30.076  32.382  1.00  0.00     0.167 HD
ATOM     38  C   UNL A   1      42.117  30.330  34.992  1.00  0.00     0.074 A 
ATOM     39  C   UNL A   1      42.402  30.759  36.346  1.00  0.00     0.031 C 
ATOM     40  C   UNL A   1      42.702  29.260  34.396  1.00  0.00     0.037 A 
BRANCH  27  41
ATOM     41  C   UNL A   1      40.734  28.012  28.663  1.00  0.00     0.064 A 
ATOM     42  C   UNL A   1      41.510  28.355  27.548  1.00  0.00     0.173 A 
ATOM     43  C   UNL A   1      39.989  26.825  28.608  1.00  0.00     0.173 A 
ATOM     44  F   UNL A   1      42.214  29.497  27.538  1.00  0.00    -0.203 F 
ATOM     45  C   UNL A   1      41.524  27.547  26.413  1.00  0.00     0.198 A 
ATOM     46  C   UNL A   1      40.021  26.010  27.481  1.00  0.00     0.198 A 
ATOM     47  F   UNL A   1      39.220  26.462  29.645  1.00  0.00    -0.203 F 
ATOM     48  F   UNL A   1      42.236  27.915  25.338  1.00  0.00    -0.200 F 
ATOM     49  C   UNL A   1      40.784  26.373  26.382  1.00  0.00     0.200 A 
ATOM     50  F   UNL A   1      39.304  24.877  27.455  1.00  0.00    -0.200 F 
ATOM     51  F   UNL A   1      40.796  25.599  25.288  1.00  0.00    -0.200 F 
ENDBRANCH  27  41
BRANCH  28  52
ATOM     52  C   UNL A   1      39.715  34.019  36.707  1.00  0.00     0.064 A 
ATOM     53  C   UNL A   1      40.384  35.241  36.859  1.00  0.00     0.173 A 
ATOM     54  C   UNL A   1      38.894  33.598  37.767  1.00  0.00     0.173 A 
ATOM     55  F   UNL A   1      41.204  35.681  35.893  1.00  0.00    -0.203 F 
ATOM     56  C   UNL A   1      40.255  35.996  38.025  1.00  0.00     0.198 A 
ATOM     57  C   UNL A   1      38.739  34.368  38.917  1.00  0.00     0.198 A 
ATOM     58  F   UNL A   1      38.237  32.431  37.686  1.00  0.00    -0.203 F 
ATOM     59  F   UNL A   1      40.951  37.133  38.166  1.00  0.00    -0.200 F 
ATOM     60  C   UNL A   1      39.428  35.562  39.051  1.00  0.00     0.200 A 
ATOM     61  F   UNL A   1      37.929  33.948  39.899  1.00  0.00    -0.200 F 
ATOM     62  F   UNL A   1      39.308  36.287  40.172  1.00  0.00    -0.200 F 
ENDBRANCH  28  52
BRANCH  40  63
ATOM     63  C   UNL A   1      43.694  28.493  35.214  1.00  0.00     0.064 A 
ATOM     64  C   UNL A   1      45.052  28.840  35.218  1.00  0.00     0.173 A 
ATOM     65  C   UNL A   1      43.269  27.452  36.051  1.00  0.00     0.173 A 
ATOM     66  F   UNL A   1      45.501  29.820  34.419  1.00  0.00    -0.203 F 
ATOM     67  C   UNL A   1      45.955  28.162  36.029  1.00  0.00     0.198 A 
ATOM     68  C   UNL A   1      44.171  26.794  36.880  1.00  0.00     0.198 A 
ATOM     69  F   UNL A   1      41.977  27.093  36.082  1.00  0.00    -0.203 F 
ATOM     70  F   UNL A   1      47.255  28.486  35.998  1.00  0.00    -0.200 F 
ATOM     71  C   UNL A   1      45.513  27.148  36.866  1.00  0.00     0.200 A 
ATOM     72  F   UNL A   1      43.741  25.825  37.699  1.00  0.00    -0.200 F 
ATOM     73  F   UNL A   1      46.382  26.506  37.659  1.00  0.00    -0.200 F 
ENDBRANCH  40  63
ENDBRANCH  14  15
ENDBRANCH   7   9
ENDBRANCH   6   7
ENDBRANCH   5   6
ENDBRANCH   4   5
ENDBRANCH   3   4
ENDBRANCH   2   3
ENDBRANCH   1   2
BRANCH   1  74
ATOM     74  O   UNL A   1      32.420  27.472  25.518  1.00  0.00    -0.377 OA
BRANCH  74  75
ATOM     75  C   UNL A   1      33.591  27.329  24.725  1.00  0.00     0.188 C 
BRANCH  75  76
ATOM     76  C   UNL A   1      33.600  27.892  23.298  1.00  0.00     0.188 C 
BRANCH  76  77
ATOM     77  O   UNL A   1      33.355  26.955  22.256  1.00  0.00    -0.376 OA
BRANCH  77  78
ATOM     78  C   UNL A   1      33.583  25.593  22.618  1.00  0.00     0.202 C 
BRANCH  78  79
ATOM     79  C   UNL A   1      32.889  24.575  21.703  1.00  0.00     0.261 C 
BRANCH  79  80
ATOM     80  O   UNL A   1      32.910  23.213  22.165  1.00  0.00    -0.461 OA
BRANCH  80  81
ATOM     81  C   UNL A   1      32.190  22.883  23.268  1.00  0.00     0.336 C 
ATOM     82  O   UNL A   1      31.020  23.243  23.396  1.00  0.00    -0.249 OA
BRANCH  81  83
ATOM     83  C   UNL A   1      32.994  22.019  24.336  1.00  0.00     0.191 C 
ATOM     84  Cl  UNL A   1      32.007  22.053  25.913  1.00  0.00    -0.096 Cl
BRANCH  83  85
ATOM     85  C   UNL A   1      33.057  20.520  23.965  1.00  0.00    -0.011 A 
ATOM     86  C   UNL A   1      33.845  19.630  24.731  1.00  0.00     0.006 A 
ATOM     87  C   UNL A   1      32.311  19.975  22.908  1.00  0.00     0.006 A 
ATOM     88  C   UNL A   1      33.790  18.252  24.531  1.00  0.00     0.000 A 
ATOM     89  C   UNL A   1      32.277  18.595  22.691  1.00  0.00     0.000 A 
ATOM     90  C   UNL A   1      32.994  17.735  23.518  1.00  0.00     0.000 A 
ENDBRANCH  83  85
BRANCH  83  91
ATOM     91  C   UNL A   1      34.414  22.621  24.551  1.00  0.00    -0.011 A 
ATOM     92  C   UNL A   1      34.619  23.593  25.556  1.00  0.00     0.006 A 
ATOM     93  C   UNL A   1      35.546  22.252  23.795  1.00  0.00     0.006 A 
ATOM     94  C   UNL A   1      35.886  24.115  25.834  1.00  0.00     0.000 A 
ATOM     95  C   UNL A   1      36.817  22.779  24.070  1.00  0.00     0.000 A 
ATOM     96  C   UNL A   1      36.988  23.702  25.095  1.00  0.00     0.000 A 
ENDBRANCH  83  91
ENDBRANCH  81  83
ENDBRANCH  80  81
ENDBRANCH  79  80
ENDBRANCH  78  79
ENDBRANCH  77  78
ENDBRANCH  76  77
ENDBRANCH  75  76
ENDBRANCH  74  75
ENDBRANCH   1  74
TORSDOF 22
ENDMDL
MODEL 2
REMARK VINA RESULT:     -10.4      1.376      7.474
REMARK SMILES O=C(OCCOCCOCCOCCOC(=O)C(Cl)(c1ccccc1)c1ccccc1)c1ccc(-c2c3nc(c(-c4c(F)c(F)c(F)c(F)c4F)c4ccc([nH]4)c(-c4c(F)c(F)c(F)c(F)c4F)c4nc(c(-c5c(F)c(F)c(F)c(F)c5F)c5ccc2[nH]5)C=C4)C=C3)cc1
REMARK SMILES IDX 8 1 7 2 6 3 5 4 4 5 3 6 2 7 1 8 32 9 33 10 94 11 34 12 93 13
REMARK SMILES IDX 35 14 36 15 37 16 87 17 38 18 92 19 86 20 88 21 39 22 91 23
REMARK SMILES IDX 85 24 84 25 40 27 72 28 52 29 71 30 53 31 56 32 70 33 89 34
REMARK SMILES IDX 54 35 55 36 69 38 90 39 57 40 41 41 42 42 50 43 43 44 44 45
REMARK SMILES IDX 48 46 51 47 45 48 46 49 49 50 47 51 73 52 74 53 82 54 75 55
REMARK SMILES IDX 76 56 80 57 83 58 77 59 78 60 81 61 79 62 58 63 59 64 67 65
REMARK SMILES IDX 60 66 61 67 65 68 68 69 62 70 63 71 66 72 64 73 9 74 10 75
REMARK SMILES IDX 11 76 12 77 13 78 14 79 15 80 16 81 17 82 18 83 19 84 20 85
REMARK SMILES IDX 21 86 25 87 22 88 24 89 23 90 26 91 27 92 31 93 28 94 30 95
REMARK SMILES IDX 29 96
REMARK H PARENT 88 26 56 37
REMARK Flexibility Score: inf
ROOT
ATOM      1  C   UNL A   1      31.777  28.864  25.566  1.00  0.00     0.188 C 
ENDROOT
BRANCH   1   2
ATOM      2  C   UNL A   1      31.995  29.447  26.953  1.00  0.00     0.188 C 
BRANCH   2   3
ATOM      3  O   UNL A   1      32.398  30.806  26.801  1.00  0.00    -0.376 OA
BRANCH   3   4
ATOM      4  C   UNL A   1      31.341  31.735  26.611  1.00  0.00     0.202 C 
BRANCH   4   5
ATOM      5  C   UNL A   1      31.816  33.185  26.615  1.00  0.00     0.261 C 
BRANCH   5   6
ATOM      6  O   UNL A   1      32.595  33.509  27.777  1.00  0.00    -0.460 OA
BRANCH   6   7
ATOM      7  C   UNL A   1      33.906  33.852  27.833  1.00  0.00     0.338 C 
ATOM      8  O   UNL A   1      34.257  34.899  27.294  1.00  0.00    -0.246 OA
BRANCH   7   9
ATOM      9  C   UNL A   1      34.965  33.053  28.530  1.00  0.00     0.060 A 
ATOM     10  C   UNL A   1      34.784  31.798  29.113  1.00  0.00     0.016 A 
ATOM     11  C   UNL A   1      36.274  33.562  28.478  1.00  0.00     0.016 A 
ATOM     12  C   UNL A   1      35.845  31.066  29.631  1.00  0.00     0.010 A 
ATOM     13  C   UNL A   1      37.352  32.835  28.994  1.00  0.00     0.010 A 
ATOM     14  C   UNL A   1      37.133  31.582  29.575  1.00  0.00    -0.014 A 
BRANCH  14  15
ATOM     15  C   UNL A   1      38.206  30.847  30.266  1.00  0.00     0.031 A 
ATOM     16  C   UNL A   1      38.406  31.120  31.722  1.00  0.00     0.074 A 
ATOM     17  C   UNL A   1      38.894  29.887  29.624  1.00  0.00     0.049 A 
ATOM     18  N   UNL A   1      39.351  30.710  32.521  1.00  0.00    -0.248 NA
ATOM     19  C   UNL A   1      37.388  31.966  32.373  1.00  0.00     0.031 C 
ATOM     20  C   UNL A   1      38.655  29.455  28.245  1.00  0.00     0.029 A 
ATOM     21  N   UNL A   1      39.926  29.092  30.048  1.00  0.00    -0.354 N 
ATOM     22  C   UNL A   1      39.070  31.285  33.753  1.00  0.00     0.074 A 
ATOM     23  C   UNL A   1      37.854  32.051  33.609  1.00  0.00     0.031 C 
ATOM     24  C   UNL A   1      39.521  28.477  27.935  1.00  0.00     0.029 A 
ATOM     25  C   UNL A   1      40.422  28.271  29.065  1.00  0.00     0.049 A 
ATOM     26  H   UNL A   1      40.277  29.108  30.967  1.00  0.00     0.167 HD
ATOM     27  C   UNL A   1      39.791  31.190  34.892  1.00  0.00     0.037 A 
ATOM     28  C   UNL A   1      41.522  27.493  29.073  1.00  0.00     0.037 A 
ATOM     29  C   UNL A   1      40.986  30.403  34.998  1.00  0.00     0.049 A 
ATOM     30  C   UNL A   1      42.362  27.484  30.325  1.00  0.00     0.074 A 
ATOM     31  C   UNL A   1      41.829  30.246  36.080  1.00  0.00     0.029 A 
ATOM     32  N   UNL A   1      41.504  29.636  33.962  1.00  0.00    -0.354 N 
ATOM     33  N   UNL A   1      42.139  28.076  31.475  1.00  0.00    -0.248 NA
ATOM     34  C   UNL A   1      43.622  26.730  30.273  1.00  0.00     0.031 C 
ATOM     35  C   UNL A   1      42.885  29.418  35.684  1.00  0.00     0.029 A 
ATOM     36  C   UNL A   1      42.677  29.028  34.369  1.00  0.00     0.049 A 
ATOM     37  H   UNL A   1      41.097  29.539  33.072  1.00  0.00     0.167 HD
ATOM     38  C   UNL A   1      43.226  27.773  32.280  1.00  0.00     0.074 A 
ATOM     39  C   UNL A   1      44.093  26.914  31.500  1.00  0.00     0.031 C 
ATOM     40  C   UNL A   1      43.499  28.177  33.546  1.00  0.00     0.037 A 
BRANCH  27  41
ATOM     41  C   UNL A   1      39.351  32.023  36.056  1.00  0.00     0.064 A 
ATOM     42  C   UNL A   1      38.365  31.592  36.954  1.00  0.00     0.173 A 
ATOM     43  C   UNL A   1      39.921  33.288  36.260  1.00  0.00     0.173 A 
ATOM     44  F   UNL A   1      37.766  30.404  36.782  1.00  0.00    -0.203 F 
ATOM     45  C   UNL A   1      37.954  32.406  38.007  1.00  0.00     0.198 A 
ATOM     46  C   UNL A   1      39.522  34.091  37.325  1.00  0.00     0.198 A 
ATOM     47  F   UNL A   1      40.857  33.752  35.419  1.00  0.00    -0.203 F 
ATOM     48  F   UNL A   1      36.978  31.996  38.828  1.00  0.00    -0.200 F 
ATOM     49  C   UNL A   1      38.536  33.652  38.195  1.00  0.00     0.200 A 
ATOM     50  F   UNL A   1      40.086  35.294  37.502  1.00  0.00    -0.200 F 
ATOM     51  F   UNL A   1      38.137  34.435  39.206  1.00  0.00    -0.200 F 
ENDBRANCH  27  41
BRANCH  28  52
ATOM     52  C   UNL A   1      41.945  26.759  27.847  1.00  0.00     0.064 A 
ATOM     53  C   UNL A   1      41.514  25.450  27.590  1.00  0.00     0.173 A 
ATOM     54  C   UNL A   1      42.829  27.339  26.922  1.00  0.00     0.173 A 
ATOM     55  F   UNL A   1      40.692  24.834  28.453  1.00  0.00    -0.203 F 
ATOM     56  C   UNL A   1      41.963  24.747  26.472  1.00  0.00     0.198 A 
ATOM     57  C   UNL A   1      43.251  26.649  25.787  1.00  0.00     0.198 A 
ATOM     58  F   UNL A   1      43.286  28.584  27.119  1.00  0.00    -0.203 F 
ATOM     59  F   UNL A   1      41.578  23.477  26.282  1.00  0.00    -0.200 F 
ATOM     60  C   UNL A   1      42.826  25.349  25.569  1.00  0.00     0.200 A 
ATOM     61  F   UNL A   1      44.075  27.241  24.913  1.00  0.00    -0.200 F 
ATOM     62  F   UNL A   1      43.259  24.671  24.496  1.00  0.00    -0.200 F 
ENDBRANCH  28  52
BRANCH  40  63
ATOM     63  C   UNL A   1      44.782  27.693  34.146  1.00  0.00     0.064 A 
ATOM     64  C   UNL A   1      44.849  26.466  34.820  1.00  0.00     0.173 A 
ATOM     65  C   UNL A   1      45.964  28.428  33.981  1.00  0.00     0.173 A 
ATOM     66  F   UNL A   1      43.738  25.740  35.013  1.00  0.00    -0.203 F 
ATOM     67  C   UNL A   1      46.060  25.996  35.318  1.00  0.00     0.198 A 
ATOM     68  C   UNL A   1      47.177  27.942  34.457  1.00  0.00     0.198 A 
ATOM     69  F   UNL A   1      45.945  29.604  33.336  1.00  0.00    -0.203 F 
ATOM     70  F   UNL A   1      46.100  24.836  35.988  1.00  0.00    -0.200 F 
ATOM     71  C   UNL A   1      47.222  26.728  35.128  1.00  0.00     0.200 A 
ATOM     72  F   UNL A   1      48.301  28.642  34.260  1.00  0.00    -0.200 F 
ATOM     73  F   UNL A   1      48.390  26.265  35.595  1.00  0.00    -0.200 F 
ENDBRANCH  40  63
ENDBRANCH  14  15
ENDBRANCH   7   9
ENDBRANCH   6   7
ENDBRANCH   5   6
ENDBRANCH   4   5
ENDBRANCH   3   4
ENDBRANCH   2   3
ENDBRANCH   1   2
BRANCH   1  74
ATOM     74  O   UNL A   1      32.278  27.538  25.432  1.00  0.00    -0.377 OA
BRANCH  74  75
ATOM     75  C   UNL A   1      33.474  27.339  24.689  1.00  0.00     0.188 C 
BRANCH  75  76
ATOM     76  C   UNL A   1      33.554  27.861  23.249  1.00  0.00     0.188 C 
BRANCH  76  77
ATOM     77  O   UNL A   1      33.335  26.900  22.224  1.00  0.00    -0.376 OA
BRANCH  77  78
ATOM     78  C   UNL A   1      33.550  25.547  22.624  1.00  0.00     0.202 C 
BRANCH  78  79
ATOM     79  C   UNL A   1      32.930  24.507  21.681  1.00  0.00     0.261 C 
BRANCH  79  80
ATOM     80  O   UNL A   1      32.957  23.149  22.153  1.00  0.00    -0.461 OA
BRANCH  80  81
ATOM     81  C   UNL A   1      32.239  22.824  23.259  1.00  0.00     0.336 C 
ATOM     82  O   UNL A   1      31.063  23.168  23.378  1.00  0.00    -0.249 OA
BRANCH  81  83
ATOM     83  C   UNL A   1      33.051  21.987  24.341  1.00  0.00     0.191 C 
ATOM     84  Cl  UNL A   1      32.058  22.026  25.913  1.00  0.00    -0.096 Cl
BRANCH  83  85
ATOM     85  C   UNL A   1      33.139  20.484  23.991  1.00  0.00    -0.011 A 
ATOM     86  C   UNL A   1      34.073  19.653  24.651  1.00  0.00     0.006 A 
ATOM     87  C   UNL A   1      32.280  19.877  23.060  1.00  0.00     0.006 A 
ATOM     88  C   UNL A   1      34.062  18.270  24.484  1.00  0.00     0.000 A 
ATOM     89  C   UNL A   1      32.288  18.494  22.874  1.00  0.00     0.000 A 
ATOM     90  C   UNL A   1      33.159  17.690  23.605  1.00  0.00     0.000 A 
ENDBRANCH  83  85
BRANCH  83  91
ATOM     91  C   UNL A   1      34.461  22.614  24.554  1.00  0.00    -0.011 A 
ATOM     92  C   UNL A   1      34.673  23.519  25.617  1.00  0.00     0.006 A 
ATOM     93  C   UNL A   1      35.577  22.331  23.739  1.00  0.00     0.006 A 
ATOM     94  C   UNL A   1      35.934  24.058  25.891  1.00  0.00     0.000 A 
ATOM     95  C   UNL A   1      36.842  22.875  24.010  1.00  0.00     0.000 A 
ATOM     96  C   UNL A   1      37.022  23.729  25.092  1.00  0.00     0.000 A 
ENDBRANCH  83  91
ENDBRANCH  81  83
ENDBRANCH  80  81
ENDBRANCH  79  80
ENDBRANCH  78  79
ENDBRANCH  77  78
ENDBRANCH  76  77
ENDBRANCH  75  76
ENDBRANCH  74  75
ENDBRANCH   1  74
TORSDOF 22
ENDMDL
MODEL 3
REMARK VINA RESULT:     -10.2      3.556      8.488
REMARK SMILES O=C(OCCOCCOCCOCCOC(=O)C(Cl)(c1ccccc1)c1ccccc1)c1ccc(-c2c3nc(c(-c4c(F)c(F)c(F)c(F)c4F)c4ccc([nH]4)c(-c4c(F)c(F)c(F)c(F)c4F)c4nc(c(-c5c(F)c(F)c(F)c(F)c5F)c5ccc2[nH]5)C=C4)C=C3)cc1
REMARK SMILES IDX 8 1 7 2 6 3 5 4 4 5 3 6 2 7 1 8 32 9 33 10 94 11 34 12 93 13
REMARK SMILES IDX 35 14 36 15 37 16 87 17 38 18 92 19 86 20 88 21 39 22 91 23
REMARK SMILES IDX 85 24 84 25 40 27 72 28 52 29 71 30 53 31 56 32 70 33 89 34
REMARK SMILES IDX 54 35 55 36 69 38 90 39 57 40 41 41 42 42 50 43 43 44 44 45
REMARK SMILES IDX 48 46 51 47 45 48 46 49 49 50 47 51 73 52 74 53 82 54 75 55
REMARK SMILES IDX 76 56 80 57 83 58 77 59 78 60 81 61 79 62 58 63 59 64 67 65
REMARK SMILES IDX 60 66 61 67 65 68 68 69 62 70 63 71 66 72 64 73 9 74 10 75
REMARK SMILES IDX 11 76 12 77 13 78 14 79 15 80 16 81 17 82 18 83 19 84 20 85
REMARK SMILES IDX 21 86 25 87 22 88 24 89 23 90 26 91 27 92 31 93 28 94 30 95
REMARK SMILES IDX 29 96
REMARK H PARENT 88 26 56 37
REMARK Flexibility Score: inf
ROOT
ATOM      1  C   UNL A   1      30.507  29.378  23.772  1.00  0.00     0.188 C 
ENDROOT
BRANCH   1   2
ATOM      2  C   UNL A   1      32.001  29.145  23.620  1.00  0.00     0.188 C 
BRANCH   2   3
ATOM      3  O   UNL A   1      32.645  29.628  24.796  1.00  0.00    -0.376 OA
BRANCH   3   4
ATOM      4  C   UNL A   1      31.772  30.025  25.845  1.00  0.00     0.202 C 
BRANCH   4   5
ATOM      5  C   UNL A   1      32.349  29.756  27.232  1.00  0.00     0.261 C 
BRANCH   5   6
ATOM      6  O   UNL A   1      33.775  29.586  27.214  1.00  0.00    -0.460 OA
BRANCH   6   7
ATOM      7  C   UNL A   1      34.715  30.363  27.807  1.00  0.00     0.338 C 
ATOM      8  O   UNL A   1      34.409  31.511  28.118  1.00  0.00    -0.246 OA
BRANCH   7   9
ATOM      9  C   UNL A   1      36.106  29.913  28.135  1.00  0.00     0.060 A 
ATOM     10  C   UNL A   1      37.221  30.050  27.306  1.00  0.00     0.016 A 
ATOM     11  C   UNL A   1      36.320  29.429  29.437  1.00  0.00     0.016 A 
ATOM     12  C   UNL A   1      38.501  29.721  27.734  1.00  0.00     0.010 A 
ATOM     13  C   UNL A   1      37.605  29.096  29.881  1.00  0.00     0.010 A 
ATOM     14  C   UNL A   1      38.699  29.241  29.022  1.00  0.00    -0.014 A 
BRANCH  14  15
ATOM     15  C   UNL A   1      40.042  28.763  29.387  1.00  0.00     0.031 A 
ATOM     16  C   UNL A   1      40.849  29.608  30.321  1.00  0.00     0.074 A 
ATOM     17  C   UNL A   1      40.467  27.555  28.979  1.00  0.00     0.049 A 
ATOM     18  N   UNL A   1      42.093  29.480  30.691  1.00  0.00    -0.248 NA
ATOM     19  C   UNL A   1      40.149  30.751  30.935  1.00  0.00     0.031 C 
ATOM     20  C   UNL A   1      39.678  26.604  28.191  1.00  0.00     0.029 A 
ATOM     21  N   UNL A   1      41.660  26.913  29.179  1.00  0.00    -0.354 N 
ATOM     22  C   UNL A   1      42.338  30.551  31.539  1.00  0.00     0.074 A 
ATOM     23  C   UNL A   1      41.113  31.306  31.654  1.00  0.00     0.031 C 
ATOM     24  C   UNL A   1      40.413  25.502  27.970  1.00  0.00     0.029 A 
ATOM     25  C   UNL A   1      41.745  25.703  28.532  1.00  0.00     0.049 A 
ATOM     26  H   UNL A   1      42.386  27.281  29.733  1.00  0.00     0.167 HD
ATOM     27  C   UNL A   1      43.503  30.875  32.143  1.00  0.00     0.037 A 
ATOM     28  C   UNL A   1      42.808  24.892  28.368  1.00  0.00     0.037 A 
ATOM     29  C   UNL A   1      44.696  30.087  32.016  1.00  0.00     0.049 A 
ATOM     30  C   UNL A   1      44.120  25.329  28.970  1.00  0.00     0.074 A 
ATOM     31  C   UNL A   1      45.949  30.319  32.547  1.00  0.00     0.029 A 
ATOM     32  N   UNL A   1      44.770  28.902  31.295  1.00  0.00    -0.354 N 
ATOM     33  N   UNL A   1      44.378  26.374  29.720  1.00  0.00    -0.248 NA
ATOM     34  C   UNL A   1      45.294  24.498  28.676  1.00  0.00     0.031 C 
ATOM     35  C   UNL A   1      46.796  29.294  32.108  1.00  0.00     0.029 A 
ATOM     36  C   UNL A   1      46.060  28.406  31.338  1.00  0.00     0.049 A 
ATOM     37  H   UNL A   1      44.018  28.478  30.824  1.00  0.00     0.167 HD
ATOM     38  C   UNL A   1      45.738  26.331  29.985  1.00  0.00     0.074 A 
ATOM     39  C   UNL A   1      46.246  25.135  29.344  1.00  0.00     0.031 C 
ATOM     40  C   UNL A   1      46.508  27.204  30.681  1.00  0.00     0.037 A 
BRANCH  27  41
ATOM     41  C   UNL A   1      43.549  32.165  32.901  1.00  0.00     0.064 A 
ATOM     42  C   UNL A   1      43.876  33.382  32.287  1.00  0.00     0.173 A 
ATOM     43  C   UNL A   1      43.274  32.174  34.277  1.00  0.00     0.173 A 
ATOM     44  F   UNL A   1      44.179  33.421  30.981  1.00  0.00    -0.203 F 
ATOM     45  C   UNL A   1      43.944  34.560  33.029  1.00  0.00     0.198 A 
ATOM     46  C   UNL A   1      43.323  33.355  35.010  1.00  0.00     0.198 A 
ATOM     47  F   UNL A   1      42.971  31.032  34.912  1.00  0.00    -0.203 F 
ATOM     48  F   UNL A   1      44.304  35.705  32.434  1.00  0.00    -0.200 F 
ATOM     49  C   UNL A   1      43.662  34.547  34.388  1.00  0.00     0.200 A 
ATOM     50  F   UNL A   1      43.052  33.338  36.323  1.00  0.00    -0.200 F 
ATOM     51  F   UNL A   1      43.731  35.679  35.100  1.00  0.00    -0.200 F 
ENDBRANCH  27  41
BRANCH  28  52
ATOM     52  C   UNL A   1      42.708  23.666  27.527  1.00  0.00     0.064 A 
ATOM     53  C   UNL A   1      42.258  22.448  28.056  1.00  0.00     0.173 A 
ATOM     54  C   UNL A   1      43.103  23.676  26.179  1.00  0.00     0.173 A 
ATOM     55  F   UNL A   1      41.895  22.372  29.345  1.00  0.00    -0.203 F 
ATOM     56  C   UNL A   1      42.226  21.290  27.279  1.00  0.00     0.198 A 
ATOM     57  C   UNL A   1      43.039  22.527  25.393  1.00  0.00     0.198 A 
ATOM     58  F   UNL A   1      43.554  24.808  25.619  1.00  0.00    -0.203 F 
ATOM     59  F   UNL A   1      41.844  20.128  27.827  1.00  0.00    -0.200 F 
ATOM     60  C   UNL A   1      42.610  21.332  25.947  1.00  0.00     0.200 A 
ATOM     61  F   UNL A   1      43.400  22.577  24.104  1.00  0.00    -0.200 F 
ATOM     62  F   UNL A   1      42.581  20.218  25.202  1.00  0.00    -0.200 F 
ENDBRANCH  28  52
BRANCH  40  63
ATOM     63  C   UNL A   1      47.969  26.890  30.772  1.00  0.00     0.064 A 
ATOM     64  C   UNL A   1      48.889  27.462  29.883  1.00  0.00     0.173 A 
ATOM     65  C   UNL A   1      48.456  26.072  31.801  1.00  0.00     0.173 A 
ATOM     66  F   UNL A   1      48.462  28.238  28.876  1.00  0.00    -0.203 F 
ATOM     67  C   UNL A   1      50.251  27.214  30.015  1.00  0.00     0.198 A 
ATOM     68  C   UNL A   1      49.821  25.848  31.945  1.00  0.00     0.198 A 
ATOM     69  F   UNL A   1      47.609  25.511  32.677  1.00  0.00    -0.203 F 
ATOM     70  F   UNL A   1      51.114  27.743  29.137  1.00  0.00    -0.200 F 
ATOM     71  C   UNL A   1      50.716  26.417  31.051  1.00  0.00     0.200 A 
ATOM     72  F   UNL A   1      50.270  25.091  32.954  1.00  0.00    -0.200 F 
ATOM     73  F   UNL A   1      52.030  26.193  31.186  1.00  0.00    -0.200 F 
ENDBRANCH  40  63
ENDBRANCH  14  15
ENDBRANCH   7   9
ENDBRANCH   6   7
ENDBRANCH   5   6
ENDBRANCH   4   5
ENDBRANCH   3   4
ENDBRANCH   2   3
ENDBRANCH   1   2
BRANCH   1  74
ATOM     74  O   UNL A   1      29.720  28.533  22.938  1.00  0.00    -0.377 OA
BRANCH  74  75
ATOM     75  C   UNL A   1      29.166  27.353  23.503  1.00  0.00     0.188 C 
BRANCH  75  76
ATOM     76  C   UNL A   1      30.106  26.223  23.944  1.00  0.00     0.188 C 
BRANCH  76  77
ATOM     77  O   UNL A   1      30.573  25.363  22.912  1.00  0.00    -0.376 OA
BRANCH  77  78
ATOM     78  C   UNL A   1      31.711  25.852  22.202  1.00  0.00     0.202 C 
BRANCH  78  79
ATOM     79  C   UNL A   1      32.887  24.868  22.145  1.00  0.00     0.261 C 
BRANCH  79  80
ATOM     80  O   UNL A   1      33.299  24.321  23.410  1.00  0.00    -0.461 OA
BRANCH  80  81
ATOM     81  C   UNL A   1      34.343  23.452  23.441  1.00  0.00     0.336 C 
ATOM     82  O   UNL A   1      35.088  23.318  22.471  1.00  0.00    -0.249 OA
BRANCH  81  83
ATOM     83  C   UNL A   1      34.487  22.656  24.811  1.00  0.00     0.191 C 
ATOM     84  Cl  UNL A   1      33.645  23.674  26.120  1.00  0.00    -0.096 Cl
BRANCH  83  85
ATOM     85  C   UNL A   1      33.705  21.323  24.812  1.00  0.00    -0.011 A 
ATOM     86  C   UNL A   1      33.073  20.868  23.633  1.00  0.00     0.006 A 
ATOM     87  C   UNL A   1      33.633  20.494  25.944  1.00  0.00     0.006 A 
ATOM     88  C   UNL A   1      32.509  19.596  23.553  1.00  0.00     0.000 A 
ATOM     89  C   UNL A   1      33.044  19.230  25.870  1.00  0.00     0.000 A 
ATOM     90  C   UNL A   1      32.508  18.773  24.670  1.00  0.00     0.000 A 
ENDBRANCH  83  85
BRANCH  83  91
ATOM     91  C   UNL A   1      35.993  22.443  25.150  1.00  0.00    -0.011 A 
ATOM     92  C   UNL A   1      36.736  23.493  25.732  1.00  0.00     0.006 A 
ATOM     93  C   UNL A   1      36.688  21.239  24.912  1.00  0.00     0.006 A 
ATOM     94  C   UNL A   1      38.071  23.331  26.116  1.00  0.00     0.000 A 
ATOM     95  C   UNL A   1      38.029  21.078  25.292  1.00  0.00     0.000 A 
ATOM     96  C   UNL A   1      38.716  22.120  25.903  1.00  0.00     0.000 A 
ENDBRANCH  83  91
ENDBRANCH  81  83
ENDBRANCH  80  81
ENDBRANCH  79  80
ENDBRANCH  78  79
ENDBRANCH  77  78
ENDBRANCH  76  77
ENDBRANCH  75  76
ENDBRANCH  74  75
ENDBRANCH   1  74
TORSDOF 22
ENDMDL
