MODEL 1
REMARK VINA RESULT:     -10.9      0.000      0.000
REMARK SMILES Cc1ccc(Cn2c(C)c(C[NH2+]Cc3ccco3)c(C(=O)OCCOCCOCCOCCOC(=O)c3ccc(-c4c5nc(c(-c6c(F)c(F)c(F)c(F)c6F)c6ccc([nH]6)c(-c6c(F)c(F)c(F)c(F)c6F)c6nc(c(-c7c(F)c(F)c(F)c(F)c7F)c7ccc4[nH]7)C=C6)C=C5)cc3)c2C)cc1
REMARK SMILES IDX 27 1 26 2 25 3 24 4 23 5 22 6 20 7 21 8 19 9 7 10 8 11
REMARK SMILES IDX 100 12 9 13 10 14 101 15 6 16 5 17 1 18 2 19 3 20 103 21
REMARK SMILES IDX 4 22 102 23 11 24 12 25 13 28 14 29 15 30 18 31 16 32 17 33
REMARK SMILES IDX 28 34 29 35 30 36 31 37 32 38 33 39 34 40 35 41 36 42 37 43
REMARK SMILES IDX 38 44 99 45 39 46 98 47 40 48 41 49 42 50 92 51 43 52 97 53
REMARK SMILES IDX 91 54 93 55 44 56 96 57 90 58 89 59 45 61 77 62 57 63 76 64
REMARK SMILES IDX 58 65 61 66 75 67 94 68 59 69 60 70 74 72 95 73 62 74 46 75
REMARK SMILES IDX 47 76 55 77 48 78 49 79 53 80 56 81 50 82 51 83 54 84 52 85
REMARK SMILES IDX 78 86 79 87 87 88 80 89 81 90 85 91 88 92 82 93 83 94 86 95
REMARK SMILES IDX 84 96 63 97 64 98 72 99 65 100 66 101 70 102 73 103 67 104
REMARK SMILES IDX 68 105 71 106 69 107
REMARK H PARENT 12 26 12 27 93 60 61 71
REMARK Flexibility Score: inf
ROOT
ATOM      1  C   UNL A   1      40.873  21.480  27.906  1.00  0.00     0.188 C 
ENDROOT
BRANCH   1   2
ATOM      2  C   UNL A   1      40.436  22.434  26.695  1.00  0.00     0.188 C 
BRANCH   2   3
ATOM      3  O   UNL A   1      39.060  22.754  26.438  1.00  0.00    -0.376 OA
BRANCH   3   4
ATOM      4  C   UNL A   1      38.040  22.186  25.625  1.00  0.00     0.202 C 
BRANCH   4   5
ATOM      5  C   UNL A   1      37.540  23.152  24.715  1.00  0.00     0.261 C 
BRANCH   5   6
ATOM      6  O   UNL A   1      36.185  23.255  24.990  1.00  0.00    -0.460 OA
BRANCH   6   7
ATOM      7  C   UNL A   1      35.523  23.148  23.812  1.00  0.00     0.340 C 
ATOM      8  O   UNL A   1      35.989  22.863  22.740  1.00  0.00    -0.246 OA
BRANCH   7   9
ATOM      9  C   UNL A   1      34.123  23.243  24.073  1.00  0.00     0.089 A 
ATOM     10  N   UNL A   1      32.099  24.085  24.293  1.00  0.00    -0.343 N 
ATOM     11  C   UNL A   1      32.113  22.781  24.828  1.00  0.00     0.025 A 
ATOM     12  C   UNL A   1      33.298  24.270  23.643  1.00  0.00     0.030 A 
ATOM     13  C   UNL A   1      30.923  22.032  25.286  1.00  0.00     0.065 C 
ATOM     14  C   UNL A   1      33.403  22.259  24.786  1.00  0.00     0.042 A 
ATOM     15  C   UNL A   1      33.633  25.369  22.673  1.00  0.00     0.065 C 
BRANCH  10  16
ATOM     16  C   UNL A   1      31.055  25.110  24.540  1.00  0.00     0.157 C 
BRANCH  16  17
ATOM     17  C   UNL A   1      31.481  26.462  25.101  1.00  0.00    -0.028 A 
ATOM     18  C   UNL A   1      32.213  30.234  27.117  1.00  0.00     0.044 C 
ATOM     19  C   UNL A   1      32.053  28.949  26.356  1.00  0.00    -0.051 A 
ATOM     20  C   UNL A   1      31.261  28.899  25.204  1.00  0.00     0.004 A 
ATOM     21  C   UNL A   1      32.620  27.760  26.828  1.00  0.00     0.004 A 
ATOM     22  C   UNL A   1      31.009  27.675  24.562  1.00  0.00     0.006 A 
ATOM     23  C   UNL A   1      32.332  26.532  26.214  1.00  0.00     0.006 A 
ENDBRANCH  16  17
ENDBRANCH  10  16
BRANCH  14  24
ATOM     24  C   UNL A   1      33.978  20.884  25.183  1.00  0.00     0.300 C 
BRANCH  24  25
ATOM     25  N   UNL A   1      33.383  20.315  26.389  1.00  0.00    -0.336 N 
ATOM     26  H   UNL A   1      32.665  20.953  26.730  1.00  0.00     0.346 HD
ATOM     27  H   UNL A   1      34.133  20.186  27.067  1.00  0.00     0.346 HD
BRANCH  25  28
ATOM     28  C   UNL A   1      32.761  18.985  26.160  1.00  0.00     0.337 C 
BRANCH  28  29
ATOM     29  C   UNL A   1      33.130  18.226  24.908  1.00  0.00     0.157 A 
ATOM     30  C   UNL A   1      34.219  17.453  24.546  1.00  0.00     0.052 A 
ATOM     31  O   UNL A   1      32.322  18.392  23.808  1.00  0.00    -0.463 OA
ATOM     32  C   UNL A   1      34.063  17.122  23.174  1.00  0.00     0.042 A 
ATOM     33  C   UNL A   1      32.876  17.688  22.780  1.00  0.00     0.195 A 
ENDBRANCH  28  29
ENDBRANCH  25  28
ENDBRANCH  24  25
ENDBRANCH  14  24
ENDBRANCH   7   9
ENDBRANCH   6   7
ENDBRANCH   5   6
ENDBRANCH   4   5
ENDBRANCH   3   4
ENDBRANCH   2   3
ENDBRANCH   1   2
BRANCH   1  34
ATOM     34  O   UNL A   1      41.315  20.101  27.798  1.00  0.00    -0.377 OA
BRANCH  34  35
ATOM     35  C   UNL A   1      41.614  19.591  26.516  1.00  0.00     0.188 C 
BRANCH  35  36
ATOM     36  C   UNL A   1      42.629  18.498  26.465  1.00  0.00     0.188 C 
BRANCH  36  37
ATOM     37  O   UNL A   1      43.214  18.694  25.186  1.00  0.00    -0.376 OA
BRANCH  37  38
ATOM     38  C   UNL A   1      44.623  18.606  25.194  1.00  0.00     0.202 C 
BRANCH  38  39
ATOM     39  C   UNL A   1      45.085  19.164  23.852  1.00  0.00     0.261 C 
BRANCH  39  40
ATOM     40  O   UNL A   1      44.574  20.523  23.727  1.00  0.00    -0.460 OA
BRANCH  40  41
ATOM     41  C   UNL A   1      45.230  21.472  24.464  1.00  0.00     0.338 C 
ATOM     42  O   UNL A   1      46.442  21.515  24.616  1.00  0.00    -0.246 OA
BRANCH  41  43
ATOM     43  C   UNL A   1      44.269  22.283  25.298  1.00  0.00     0.060 A 
ATOM     44  C   UNL A   1      43.608  23.364  24.695  1.00  0.00     0.016 A 
ATOM     45  C   UNL A   1      44.389  22.259  26.685  1.00  0.00     0.016 A 
ATOM     46  C   UNL A   1      43.325  24.522  25.437  1.00  0.00     0.010 A 
ATOM     47  C   UNL A   1      44.223  23.455  27.389  1.00  0.00     0.010 A 
ATOM     48  C   UNL A   1      43.768  24.631  26.763  1.00  0.00    -0.014 A 
BRANCH  48  49
ATOM     49  C   UNL A   1      44.061  25.989  27.384  1.00  0.00     0.031 A 
ATOM     50  C   UNL A   1      42.604  26.908  27.826  1.00  0.00     0.074 A 
ATOM     51  C   UNL A   1      45.447  25.979  27.785  1.00  0.00     0.049 A 
ATOM     52  N   UNL A   1      42.459  28.218  28.077  1.00  0.00    -0.248 NA
ATOM     53  C   UNL A   1      41.251  26.326  27.811  1.00  0.00     0.031 C 
ATOM     54  C   UNL A   1      46.324  26.238  29.048  1.00  0.00     0.029 A 
ATOM     55  N   UNL A   1      46.493  26.341  26.900  1.00  0.00    -0.354 N 
ATOM     56  C   UNL A   1      41.193  28.532  28.644  1.00  0.00     0.074 A 
ATOM     57  C   UNL A   1      40.467  27.318  28.278  1.00  0.00     0.031 C 
ATOM     58  C   UNL A   1      47.397  26.996  28.868  1.00  0.00     0.029 A 
ATOM     59  C   UNL A   1      47.250  27.385  27.504  1.00  0.00     0.049 A 
ATOM     60  H   UNL A   1      46.667  25.939  26.019  1.00  0.00     0.167 HD
ATOM     61  C   UNL A   1      40.854  29.682  29.416  1.00  0.00     0.037 A 
ATOM     62  C   UNL A   1      48.224  28.223  27.133  1.00  0.00     0.037 A 
ATOM     63  C   UNL A   1      41.935  30.774  29.674  1.00  0.00     0.049 A 
ATOM     64  C   UNL A   1      47.823  29.677  27.631  1.00  0.00     0.074 A 
ATOM     65  C   UNL A   1      42.465  31.298  30.870  1.00  0.00     0.029 A 
ATOM     66  N   UNL A   1      42.821  31.309  28.694  1.00  0.00    -0.354 N 
ATOM     67  N   UNL A   1      46.657  30.025  28.195  1.00  0.00    -0.248 NA
ATOM     68  C   UNL A   1      48.640  30.866  27.416  1.00  0.00     0.031 C 
ATOM     69  C   UNL A   1      43.731  31.934  30.633  1.00  0.00     0.029 A 
ATOM     70  C   UNL A   1      44.055  31.788  29.278  1.00  0.00     0.049 A 
ATOM     71  H   UNL A   1      42.618  31.347  27.731  1.00  0.00     0.167 HD
ATOM     72  C   UNL A   1      46.472  31.436  28.245  1.00  0.00     0.074 A 
ATOM     73  C   UNL A   1      47.820  31.867  27.812  1.00  0.00     0.031 C 
ATOM     74  C   UNL A   1      45.292  32.211  28.490  1.00  0.00     0.037 A 
BRANCH  61  75
ATOM     75  C   UNL A   1      39.491  29.832  30.293  1.00  0.00     0.064 A 
ATOM     76  C   UNL A   1      38.561  30.906  30.096  1.00  0.00     0.173 A 
ATOM     77  C   UNL A   1      39.040  28.969  31.316  1.00  0.00     0.173 A 
ATOM     78  F   UNL A   1      38.624  31.732  29.051  1.00  0.00    -0.203 F 
ATOM     79  C   UNL A   1      37.430  31.156  30.904  1.00  0.00     0.198 A 
ATOM     80  C   UNL A   1      37.883  29.194  32.103  1.00  0.00     0.198 A 
ATOM     81  F   UNL A   1      39.629  27.805  31.576  1.00  0.00    -0.203 F 
ATOM     82  F   UNL A   1      36.655  32.224  30.655  1.00  0.00    -0.200 F 
ATOM     83  C   UNL A   1      37.091  30.299  31.914  1.00  0.00     0.200 A 
ATOM     84  F   UNL A   1      37.536  28.294  33.036  1.00  0.00    -0.200 F 
ATOM     85  F   UNL A   1      35.990  30.499  32.651  1.00  0.00    -0.200 F 
ENDBRANCH  61  75
BRANCH  62  86
ATOM     86  C   UNL A   1      49.357  27.344  26.584  1.00  0.00     0.064 A 
ATOM     87  C   UNL A   1      49.463  27.201  25.160  1.00  0.00     0.173 A 
ATOM     88  C   UNL A   1      50.594  27.612  27.227  1.00  0.00     0.173 A 
ATOM     89  F   UNL A   1      48.371  26.919  24.432  1.00  0.00    -0.203 F 
ATOM     90  C   UNL A   1      50.617  27.608  24.445  1.00  0.00     0.198 A 
ATOM     91  C   UNL A   1      51.728  28.052  26.508  1.00  0.00     0.198 A 
ATOM     92  F   UNL A   1      50.590  27.824  28.553  1.00  0.00    -0.203 F 
ATOM     93  F   UNL A   1      50.594  27.688  23.103  1.00  0.00    -0.200 F 
ATOM     94  C   UNL A   1      51.719  28.098  25.123  1.00  0.00     0.200 A 
ATOM     95  F   UNL A   1      52.722  28.667  27.166  1.00  0.00    -0.200 F 
ATOM     96  F   UNL A   1      52.698  28.734  24.459  1.00  0.00    -0.200 F 
ENDBRANCH  62  86
BRANCH  74  97
ATOM     97  C   UNL A   1      45.068  33.646  27.962  1.00  0.00     0.064 A 
ATOM     98  C   UNL A   1      44.218  33.966  26.901  1.00  0.00     0.173 A 
ATOM     99  C   UNL A   1      45.508  34.782  28.720  1.00  0.00     0.173 A 
ATOM    100  F   UNL A   1      43.595  33.028  26.182  1.00  0.00    -0.203 F 
ATOM    101  C   UNL A   1      43.886  35.288  26.587  1.00  0.00     0.198 A 
ATOM    102  C   UNL A   1      45.083  36.080  28.474  1.00  0.00     0.198 A 
ATOM    103  F   UNL A   1      46.330  34.697  29.773  1.00  0.00    -0.203 F 
ATOM    104  F   UNL A   1      43.113  35.531  25.522  1.00  0.00    -0.200 F 
ATOM    105  C   UNL A   1      44.290  36.338  27.389  1.00  0.00     0.200 A 
ATOM    106  F   UNL A   1      45.420  37.059  29.325  1.00  0.00    -0.200 F 
ATOM    107  F   UNL A   1      43.893  37.590  27.132  1.00  0.00    -0.200 F 
ENDBRANCH  74  97
ENDBRANCH  48  49
ENDBRANCH  41  43
ENDBRANCH  40  41
ENDBRANCH  39  40
ENDBRANCH  38  39
ENDBRANCH  37  38
ENDBRANCH  36  37
ENDBRANCH  35  36
ENDBRANCH  34  35
ENDBRANCH   1  34
TORSDOF 26
ENDMDL
MODEL 2
REMARK VINA RESULT:     -10.2      1.747      7.558
REMARK SMILES Cc1ccc(Cn2c(C)c(C[NH2+]Cc3ccco3)c(C(=O)OCCOCCOCCOCCOC(=O)c3ccc(-c4c5nc(c(-c6c(F)c(F)c(F)c(F)c6F)c6ccc([nH]6)c(-c6c(F)c(F)c(F)c(F)c6F)c6nc(c(-c7c(F)c(F)c(F)c(F)c7F)c7ccc4[nH]7)C=C6)C=C5)cc3)c2C)cc1
REMARK SMILES IDX 27 1 26 2 25 3 24 4 23 5 22 6 20 7 21 8 19 9 7 10 8 11
REMARK SMILES IDX 100 12 9 13 10 14 101 15 6 16 5 17 1 18 2 19 3 20 103 21
REMARK SMILES IDX 4 22 102 23 11 24 12 25 13 28 14 29 15 30 18 31 16 32 17 33
REMARK SMILES IDX 28 34 29 35 30 36 31 37 32 38 33 39 34 40 35 41 36 42 37 43
REMARK SMILES IDX 38 44 99 45 39 46 98 47 40 48 41 49 42 50 92 51 43 52 97 53
REMARK SMILES IDX 91 54 93 55 44 56 96 57 90 58 89 59 45 61 77 62 57 63 76 64
REMARK SMILES IDX 58 65 61 66 75 67 94 68 59 69 60 70 74 72 95 73 62 74 46 75
REMARK SMILES IDX 47 76 55 77 48 78 49 79 53 80 56 81 50 82 51 83 54 84 52 85
REMARK SMILES IDX 78 86 79 87 87 88 80 89 81 90 85 91 88 92 82 93 83 94 86 95
REMARK SMILES IDX 84 96 63 97 64 98 72 99 65 100 66 101 70 102 73 103 67 104
REMARK SMILES IDX 68 105 71 106 69 107
REMARK H PARENT 12 26 12 27 93 60 61 71
REMARK Flexibility Score: inf
ROOT
ATOM      1  C   UNL A   1      40.398  21.946  27.509  1.00  0.00     0.188 C 
ENDROOT
BRANCH   1   2
ATOM      2  C   UNL A   1      39.829  22.584  26.154  1.00  0.00     0.188 C 
BRANCH   2   3
ATOM      3  O   UNL A   1      38.553  23.242  26.101  1.00  0.00    -0.376 OA
BRANCH   3   4
ATOM      4  C   UNL A   1      37.218  22.810  25.863  1.00  0.00     0.202 C 
BRANCH   4   5
ATOM      5  C   UNL A   1      36.722  23.382  24.664  1.00  0.00     0.261 C 
BRANCH   5   6
ATOM      6  O   UNL A   1      35.481  23.909  24.990  1.00  0.00    -0.460 OA
BRANCH   6   7
ATOM      7  C   UNL A   1      34.593  23.449  24.075  1.00  0.00     0.340 C 
ATOM      8  O   UNL A   1      34.831  22.787  23.100  1.00  0.00    -0.246 OA
BRANCH   7   9
ATOM      9  C   UNL A   1      33.276  23.715  24.557  1.00  0.00     0.089 A 
ATOM     10  N   UNL A   1      31.378  24.758  24.959  1.00  0.00    -0.343 N 
ATOM     11  C   UNL A   1      31.426  23.581  25.732  1.00  0.00     0.025 A 
ATOM     12  C   UNL A   1      32.438  24.712  24.083  1.00  0.00     0.030 A 
ATOM     13  C   UNL A   1      30.308  23.039  26.535  1.00  0.00     0.065 C 
ATOM     14  C   UNL A   1      32.655  22.949  25.568  1.00  0.00     0.042 A 
ATOM     15  C   UNL A   1      32.639  25.577  22.869  1.00  0.00     0.065 C 
BRANCH  10  16
ATOM     16  C   UNL A   1      30.455  25.900  25.177  1.00  0.00     0.157 C 
BRANCH  16  17
ATOM     17  C   UNL A   1      31.047  27.250  25.566  1.00  0.00    -0.028 A 
ATOM     18  C   UNL A   1      32.154  31.221  26.921  1.00  0.00     0.044 C 
ATOM     19  C   UNL A   1      31.880  29.831  26.419  1.00  0.00    -0.051 A 
ATOM     20  C   UNL A   1      31.437  29.624  25.110  1.00  0.00     0.004 A 
ATOM     21  C   UNL A   1      31.978  28.727  27.273  1.00  0.00     0.004 A 
ATOM     22  C   UNL A   1      31.061  28.341  24.676  1.00  0.00     0.006 A 
ATOM     23  C   UNL A   1      31.560  27.455  26.855  1.00  0.00     0.006 A 
ENDBRANCH  16  17
ENDBRANCH  10  16
BRANCH  14  24
ATOM     24  C   UNL A   1      33.223  21.627  26.123  1.00  0.00     0.300 C 
BRANCH  24  25
ATOM     25  N   UNL A   1      32.608  20.429  25.555  1.00  0.00    -0.336 N 
ATOM     26  H   UNL A   1      31.807  20.712  24.992  1.00  0.00     0.346 HD
ATOM     27  H   UNL A   1      32.337  19.829  26.333  1.00  0.00     0.346 HD
BRANCH  25  28
ATOM     28  C   UNL A   1      33.536  19.649  24.697  1.00  0.00     0.337 C 
BRANCH  28  29
ATOM     29  C   UNL A   1      33.576  18.149  24.861  1.00  0.00     0.157 A 
ATOM     30  C   UNL A   1      32.677  17.217  25.351  1.00  0.00     0.052 A 
ATOM     31  O   UNL A   1      34.771  17.518  24.608  1.00  0.00    -0.463 OA
ATOM     32  C   UNL A   1      33.346  15.965  25.384  1.00  0.00     0.042 A 
ATOM     33  C   UNL A   1      34.606  16.195  24.891  1.00  0.00     0.195 A 
ENDBRANCH  28  29
ENDBRANCH  25  28
ENDBRANCH  24  25
ENDBRANCH  14  24
ENDBRANCH   7   9
ENDBRANCH   6   7
ENDBRANCH   5   6
ENDBRANCH   4   5
ENDBRANCH   3   4
ENDBRANCH   2   3
ENDBRANCH   1   2
BRANCH   1  34
ATOM     34  O   UNL A   1      41.005  20.636  27.654  1.00  0.00    -0.377 OA
BRANCH  34  35
ATOM     35  C   UNL A   1      41.356  19.925  26.486  1.00  0.00     0.188 C 
BRANCH  35  36
ATOM     36  C   UNL A   1      42.366  18.841  26.656  1.00  0.00     0.188 C 
BRANCH  36  37
ATOM     37  O   UNL A   1      42.957  18.777  25.366  1.00  0.00    -0.376 OA
BRANCH  37  38
ATOM     38  C   UNL A   1      44.326  18.435  25.392  1.00  0.00     0.202 C 
BRANCH  38  39
ATOM     39  C   UNL A   1      44.894  18.877  24.048  1.00  0.00     0.261 C 
BRANCH  39  40
ATOM     40  O   UNL A   1      44.569  20.285  23.861  1.00  0.00    -0.460 OA
BRANCH  40  41
ATOM     41  C   UNL A   1      45.218  21.159  24.690  1.00  0.00     0.338 C 
ATOM     42  O   UNL A   1      46.388  21.051  25.029  1.00  0.00    -0.246 OA
BRANCH  41  43
ATOM     43  C   UNL A   1      44.252  22.101  25.364  1.00  0.00     0.060 A 
ATOM     44  C   UNL A   1      43.595  23.060  24.578  1.00  0.00     0.016 A 
ATOM     45  C   UNL A   1      44.363  22.318  26.735  1.00  0.00     0.016 A 
ATOM     46  C   UNL A   1      43.307  24.328  25.107  1.00  0.00     0.010 A 
ATOM     47  C   UNL A   1      44.192  23.617  27.220  1.00  0.00     0.010 A 
ATOM     48  C   UNL A   1      43.741  24.667  26.396  1.00  0.00    -0.014 A 
BRANCH  48  49
ATOM     49  C   UNL A   1      44.029  26.112  26.774  1.00  0.00     0.031 A 
ATOM     50  C   UNL A   1      45.762  26.500  26.871  1.00  0.00     0.074 A 
ATOM     51  C   UNL A   1      42.806  26.851  26.573  1.00  0.00     0.049 A 
ATOM     52  N   UNL A   1      46.378  27.530  27.470  1.00  0.00    -0.248 NA
ATOM     53  C   UNL A   1      46.818  25.584  26.408  1.00  0.00     0.031 C 
ATOM     54  C   UNL A   1      42.288  28.115  25.819  1.00  0.00     0.029 A 
ATOM     55  N   UNL A   1      41.813  26.959  27.577  1.00  0.00    -0.354 N 
ATOM     56  C   UNL A   1      47.751  27.632  27.113  1.00  0.00     0.074 A 
ATOM     57  C   UNL A   1      47.955  26.284  26.588  1.00  0.00     0.031 C 
ATOM     58  C   UNL A   1      41.519  28.937  26.519  1.00  0.00     0.029 A 
ATOM     59  C   UNL A   1      41.561  28.340  27.813  1.00  0.00     0.049 A 
ATOM     60  H   UNL A   1      41.371  26.207  28.034  1.00  0.00     0.167 HD
ATOM     61  C   UNL A   1      48.580  28.791  27.190  1.00  0.00     0.037 A 
ATOM     62  C   UNL A   1      40.879  29.068  28.704  1.00  0.00     0.037 A 
ATOM     63  C   UNL A   1      47.987  30.116  27.754  1.00  0.00     0.049 A 
ATOM     64  C   UNL A   1      41.822  30.256  29.178  1.00  0.00     0.074 A 
ATOM     65  C   UNL A   1      47.869  31.401  27.187  1.00  0.00     0.029 A 
ATOM     66  N   UNL A   1      47.184  30.231  28.927  1.00  0.00    -0.354 N 
ATOM     67  N   UNL A   1      43.113  30.417  28.852  1.00  0.00    -0.248 NA
ATOM     68  C   UNL A   1      41.430  31.271  30.149  1.00  0.00     0.031 C 
ATOM     69  C   UNL A   1      46.870  32.173  27.873  1.00  0.00     0.029 A 
ATOM     70  C   UNL A   1      46.298  31.373  28.870  1.00  0.00     0.049 A 
ATOM     71  H   UNL A   1      47.227  29.605  29.686  1.00  0.00     0.167 HD
ATOM     72  C   UNL A   1      43.768  31.383  29.668  1.00  0.00     0.074 A 
ATOM     73  C   UNL A   1      42.592  31.921  30.387  1.00  0.00     0.031 C 
ATOM     74  C   UNL A   1      45.164  31.651  29.853  1.00  0.00     0.037 A 
BRANCH  61  75
ATOM     75  C   UNL A   1      50.038  28.927  26.480  1.00  0.00     0.064 A 
ATOM     76  C   UNL A   1      51.173  29.489  27.151  1.00  0.00     0.173 A 
ATOM     77  C   UNL A   1      50.386  28.525  25.172  1.00  0.00     0.173 A 
ATOM     78  F   UNL A   1      51.184  29.741  28.461  1.00  0.00    -0.203 F 
ATOM     79  C   UNL A   1      52.425  29.745  26.550  1.00  0.00     0.198 A 
ATOM     80  C   UNL A   1      51.654  28.743  24.577  1.00  0.00     0.198 A 
ATOM     81  F   UNL A   1      49.563  27.819  24.401  1.00  0.00    -0.203 F 
ATOM     82  F   UNL A   1      53.404  30.322  27.265  1.00  0.00    -0.200 F 
ATOM     83  C   UNL A   1      52.666  29.374  25.256  1.00  0.00     0.200 A 
ATOM     84  F   UNL A   1      51.883  28.298  23.331  1.00  0.00    -0.200 F 
ATOM     85  F   UNL A   1      53.868  29.564  24.694  1.00  0.00    -0.200 F 
ENDBRANCH  61  75
BRANCH  62  86
ATOM     86  C   UNL A   1      39.443  28.526  28.688  1.00  0.00     0.064 A 
ATOM     87  C   UNL A   1      38.924  27.967  29.904  1.00  0.00     0.173 A 
ATOM     88  C   UNL A   1      38.549  29.418  28.039  1.00  0.00     0.173 A 
ATOM     89  F   UNL A   1      39.659  27.088  30.603  1.00  0.00    -0.203 F 
ATOM     90  C   UNL A   1      37.782  28.500  30.552  1.00  0.00     0.198 A 
ATOM     91  C   UNL A   1      37.432  29.970  28.708  1.00  0.00     0.198 A 
ATOM     92  F   UNL A   1      38.965  30.041  26.926  1.00  0.00    -0.203 F 
ATOM     93  F   UNL A   1      37.467  28.117  31.801  1.00  0.00    -0.200 F 
ATOM     94  C   UNL A   1      37.083  29.548  29.980  1.00  0.00     0.200 A 
ATOM     95  F   UNL A   1      36.862  31.083  28.219  1.00  0.00    -0.200 F 
ATOM     96  F   UNL A   1      36.180  30.235  30.698  1.00  0.00    -0.200 F 
ENDBRANCH  62  86
BRANCH  74  97
ATOM     97  C   UNL A   1      45.767  32.273  31.133  1.00  0.00     0.064 A 
ATOM     98  C   UNL A   1      46.257  31.529  32.209  1.00  0.00     0.173 A 
ATOM     99  C   UNL A   1      46.123  33.663  31.174  1.00  0.00     0.173 A 
ATOM    100  F   UNL A   1      46.151  30.198  32.259  1.00  0.00    -0.203 F 
ATOM    101  C   UNL A   1      46.978  32.118  33.253  1.00  0.00     0.198 A 
ATOM    102  C   UNL A   1      46.936  34.217  32.152  1.00  0.00     0.198 A 
ATOM    103  F   UNL A   1      45.752  34.551  30.244  1.00  0.00    -0.203 F 
ATOM    104  F   UNL A   1      47.369  31.360  34.284  1.00  0.00    -0.200 F 
ATOM    105  C   UNL A   1      47.344  33.449  33.209  1.00  0.00     0.200 A 
ATOM    106  F   UNL A   1      47.346  35.488  32.030  1.00  0.00    -0.200 F 
ATOM    107  F   UNL A   1      48.110  33.981  34.169  1.00  0.00    -0.200 F 
ENDBRANCH  74  97
ENDBRANCH  48  49
ENDBRANCH  41  43
ENDBRANCH  40  41
ENDBRANCH  39  40
ENDBRANCH  38  39
ENDBRANCH  37  38
ENDBRANCH  36  37
ENDBRANCH  35  36
ENDBRANCH  34  35
ENDBRANCH   1  34
TORSDOF 26
ENDMDL
MODEL 3
REMARK VINA RESULT:      -9.7      5.359      8.992
REMARK SMILES Cc1ccc(Cn2c(C)c(C[NH2+]Cc3ccco3)c(C(=O)OCCOCCOCCOCCOC(=O)c3ccc(-c4c5nc(c(-c6c(F)c(F)c(F)c(F)c6F)c6ccc([nH]6)c(-c6c(F)c(F)c(F)c(F)c6F)c6nc(c(-c7c(F)c(F)c(F)c(F)c7F)c7ccc4[nH]7)C=C6)C=C5)cc3)c2C)cc1
REMARK SMILES IDX 27 1 26 2 25 3 24 4 23 5 22 6 20 7 21 8 19 9 7 10 8 11
REMARK SMILES IDX 100 12 9 13 10 14 101 15 6 16 5 17 1 18 2 19 3 20 103 21
REMARK SMILES IDX 4 22 102 23 11 24 12 25 13 28 14 29 15 30 18 31 16 32 17 33
REMARK SMILES IDX 28 34 29 35 30 36 31 37 32 38 33 39 34 40 35 41 36 42 37 43
REMARK SMILES IDX 38 44 99 45 39 46 98 47 40 48 41 49 42 50 92 51 43 52 97 53
REMARK SMILES IDX 91 54 93 55 44 56 96 57 90 58 89 59 45 61 77 62 57 63 76 64
REMARK SMILES IDX 58 65 61 66 75 67 94 68 59 69 60 70 74 72 95 73 62 74 46 75
REMARK SMILES IDX 47 76 55 77 48 78 49 79 53 80 56 81 50 82 51 83 54 84 52 85
REMARK SMILES IDX 78 86 79 87 87 88 80 89 81 90 85 91 88 92 82 93 83 94 86 95
REMARK SMILES IDX 84 96 63 97 64 98 72 99 65 100 66 101 70 102 73 103 67 104
REMARK SMILES IDX 68 105 71 106 69 107
REMARK H PARENT 12 26 12 27 93 60 61 71
REMARK Flexibility Score: inf
ROOT
ATOM      1  C   UNL A   1      40.499  25.495  28.278  1.00  0.00     0.188 C 
ENDROOT
BRANCH   1   2
ATOM      2  C   UNL A   1      39.668  24.333  27.553  1.00  0.00     0.188 C 
BRANCH   2   3
ATOM      3  O   UNL A   1      38.349  24.555  27.031  1.00  0.00    -0.376 OA
BRANCH   3   4
ATOM      4  C   UNL A   1      37.598  24.006  25.954  1.00  0.00     0.202 C 
BRANCH   4   5
ATOM      5  C   UNL A   1      37.718  22.592  25.941  1.00  0.00     0.261 C 
BRANCH   5   6
ATOM      6  O   UNL A   1      36.508  22.112  26.418  1.00  0.00    -0.460 OA
BRANCH   6   7
ATOM      7  C   UNL A   1      35.937  21.390  25.424  1.00  0.00     0.340 C 
ATOM      8  O   UNL A   1      36.126  20.229  25.169  1.00  0.00    -0.246 OA
BRANCH   7   9
ATOM      9  C   UNL A   1      34.911  22.180  24.826  1.00  0.00     0.089 A 
ATOM     10  N   UNL A   1      33.910  23.689  23.570  1.00  0.00    -0.343 N 
ATOM     11  C   UNL A   1      32.975  23.160  24.482  1.00  0.00     0.025 A 
ATOM     12  C   UNL A   1      35.047  22.918  23.661  1.00  0.00     0.030 A 
ATOM     13  C   UNL A   1      31.521  23.433  24.472  1.00  0.00     0.065 C 
ATOM     14  C   UNL A   1      33.602  22.271  25.351  1.00  0.00     0.042 A 
ATOM     15  C   UNL A   1      36.197  22.896  22.692  1.00  0.00     0.065 C 
BRANCH  10  16
ATOM     16  C   UNL A   1      33.748  24.943  22.794  1.00  0.00     0.157 C 
BRANCH  16  17
ATOM     17  C   UNL A   1      33.668  26.264  23.551  1.00  0.00    -0.028 A 
ATOM     18  C   UNL A   1      32.862  29.822  25.901  1.00  0.00     0.044 C 
ATOM     19  C   UNL A   1      33.246  28.632  25.067  1.00  0.00    -0.051 A 
ATOM     20  C   UNL A   1      32.968  28.605  23.697  1.00  0.00     0.004 A 
ATOM     21  C   UNL A   1      33.809  27.494  25.656  1.00  0.00     0.004 A 
ATOM     22  C   UNL A   1      33.212  27.447  22.939  1.00  0.00     0.006 A 
ATOM     23  C   UNL A   1      34.010  26.323  24.911  1.00  0.00     0.006 A 
ENDBRANCH  16  17
ENDBRANCH  10  16
BRANCH  14  24
ATOM     24  C   UNL A   1      33.064  21.382  26.490  1.00  0.00     0.300 C 
BRANCH  24  25
ATOM     25  N   UNL A   1      33.206  19.949  26.245  1.00  0.00    -0.336 N 
ATOM     26  H   UNL A   1      32.718  19.443  26.984  1.00  0.00     0.346 HD
ATOM     27  H   UNL A   1      34.204  19.739  26.232  1.00  0.00     0.346 HD
BRANCH  25  28
ATOM     28  C   UNL A   1      32.648  19.524  24.935  1.00  0.00     0.337 C 
BRANCH  28  29
ATOM     29  C   UNL A   1      33.297  18.363  24.221  1.00  0.00     0.157 A 
ATOM     30  C   UNL A   1      33.146  17.811  22.960  1.00  0.00     0.052 A 
ATOM     31  O   UNL A   1      34.138  17.560  24.956  1.00  0.00    -0.463 OA
ATOM     32  C   UNL A   1      33.936  16.632  22.920  1.00  0.00     0.042 A 
ATOM     33  C   UNL A   1      34.546  16.542  24.146  1.00  0.00     0.195 A 
ENDBRANCH  28  29
ENDBRANCH  25  28
ENDBRANCH  24  25
ENDBRANCH  14  24
ENDBRANCH   7   9
ENDBRANCH   6   7
ENDBRANCH   5   6
ENDBRANCH   4   5
ENDBRANCH   3   4
ENDBRANCH   2   3
ENDBRANCH   1   2
BRANCH   1  34
ATOM     34  O   UNL A   1      39.947  26.670  28.929  1.00  0.00    -0.377 OA
BRANCH  34  35
ATOM     35  C   UNL A   1      39.698  27.817  28.146  1.00  0.00     0.188 C 
BRANCH  35  36
ATOM     36  C   UNL A   1      39.519  29.096  28.894  1.00  0.00     0.188 C 
BRANCH  36  37
ATOM     37  O   UNL A   1      38.523  29.755  28.125  1.00  0.00    -0.376 OA
BRANCH  37  38
ATOM     38  C   UNL A   1      37.208  29.371  28.462  1.00  0.00     0.202 C 
BRANCH  38  39
ATOM     39  C   UNL A   1      36.291  30.148  27.524  1.00  0.00     0.261 C 
BRANCH  39  40
ATOM     40  O   UNL A   1      36.375  31.560  27.876  1.00  0.00    -0.460 OA
BRANCH  40  41
ATOM     41  C   UNL A   1      35.206  32.137  28.292  1.00  0.00     0.338 C 
ATOM     42  O   UNL A   1      34.290  32.460  27.548  1.00  0.00    -0.246 OA
BRANCH  41  43
ATOM     43  C   UNL A   1      35.295  32.592  29.728  1.00  0.00     0.060 A 
ATOM     44  C   UNL A   1      35.655  33.924  29.986  1.00  0.00     0.016 A 
ATOM     45  C   UNL A   1      35.474  31.642  30.730  1.00  0.00     0.016 A 
ATOM     46  C   UNL A   1      36.432  34.239  31.112  1.00  0.00     0.010 A 
ATOM     47  C   UNL A   1      36.351  31.935  31.778  1.00  0.00     0.010 A 
ATOM     48  C   UNL A   1      36.913  33.216  31.942  1.00  0.00    -0.014 A 
BRANCH  48  49
ATOM     49  C   UNL A   1      38.197  33.390  32.739  1.00  0.00     0.031 A 
ATOM     50  C   UNL A   1      37.935  33.705  34.469  1.00  0.00     0.074 A 
ATOM     51  C   UNL A   1      39.271  32.870  31.927  1.00  0.00     0.049 A 
ATOM     52  N   UNL A   1      38.771  34.218  35.384  1.00  0.00    -0.248 NA
ATOM     53  C   UNL A   1      36.618  33.581  35.118  1.00  0.00     0.031 C 
ATOM     54  C   UNL A   1      40.440  31.842  32.014  1.00  0.00     0.029 A 
ATOM     55  N   UNL A   1      39.950  33.665  30.971  1.00  0.00    -0.354 N 
ATOM     56  C   UNL A   1      38.282  34.080  36.713  1.00  0.00     0.074 A 
ATOM     57  C   UNL A   1      36.874  33.827  36.418  1.00  0.00     0.031 C 
ATOM     58  C   UNL A   1      41.618  32.259  31.570  1.00  0.00     0.029 A 
ATOM     59  C   UNL A   1      41.343  33.623  31.261  1.00  0.00     0.049 A 
ATOM     60  H   UNL A   1      39.530  34.161  30.231  1.00  0.00     0.167 HD
ATOM     61  C   UNL A   1      39.044  34.098  37.919  1.00  0.00     0.037 A 
ATOM     62  C   UNL A   1      42.445  34.256  30.843  1.00  0.00     0.037 A 
ATOM     63  C   UNL A   1      40.583  34.329  37.846  1.00  0.00     0.049 A 
ATOM     64  C   UNL A   1      43.277  34.674  32.130  1.00  0.00     0.074 A 
ATOM     65  C   UNL A   1      41.666  33.545  38.292  1.00  0.00     0.029 A 
ATOM     66  N   UNL A   1      41.236  35.318  37.053  1.00  0.00    -0.354 N 
ATOM     67  N   UNL A   1      42.879  34.543  33.404  1.00  0.00    -0.248 NA
ATOM     68  C   UNL A   1      44.550  35.385  32.083  1.00  0.00     0.031 C 
ATOM     69  C   UNL A   1      42.879  33.918  37.619  1.00  0.00     0.029 A 
ATOM     70  C   UNL A   1      42.581  34.927  36.694  1.00  0.00     0.049 A 
ATOM     71  H   UNL A   1      40.818  36.167  36.780  1.00  0.00     0.167 HD
ATOM     72  C   UNL A   1      43.691  35.283  34.311  1.00  0.00     0.074 A 
ATOM     73  C   UNL A   1      44.764  35.700  33.382  1.00  0.00     0.031 C 
ATOM     74  C   UNL A   1      43.462  35.649  35.678  1.00  0.00     0.037 A 
BRANCH  61  75
ATOM     75  C   UNL A   1      38.479  33.626  39.371  1.00  0.00     0.064 A 
ATOM     76  C   UNL A   1      38.571  34.451  40.540  1.00  0.00     0.173 A 
ATOM     77  C   UNL A   1      37.841  32.404  39.677  1.00  0.00     0.173 A 
ATOM     78  F   UNL A   1      38.922  35.736  40.490  1.00  0.00    -0.203 F 
ATOM     79  C   UNL A   1      38.212  34.049  41.845  1.00  0.00     0.198 A 
ATOM     80  C   UNL A   1      37.441  32.012  40.979  1.00  0.00     0.198 A 
ATOM     81  F   UNL A   1      37.477  31.536  38.736  1.00  0.00    -0.203 F 
ATOM     82  F   UNL A   1      38.388  34.891  42.876  1.00  0.00    -0.200 F 
ATOM     83  C   UNL A   1      37.648  32.823  42.067  1.00  0.00     0.200 A 
ATOM     84  F   UNL A   1      36.821  30.834  41.151  1.00  0.00    -0.200 F 
ATOM     85  F   UNL A   1      37.255  32.453  43.294  1.00  0.00    -0.200 F 
ENDBRANCH  61  75
BRANCH  62  86
ATOM     86  C   UNL A   1      42.477  34.093  29.317  1.00  0.00     0.064 A 
ATOM     87  C   UNL A   1      42.009  35.189  28.516  1.00  0.00     0.173 A 
ATOM     88  C   UNL A   1      43.707  33.541  28.869  1.00  0.00     0.173 A 
ATOM     89  F   UNL A   1      40.843  35.785  28.815  1.00  0.00    -0.203 F 
ATOM     90  C   UNL A   1      42.844  35.854  27.585  1.00  0.00     0.198 A 
ATOM     91  C   UNL A   1      44.548  34.231  27.967  1.00  0.00     0.198 A 
ATOM     92  F   UNL A   1      44.260  32.552  29.588  1.00  0.00    -0.203 F 
ATOM     93  F   UNL A   1      42.457  37.017  27.034  1.00  0.00    -0.200 F 
ATOM     94  C   UNL A   1      44.136  35.410  27.368  1.00  0.00     0.200 A 
ATOM     95  F   UNL A   1      45.842  33.884  27.884  1.00  0.00    -0.200 F 
ATOM     96  F   UNL A   1      45.016  36.178  26.706  1.00  0.00    -0.200 F 
ENDBRANCH  62  86
BRANCH  74  97
ATOM     97  C   UNL A   1      44.081  36.889  36.361  1.00  0.00     0.064 A 
ATOM     98  C   UNL A   1      45.083  36.829  37.333  1.00  0.00     0.173 A 
ATOM     99  C   UNL A   1      43.861  38.204  35.830  1.00  0.00     0.173 A 
ATOM    100  F   UNL A   1      45.524  35.669  37.827  1.00  0.00    -0.203 F 
ATOM    101  C   UNL A   1      45.758  37.971  37.775  1.00  0.00     0.198 A 
ATOM    102  C   UNL A   1      44.615  39.312  36.191  1.00  0.00     0.198 A 
ATOM    103  F   UNL A   1      42.945  38.482  34.895  1.00  0.00    -0.203 F 
ATOM    104  F   UNL A   1      46.667  37.854  38.751  1.00  0.00    -0.200 F 
ATOM    105  C   UNL A   1      45.549  39.202  37.184  1.00  0.00     0.200 A 
ATOM    106  F   UNL A   1      44.447  40.469  35.533  1.00  0.00    -0.200 F 
ATOM    107  F   UNL A   1      46.264  40.271  37.554  1.00  0.00    -0.200 F 
ENDBRANCH  74  97
ENDBRANCH  48  49
ENDBRANCH  41  43
ENDBRANCH  40  41
ENDBRANCH  39  40
ENDBRANCH  38  39
ENDBRANCH  37  38
ENDBRANCH  36  37
ENDBRANCH  35  36
ENDBRANCH  34  35
ENDBRANCH   1  34
TORSDOF 26
ENDMDL
