MODEL 1
REMARK VINA RESULT:     -11.6      0.000      0.000
REMARK SMILES Cc1ccc([C@@H](C)Nc2ccc(N)cc2C(=O)OCCOCCOCCOCCOC(=O)c2ccc(-c3c4nc(c(-c5c(F)c(F)c(F)c(F)c5F)c5ccc([nH]5)c(-c5c(F)c(F)c(F)c(F)c5F)c5nc(c(-c6c(F)c(F)c(F)c(F)c6F)c6ccc3[nH]6)C=C5)C=C4)cc2)cc1F
REMARK SMILES IDX 23 1 22 2 21 3 20 4 19 5 18 6 16 7 17 8 15 9 9 10 10 11
REMARK SMILES IDX 11 12 14 13 12 14 8 15 6 17 7 18 5 19 1 20 2 21 3 22 97 23
REMARK SMILES IDX 4 24 96 25 98 26 13 27 24 30 25 31 26 32 27 33 28 34 29 35
REMARK SMILES IDX 30 36 31 37 32 38 33 39 34 40 95 41 35 42 94 43 36 44 37 45
REMARK SMILES IDX 38 46 88 47 39 48 93 49 87 50 89 51 40 52 92 53 86 54 85 55
REMARK SMILES IDX 41 57 73 58 53 59 72 60 54 61 57 62 71 63 90 64 55 65 56 66
REMARK SMILES IDX 70 68 91 69 58 70 42 71 43 72 51 73 44 74 45 75 49 76 52 77
REMARK SMILES IDX 46 78 47 79 50 80 48 81 74 82 75 83 83 84 76 85 77 86 81 87
REMARK SMILES IDX 84 88 78 89 79 90 82 91 80 92 59 93 60 94 68 95 61 96 62 97
REMARK SMILES IDX 66 98 69 99 63 100 64 101 67 102 65 103
REMARK H PARENT 8 16 13 28 13 29 89 56 57 67
REMARK Flexibility Score: inf
ROOT
ATOM      1  C   UNL A   1      33.329  32.980  27.626  1.00  0.00     0.188 C 
ENDROOT
BRANCH   1   2
ATOM      2  C   UNL A   1      33.975  31.672  28.127  1.00  0.00     0.188 C 
BRANCH   2   3
ATOM      3  O   UNL A   1      33.902  30.495  27.334  1.00  0.00    -0.376 OA
BRANCH   3   4
ATOM      4  C   UNL A   1      32.681  29.810  27.095  1.00  0.00     0.202 C 
BRANCH   4   5
ATOM      5  C   UNL A   1      32.615  28.287  27.190  1.00  0.00     0.261 C 
BRANCH   5   6
ATOM      6  O   UNL A   1      32.530  27.673  25.897  1.00  0.00    -0.460 OA
BRANCH   6   7
ATOM      7  C   UNL A   1      33.186  26.496  25.761  1.00  0.00     0.340 C 
ATOM      8  O   UNL A   1      34.397  26.352  25.734  1.00  0.00    -0.246 OA
BRANCH   7   9
ATOM      9  C   UNL A   1      32.250  25.365  25.935  1.00  0.00     0.085 A 
ATOM     10  C   UNL A   1      30.970  25.225  25.379  1.00  0.00     0.049 A 
ATOM     11  C   UNL A   1      30.328  23.992  25.678  1.00  0.00     0.029 A 
ATOM     12  C   UNL A   1      30.890  22.986  26.474  1.00  0.00     0.027 A 
ATOM     13  C   UNL A   1      32.814  24.340  26.747  1.00  0.00     0.043 A 
ATOM     14  C   UNL A   1      32.152  23.145  27.011  1.00  0.00     0.032 A 
BRANCH  10  15
ATOM     15  N   UNL A   1      30.227  26.054  24.576  1.00  0.00    -0.378 N 
ATOM     16  H   UNL A   1      29.408  26.327  25.050  1.00  0.00     0.161 HD
BRANCH  15  17
ATOM     17  C   UNL A   1      30.251  26.664  23.249  1.00  0.00     0.106 C 
ATOM     18  C   UNL A   1      31.517  26.486  22.432  1.00  0.00     0.036 C 
BRANCH  17  19
ATOM     19  C   UNL A   1      29.628  28.060  23.215  1.00  0.00    -0.023 A 
ATOM     20  C   UNL A   1      27.532  31.835  23.610  1.00  0.00     0.047 C 
ATOM     21  C   UNL A   1      28.261  30.539  23.463  1.00  0.00    -0.015 A 
ATOM     22  C   UNL A   1      27.631  29.442  22.874  1.00  0.00     0.007 A 
ATOM     23  C   UNL A   1      29.583  30.400  23.880  1.00  0.00     0.126 A 
ATOM     24  C   UNL A   1      28.302  28.219  22.765  1.00  0.00     0.006 A 
ATOM     25  C   UNL A   1      30.265  29.190  23.755  1.00  0.00     0.045 A 
ATOM     26  F   UNL A   1      30.211  31.433  24.461  1.00  0.00    -0.207 F 
ENDBRANCH  17  19
ENDBRANCH  15  17
ENDBRANCH  10  15
BRANCH  14  27
ATOM     27  N   UNL A   1      32.678  22.205  27.877  1.00  0.00    -0.399 N 
ATOM     28  H   UNL A   1      33.287  21.510  27.537  1.00  0.00     0.156 HD
ATOM     29  H   UNL A   1      32.443  22.230  28.832  1.00  0.00     0.156 HD
ENDBRANCH  14  27
ENDBRANCH   7   9
ENDBRANCH   6   7
ENDBRANCH   5   6
ENDBRANCH   4   5
ENDBRANCH   3   4
ENDBRANCH   2   3
ENDBRANCH   1   2
BRANCH   1  30
ATOM     30  O   UNL A   1      34.003  34.171  27.982  1.00  0.00    -0.377 OA
BRANCH  30  31
ATOM     31  C   UNL A   1      33.294  35.007  28.879  1.00  0.00     0.188 C 
BRANCH  31  32
ATOM     32  C   UNL A   1      33.833  34.949  30.323  1.00  0.00     0.188 C 
BRANCH  32  33
ATOM     33  O   UNL A   1      33.843  33.713  31.040  1.00  0.00    -0.376 OA
BRANCH  33  34
ATOM     34  C   UNL A   1      35.028  33.333  31.739  1.00  0.00     0.202 C 
BRANCH  34  35
ATOM     35  C   UNL A   1      36.236  33.192  30.798  1.00  0.00     0.261 C 
BRANCH  35  36
ATOM     36  O   UNL A   1      36.539  31.824  30.542  1.00  0.00    -0.460 OA
BRANCH  36  37
ATOM     37  C   UNL A   1      37.369  31.682  29.490  1.00  0.00     0.338 C 
ATOM     38  O   UNL A   1      38.034  32.530  28.919  1.00  0.00    -0.246 OA
BRANCH  37  39
ATOM     39  C   UNL A   1      37.333  30.298  29.020  1.00  0.00     0.060 A 
ATOM     40  C   UNL A   1      37.194  29.324  30.023  1.00  0.00     0.016 A 
ATOM     41  C   UNL A   1      38.011  30.084  27.827  1.00  0.00     0.016 A 
ATOM     42  C   UNL A   1      38.085  28.282  30.023  1.00  0.00     0.010 A 
ATOM     43  C   UNL A   1      38.911  29.060  27.834  1.00  0.00     0.010 A 
ATOM     44  C   UNL A   1      39.030  28.296  29.008  1.00  0.00    -0.014 A 
BRANCH  44  45
ATOM     45  C   UNL A   1      40.372  27.819  29.241  1.00  0.00     0.031 A 
ATOM     46  C   UNL A   1      40.739  26.499  28.758  1.00  0.00     0.074 A 
ATOM     47  C   UNL A   1      41.256  28.738  29.685  1.00  0.00     0.049 A 
ATOM     48  N   UNL A   1      41.832  25.903  29.059  1.00  0.00    -0.248 NA
ATOM     49  C   UNL A   1      39.852  25.713  27.914  1.00  0.00     0.031 C 
ATOM     50  C   UNL A   1      42.705  28.729  29.562  1.00  0.00     0.029 A 
ATOM     51  N   UNL A   1      40.979  29.843  30.508  1.00  0.00    -0.354 N 
ATOM     52  C   UNL A   1      41.944  24.832  28.209  1.00  0.00     0.074 A 
ATOM     53  C   UNL A   1      40.646  24.692  27.594  1.00  0.00     0.031 C 
ATOM     54  C   UNL A   1      43.217  29.598  30.450  1.00  0.00     0.029 A 
ATOM     55  C   UNL A   1      42.125  30.031  31.308  1.00  0.00     0.049 A 
ATOM     56  H   UNL A   1      40.152  30.376  30.524  1.00  0.00     0.167 HD
ATOM     57  C   UNL A   1      43.183  24.303  28.013  1.00  0.00     0.037 A 
ATOM     58  C   UNL A   1      42.050  29.760  32.646  1.00  0.00     0.037 A 
ATOM     59  C   UNL A   1      44.168  24.953  28.881  1.00  0.00     0.049 A 
ATOM     60  C   UNL A   1      42.881  28.565  33.091  1.00  0.00     0.074 A 
ATOM     61  C   UNL A   1      45.100  25.965  28.715  1.00  0.00     0.029 A 
ATOM     62  N   UNL A   1      43.999  24.830  30.247  1.00  0.00    -0.354 N 
ATOM     63  N   UNL A   1      43.502  27.747  32.286  1.00  0.00    -0.248 NA
ATOM     64  C   UNL A   1      43.004  28.158  34.490  1.00  0.00     0.031 C 
ATOM     65  C   UNL A   1      45.492  26.430  30.009  1.00  0.00     0.029 A 
ATOM     66  C   UNL A   1      44.805  25.694  30.957  1.00  0.00     0.049 A 
ATOM     67  H   UNL A   1      43.373  24.197  30.667  1.00  0.00     0.167 HD
ATOM     68  C   UNL A   1      44.053  26.718  33.001  1.00  0.00     0.074 A 
ATOM     69  C   UNL A   1      43.709  27.018  34.380  1.00  0.00     0.031 C 
ATOM     70  C   UNL A   1      44.715  25.678  32.408  1.00  0.00     0.037 A 
BRANCH  57  71
ATOM     71  C   UNL A   1      43.518  23.406  26.854  1.00  0.00     0.064 A 
ATOM     72  C   UNL A   1      43.102  22.060  26.853  1.00  0.00     0.173 A 
ATOM     73  C   UNL A   1      44.290  23.789  25.739  1.00  0.00     0.173 A 
ATOM     74  F   UNL A   1      42.282  21.582  27.798  1.00  0.00    -0.203 F 
ATOM     75  C   UNL A   1      43.519  21.150  25.881  1.00  0.00     0.198 A 
ATOM     76  C   UNL A   1      44.760  22.866  24.801  1.00  0.00     0.198 A 
ATOM     77  F   UNL A   1      44.564  25.075  25.489  1.00  0.00    -0.203 F 
ATOM     78  F   UNL A   1      43.088  19.883  25.933  1.00  0.00    -0.200 F 
ATOM     79  C   UNL A   1      44.379  21.543  24.877  1.00  0.00     0.200 A 
ATOM     80  F   UNL A   1      45.581  23.272  23.821  1.00  0.00    -0.200 F 
ATOM     81  F   UNL A   1      44.815  20.659  23.969  1.00  0.00    -0.200 F 
ENDBRANCH  57  71
BRANCH  58  82
ATOM     82  C   UNL A   1      40.733  30.142  33.237  1.00  0.00     0.064 A 
ATOM     83  C   UNL A   1      40.463  31.502  33.495  1.00  0.00     0.173 A 
ATOM     84  C   UNL A   1      39.643  29.264  33.222  1.00  0.00     0.173 A 
ATOM     85  F   UNL A   1      41.471  32.388  33.526  1.00  0.00    -0.203 F 
ATOM     86  C   UNL A   1      39.158  31.971  33.651  1.00  0.00     0.198 A 
ATOM     87  C   UNL A   1      38.338  29.736  33.372  1.00  0.00     0.198 A 
ATOM     88  F   UNL A   1      39.827  27.959  32.972  1.00  0.00    -0.203 F 
ATOM     89  F   UNL A   1      38.934  33.277  33.850  1.00  0.00    -0.200 F 
ATOM     90  C   UNL A   1      38.093  31.088  33.564  1.00  0.00     0.200 A 
ATOM     91  F   UNL A   1      37.307  28.884  33.268  1.00  0.00    -0.200 F 
ATOM     92  F   UNL A   1      36.831  31.533  33.651  1.00  0.00    -0.200 F 
ENDBRANCH  58  82
BRANCH  70  93
ATOM     93  C   UNL A   1      45.307  24.513  33.160  1.00  0.00     0.064 A 
ATOM     94  C   UNL A   1      44.554  23.392  33.533  1.00  0.00     0.173 A 
ATOM     95  C   UNL A   1      46.642  24.537  33.630  1.00  0.00     0.173 A 
ATOM     96  F   UNL A   1      43.253  23.303  33.222  1.00  0.00    -0.203 F 
ATOM     97  C   UNL A   1      45.117  22.338  34.261  1.00  0.00     0.198 A 
ATOM     98  C   UNL A   1      47.181  23.517  34.408  1.00  0.00     0.198 A 
ATOM     99  F   UNL A   1      47.486  25.533  33.327  1.00  0.00    -0.203 F 
ATOM    100  F   UNL A   1      44.380  21.253  34.534  1.00  0.00    -0.200 F 
ATOM    101  C   UNL A   1      46.425  22.405  34.704  1.00  0.00     0.200 A 
ATOM    102  F   UNL A   1      48.442  23.619  34.854  1.00  0.00    -0.200 F 
ATOM    103  F   UNL A   1      46.957  21.402  35.414  1.00  0.00    -0.200 F 
ENDBRANCH  70  93
ENDBRANCH  44  45
ENDBRANCH  37  39
ENDBRANCH  36  37
ENDBRANCH  35  36
ENDBRANCH  34  35
ENDBRANCH  33  34
ENDBRANCH  32  33
ENDBRANCH  31  32
ENDBRANCH  30  31
ENDBRANCH   1  30
TORSDOF 24
ENDMDL
MODEL 2
REMARK VINA RESULT:     -11.5      4.164     10.077
REMARK SMILES Cc1ccc([C@@H](C)Nc2ccc(N)cc2C(=O)OCCOCCOCCOCCOC(=O)c2ccc(-c3c4nc(c(-c5c(F)c(F)c(F)c(F)c5F)c5ccc([nH]5)c(-c5c(F)c(F)c(F)c(F)c5F)c5nc(c(-c6c(F)c(F)c(F)c(F)c6F)c6ccc3[nH]6)C=C5)C=C4)cc2)cc1F
REMARK SMILES IDX 23 1 22 2 21 3 20 4 19 5 18 6 16 7 17 8 15 9 9 10 10 11
REMARK SMILES IDX 11 12 14 13 12 14 8 15 6 17 7 18 5 19 1 20 2 21 3 22 97 23
REMARK SMILES IDX 4 24 96 25 98 26 13 27 24 30 25 31 26 32 27 33 28 34 29 35
REMARK SMILES IDX 30 36 31 37 32 38 33 39 34 40 95 41 35 42 94 43 36 44 37 45
REMARK SMILES IDX 38 46 88 47 39 48 93 49 87 50 89 51 40 52 92 53 86 54 85 55
REMARK SMILES IDX 41 57 73 58 53 59 72 60 54 61 57 62 71 63 90 64 55 65 56 66
REMARK SMILES IDX 70 68 91 69 58 70 42 71 43 72 51 73 44 74 45 75 49 76 52 77
REMARK SMILES IDX 46 78 47 79 50 80 48 81 74 82 75 83 83 84 76 85 77 86 81 87
REMARK SMILES IDX 84 88 78 89 79 90 82 91 80 92 59 93 60 94 68 95 61 96 62 97
REMARK SMILES IDX 66 98 69 99 63 100 64 101 67 102 65 103
REMARK H PARENT 8 16 13 28 13 29 89 56 57 67
REMARK Flexibility Score: inf
ROOT
ATOM      1  C   UNL A   1      34.855  22.428  26.652  1.00  0.00     0.188 C 
ENDROOT
BRANCH   1   2
ATOM      2  C   UNL A   1      33.926  21.782  27.701  1.00  0.00     0.188 C 
BRANCH   2   3
ATOM      3  O   UNL A   1      32.696  22.407  28.041  1.00  0.00    -0.376 OA
BRANCH   3   4
ATOM      4  C   UNL A   1      32.040  23.324  27.177  1.00  0.00     0.202 C 
BRANCH   4   5
ATOM      5  C   UNL A   1      30.543  23.197  26.904  1.00  0.00     0.261 C 
BRANCH   5   6
ATOM      6  O   UNL A   1      30.247  23.253  25.503  1.00  0.00    -0.460 OA
BRANCH   6   7
ATOM      7  C   UNL A   1      30.626  24.387  24.866  1.00  0.00     0.340 C 
ATOM      8  O   UNL A   1      30.428  25.525  25.257  1.00  0.00    -0.246 OA
BRANCH   7   9
ATOM      9  C   UNL A   1      31.567  24.069  23.771  1.00  0.00     0.085 A 
ATOM     10  C   UNL A   1      32.624  24.860  23.299  1.00  0.00     0.049 A 
ATOM     11  C   UNL A   1      33.399  24.258  22.270  1.00  0.00     0.029 A 
ATOM     12  C   UNL A   1      33.145  22.988  21.736  1.00  0.00     0.027 A 
ATOM     13  C   UNL A   1      31.312  22.780  23.221  1.00  0.00     0.043 A 
ATOM     14  C   UNL A   1      32.100  22.225  22.217  1.00  0.00     0.032 A 
BRANCH  10  15
ATOM     15  N   UNL A   1      33.065  26.108  23.663  1.00  0.00    -0.378 N 
ATOM     16  H   UNL A   1      32.777  26.769  22.993  1.00  0.00     0.161 HD
BRANCH  15  17
ATOM     17  C   UNL A   1      33.821  26.777  24.718  1.00  0.00     0.106 C 
ATOM     18  C   UNL A   1      34.288  25.921  25.881  1.00  0.00     0.036 C 
BRANCH  17  19
ATOM     19  C   UNL A   1      33.259  28.150  25.087  1.00  0.00    -0.023 A 
ATOM     20  C   UNL A   1      31.289  31.736  26.523  1.00  0.00     0.047 C 
ATOM     21  C   UNL A   1      31.975  30.507  26.020  1.00  0.00    -0.015 A 
ATOM     22  C   UNL A   1      31.352  29.692  25.076  1.00  0.00     0.007 A 
ATOM     23  C   UNL A   1      33.253  30.163  26.455  1.00  0.00     0.126 A 
ATOM     24  C   UNL A   1      31.980  28.524  24.629  1.00  0.00     0.006 A 
ATOM     25  C   UNL A   1      33.895  29.012  25.997  1.00  0.00     0.045 A 
ATOM     26  F   UNL A   1      33.873  30.921  27.371  1.00  0.00    -0.207 F 
ENDBRANCH  17  19
ENDBRANCH  15  17
ENDBRANCH  10  15
BRANCH  14  27
ATOM     27  N   UNL A   1      31.778  21.015  21.633  1.00  0.00    -0.399 N 
ATOM     28  H   UNL A   1      32.096  20.175  22.036  1.00  0.00     0.156 HD
ATOM     29  H   UNL A   1      31.231  20.993  20.815  1.00  0.00     0.156 HD
ENDBRANCH  14  27
ENDBRANCH   7   9
ENDBRANCH   6   7
ENDBRANCH   5   6
ENDBRANCH   4   5
ENDBRANCH   3   4
ENDBRANCH   2   3
ENDBRANCH   1   2
BRANCH   1  30
ATOM     30  O   UNL A   1      35.771  21.554  26.025  1.00  0.00    -0.377 OA
BRANCH  30  31
ATOM     31  C   UNL A   1      36.808  22.200  25.308  1.00  0.00     0.188 C 
BRANCH  31  32
ATOM     32  C   UNL A   1      38.173  21.495  25.441  1.00  0.00     0.188 C 
BRANCH  32  33
ATOM     33  O   UNL A   1      39.148  21.981  26.368  1.00  0.00    -0.376 OA
BRANCH  33  34
ATOM     34  C   UNL A   1      40.416  21.329  26.435  1.00  0.00     0.202 C 
BRANCH  34  35
ATOM     35  C   UNL A   1      41.459  22.168  27.193  1.00  0.00     0.261 C 
BRANCH  35  36
ATOM     36  O   UNL A   1      40.837  23.128  28.041  1.00  0.00    -0.460 OA
BRANCH  36  37
ATOM     37  C   UNL A   1      41.305  24.372  27.819  1.00  0.00     0.338 C 
ATOM     38  O   UNL A   1      42.451  24.784  27.891  1.00  0.00    -0.246 OA
BRANCH  37  39
ATOM     39  C   UNL A   1      40.190  25.270  27.524  1.00  0.00     0.060 A 
ATOM     40  C   UNL A   1      40.438  26.235  26.533  1.00  0.00     0.016 A 
ATOM     41  C   UNL A   1      39.319  25.465  28.587  1.00  0.00     0.016 A 
ATOM     42  C   UNL A   1      40.146  27.542  26.832  1.00  0.00     0.010 A 
ATOM     43  C   UNL A   1      39.044  26.764  28.897  1.00  0.00     0.010 A 
ATOM     44  C   UNL A   1      39.614  27.767  28.094  1.00  0.00    -0.014 A 
BRANCH  44  45
ATOM     45  C   UNL A   1      39.936  28.967  28.827  1.00  0.00     0.031 A 
ATOM     46  C   UNL A   1      38.932  30.012  28.934  1.00  0.00     0.074 A 
ATOM     47  C   UNL A   1      41.068  28.924  29.562  1.00  0.00     0.049 A 
ATOM     48  N   UNL A   1      39.162  31.183  29.401  1.00  0.00    -0.248 NA
ATOM     49  C   UNL A   1      37.570  29.822  28.463  1.00  0.00     0.031 C 
ATOM     50  C   UNL A   1      41.416  29.715  30.732  1.00  0.00     0.029 A 
ATOM     51  N   UNL A   1      42.238  28.204  29.264  1.00  0.00    -0.354 N 
ATOM     52  C   UNL A   1      37.940  31.775  29.600  1.00  0.00     0.074 A 
ATOM     53  C   UNL A   1      36.991  30.939  28.905  1.00  0.00     0.031 C 
ATOM     54  C   UNL A   1      42.744  29.643  30.920  1.00  0.00     0.029 A 
ATOM     55  C   UNL A   1      43.308  28.977  29.757  1.00  0.00     0.049 A 
ATOM     56  H   UNL A   1      42.297  27.336  28.803  1.00  0.00     0.167 HD
ATOM     57  C   UNL A   1      37.873  32.814  30.476  1.00  0.00     0.037 A 
ATOM     58  C   UNL A   1      44.155  29.578  28.866  1.00  0.00     0.037 A 
ATOM     59  C   UNL A   1      39.209  33.170  30.962  1.00  0.00     0.049 A 
ATOM     60  C   UNL A   1      44.075  31.098  28.854  1.00  0.00     0.074 A 
ATOM     61  C   UNL A   1      39.941  32.884  32.103  1.00  0.00     0.029 A 
ATOM     62  N   UNL A   1      40.131  33.615  30.035  1.00  0.00    -0.354 N 
ATOM     63  N   UNL A   1      43.188  31.804  29.501  1.00  0.00    -0.248 NA
ATOM     64  C   UNL A   1      44.952  31.935  28.036  1.00  0.00     0.031 C 
ATOM     65  C   UNL A   1      41.315  33.182  31.839  1.00  0.00     0.029 A 
ATOM     66  C   UNL A   1      41.411  33.656  30.544  1.00  0.00     0.049 A 
ATOM     67  H   UNL A   1      39.900  33.874  29.114  1.00  0.00     0.167 HD
ATOM     68  C   UNL A   1      43.322  33.128  29.180  1.00  0.00     0.074 A 
ATOM     69  C   UNL A   1      44.440  33.159  28.253  1.00  0.00     0.031 C 
ATOM     70  C   UNL A   1      42.484  34.094  29.665  1.00  0.00     0.037 A 
BRANCH  57  71
ATOM     71  C   UNL A   1      36.582  33.300  31.074  1.00  0.00     0.064 A 
ATOM     72  C   UNL A   1      35.636  33.970  30.274  1.00  0.00     0.173 A 
ATOM     73  C   UNL A   1      36.236  33.189  32.435  1.00  0.00     0.173 A 
ATOM     74  F   UNL A   1      35.784  34.064  28.947  1.00  0.00    -0.203 F 
ATOM     75  C   UNL A   1      34.499  34.575  30.811  1.00  0.00     0.198 A 
ATOM     76  C   UNL A   1      35.133  33.849  32.984  1.00  0.00     0.198 A 
ATOM     77  F   UNL A   1      36.919  32.392  33.267  1.00  0.00    -0.203 F 
ATOM     78  F   UNL A   1      33.634  35.197  29.998  1.00  0.00    -0.200 F 
ATOM     79  C   UNL A   1      34.268  34.549  32.170  1.00  0.00     0.200 A 
ATOM     80  F   UNL A   1      34.915  33.795  34.306  1.00  0.00    -0.200 F 
ATOM     81  F   UNL A   1      33.199  35.169  32.691  1.00  0.00    -0.200 F 
ENDBRANCH  57  71
BRANCH  58  82
ATOM     82  C   UNL A   1      44.418  28.735  27.663  1.00  0.00     0.064 A 
ATOM     83  C   UNL A   1      45.313  27.650  27.765  1.00  0.00     0.173 A 
ATOM     84  C   UNL A   1      43.564  28.759  26.554  1.00  0.00     0.173 A 
ATOM     85  F   UNL A   1      46.158  27.578  28.806  1.00  0.00    -0.203 F 
ATOM     86  C   UNL A   1      45.301  26.603  26.842  1.00  0.00     0.198 A 
ATOM     87  C   UNL A   1      43.548  27.706  25.636  1.00  0.00     0.198 A 
ATOM     88  F   UNL A   1      42.679  29.755  26.401  1.00  0.00    -0.203 F 
ATOM     89  F   UNL A   1      46.135  25.565  26.995  1.00  0.00    -0.200 F 
ATOM     90  C   UNL A   1      44.398  26.621  25.791  1.00  0.00     0.200 A 
ATOM     91  F   UNL A   1      42.661  27.716  24.630  1.00  0.00    -0.200 F 
ATOM     92  F   UNL A   1      44.332  25.593  24.933  1.00  0.00    -0.200 F 
ENDBRANCH  58  82
BRANCH  70  93
ATOM     93  C   UNL A   1      42.581  35.555  29.310  1.00  0.00     0.064 A 
ATOM     94  C   UNL A   1      42.048  36.084  28.127  1.00  0.00     0.173 A 
ATOM     95  C   UNL A   1      43.320  36.463  30.107  1.00  0.00     0.173 A 
ATOM     96  F   UNL A   1      41.407  35.298  27.251  1.00  0.00    -0.203 F 
ATOM     97  C   UNL A   1      42.181  37.438  27.802  1.00  0.00     0.198 A 
ATOM     98  C   UNL A   1      43.506  37.795  29.750  1.00  0.00     0.198 A 
ATOM     99  F   UNL A   1      43.863  36.104  31.279  1.00  0.00    -0.203 F 
ATOM    100  F   UNL A   1      41.593  37.916  26.697  1.00  0.00    -0.200 F 
ATOM    101  C   UNL A   1      42.916  38.289  28.608  1.00  0.00     0.200 A 
ATOM    102  F   UNL A   1      44.249  38.593  30.530  1.00  0.00    -0.200 F 
ATOM    103  F   UNL A   1      43.054  39.582  28.287  1.00  0.00    -0.200 F 
ENDBRANCH  70  93
ENDBRANCH  44  45
ENDBRANCH  37  39
ENDBRANCH  36  37
ENDBRANCH  35  36
ENDBRANCH  34  35
ENDBRANCH  33  34
ENDBRANCH  32  33
ENDBRANCH  31  32
ENDBRANCH  30  31
ENDBRANCH   1  30
TORSDOF 24
ENDMDL
MODEL 3
REMARK VINA RESULT:     -11.5      4.075     10.125
REMARK SMILES Cc1ccc([C@@H](C)Nc2ccc(N)cc2C(=O)OCCOCCOCCOCCOC(=O)c2ccc(-c3c4nc(c(-c5c(F)c(F)c(F)c(F)c5F)c5ccc([nH]5)c(-c5c(F)c(F)c(F)c(F)c5F)c5nc(c(-c6c(F)c(F)c(F)c(F)c6F)c6ccc3[nH]6)C=C5)C=C4)cc2)cc1F
REMARK SMILES IDX 23 1 22 2 21 3 20 4 19 5 18 6 16 7 17 8 15 9 9 10 10 11
REMARK SMILES IDX 11 12 14 13 12 14 8 15 6 17 7 18 5 19 1 20 2 21 3 22 97 23
REMARK SMILES IDX 4 24 96 25 98 26 13 27 24 30 25 31 26 32 27 33 28 34 29 35
REMARK SMILES IDX 30 36 31 37 32 38 33 39 34 40 95 41 35 42 94 43 36 44 37 45
REMARK SMILES IDX 38 46 88 47 39 48 93 49 87 50 89 51 40 52 92 53 86 54 85 55
REMARK SMILES IDX 41 57 73 58 53 59 72 60 54 61 57 62 71 63 90 64 55 65 56 66
REMARK SMILES IDX 70 68 91 69 58 70 42 71 43 72 51 73 44 74 45 75 49 76 52 77
REMARK SMILES IDX 46 78 47 79 50 80 48 81 74 82 75 83 83 84 76 85 77 86 81 87
REMARK SMILES IDX 84 88 78 89 79 90 82 91 80 92 59 93 60 94 68 95 61 96 62 97
REMARK SMILES IDX 66 98 69 99 63 100 64 101 67 102 65 103
REMARK H PARENT 8 16 13 28 13 29 89 56 57 67
REMARK Flexibility Score: inf
ROOT
ATOM      1  C   UNL A   1      34.743  22.168  26.285  1.00  0.00     0.188 C 
ENDROOT
BRANCH   1   2
ATOM      2  C   UNL A   1      33.623  23.150  26.686  1.00  0.00     0.188 C 
BRANCH   2   3
ATOM      3  O   UNL A   1      32.308  22.668  26.924  1.00  0.00    -0.376 OA
BRANCH   3   4
ATOM      4  C   UNL A   1      31.153  23.476  26.741  1.00  0.00     0.202 C 
BRANCH   4   5
ATOM      5  C   UNL A   1      31.279  24.896  26.194  1.00  0.00     0.261 C 
BRANCH   5   6
ATOM      6  O   UNL A   1      30.088  25.316  25.515  1.00  0.00    -0.460 OA
BRANCH   6   7
ATOM      7  C   UNL A   1      30.176  25.390  24.165  1.00  0.00     0.340 C 
ATOM      8  O   UNL A   1      30.283  24.444  23.404  1.00  0.00    -0.246 OA
BRANCH   7   9
ATOM      9  C   UNL A   1      29.835  26.753  23.705  1.00  0.00     0.085 A 
ATOM     10  C   UNL A   1      30.722  27.769  23.320  1.00  0.00     0.049 A 
ATOM     11  C   UNL A   1      30.094  28.960  22.863  1.00  0.00     0.029 A 
ATOM     12  C   UNL A   1      28.707  29.145  22.806  1.00  0.00     0.027 A 
ATOM     13  C   UNL A   1      28.426  26.950  23.649  1.00  0.00     0.043 A 
ATOM     14  C   UNL A   1      27.852  28.131  23.190  1.00  0.00     0.032 A 
BRANCH  10  15
ATOM     15  N   UNL A   1      32.093  27.819  23.281  1.00  0.00    -0.378 N 
ATOM     16  H   UNL A   1      32.391  28.023  22.365  1.00  0.00     0.161 HD
BRANCH  15  17
ATOM     17  C   UNL A   1      33.256  27.670  24.152  1.00  0.00     0.106 C 
ATOM     18  C   UNL A   1      33.682  26.255  24.496  1.00  0.00     0.036 C 
BRANCH  17  19
ATOM     19  C   UNL A   1      33.278  28.671  25.308  1.00  0.00    -0.023 A 
ATOM     20  C   UNL A   1      33.710  31.853  28.221  1.00  0.00     0.047 C 
ATOM     21  C   UNL A   1      33.554  30.749  27.226  1.00  0.00    -0.015 A 
ATOM     22  C   UNL A   1      34.572  29.812  27.051  1.00  0.00     0.007 A 
ATOM     23  C   UNL A   1      32.388  30.612  26.474  1.00  0.00     0.126 A 
ATOM     24  C   UNL A   1      34.439  28.798  26.096  1.00  0.00     0.006 A 
ATOM     25  C   UNL A   1      32.241  29.590  25.536  1.00  0.00     0.045 A 
ATOM     26  F   UNL A   1      31.397  31.505  26.612  1.00  0.00    -0.207 F 
ENDBRANCH  17  19
ENDBRANCH  15  17
ENDBRANCH  10  15
BRANCH  14  27
ATOM     27  N   UNL A   1      26.485  28.333  23.233  1.00  0.00    -0.399 N 
ATOM     28  H   UNL A   1      25.875  27.641  22.891  1.00  0.00     0.156 HD
ATOM     29  H   UNL A   1      26.123  29.170  23.604  1.00  0.00     0.156 HD
ENDBRANCH  14  27
ENDBRANCH   7   9
ENDBRANCH   6   7
ENDBRANCH   5   6
ENDBRANCH   4   5
ENDBRANCH   3   4
ENDBRANCH   2   3
ENDBRANCH   1   2
BRANCH   1  30
ATOM     30  O   UNL A   1      35.992  22.755  25.980  1.00  0.00    -0.377 OA
BRANCH  30  31
ATOM     31  C   UNL A   1      37.033  21.830  25.723  1.00  0.00     0.188 C 
BRANCH  31  32
ATOM     32  C   UNL A   1      38.441  22.452  25.826  1.00  0.00     0.188 C 
BRANCH  32  33
ATOM     33  O   UNL A   1      39.580  21.622  26.065  1.00  0.00    -0.376 OA
BRANCH  33  34
ATOM     34  C   UNL A   1      40.394  21.884  27.208  1.00  0.00     0.202 C 
BRANCH  34  35
ATOM     35  C   UNL A   1      41.781  22.423  26.822  1.00  0.00     0.261 C 
BRANCH  35  36
ATOM     36  O   UNL A   1      41.736  23.818  26.538  1.00  0.00    -0.460 OA
BRANCH  36  37
ATOM     37  C   UNL A   1      41.577  24.553  27.656  1.00  0.00     0.338 C 
ATOM     38  O   UNL A   1      42.239  24.544  28.680  1.00  0.00    -0.246 OA
BRANCH  37  39
ATOM     39  C   UNL A   1      40.381  25.385  27.530  1.00  0.00     0.060 A 
ATOM     40  C   UNL A   1      40.438  26.376  26.537  1.00  0.00     0.016 A 
ATOM     41  C   UNL A   1      39.650  25.512  28.704  1.00  0.00     0.016 A 
ATOM     42  C   UNL A   1      40.112  27.658  26.899  1.00  0.00     0.010 A 
ATOM     43  C   UNL A   1      39.343  26.788  29.074  1.00  0.00     0.010 A 
ATOM     44  C   UNL A   1      39.741  27.835  28.224  1.00  0.00    -0.014 A 
BRANCH  44  45
ATOM     45  C   UNL A   1      40.086  29.042  28.934  1.00  0.00     0.031 A 
ATOM     46  C   UNL A   1      39.088  30.090  29.060  1.00  0.00     0.074 A 
ATOM     47  C   UNL A   1      41.241  29.006  29.633  1.00  0.00     0.049 A 
ATOM     48  N   UNL A   1      39.333  31.266  29.505  1.00  0.00    -0.248 NA
ATOM     49  C   UNL A   1      37.711  29.897  28.634  1.00  0.00     0.031 C 
ATOM     50  C   UNL A   1      41.626  29.810  30.783  1.00  0.00     0.029 A 
ATOM     51  N   UNL A   1      42.400  28.281  29.307  1.00  0.00    -0.354 N 
ATOM     52  C   UNL A   1      38.119  31.861  29.735  1.00  0.00     0.074 A 
ATOM     53  C   UNL A   1      37.148  31.019  29.080  1.00  0.00     0.031 C 
ATOM     54  C   UNL A   1      42.959  29.738  30.930  1.00  0.00     0.029 A 
ATOM     55  C   UNL A   1      43.486  29.058  29.757  1.00  0.00     0.049 A 
ATOM     56  H   UNL A   1      42.444  27.407  28.855  1.00  0.00     0.167 HD
ATOM     57  C   UNL A   1      38.080  32.911  30.602  1.00  0.00     0.037 A 
ATOM     58  C   UNL A   1      44.306  29.647  28.834  1.00  0.00     0.037 A 
ATOM     59  C   UNL A   1      39.431  33.270  31.042  1.00  0.00     0.049 A 
ATOM     60  C   UNL A   1      44.227  31.167  28.807  1.00  0.00     0.074 A 
ATOM     61  C   UNL A   1      40.198  32.996  32.163  1.00  0.00     0.029 A 
ATOM     62  N   UNL A   1      40.324  33.703  30.081  1.00  0.00    -0.354 N 
ATOM     63  N   UNL A   1      43.361  31.882  29.473  1.00  0.00    -0.248 NA
ATOM     64  C   UNL A   1      45.079  31.993  27.953  1.00  0.00     0.031 C 
ATOM     65  C   UNL A   1      41.563  33.289  31.853  1.00  0.00     0.029 A 
ATOM     66  C   UNL A   1      41.620  33.748  30.550  1.00  0.00     0.049 A 
ATOM     67  H   UNL A   1      40.066  33.952  29.165  1.00  0.00     0.167 HD
ATOM     68  C   UNL A   1      43.487  33.202  29.133  1.00  0.00     0.074 A 
ATOM     69  C   UNL A   1      44.575  33.221  28.172  1.00  0.00     0.031 C 
ATOM     70  C   UNL A   1      42.665  34.174  29.633  1.00  0.00     0.037 A 
BRANCH  57  71
ATOM     71  C   UNL A   1      36.809  33.406  31.234  1.00  0.00     0.064 A 
ATOM     72  C   UNL A   1      36.568  33.194  32.606  1.00  0.00     0.173 A 
ATOM     73  C   UNL A   1      35.765  34.047  30.540  1.00  0.00     0.173 A 
ATOM     74  F   UNL A   1      37.510  32.685  33.410  1.00  0.00    -0.203 F 
ATOM     75  C   UNL A   1      35.343  33.493  33.203  1.00  0.00     0.198 A 
ATOM     76  C   UNL A   1      34.517  34.287  31.121  1.00  0.00     0.198 A 
ATOM     77  F   UNL A   1      35.935  34.514  29.297  1.00  0.00    -0.203 F 
ATOM     78  F   UNL A   1      35.175  33.270  34.514  1.00  0.00    -0.200 F 
ATOM     79  C   UNL A   1      34.304  34.003  32.454  1.00  0.00     0.200 A 
ATOM     80  F   UNL A   1      33.525  34.802  30.379  1.00  0.00    -0.200 F 
ATOM     81  F   UNL A   1      33.114  34.248  33.018  1.00  0.00    -0.200 F 
ENDBRANCH  57  71
BRANCH  58  82
ATOM     82  C   UNL A   1      44.530  28.790  27.633  1.00  0.00     0.064 A 
ATOM     83  C   UNL A   1      45.428  27.706  27.719  1.00  0.00     0.173 A 
ATOM     84  C   UNL A   1      43.641  28.802  26.552  1.00  0.00     0.173 A 
ATOM     85  F   UNL A   1      46.305  27.646  28.733  1.00  0.00    -0.203 F 
ATOM     86  C   UNL A   1      45.386  26.648  26.810  1.00  0.00     0.198 A 
ATOM     87  C   UNL A   1      43.596  27.738  25.647  1.00  0.00     0.198 A 
ATOM     88  F   UNL A   1      42.752  29.796  26.415  1.00  0.00    -0.203 F 
ATOM     89  F   UNL A   1      46.225  25.612  26.948  1.00  0.00    -0.200 F 
ATOM     90  C   UNL A   1      44.450  26.654  25.788  1.00  0.00     0.200 A 
ATOM     91  F   UNL A   1      42.677  27.737  24.670  1.00  0.00    -0.200 F 
ATOM     92  F   UNL A   1      44.357  25.616  24.944  1.00  0.00    -0.200 F 
ENDBRANCH  58  82
BRANCH  70  93
ATOM     93  C   UNL A   1      42.753  35.632  29.259  1.00  0.00     0.064 A 
ATOM     94  C   UNL A   1      42.204  36.144  28.075  1.00  0.00     0.173 A 
ATOM     95  C   UNL A   1      43.499  36.552  30.035  1.00  0.00     0.173 A 
ATOM     96  F   UNL A   1      41.555  35.345  27.217  1.00  0.00    -0.203 F 
ATOM     97  C   UNL A   1      42.328  37.494  27.732  1.00  0.00     0.198 A 
ATOM     98  C   UNL A   1      43.675  37.879  29.658  1.00  0.00     0.198 A 
ATOM     99  F   UNL A   1      44.057  36.209  31.204  1.00  0.00    -0.203 F 
ATOM    100  F   UNL A   1      41.725  37.956  26.628  1.00  0.00    -0.200 F 
ATOM    101  C   UNL A   1      43.070  38.357  28.518  1.00  0.00     0.200 A 
ATOM    102  F   UNL A   1      44.425  38.690  30.419  1.00  0.00    -0.200 F 
ATOM    103  F   UNL A   1      43.200  39.647  28.179  1.00  0.00    -0.200 F 
ENDBRANCH  70  93
ENDBRANCH  44  45
ENDBRANCH  37  39
ENDBRANCH  36  37
ENDBRANCH  35  36
ENDBRANCH  34  35
ENDBRANCH  33  34
ENDBRANCH  32  33
ENDBRANCH  31  32
ENDBRANCH  30  31
ENDBRANCH   1  30
TORSDOF 24
ENDMDL
