MODEL 1
REMARK VINA RESULT:     -10.6      0.000      0.000
REMARK SMILES CC[C@H]1SC[C@H](C(=O)OCCOCCOCCOCCOC(=O)c2ccc(-c3c4nc(c(-c5c(F)c(F)c(F)c(F)c5F)c5ccc([nH]5)c(-c5c(F)c(F)c(F)c(F)c5F)c5nc(c(-c6c(F)c(F)c(F)c(F)c6F)c6ccc3[nH]6)C=C5)C=C4)cc2)N1C(=O)c1ccc(F)c(F)c1F
REMARK SMILES IDX 15 1 14 2 13 3 12 4 11 5 10 6 9 7 7 8 8 9 6 10 3 11 4 12
REMARK SMILES IDX 87 13 5 14 2 15 1 16 88 17 89 18 90 19 91 20 97 21 92 22
REMARK SMILES IDX 95 23 98 24 93 25 96 26 94 27 16 28 17 29 18 30 19 31 20 32
REMARK SMILES IDX 21 33 22 34 23 35 24 36 25 37 86 38 26 39 85 40 27 41 28 42
REMARK SMILES IDX 29 43 79 44 30 45 84 46 78 47 80 48 31 49 83 50 77 51 76 52
REMARK SMILES IDX 32 54 64 55 44 56 63 57 45 58 48 59 62 60 81 61 46 62 47 63
REMARK SMILES IDX 61 65 82 66 49 67 33 68 34 69 42 70 35 71 36 72 40 73 43 74
REMARK SMILES IDX 37 75 38 76 41 77 39 78 65 79 66 80 74 81 67 82 68 83 72 84
REMARK SMILES IDX 75 85 69 86 70 87 73 88 71 89 50 90 51 91 59 92 52 93 53 94
REMARK SMILES IDX 57 95 60 96 54 97 55 98 58 99 56 100
REMARK H PARENT 80 53 48 64
REMARK Flexibility Score: inf
ROOT
ATOM      1  O   UNL A   1      33.890  21.803  24.401  1.00  0.00    -0.377 OA
ENDROOT
BRANCH   1   2
ATOM      2  C   UNL A   1      32.713  21.423  23.702  1.00  0.00     0.188 C 
BRANCH   2   3
ATOM      3  C   UNL A   1      31.774  22.504  23.129  1.00  0.00     0.188 C 
BRANCH   3   4
ATOM      4  O   UNL A   1      31.234  23.350  24.136  1.00  0.00    -0.376 OA
BRANCH   4   5
ATOM      5  C   UNL A   1      30.820  22.762  25.357  1.00  0.00     0.202 C 
BRANCH   5   6
ATOM      6  C   UNL A   1      30.615  23.693  26.563  1.00  0.00     0.261 C 
BRANCH   6   7
ATOM      7  O   UNL A   1      30.560  25.114  26.335  1.00  0.00    -0.462 OA
BRANCH   7   8
ATOM      8  C   UNL A   1      31.704  25.844  26.388  1.00  0.00     0.329 C 
ATOM      9  O   UNL A   1      32.832  25.374  26.286  1.00  0.00    -0.250 OA
BRANCH   8  10
ATOM     10  C   UNL A   1      31.430  27.361  26.412  1.00  0.00     0.206 C 
ATOM     11  C   UNL A   1      32.608  29.371  25.579  1.00  0.00     0.144 C 
ATOM     12  S   UNL A   1      33.368  29.038  27.186  1.00  0.00    -0.134 SA
ATOM     13  N   UNL A   1      31.948  28.107  25.250  1.00  0.00    -0.312 N 
ATOM     14  C   UNL A   1      31.997  27.966  27.699  1.00  0.00     0.109 C 
BRANCH  11  15
ATOM     15  C   UNL A   1      31.613  30.564  25.594  1.00  0.00     0.033 C 
ATOM     16  C   UNL A   1      31.684  31.573  26.745  1.00  0.00     0.007 C 
ENDBRANCH  11  15
BRANCH  13  17
ATOM     17  C   UNL A   1      31.540  27.647  24.008  1.00  0.00     0.258 C 
ATOM     18  O   UNL A   1      32.094  26.688  23.467  1.00  0.00    -0.269 OA
BRANCH  17  19
ATOM     19  C   UNL A   1      30.429  28.246  23.255  1.00  0.00     0.079 A 
ATOM     20  C   UNL A   1      30.750  29.327  22.417  1.00  0.00     0.020 A 
ATOM     21  C   UNL A   1      29.092  27.926  23.484  1.00  0.00     0.174 A 
ATOM     22  C   UNL A   1      29.742  30.047  21.776  1.00  0.00     0.043 A 
ATOM     23  C   UNL A   1      28.088  28.635  22.831  1.00  0.00     0.195 A 
ATOM     24  F   UNL A   1      28.749  26.976  24.365  1.00  0.00    -0.203 F 
ATOM     25  C   UNL A   1      28.415  29.687  21.981  1.00  0.00     0.161 A 
ATOM     26  F   UNL A   1      26.802  28.320  23.039  1.00  0.00    -0.200 F 
ATOM     27  F   UNL A   1      27.449  30.383  21.367  1.00  0.00    -0.204 F 
ENDBRANCH  17  19
ENDBRANCH  13  17
ENDBRANCH   8  10
ENDBRANCH   7   8
ENDBRANCH   6   7
ENDBRANCH   5   6
ENDBRANCH   4   5
ENDBRANCH   3   4
ENDBRANCH   2   3
ENDBRANCH   1   2
BRANCH   1  28
ATOM     28  C   UNL A   1      34.351  20.886  25.377  1.00  0.00     0.188 C 
BRANCH  28  29
ATOM     29  C   UNL A   1      35.713  20.284  24.988  1.00  0.00     0.188 C 
BRANCH  29  30
ATOM     30  O   UNL A   1      36.812  21.127  25.279  1.00  0.00    -0.376 OA
BRANCH  30  31
ATOM     31  C   UNL A   1      38.147  20.680  25.109  1.00  0.00     0.202 C 
BRANCH  31  32
ATOM     32  C   UNL A   1      39.341  21.040  26.021  1.00  0.00     0.261 C 
BRANCH  32  33
ATOM     33  O   UNL A   1      40.086  19.989  26.639  1.00  0.00    -0.460 OA
BRANCH  33  34
ATOM     34  C   UNL A   1      41.359  19.791  26.261  1.00  0.00     0.338 C 
ATOM     35  O   UNL A   1      41.806  18.866  25.606  1.00  0.00    -0.246 OA
BRANCH  34  36
ATOM     36  C   UNL A   1      42.094  21.029  26.603  1.00  0.00     0.060 A 
ATOM     37  C   UNL A   1      42.226  21.377  27.954  1.00  0.00     0.016 A 
ATOM     38  C   UNL A   1      42.706  21.799  25.610  1.00  0.00     0.016 A 
ATOM     39  C   UNL A   1      42.967  22.498  28.318  1.00  0.00     0.010 A 
ATOM     40  C   UNL A   1      43.404  22.954  25.970  1.00  0.00     0.010 A 
ATOM     41  C   UNL A   1      43.513  23.319  27.324  1.00  0.00    -0.014 A 
BRANCH  41  42
ATOM     42  C   UNL A   1      43.969  24.677  27.692  1.00  0.00     0.031 A 
ATOM     43  C   UNL A   1      42.918  25.690  28.045  1.00  0.00     0.074 A 
ATOM     44  C   UNL A   1      45.273  24.995  27.740  1.00  0.00     0.049 A 
ATOM     45  N   UNL A   1      43.045  26.955  28.344  1.00  0.00    -0.248 NA
ATOM     46  C   UNL A   1      41.528  25.201  28.062  1.00  0.00     0.031 C 
ATOM     47  C   UNL A   1      46.378  24.079  27.478  1.00  0.00     0.029 A 
ATOM     48  N   UNL A   1      45.882  26.193  28.021  1.00  0.00    -0.354 N 
ATOM     49  C   UNL A   1      41.756  27.414  28.574  1.00  0.00     0.074 A 
ATOM     50  C   UNL A   1      40.858  26.302  28.361  1.00  0.00     0.031 C 
ATOM     51  C   UNL A   1      47.536  24.755  27.584  1.00  0.00     0.029 A 
ATOM     52  C   UNL A   1      47.247  26.157  27.886  1.00  0.00     0.049 A 
ATOM     53  H   UNL A   1      45.388  26.999  28.294  1.00  0.00     0.167 HD
ATOM     54  C   UNL A   1      41.358  28.657  28.932  1.00  0.00     0.037 A 
ATOM     55  C   UNL A   1      48.150  27.155  27.960  1.00  0.00     0.037 A 
ATOM     56  C   UNL A   1      42.259  29.758  29.133  1.00  0.00     0.049 A 
ATOM     57  C   UNL A   1      47.673  28.555  28.268  1.00  0.00     0.074 A 
ATOM     58  C   UNL A   1      41.965  31.053  29.522  1.00  0.00     0.029 A 
ATOM     59  N   UNL A   1      43.632  29.698  28.942  1.00  0.00    -0.354 N 
ATOM     60  N   UNL A   1      46.459  28.982  28.517  1.00  0.00    -0.248 NA
ATOM     61  C   UNL A   1      48.695  29.612  28.301  1.00  0.00     0.031 C 
ATOM     62  C   UNL A   1      43.151  31.792  29.498  1.00  0.00     0.029 A 
ATOM     63  C   UNL A   1      44.195  30.944  29.161  1.00  0.00     0.049 A 
ATOM     64  H   UNL A   1      44.132  28.889  28.688  1.00  0.00     0.167 HD
ATOM     65  C   UNL A   1      46.570  30.346  28.753  1.00  0.00     0.074 A 
ATOM     66  C   UNL A   1      47.976  30.673  28.639  1.00  0.00     0.031 C 
ATOM     67  C   UNL A   1      45.598  31.249  29.038  1.00  0.00     0.037 A 
BRANCH  54  68
ATOM     68  C   UNL A   1      39.884  28.896  29.078  1.00  0.00     0.064 A 
ATOM     69  C   UNL A   1      39.086  29.301  27.998  1.00  0.00     0.173 A 
ATOM     70  C   UNL A   1      39.260  28.702  30.319  1.00  0.00     0.173 A 
ATOM     71  F   UNL A   1      39.637  29.519  26.795  1.00  0.00    -0.203 F 
ATOM     72  C   UNL A   1      37.722  29.529  28.163  1.00  0.00     0.198 A 
ATOM     73  C   UNL A   1      37.891  28.899  30.472  1.00  0.00     0.198 A 
ATOM     74  F   UNL A   1      39.978  28.318  31.386  1.00  0.00    -0.203 F 
ATOM     75  F   UNL A   1      36.989  29.967  27.130  1.00  0.00    -0.200 F 
ATOM     76  C   UNL A   1      37.124  29.321  29.396  1.00  0.00     0.200 A 
ATOM     77  F   UNL A   1      37.314  28.686  31.662  1.00  0.00    -0.200 F 
ATOM     78  F   UNL A   1      35.810  29.533  29.551  1.00  0.00    -0.200 F 
ENDBRANCH  54  68
BRANCH  55  79
ATOM     79  C   UNL A   1      49.588  26.879  27.701  1.00  0.00     0.064 A 
ATOM     80  C   UNL A   1      50.480  26.617  28.750  1.00  0.00     0.173 A 
ATOM     81  C   UNL A   1      50.104  26.890  26.396  1.00  0.00     0.173 A 
ATOM     82  F   UNL A   1      50.042  26.624  30.017  1.00  0.00    -0.203 F 
ATOM     83  C   UNL A   1      51.833  26.392  28.505  1.00  0.00     0.198 A 
ATOM     84  C   UNL A   1      51.451  26.634  26.150  1.00  0.00     0.198 A 
ATOM     85  F   UNL A   1      49.296  27.144  25.356  1.00  0.00    -0.203 F 
ATOM     86  F   UNL A   1      52.673  26.192  29.530  1.00  0.00    -0.200 F 
ATOM     87  C   UNL A   1      52.316  26.393  27.205  1.00  0.00     0.200 A 
ATOM     88  F   UNL A   1      51.910  26.627  24.890  1.00  0.00    -0.200 F 
ATOM     89  F   UNL A   1      53.616  26.171  26.970  1.00  0.00    -0.200 F 
ENDBRANCH  55  79
BRANCH  67  90
ATOM     90  C   UNL A   1      46.018  32.674  29.261  1.00  0.00     0.064 A 
ATOM     91  C   UNL A   1      45.939  33.632  28.240  1.00  0.00     0.173 A 
ATOM     92  C   UNL A   1      46.440  33.101  30.530  1.00  0.00     0.173 A 
ATOM     93  F   UNL A   1      45.554  33.274  27.006  1.00  0.00    -0.203 F 
ATOM     94  C   UNL A   1      46.288  34.960  28.475  1.00  0.00     0.198 A 
ATOM     95  C   UNL A   1      46.753  34.435  30.771  1.00  0.00     0.198 A 
ATOM     96  F   UNL A   1      46.522  32.227  31.545  1.00  0.00    -0.203 F 
ATOM     97  F   UNL A   1      46.246  35.849  27.474  1.00  0.00    -0.200 F 
ATOM     98  C   UNL A   1      46.684  35.362  29.742  1.00  0.00     0.200 A 
ATOM     99  F   UNL A   1      47.117  34.825  32.000  1.00  0.00    -0.200 F 
ATOM    100  F   UNL A   1      47.003  36.643  29.971  1.00  0.00    -0.200 F 
ENDBRANCH  67  90
ENDBRANCH  41  42
ENDBRANCH  34  36
ENDBRANCH  33  34
ENDBRANCH  32  33
ENDBRANCH  31  32
ENDBRANCH  30  31
ENDBRANCH  29  30
ENDBRANCH  28  29
ENDBRANCH   1  28
TORSDOF 23
ENDMDL
MODEL 2
REMARK VINA RESULT:     -10.5      6.205     11.036
REMARK SMILES CC[C@H]1SC[C@H](C(=O)OCCOCCOCCOCCOC(=O)c2ccc(-c3c4nc(c(-c5c(F)c(F)c(F)c(F)c5F)c5ccc([nH]5)c(-c5c(F)c(F)c(F)c(F)c5F)c5nc(c(-c6c(F)c(F)c(F)c(F)c6F)c6ccc3[nH]6)C=C5)C=C4)cc2)N1C(=O)c1ccc(F)c(F)c1F
REMARK SMILES IDX 15 1 14 2 13 3 12 4 11 5 10 6 9 7 7 8 8 9 6 10 3 11 4 12
REMARK SMILES IDX 87 13 5 14 2 15 1 16 88 17 89 18 90 19 91 20 97 21 92 22
REMARK SMILES IDX 95 23 98 24 93 25 96 26 94 27 16 28 17 29 18 30 19 31 20 32
REMARK SMILES IDX 21 33 22 34 23 35 24 36 25 37 86 38 26 39 85 40 27 41 28 42
REMARK SMILES IDX 29 43 79 44 30 45 84 46 78 47 80 48 31 49 83 50 77 51 76 52
REMARK SMILES IDX 32 54 64 55 44 56 63 57 45 58 48 59 62 60 81 61 46 62 47 63
REMARK SMILES IDX 61 65 82 66 49 67 33 68 34 69 42 70 35 71 36 72 40 73 43 74
REMARK SMILES IDX 37 75 38 76 41 77 39 78 65 79 66 80 74 81 67 82 68 83 72 84
REMARK SMILES IDX 75 85 69 86 70 87 73 88 71 89 50 90 51 91 59 92 52 93 53 94
REMARK SMILES IDX 57 95 60 96 54 97 55 98 58 99 56 100
REMARK H PARENT 80 53 48 64
REMARK Flexibility Score: inf
ROOT
ATOM      1  O   UNL A   1      35.183  31.392  27.517  1.00  0.00    -0.377 OA
ENDROOT
BRANCH   1   2
ATOM      2  C   UNL A   1      35.099  30.015  27.857  1.00  0.00     0.188 C 
BRANCH   2   3
ATOM      3  C   UNL A   1      34.277  29.052  26.977  1.00  0.00     0.188 C 
BRANCH   3   4
ATOM      4  O   UNL A   1      33.614  29.717  25.911  1.00  0.00    -0.376 OA
BRANCH   4   5
ATOM      5  C   UNL A   1      32.807  28.946  25.036  1.00  0.00     0.202 C 
BRANCH   5   6
ATOM      6  C   UNL A   1      33.315  27.551  24.640  1.00  0.00     0.261 C 
BRANCH   6   7
ATOM      7  O   UNL A   1      32.616  26.830  23.609  1.00  0.00    -0.462 OA
BRANCH   7   8
ATOM      8  C   UNL A   1      31.782  25.813  23.952  1.00  0.00     0.329 C 
ATOM      9  O   UNL A   1      30.864  25.402  23.250  1.00  0.00    -0.250 OA
BRANCH   8  10
ATOM     10  C   UNL A   1      32.223  25.107  25.249  1.00  0.00     0.206 C 
ATOM     11  C   UNL A   1      32.150  22.782  26.094  1.00  0.00     0.144 C 
ATOM     12  S   UNL A   1      30.521  23.458  26.496  1.00  0.00    -0.134 SA
ATOM     13  N   UNL A   1      32.657  23.708  25.080  1.00  0.00    -0.312 N 
ATOM     14  C   UNL A   1      31.092  25.167  26.279  1.00  0.00     0.109 C 
BRANCH  11  15
ATOM     15  C   UNL A   1      33.101  22.674  27.317  1.00  0.00     0.033 C 
ATOM     16  C   UNL A   1      34.007  21.446  27.445  1.00  0.00     0.007 C 
ENDBRANCH  11  15
BRANCH  13  17
ATOM     17  C   UNL A   1      33.661  23.496  24.148  1.00  0.00     0.258 C 
ATOM     18  O   UNL A   1      33.434  23.554  22.938  1.00  0.00    -0.269 OA
BRANCH  17  19
ATOM     19  C   UNL A   1      35.053  23.203  24.520  1.00  0.00     0.079 A 
ATOM     20  C   UNL A   1      35.532  21.921  24.198  1.00  0.00     0.020 A 
ATOM     21  C   UNL A   1      35.821  24.042  25.325  1.00  0.00     0.174 A 
ATOM     22  C   UNL A   1      36.788  21.506  24.638  1.00  0.00     0.043 A 
ATOM     23  C   UNL A   1      37.081  23.632  25.750  1.00  0.00     0.195 A 
ATOM     24  F   UNL A   1      35.346  25.223  25.744  1.00  0.00    -0.203 F 
ATOM     25  C   UNL A   1      37.559  22.372  25.405  1.00  0.00     0.161 A 
ATOM     26  F   UNL A   1      37.827  24.442  26.513  1.00  0.00    -0.200 F 
ATOM     27  F   UNL A   1      38.764  21.968  25.829  1.00  0.00    -0.204 F 
ENDBRANCH  17  19
ENDBRANCH  13  17
ENDBRANCH   8  10
ENDBRANCH   7   8
ENDBRANCH   6   7
ENDBRANCH   5   6
ENDBRANCH   4   5
ENDBRANCH   3   4
ENDBRANCH   2   3
ENDBRANCH   1   2
BRANCH   1  28
ATOM     28  C   UNL A   1      34.856  32.304  28.550  1.00  0.00     0.188 C 
BRANCH  28  29
ATOM     29  C   UNL A   1      35.866  33.463  28.623  1.00  0.00     0.188 C 
BRANCH  29  30
ATOM     30  O   UNL A   1      35.283  34.704  28.974  1.00  0.00    -0.376 OA
BRANCH  30  31
ATOM     31  C   UNL A   1      33.965  35.037  28.569  1.00  0.00     0.202 C 
BRANCH  31  32
ATOM     32  C   UNL A   1      32.908  35.752  29.442  1.00  0.00     0.261 C 
BRANCH  32  33
ATOM     33  O   UNL A   1      32.453  35.119  30.640  1.00  0.00    -0.460 OA
BRANCH  33  34
ATOM     34  C   UNL A   1      32.725  35.699  31.820  1.00  0.00     0.338 C 
ATOM     35  O   UNL A   1      32.061  36.533  32.410  1.00  0.00    -0.246 OA
BRANCH  34  36
ATOM     36  C   UNL A   1      33.883  34.973  32.385  1.00  0.00     0.060 A 
ATOM     37  C   UNL A   1      35.148  35.572  32.314  1.00  0.00     0.016 A 
ATOM     38  C   UNL A   1      33.714  33.750  33.040  1.00  0.00     0.016 A 
ATOM     39  C   UNL A   1      36.251  34.950  32.894  1.00  0.00     0.010 A 
ATOM     40  C   UNL A   1      34.829  33.098  33.575  1.00  0.00     0.010 A 
ATOM     41  C   UNL A   1      36.103  33.686  33.479  1.00  0.00    -0.014 A 
BRANCH  41  42
ATOM     42  C   UNL A   1      37.313  32.882  33.755  1.00  0.00     0.031 A 
ATOM     43  C   UNL A   1      38.053  33.160  35.032  1.00  0.00     0.074 A 
ATOM     44  C   UNL A   1      37.727  31.918  32.917  1.00  0.00     0.049 A 
ATOM     45  N   UNL A   1      39.165  32.641  35.482  1.00  0.00    -0.248 NA
ATOM     46  C   UNL A   1      37.450  34.163  35.926  1.00  0.00     0.031 C 
ATOM     47  C   UNL A   1      37.055  31.523  31.683  1.00  0.00     0.029 A 
ATOM     48  N   UNL A   1      38.829  31.102  32.982  1.00  0.00    -0.354 N 
ATOM     49  C   UNL A   1      39.398  33.261  36.701  1.00  0.00     0.074 A 
ATOM     50  C   UNL A   1      38.327  34.208  36.915  1.00  0.00     0.031 C 
ATOM     51  C   UNL A   1      37.774  30.554  31.089  1.00  0.00     0.029 A 
ATOM     52  C   UNL A   1      38.973  30.290  31.885  1.00  0.00     0.049 A 
ATOM     53  H   UNL A   1      39.454  31.098  33.741  1.00  0.00     0.167 HD
ATOM     54  C   UNL A   1      40.418  33.056  37.566  1.00  0.00     0.037 A 
ATOM     55  C   UNL A   1      39.981  29.460  31.550  1.00  0.00     0.037 A 
ATOM     56  C   UNL A   1      41.483  32.119  37.340  1.00  0.00     0.049 A 
ATOM     57  C   UNL A   1      41.157  29.317  32.487  1.00  0.00     0.074 A 
ATOM     58  C   UNL A   1      42.552  31.814  38.162  1.00  0.00     0.029 A 
ATOM     59  N   UNL A   1      41.623  31.346  36.196  1.00  0.00    -0.354 N 
ATOM     60  N   UNL A   1      41.361  29.879  33.654  1.00  0.00    -0.248 NA
ATOM     61  C   UNL A   1      42.245  28.428  32.056  1.00  0.00     0.031 C 
ATOM     62  C   UNL A   1      43.375  30.908  37.486  1.00  0.00     0.029 A 
ATOM     63  C   UNL A   1      42.785  30.597  36.271  1.00  0.00     0.049 A 
ATOM     64  H   UNL A   1      40.988  31.333  35.443  1.00  0.00     0.167 HD
ATOM     65  C   UNL A   1      42.585  29.401  34.104  1.00  0.00     0.074 A 
ATOM     66  C   UNL A   1      43.068  28.484  33.093  1.00  0.00     0.031 C 
ATOM     67  C   UNL A   1      43.250  29.693  35.249  1.00  0.00     0.037 A 
BRANCH  54  68
ATOM     68  C   UNL A   1      40.452  33.899  38.807  1.00  0.00     0.064 A 
ATOM     69  C   UNL A   1      39.835  33.492  40.000  1.00  0.00     0.173 A 
ATOM     70  C   UNL A   1      41.127  35.129  38.804  1.00  0.00     0.173 A 
ATOM     71  F   UNL A   1      39.160  32.334  40.051  1.00  0.00    -0.203 F 
ATOM     72  C   UNL A   1      39.869  34.300  41.134  1.00  0.00     0.198 A 
ATOM     73  C   UNL A   1      41.187  35.917  39.949  1.00  0.00     0.198 A 
ATOM     74  F   UNL A   1      41.732  35.566  37.689  1.00  0.00    -0.203 F 
ATOM     75  F   UNL A   1      39.228  33.915  42.246  1.00  0.00    -0.200 F 
ATOM     76  C   UNL A   1      40.551  35.506  41.111  1.00  0.00     0.200 A 
ATOM     77  F   UNL A   1      41.857  37.077  39.927  1.00  0.00    -0.200 F 
ATOM     78  F   UNL A   1      40.590  36.278  42.206  1.00  0.00    -0.200 F 
ENDBRANCH  54  68
BRANCH  55  79
ATOM     79  C   UNL A   1      39.945  28.729  30.255  1.00  0.00     0.064 A 
ATOM     80  C   UNL A   1      39.393  27.445  30.159  1.00  0.00     0.173 A 
ATOM     81  C   UNL A   1      40.479  29.297  29.088  1.00  0.00     0.173 A 
ATOM     82  F   UNL A   1      38.895  26.847  31.251  1.00  0.00    -0.203 F 
ATOM     83  C   UNL A   1      39.391  26.751  28.950  1.00  0.00     0.198 A 
ATOM     84  C   UNL A   1      40.449  28.614  27.874  1.00  0.00     0.198 A 
ATOM     85  F   UNL A   1      41.028  30.520  29.126  1.00  0.00    -0.203 F 
ATOM     86  F   UNL A   1      38.901  25.504  28.897  1.00  0.00    -0.200 F 
ATOM     87  C   UNL A   1      39.912  27.339  27.808  1.00  0.00     0.200 A 
ATOM     88  F   UNL A   1      40.945  29.192  26.771  1.00  0.00    -0.200 F 
ATOM     89  F   UNL A   1      39.905  26.672  26.645  1.00  0.00    -0.200 F 
ENDBRANCH  55  79
BRANCH  67  90
ATOM     90  C   UNL A   1      44.566  29.006  35.483  1.00  0.00     0.064 A 
ATOM     91  C   UNL A   1      44.657  27.831  36.244  1.00  0.00     0.173 A 
ATOM     92  C   UNL A   1      45.738  29.491  34.882  1.00  0.00     0.173 A 
ATOM     93  F   UNL A   1      43.569  27.333  36.850  1.00  0.00    -0.203 F 
ATOM     94  C   UNL A   1      45.877  27.180  36.412  1.00  0.00     0.198 A 
ATOM     95  C   UNL A   1      46.948  28.818  35.023  1.00  0.00     0.198 A 
ATOM     96  F   UNL A   1      45.704  30.604  34.134  1.00  0.00    -0.203 F 
ATOM     97  F   UNL A   1      45.949  26.084  37.179  1.00  0.00    -0.200 F 
ATOM     98  C   UNL A   1      47.018  27.668  35.793  1.00  0.00     0.200 A 
ATOM     99  F   UNL A   1      48.046  29.280  34.408  1.00  0.00    -0.200 F 
ATOM    100  F   UNL A   1      48.187  27.030  35.943  1.00  0.00    -0.200 F 
ENDBRANCH  67  90
ENDBRANCH  41  42
ENDBRANCH  34  36
ENDBRANCH  33  34
ENDBRANCH  32  33
ENDBRANCH  31  32
ENDBRANCH  30  31
ENDBRANCH  29  30
ENDBRANCH  28  29
ENDBRANCH   1  28
TORSDOF 23
ENDMDL
MODEL 3
REMARK VINA RESULT:     -10.5      6.036     10.503
REMARK SMILES CC[C@H]1SC[C@H](C(=O)OCCOCCOCCOCCOC(=O)c2ccc(-c3c4nc(c(-c5c(F)c(F)c(F)c(F)c5F)c5ccc([nH]5)c(-c5c(F)c(F)c(F)c(F)c5F)c5nc(c(-c6c(F)c(F)c(F)c(F)c6F)c6ccc3[nH]6)C=C5)C=C4)cc2)N1C(=O)c1ccc(F)c(F)c1F
REMARK SMILES IDX 15 1 14 2 13 3 12 4 11 5 10 6 9 7 7 8 8 9 6 10 3 11 4 12
REMARK SMILES IDX 87 13 5 14 2 15 1 16 88 17 89 18 90 19 91 20 97 21 92 22
REMARK SMILES IDX 95 23 98 24 93 25 96 26 94 27 16 28 17 29 18 30 19 31 20 32
REMARK SMILES IDX 21 33 22 34 23 35 24 36 25 37 86 38 26 39 85 40 27 41 28 42
REMARK SMILES IDX 29 43 79 44 30 45 84 46 78 47 80 48 31 49 83 50 77 51 76 52
REMARK SMILES IDX 32 54 64 55 44 56 63 57 45 58 48 59 62 60 81 61 46 62 47 63
REMARK SMILES IDX 61 65 82 66 49 67 33 68 34 69 42 70 35 71 36 72 40 73 43 74
REMARK SMILES IDX 37 75 38 76 41 77 39 78 65 79 66 80 74 81 67 82 68 83 72 84
REMARK SMILES IDX 75 85 69 86 70 87 73 88 71 89 50 90 51 91 59 92 52 93 53 94
REMARK SMILES IDX 57 95 60 96 54 97 55 98 58 99 56 100
REMARK H PARENT 80 53 48 64
REMARK Flexibility Score: inf
ROOT
ATOM      1  O   UNL A   1      35.533  33.564  27.663  1.00  0.00    -0.377 OA
ENDROOT
BRANCH   1   2
ATOM      2  C   UNL A   1      35.921  32.270  28.102  1.00  0.00     0.188 C 
BRANCH   2   3
ATOM      3  C   UNL A   1      35.149  31.026  27.615  1.00  0.00     0.188 C 
BRANCH   3   4
ATOM      4  O   UNL A   1      33.750  31.128  27.842  1.00  0.00    -0.376 OA
BRANCH   4   5
ATOM      5  C   UNL A   1      32.883  30.306  27.080  1.00  0.00     0.202 C 
BRANCH   5   6
ATOM      6  C   UNL A   1      33.506  29.122  26.323  1.00  0.00     0.261 C 
BRANCH   6   7
ATOM      7  O   UNL A   1      32.656  28.317  25.483  1.00  0.00    -0.462 OA
BRANCH   7   8
ATOM      8  C   UNL A   1      33.140  27.835  24.309  1.00  0.00     0.329 C 
ATOM      9  O   UNL A   1      33.947  28.423  23.597  1.00  0.00    -0.250 OA
BRANCH   8  10
ATOM     10  C   UNL A   1      32.701  26.381  24.049  1.00  0.00     0.206 C 
ATOM     11  C   UNL A   1      30.602  25.101  24.342  1.00  0.00     0.144 C 
ATOM     12  S   UNL A   1      31.401  25.033  25.963  1.00  0.00    -0.134 SA
ATOM     13  N   UNL A   1      31.282  26.215  23.678  1.00  0.00    -0.312 N 
ATOM     14  C   UNL A   1      33.008  25.520  25.277  1.00  0.00     0.109 C 
BRANCH  11  15
ATOM     15  C   UNL A   1      30.716  23.780  23.533  1.00  0.00     0.033 C 
ATOM     16  C   UNL A   1      32.093  23.130  23.366  1.00  0.00     0.007 C 
ENDBRANCH  11  15
BRANCH  13  17
ATOM     17  C   UNL A   1      30.851  26.963  22.595  1.00  0.00     0.258 C 
ATOM     18  O   UNL A   1      31.311  26.780  21.466  1.00  0.00    -0.269 OA
BRANCH  17  19
ATOM     19  C   UNL A   1      29.823  28.009  22.699  1.00  0.00     0.079 A 
ATOM     20  C   UNL A   1      30.256  29.335  22.527  1.00  0.00     0.020 A 
ATOM     21  C   UNL A   1      28.526  27.761  23.142  1.00  0.00     0.174 A 
ATOM     22  C   UNL A   1      29.382  30.397  22.749  1.00  0.00     0.043 A 
ATOM     23  C   UNL A   1      27.649  28.823  23.348  1.00  0.00     0.195 A 
ATOM     24  F   UNL A   1      28.117  26.517  23.426  1.00  0.00    -0.203 F 
ATOM     25  C   UNL A   1      28.077  30.131  23.150  1.00  0.00     0.161 A 
ATOM     26  F   UNL A   1      26.396  28.587  23.762  1.00  0.00    -0.200 F 
ATOM     27  F   UNL A   1      27.241  31.155  23.366  1.00  0.00    -0.204 F 
ENDBRANCH  17  19
ENDBRANCH  13  17
ENDBRANCH   8  10
ENDBRANCH   7   8
ENDBRANCH   6   7
ENDBRANCH   5   6
ENDBRANCH   4   5
ENDBRANCH   3   4
ENDBRANCH   2   3
ENDBRANCH   1   2
BRANCH   1  28
ATOM     28  C   UNL A   1      34.884  34.372  28.628  1.00  0.00     0.188 C 
BRANCH  28  29
ATOM     29  C   UNL A   1      33.366  34.437  28.384  1.00  0.00     0.188 C 
BRANCH  29  30
ATOM     30  O   UNL A   1      32.633  34.939  29.486  1.00  0.00    -0.376 OA
BRANCH  30  31
ATOM     31  C   UNL A   1      32.531  36.333  29.727  1.00  0.00     0.202 C 
BRANCH  31  32
ATOM     32  C   UNL A   1      33.298  37.117  30.815  1.00  0.00     0.261 C 
BRANCH  32  33
ATOM     33  O   UNL A   1      32.883  37.001  32.178  1.00  0.00    -0.460 OA
BRANCH  33  34
ATOM     34  C   UNL A   1      32.539  35.791  32.648  1.00  0.00     0.338 C 
ATOM     35  O   UNL A   1      31.416  35.354  32.827  1.00  0.00    -0.246 OA
BRANCH  34  36
ATOM     36  C   UNL A   1      33.784  34.995  32.705  1.00  0.00     0.060 A 
ATOM     37  C   UNL A   1      33.688  33.617  32.941  1.00  0.00     0.016 A 
ATOM     38  C   UNL A   1      35.027  35.587  32.460  1.00  0.00     0.016 A 
ATOM     39  C   UNL A   1      34.833  32.825  32.937  1.00  0.00     0.010 A 
ATOM     40  C   UNL A   1      36.182  34.802  32.508  1.00  0.00     0.010 A 
ATOM     41  C   UNL A   1      36.088  33.423  32.773  1.00  0.00    -0.014 A 
BRANCH  41  42
ATOM     42  C   UNL A   1      37.298  32.653  33.132  1.00  0.00     0.031 A 
ATOM     43  C   UNL A   1      37.964  32.977  34.438  1.00  0.00     0.074 A 
ATOM     44  C   UNL A   1      37.775  31.678  32.341  1.00  0.00     0.049 A 
ATOM     45  N   UNL A   1      39.061  32.494  34.958  1.00  0.00    -0.248 NA
ATOM     46  C   UNL A   1      37.293  33.989  35.274  1.00  0.00     0.031 C 
ATOM     47  C   UNL A   1      37.177  31.239  31.084  1.00  0.00     0.029 A 
ATOM     48  N   UNL A   1      38.889  30.888  32.484  1.00  0.00    -0.354 N 
ATOM     49  C   UNL A   1      39.217  33.149  36.172  1.00  0.00     0.074 A 
ATOM     50  C   UNL A   1      38.117  34.077  36.306  1.00  0.00     0.031 C 
ATOM     51  C   UNL A   1      37.946  30.272  30.553  1.00  0.00     0.029 A 
ATOM     52  C   UNL A   1      39.106  30.054  31.417  1.00  0.00     0.049 A 
ATOM     53  H   UNL A   1      39.473  30.917  33.275  1.00  0.00     0.167 HD
ATOM     54  C   UNL A   1      40.194  32.987  37.094  1.00  0.00     0.037 A 
ATOM     55  C   UNL A   1      40.148  29.238  31.156  1.00  0.00     0.037 A 
ATOM     56  C   UNL A   1      41.288  32.068  36.948  1.00  0.00     0.049 A 
ATOM     57  C   UNL A   1      41.275  29.143  32.156  1.00  0.00     0.074 A 
ATOM     58  C   UNL A   1      42.319  31.807  37.832  1.00  0.00     0.029 A 
ATOM     59  N   UNL A   1      41.503  31.271  35.832  1.00  0.00    -0.354 N 
ATOM     60  N   UNL A   1      41.406  29.738  33.318  1.00  0.00    -0.248 NA
ATOM     61  C   UNL A   1      42.402  28.268  31.805  1.00  0.00     0.031 C 
ATOM     62  C   UNL A   1      43.194  30.903  37.222  1.00  0.00     0.029 A 
ATOM     63  C   UNL A   1      42.675  30.550  35.986  1.00  0.00     0.049 A 
ATOM     64  H   UNL A   1      40.910  31.226  35.047  1.00  0.00     0.167 HD
ATOM     65  C   UNL A   1      42.614  29.297  33.842  1.00  0.00     0.074 A 
ATOM     66  C   UNL A   1      43.169  28.367  32.882  1.00  0.00     0.031 C 
ATOM     67  C   UNL A   1      43.212  29.631  35.014  1.00  0.00     0.037 A 
BRANCH  54  68
ATOM     68  C   UNL A   1      40.145  33.860  38.314  1.00  0.00     0.064 A 
ATOM     69  C   UNL A   1      40.858  35.066  38.394  1.00  0.00     0.173 A 
ATOM     70  C   UNL A   1      39.358  33.488  39.413  1.00  0.00     0.173 A 
ATOM     71  F   UNL A   1      41.639  35.458  37.378  1.00  0.00    -0.203 F 
ATOM     72  C   UNL A   1      40.805  35.852  39.543  1.00  0.00     0.198 A 
ATOM     73  C   UNL A   1      39.283  34.292  40.546  1.00  0.00     0.198 A 
ATOM     74  F   UNL A   1      38.658  32.343  39.389  1.00  0.00    -0.203 F 
ATOM     75  F   UNL A   1      41.536  36.973  39.619  1.00  0.00    -0.200 F 
ATOM     76  C   UNL A   1      40.013  35.469  40.614  1.00  0.00     0.200 A 
ATOM     77  F   UNL A   1      38.507  33.926  41.575  1.00  0.00    -0.200 F 
ATOM     78  F   UNL A   1      39.958  36.230  41.715  1.00  0.00    -0.200 F 
ENDBRANCH  54  68
BRANCH  55  79
ATOM     79  C   UNL A   1      40.195  28.475  29.880  1.00  0.00     0.064 A 
ATOM     80  C   UNL A   1      40.884  28.967  28.763  1.00  0.00     0.173 A 
ATOM     81  C   UNL A   1      39.533  27.245  29.746  1.00  0.00     0.173 A 
ATOM     82  F   UNL A   1      41.508  30.152  28.830  1.00  0.00    -0.203 F 
ATOM     83  C   UNL A   1      40.897  28.265  27.559  1.00  0.00     0.198 A 
ATOM     84  C   UNL A   1      39.573  26.529  28.552  1.00  0.00     0.198 A 
ATOM     85  F   UNL A   1      38.851  26.733  30.782  1.00  0.00    -0.203 F 
ATOM     86  F   UNL A   1      41.523  28.781  26.493  1.00  0.00    -0.200 F 
ATOM     87  C   UNL A   1      40.249  27.043  27.457  1.00  0.00     0.200 A 
ATOM     88  F   UNL A   1      38.952  25.344  28.462  1.00  0.00    -0.200 F 
ATOM     89  F   UNL A   1      40.267  26.367  26.300  1.00  0.00    -0.200 F 
ENDBRANCH  55  79
BRANCH  67  90
ATOM     90  C   UNL A   1      44.528  28.979  35.332  1.00  0.00     0.064 A 
ATOM     91  C   UNL A   1      45.748  29.579  34.990  1.00  0.00     0.173 A 
ATOM     92  C   UNL A   1      44.569  27.772  36.048  1.00  0.00     0.173 A 
ATOM     93  F   UNL A   1      45.765  30.727  34.294  1.00  0.00    -0.203 F 
ATOM     94  C   UNL A   1      46.960  28.985  35.334  1.00  0.00     0.198 A 
ATOM     95  C   UNL A   1      45.781  27.199  36.420  1.00  0.00     0.198 A 
ATOM     96  F   UNL A   1      43.430  27.161  36.410  1.00  0.00    -0.203 F 
ATOM     97  F   UNL A   1      48.113  29.555  34.958  1.00  0.00    -0.200 F 
ATOM     98  C   UNL A   1      46.975  27.802  36.057  1.00  0.00     0.200 A 
ATOM     99  F   UNL A   1      45.793  26.066  37.136  1.00  0.00    -0.200 F 
ATOM    100  F   UNL A   1      48.142  27.241  36.401  1.00  0.00    -0.200 F 
ENDBRANCH  67  90
ENDBRANCH  41  42
ENDBRANCH  34  36
ENDBRANCH  33  34
ENDBRANCH  32  33
ENDBRANCH  31  32
ENDBRANCH  30  31
ENDBRANCH  29  30
ENDBRANCH  28  29
ENDBRANCH   1  28
TORSDOF 23
ENDMDL
