MODEL 1
REMARK VINA RESULT:      -8.4      0.000      0.000
REMARK SMILES O=C(OCCOCCOCCOCCOC(=O)[C@@H]1CCC[N@@H+](Cc2cccc3ccccc23)C1)c1ccc(-c2c3nc(c(-c4c(F)c(F)c(F)c(F)c4F)c4ccc([nH]4)c(-c4c(F)c(F)c(F)c(F)c4F)c4nc(c(-c5c(F)c(F)c(F)c(F)c5F)c5ccc2[nH]5)C=C4)C=C3)cc1
REMARK SMILES IDX 9 1 8 2 7 3 6 4 5 5 4 6 3 7 2 8 1 9 35 10 36 11 97 12 37 13
REMARK SMILES IDX 96 14 38 15 39 16 40 17 90 18 41 19 95 20 89 21 91 22 42 23
REMARK SMILES IDX 94 24 88 25 87 26 43 28 75 29 55 30 74 31 56 32 59 33 73 34
REMARK SMILES IDX 92 35 57 36 58 37 72 39 93 40 60 41 44 42 45 43 53 44 46 45
REMARK SMILES IDX 47 46 51 47 54 48 48 49 49 50 52 51 50 52 76 53 77 54 85 55
REMARK SMILES IDX 78 56 79 57 83 58 86 59 80 60 81 61 84 62 82 63 61 64 62 65
REMARK SMILES IDX 70 66 63 67 64 68 68 69 71 70 65 71 66 72 69 73 67 74 10 75
REMARK SMILES IDX 11 76 12 77 13 78 14 79 15 80 16 81 17 82 18 83 19 84 34 85
REMARK SMILES IDX 20 86 22 87 21 88 23 90 24 91 25 92 33 93 26 94 28 95 32 96
REMARK SMILES IDX 27 97 29 98 31 99 30 100
REMARK H PARENT 91 27 59 38 22 89
REMARK Flexibility Score: inf
ROOT
ATOM      1  O   UNL A   1      48.149  28.105  24.441  1.00  0.00    -0.377 OA
ENDROOT
BRANCH   1   2
ATOM      2  C   UNL A   1      48.688  27.074  23.631  1.00  0.00     0.188 C 
BRANCH   2   3
ATOM      3  C   UNL A   1      50.037  27.414  23.009  1.00  0.00     0.188 C 
BRANCH   3   4
ATOM      4  O   UNL A   1      50.955  27.720  24.065  1.00  0.00    -0.376 OA
BRANCH   4   5
ATOM      5  C   UNL A   1      52.212  27.054  23.980  1.00  0.00     0.202 C 
BRANCH   5   6
ATOM      6  C   UNL A   1      53.155  27.364  25.142  1.00  0.00     0.261 C 
BRANCH   6   7
ATOM      7  O   UNL A   1      53.052  26.425  26.222  1.00  0.00    -0.460 OA
BRANCH   7   8
ATOM      8  C   UNL A   1      52.011  25.622  26.558  1.00  0.00     0.338 C 
ATOM      9  O   UNL A   1      52.048  24.453  26.174  1.00  0.00    -0.246 OA
BRANCH   8  10
ATOM     10  C   UNL A   1      50.790  26.057  27.320  1.00  0.00     0.060 A 
ATOM     11  C   UNL A   1      49.471  25.708  27.027  1.00  0.00     0.016 A 
ATOM     12  C   UNL A   1      51.006  26.848  28.467  1.00  0.00     0.016 A 
ATOM     13  C   UNL A   1      48.410  26.077  27.837  1.00  0.00     0.010 A 
ATOM     14  C   UNL A   1      49.941  27.272  29.268  1.00  0.00     0.010 A 
ATOM     15  C   UNL A   1      48.640  26.886  28.940  1.00  0.00    -0.014 A 
BRANCH  15  16
ATOM     16  C   UNL A   1      47.457  27.499  29.554  1.00  0.00     0.031 A 
ATOM     17  C   UNL A   1      46.927  26.848  30.792  1.00  0.00     0.074 A 
ATOM     18  C   UNL A   1      47.013  28.689  29.122  1.00  0.00     0.049 A 
ATOM     19  N   UNL A   1      45.854  27.117  31.480  1.00  0.00    -0.248 NA
ATOM     20  C   UNL A   1      47.742  25.751  31.351  1.00  0.00     0.031 C 
ATOM     21  C   UNL A   1      47.626  29.480  28.052  1.00  0.00     0.029 A 
ATOM     22  N   UNL A   1      45.963  29.455  29.546  1.00  0.00    -0.354 N 
ATOM     23  C   UNL A   1      45.838  26.193  32.515  1.00  0.00     0.074 A 
ATOM     24  C   UNL A   1      47.022  25.378  32.396  1.00  0.00     0.031 C 
ATOM     25  C   UNL A   1      46.929  30.618  27.896  1.00  0.00     0.029 A 
ATOM     26  C   UNL A   1      45.781  30.590  28.794  1.00  0.00     0.049 A 
ATOM     27  H   UNL A   1      45.394  29.218  30.314  1.00  0.00     0.167 HD
ATOM     28  C   UNL A   1      44.885  26.034  33.459  1.00  0.00     0.037 A 
ATOM     29  C   UNL A   1      44.750  31.456  28.802  1.00  0.00     0.037 A 
ATOM     30  C   UNL A   1      43.727  26.879  33.530  1.00  0.00     0.049 A 
ATOM     31  C   UNL A   1      43.632  31.184  29.778  1.00  0.00     0.074 A 
ATOM     32  C   UNL A   1      42.642  26.799  34.378  1.00  0.00     0.029 A 
ATOM     33  N   UNL A   1      43.514  27.971  32.695  1.00  0.00    -0.354 N 
ATOM     34  N   UNL A   1      43.551  30.253  30.702  1.00  0.00    -0.248 NA
ATOM     35  C   UNL A   1      42.454  32.053  29.697  1.00  0.00     0.031 C 
ATOM     36  C   UNL A   1      41.746  27.812  34.018  1.00  0.00     0.029 A 
ATOM     37  C   UNL A   1      42.298  28.557  32.984  1.00  0.00     0.049 A 
ATOM     38  H   UNL A   1      44.140  28.281  32.001  1.00  0.00     0.167 HD
ATOM     39  C   UNL A   1      42.322  30.426  31.317  1.00  0.00     0.074 A 
ATOM     40  C   UNL A   1      41.701  31.571  30.676  1.00  0.00     0.031 C 
ATOM     41  C   UNL A   1      41.744  29.706  32.312  1.00  0.00     0.037 A 
BRANCH  28  42
ATOM     42  C   UNL A   1      45.012  24.852  34.369  1.00  0.00     0.064 A 
ATOM     43  C   UNL A   1      45.660  24.920  35.611  1.00  0.00     0.173 A 
ATOM     44  C   UNL A   1      44.522  23.603  33.954  1.00  0.00     0.173 A 
ATOM     45  F   UNL A   1      46.184  26.079  36.037  1.00  0.00    -0.203 F 
ATOM     46  C   UNL A   1      45.835  23.778  36.392  1.00  0.00     0.198 A 
ATOM     47  C   UNL A   1      44.676  22.470  34.748  1.00  0.00     0.198 A 
ATOM     48  F   UNL A   1      43.911  23.478  32.767  1.00  0.00    -0.203 F 
ATOM     49  F   UNL A   1      46.513  23.853  37.546  1.00  0.00    -0.200 F 
ATOM     50  C   UNL A   1      45.340  22.556  35.961  1.00  0.00     0.200 A 
ATOM     51  F   UNL A   1      44.199  21.290  34.327  1.00  0.00    -0.200 F 
ATOM     52  F   UNL A   1      45.519  21.457  36.708  1.00  0.00    -0.200 F 
ENDBRANCH  28  42
BRANCH  29  53
ATOM     53  C   UNL A   1      44.675  32.560  27.804  1.00  0.00     0.064 A 
ATOM     54  C   UNL A   1      44.161  32.354  26.517  1.00  0.00     0.173 A 
ATOM     55  C   UNL A   1      45.152  33.845  28.110  1.00  0.00     0.173 A 
ATOM     56  F   UNL A   1      43.715  31.141  26.159  1.00  0.00    -0.203 F 
ATOM     57  C   UNL A   1      44.146  33.381  25.572  1.00  0.00     0.198 A 
ATOM     58  C   UNL A   1      45.106  34.880  27.177  1.00  0.00     0.198 A 
ATOM     59  F   UNL A   1      45.668  34.103  29.321  1.00  0.00    -0.203 F 
ATOM     60  F   UNL A   1      43.702  33.141  24.331  1.00  0.00    -0.200 F 
ATOM     61  C   UNL A   1      44.613  34.644  25.905  1.00  0.00     0.200 A 
ATOM     62  F   UNL A   1      45.548  36.100  27.510  1.00  0.00    -0.200 F 
ATOM     63  F   UNL A   1      44.603  35.629  24.994  1.00  0.00    -0.200 F 
ENDBRANCH  29  53
BRANCH  41  64
ATOM     64  C   UNL A   1      40.394  30.159  32.774  1.00  0.00     0.064 A 
ATOM     65  C   UNL A   1      40.254  31.187  33.715  1.00  0.00     0.173 A 
ATOM     66  C   UNL A   1      39.236  29.616  32.201  1.00  0.00     0.173 A 
ATOM     67  F   UNL A   1      41.336  31.723  34.299  1.00  0.00    -0.203 F 
ATOM     68  C   UNL A   1      38.993  31.651  34.075  1.00  0.00     0.198 A 
ATOM     69  C   UNL A   1      37.980  30.104  32.540  1.00  0.00     0.198 A 
ATOM     70  F   UNL A   1      39.328  28.637  31.289  1.00  0.00    -0.203 F 
ATOM     71  F   UNL A   1      38.876  32.613  35.001  1.00  0.00    -0.200 F 
ATOM     72  C   UNL A   1      37.859  31.117  33.479  1.00  0.00     0.200 A 
ATOM     73  F   UNL A   1      36.887  29.601  31.950  1.00  0.00    -0.200 F 
ATOM     74  F   UNL A   1      36.648  31.582  33.810  1.00  0.00    -0.200 F 
ENDBRANCH  41  64
ENDBRANCH  15  16
ENDBRANCH   8  10
ENDBRANCH   7   8
ENDBRANCH   6   7
ENDBRANCH   5   6
ENDBRANCH   4   5
ENDBRANCH   3   4
ENDBRANCH   2   3
ENDBRANCH   1   2
BRANCH   1  75
ATOM     75  C   UNL A   1      46.744  28.116  24.623  1.00  0.00     0.188 C 
BRANCH  75  76
ATOM     76  C   UNL A   1      45.977  26.850  25.027  1.00  0.00     0.188 C 
BRANCH  76  77
ATOM     77  O   UNL A   1      44.684  26.913  25.612  1.00  0.00    -0.376 OA
BRANCH  77  78
ATOM     78  C   UNL A   1      44.457  27.785  26.704  1.00  0.00     0.202 C 
BRANCH  78  79
ATOM     79  C   UNL A   1      42.989  28.030  27.093  1.00  0.00     0.261 C 
BRANCH  79  80
ATOM     80  O   UNL A   1      42.130  26.870  27.064  1.00  0.00    -0.463 OA
BRANCH  80  81
ATOM     81  C   UNL A   1      41.821  26.300  28.264  1.00  0.00     0.314 C 
ATOM     82  O   UNL A   1      41.065  26.796  29.076  1.00  0.00    -0.252 OA
BRANCH  81  83
ATOM     83  C   UNL A   1      42.509  24.942  28.522  1.00  0.00     0.154 C 
ATOM     84  C   UNL A   1      43.755  24.862  29.422  1.00  0.00     0.027 C 
ATOM     85  C   UNL A   1      42.642  24.124  27.217  1.00  0.00     0.277 C 
ATOM     86  C   UNL A   1      45.100  24.630  28.725  1.00  0.00     0.062 C 
ATOM     87  N   UNL A   1      43.964  24.167  26.571  1.00  0.00    -0.330 N 
ATOM     88  C   UNL A   1      45.025  23.740  27.486  1.00  0.00     0.262 C 
ATOM     89  H   UNL A   1      44.139  25.146  26.347  1.00  0.00     0.348 HD
BRANCH  87  90
ATOM     90  C   UNL A   1      44.013  23.473  25.257  1.00  0.00     0.299 C 
BRANCH  90  91
ATOM     91  C   UNL A   1      44.554  22.049  25.253  1.00  0.00     0.014 A 
ATOM     92  C   UNL A   1      45.891  21.872  24.848  1.00  0.00     0.010 A 
ATOM     93  C   UNL A   1      43.762  20.898  25.574  1.00  0.00    -0.010 A 
ATOM     94  C   UNL A   1      46.412  20.607  24.624  1.00  0.00     0.001 A 
ATOM     95  C   UNL A   1      44.314  19.613  25.329  1.00  0.00    -0.018 A 
ATOM     96  C   UNL A   1      42.459  20.933  26.133  1.00  0.00     0.009 A 
ATOM     97  C   UNL A   1      45.618  19.487  24.835  1.00  0.00     0.009 A 
ATOM     98  C   UNL A   1      43.563  18.452  25.583  1.00  0.00     0.009 A 
ATOM     99  C   UNL A   1      41.737  19.767  26.417  1.00  0.00     0.001 A 
ATOM    100  C   UNL A   1      42.285  18.527  26.127  1.00  0.00     0.001 A 
ENDBRANCH  90  91
ENDBRANCH  87  90
ENDBRANCH  81  83
ENDBRANCH  80  81
ENDBRANCH  79  80
ENDBRANCH  78  79
ENDBRANCH  77  78
ENDBRANCH  76  77
ENDBRANCH  75  76
ENDBRANCH   1  75
TORSDOF 22
ENDMDL
MODEL 2
REMARK VINA RESULT:      -8.2      5.608      8.554
REMARK SMILES O=C(OCCOCCOCCOCCOC(=O)[C@@H]1CCC[N@@H+](Cc2cccc3ccccc23)C1)c1ccc(-c2c3nc(c(-c4c(F)c(F)c(F)c(F)c4F)c4ccc([nH]4)c(-c4c(F)c(F)c(F)c(F)c4F)c4nc(c(-c5c(F)c(F)c(F)c(F)c5F)c5ccc2[nH]5)C=C4)C=C3)cc1
REMARK SMILES IDX 9 1 8 2 7 3 6 4 5 5 4 6 3 7 2 8 1 9 35 10 36 11 97 12 37 13
REMARK SMILES IDX 96 14 38 15 39 16 40 17 90 18 41 19 95 20 89 21 91 22 42 23
REMARK SMILES IDX 94 24 88 25 87 26 43 28 75 29 55 30 74 31 56 32 59 33 73 34
REMARK SMILES IDX 92 35 57 36 58 37 72 39 93 40 60 41 44 42 45 43 53 44 46 45
REMARK SMILES IDX 47 46 51 47 54 48 48 49 49 50 52 51 50 52 76 53 77 54 85 55
REMARK SMILES IDX 78 56 79 57 83 58 86 59 80 60 81 61 84 62 82 63 61 64 62 65
REMARK SMILES IDX 70 66 63 67 64 68 68 69 71 70 65 71 66 72 69 73 67 74 10 75
REMARK SMILES IDX 11 76 12 77 13 78 14 79 15 80 16 81 17 82 18 83 19 84 34 85
REMARK SMILES IDX 20 86 22 87 21 88 23 90 24 91 25 92 33 93 26 94 28 95 32 96
REMARK SMILES IDX 27 97 29 98 31 99 30 100
REMARK H PARENT 91 27 59 38 22 89
REMARK Flexibility Score: inf
ROOT
ATOM      1  O   UNL A   1      39.556  25.008  26.575  1.00  0.00    -0.377 OA
ENDROOT
BRANCH   1   2
ATOM      2  C   UNL A   1      40.761  25.686  26.890  1.00  0.00     0.188 C 
BRANCH   2   3
ATOM      3  C   UNL A   1      41.212  26.677  25.825  1.00  0.00     0.188 C 
BRANCH   3   4
ATOM      4  O   UNL A   1      42.389  26.157  25.196  1.00  0.00    -0.376 OA
BRANCH   4   5
ATOM      5  C   UNL A   1      42.573  24.751  25.335  1.00  0.00     0.202 C 
BRANCH   5   6
ATOM      6  C   UNL A   1      43.880  24.236  24.735  1.00  0.00     0.261 C 
BRANCH   6   7
ATOM      7  O   UNL A   1      45.044  24.871  25.283  1.00  0.00    -0.460 OA
BRANCH   7   8
ATOM      8  C   UNL A   1      45.490  24.876  26.564  1.00  0.00     0.338 C 
ATOM      9  O   UNL A   1      46.406  24.104  26.849  1.00  0.00    -0.246 OA
BRANCH   8  10
ATOM     10  C   UNL A   1      44.924  25.711  27.677  1.00  0.00     0.060 A 
ATOM     11  C   UNL A   1      44.236  25.234  28.794  1.00  0.00     0.016 A 
ATOM     12  C   UNL A   1      45.154  27.100  27.611  1.00  0.00     0.016 A 
ATOM     13  C   UNL A   1      43.827  26.066  29.823  1.00  0.00     0.010 A 
ATOM     14  C   UNL A   1      44.704  27.961  28.616  1.00  0.00     0.010 A 
ATOM     15  C   UNL A   1      44.031  27.434  29.720  1.00  0.00    -0.014 A 
BRANCH  15  16
ATOM     16  C   UNL A   1      43.296  28.274  30.671  1.00  0.00     0.031 A 
ATOM     17  C   UNL A   1      43.979  28.583  31.965  1.00  0.00     0.074 A 
ATOM     18  C   UNL A   1      42.159  28.880  30.296  1.00  0.00     0.049 A 
ATOM     19  N   UNL A   1      43.531  29.215  33.013  1.00  0.00    -0.248 NA
ATOM     20  C   UNL A   1      45.382  28.138  32.084  1.00  0.00     0.031 C 
ATOM     21  C   UNL A   1      41.554  28.788  28.965  1.00  0.00     0.029 A 
ATOM     22  N   UNL A   1      41.325  29.714  30.987  1.00  0.00    -0.354 N 
ATOM     23  C   UNL A   1      44.574  29.196  33.929  1.00  0.00     0.074 A 
ATOM     24  C   UNL A   1      45.691  28.527  33.309  1.00  0.00     0.031 C 
ATOM     25  C   UNL A   1      40.434  29.530  28.943  1.00  0.00     0.029 A 
ATOM     26  C   UNL A   1      40.206  30.074  30.276  1.00  0.00     0.049 A 
ATOM     27  H   UNL A   1      41.508  30.027  31.903  1.00  0.00     0.167 HD
ATOM     28  C   UNL A   1      44.565  29.675  35.192  1.00  0.00     0.037 A 
ATOM     29  C   UNL A   1      39.100  30.711  30.702  1.00  0.00     0.037 A 
ATOM     30  C   UNL A   1      43.422  30.335  35.755  1.00  0.00     0.049 A 
ATOM     31  C   UNL A   1      39.059  31.123  32.153  1.00  0.00     0.074 A 
ATOM     32  C   UNL A   1      43.233  30.809  37.037  1.00  0.00     0.029 A 
ATOM     33  N   UNL A   1      42.258  30.608  35.043  1.00  0.00    -0.354 N 
ATOM     34  N   UNL A   1      40.000  31.024  33.065  1.00  0.00    -0.248 NA
ATOM     35  C   UNL A   1      37.805  31.702  32.645  1.00  0.00     0.031 C 
ATOM     36  C   UNL A   1      41.933  31.318  37.114  1.00  0.00     0.029 A 
ATOM     37  C   UNL A   1      41.331  31.214  35.866  1.00  0.00     0.049 A 
ATOM     38  H   UNL A   1      42.117  30.400  34.091  1.00  0.00     0.167 HD
ATOM     39  C   UNL A   1      39.458  31.533  34.235  1.00  0.00     0.074 A 
ATOM     40  C   UNL A   1      38.112  31.964  33.908  1.00  0.00     0.031 C 
ATOM     41  C   UNL A   1      40.008  31.630  35.472  1.00  0.00     0.037 A 
BRANCH  28  42
ATOM     42  C   UNL A   1      45.761  29.382  36.044  1.00  0.00     0.064 A 
ATOM     43  C   UNL A   1      46.863  30.246  36.123  1.00  0.00     0.173 A 
ATOM     44  C   UNL A   1      45.826  28.172  36.753  1.00  0.00     0.173 A 
ATOM     45  F   UNL A   1      46.871  31.395  35.432  1.00  0.00    -0.203 F 
ATOM     46  C   UNL A   1      47.995  29.897  36.858  1.00  0.00     0.198 A 
ATOM     47  C   UNL A   1      46.948  27.839  37.507  1.00  0.00     0.198 A 
ATOM     48  F   UNL A   1      44.808  27.301  36.697  1.00  0.00    -0.203 F 
ATOM     49  F   UNL A   1      49.063  30.709  36.868  1.00  0.00    -0.200 F 
ATOM     50  C   UNL A   1      48.035  28.697  37.552  1.00  0.00     0.200 A 
ATOM     51  F   UNL A   1      46.984  26.676  38.173  1.00  0.00    -0.200 F 
ATOM     52  F   UNL A   1      49.129  28.359  38.249  1.00  0.00    -0.200 F 
ENDBRANCH  28  42
BRANCH  29  53
ATOM     53  C   UNL A   1      37.928  30.889  29.799  1.00  0.00     0.064 A 
ATOM     54  C   UNL A   1      37.027  29.845  29.548  1.00  0.00     0.173 A 
ATOM     55  C   UNL A   1      37.703  32.107  29.136  1.00  0.00     0.173 A 
ATOM     56  F   UNL A   1      37.206  28.651  30.132  1.00  0.00    -0.203 F 
ATOM     57  C   UNL A   1      35.965  30.005  28.658  1.00  0.00     0.198 A 
ATOM     58  C   UNL A   1      36.622  32.277  28.273  1.00  0.00     0.198 A 
ATOM     59  F   UNL A   1      38.537  33.142  29.325  1.00  0.00    -0.203 F 
ATOM     60  F   UNL A   1      35.153  28.972  28.394  1.00  0.00    -0.200 F 
ATOM     61  C   UNL A   1      35.760  31.223  28.026  1.00  0.00     0.200 A 
ATOM     62  F   UNL A   1      36.424  33.460  27.675  1.00  0.00    -0.200 F 
ATOM     63  F   UNL A   1      34.741  31.374  27.167  1.00  0.00    -0.200 F 
ENDBRANCH  29  53
BRANCH  41  64
ATOM     64  C   UNL A   1      39.159  32.246  36.539  1.00  0.00     0.064 A 
ATOM     65  C   UNL A   1      38.201  31.494  37.233  1.00  0.00     0.173 A 
ATOM     66  C   UNL A   1      39.372  33.575  36.928  1.00  0.00     0.173 A 
ATOM     67  F   UNL A   1      37.956  30.222  36.882  1.00  0.00    -0.203 F 
ATOM     68  C   UNL A   1      37.476  32.059  38.276  1.00  0.00     0.198 A 
ATOM     69  C   UNL A   1      38.668  34.127  37.991  1.00  0.00     0.198 A 
ATOM     70  F   UNL A   1      40.287  34.326  36.296  1.00  0.00    -0.203 F 
ATOM     71  F   UNL A   1      36.541  31.335  38.907  1.00  0.00    -0.200 F 
ATOM     72  C   UNL A   1      37.719  33.370  38.662  1.00  0.00     0.200 A 
ATOM     73  F   UNL A   1      38.916  35.386  38.376  1.00  0.00    -0.200 F 
ATOM     74  F   UNL A   1      37.035  33.904  39.682  1.00  0.00    -0.200 F 
ENDBRANCH  41  64
ENDBRANCH  15  16
ENDBRANCH   8  10
ENDBRANCH   7   8
ENDBRANCH   6   7
ENDBRANCH   5   6
ENDBRANCH   4   5
ENDBRANCH   3   4
ENDBRANCH   2   3
ENDBRANCH   1   2
BRANCH   1  75
ATOM     75  C   UNL A   1      39.323  23.769  27.220  1.00  0.00     0.188 C 
BRANCH  75  76
ATOM     76  C   UNL A   1      40.035  22.485  26.775  1.00  0.00     0.188 C 
BRANCH  76  77
ATOM     77  O   UNL A   1      39.519  21.664  25.736  1.00  0.00    -0.376 OA
BRANCH  77  78
ATOM     78  C   UNL A   1      38.130  21.394  25.688  1.00  0.00     0.202 C 
BRANCH  78  79
ATOM     79  C   UNL A   1      37.364  21.957  24.479  1.00  0.00     0.261 C 
BRANCH  79  80
ATOM     80  O   UNL A   1      36.369  22.961  24.778  1.00  0.00    -0.463 OA
BRANCH  80  81
ATOM     81  C   UNL A   1      35.301  23.043  23.933  1.00  0.00     0.314 C 
ATOM     82  O   UNL A   1      35.357  23.513  22.813  1.00  0.00    -0.252 OA
BRANCH  81  83
ATOM     83  C   UNL A   1      33.986  22.478  24.510  1.00  0.00     0.154 C 
ATOM     84  C   UNL A   1      32.977  21.767  23.591  1.00  0.00     0.027 C 
ATOM     85  C   UNL A   1      33.327  23.479  25.487  1.00  0.00     0.277 C 
ATOM     86  C   UNL A   1      31.692  22.530  23.250  1.00  0.00     0.062 C 
ATOM     87  N   UNL A   1      32.220  24.274  24.931  1.00  0.00    -0.330 N 
ATOM     88  C   UNL A   1      31.167  23.420  24.375  1.00  0.00     0.262 C 
ATOM     89  H   UNL A   1      32.614  24.806  24.155  1.00  0.00     0.348 HD
BRANCH  87  90
ATOM     90  C   UNL A   1      31.699  25.310  25.861  1.00  0.00     0.299 C 
BRANCH  90  91
ATOM     91  C   UNL A   1      31.902  26.764  25.453  1.00  0.00     0.014 A 
ATOM     92  C   UNL A   1      33.045  27.417  25.953  1.00  0.00     0.010 A 
ATOM     93  C   UNL A   1      30.969  27.501  24.654  1.00  0.00    -0.010 A 
ATOM     94  C   UNL A   1      33.215  28.785  25.801  1.00  0.00     0.001 A 
ATOM     95  C   UNL A   1      31.158  28.902  24.519  1.00  0.00    -0.018 A 
ATOM     96  C   UNL A   1      29.860  26.942  23.967  1.00  0.00     0.009 A 
ATOM     97  C   UNL A   1      32.262  29.525  25.114  1.00  0.00     0.009 A 
ATOM     98  C   UNL A   1      30.248  29.680  23.783  1.00  0.00     0.009 A 
ATOM     99  C   UNL A   1      28.983  27.723  23.206  1.00  0.00     0.001 A 
ATOM    100  C   UNL A   1      29.169  29.095  23.127  1.00  0.00     0.001 A 
ENDBRANCH  90  91
ENDBRANCH  87  90
ENDBRANCH  81  83
ENDBRANCH  80  81
ENDBRANCH  79  80
ENDBRANCH  78  79
ENDBRANCH  77  78
ENDBRANCH  76  77
ENDBRANCH  75  76
ENDBRANCH   1  75
TORSDOF 22
ENDMDL
MODEL 3
REMARK VINA RESULT:      -8.1      5.643     10.202
REMARK SMILES O=C(OCCOCCOCCOCCOC(=O)[C@@H]1CCC[N@@H+](Cc2cccc3ccccc23)C1)c1ccc(-c2c3nc(c(-c4c(F)c(F)c(F)c(F)c4F)c4ccc([nH]4)c(-c4c(F)c(F)c(F)c(F)c4F)c4nc(c(-c5c(F)c(F)c(F)c(F)c5F)c5ccc2[nH]5)C=C4)C=C3)cc1
REMARK SMILES IDX 9 1 8 2 7 3 6 4 5 5 4 6 3 7 2 8 1 9 35 10 36 11 97 12 37 13
REMARK SMILES IDX 96 14 38 15 39 16 40 17 90 18 41 19 95 20 89 21 91 22 42 23
REMARK SMILES IDX 94 24 88 25 87 26 43 28 75 29 55 30 74 31 56 32 59 33 73 34
REMARK SMILES IDX 92 35 57 36 58 37 72 39 93 40 60 41 44 42 45 43 53 44 46 45
REMARK SMILES IDX 47 46 51 47 54 48 48 49 49 50 52 51 50 52 76 53 77 54 85 55
REMARK SMILES IDX 78 56 79 57 83 58 86 59 80 60 81 61 84 62 82 63 61 64 62 65
REMARK SMILES IDX 70 66 63 67 64 68 68 69 71 70 65 71 66 72 69 73 67 74 10 75
REMARK SMILES IDX 11 76 12 77 13 78 14 79 15 80 16 81 17 82 18 83 19 84 34 85
REMARK SMILES IDX 20 86 22 87 21 88 23 90 24 91 25 92 33 93 26 94 28 95 32 96
REMARK SMILES IDX 27 97 29 98 31 99 30 100
REMARK H PARENT 91 27 59 38 22 89
REMARK Flexibility Score: inf
ROOT
ATOM      1  O   UNL A   1      40.023  25.650  26.392  1.00  0.00    -0.377 OA
ENDROOT
BRANCH   1   2
ATOM      2  C   UNL A   1      41.385  26.004  26.565  1.00  0.00     0.188 C 
BRANCH   2   3
ATOM      3  C   UNL A   1      42.018  26.653  25.341  1.00  0.00     0.188 C 
BRANCH   3   4
ATOM      4  O   UNL A   1      43.327  26.100  25.164  1.00  0.00    -0.376 OA
BRANCH   4   5
ATOM      5  C   UNL A   1      43.359  24.695  24.927  1.00  0.00     0.202 C 
BRANCH   5   6
ATOM      6  C   UNL A   1      44.768  24.127  24.769  1.00  0.00     0.261 C 
BRANCH   6   7
ATOM      7  O   UNL A   1      45.654  24.504  25.833  1.00  0.00    -0.460 OA
BRANCH   7   8
ATOM      8  C   UNL A   1      45.515  24.307  27.169  1.00  0.00     0.338 C 
ATOM      9  O   UNL A   1      45.959  23.258  27.637  1.00  0.00    -0.246 OA
BRANCH   8  10
ATOM     10  C   UNL A   1      44.820  25.243  28.117  1.00  0.00     0.060 A 
ATOM     11  C   UNL A   1      45.010  26.623  28.195  1.00  0.00     0.016 A 
ATOM     12  C   UNL A   1      43.850  24.679  28.969  1.00  0.00     0.016 A 
ATOM     13  C   UNL A   1      44.259  27.427  29.036  1.00  0.00     0.010 A 
ATOM     14  C   UNL A   1      43.117  25.469  29.861  1.00  0.00     0.010 A 
ATOM     15  C   UNL A   1      43.335  26.848  29.893  1.00  0.00    -0.014 A 
BRANCH  15  16
ATOM     16  C   UNL A   1      42.819  27.703  30.968  1.00  0.00     0.031 A 
ATOM     17  C   UNL A   1      41.536  28.422  30.700  1.00  0.00     0.074 A 
ATOM     18  C   UNL A   1      43.384  27.670  32.185  1.00  0.00     0.049 A 
ATOM     19  N   UNL A   1      40.908  29.303  31.425  1.00  0.00    -0.248 NA
ATOM     20  C   UNL A   1      40.845  28.074  29.442  1.00  0.00     0.031 C 
ATOM     21  C   UNL A   1      44.514  26.819  32.568  1.00  0.00     0.029 A 
ATOM     22  N   UNL A   1      43.070  28.347  33.330  1.00  0.00    -0.354 N 
ATOM     23  C   UNL A   1      39.784  29.652  30.690  1.00  0.00     0.074 A 
ATOM     24  C   UNL A   1      39.787  28.866  29.481  1.00  0.00     0.031 C 
ATOM     25  C   UNL A   1      44.805  27.037  33.861  1.00  0.00     0.029 A 
ATOM     26  C   UNL A   1      43.940  28.098  34.364  1.00  0.00     0.049 A 
ATOM     27  H   UNL A   1      42.297  28.952  33.408  1.00  0.00     0.167 HD
ATOM     28  C   UNL A   1      38.855  30.581  31.004  1.00  0.00     0.037 A 
ATOM     29  C   UNL A   1      44.050  28.725  35.549  1.00  0.00     0.037 A 
ATOM     30  C   UNL A   1      38.902  31.333  32.225  1.00  0.00     0.049 A 
ATOM     31  C   UNL A   1      43.081  29.848  35.824  1.00  0.00     0.074 A 
ATOM     32  C   UNL A   1      38.080  32.356  32.651  1.00  0.00     0.029 A 
ATOM     33  N   UNL A   1      39.851  31.130  33.222  1.00  0.00    -0.354 N 
ATOM     34  N   UNL A   1      42.068  30.262  35.096  1.00  0.00    -0.248 NA
ATOM     35  C   UNL A   1      43.283  30.612  37.060  1.00  0.00     0.031 C 
ATOM     36  C   UNL A   1      38.567  32.808  33.882  1.00  0.00     0.029 A 
ATOM     37  C   UNL A   1      39.658  32.030  34.250  1.00  0.00     0.049 A 
ATOM     38  H   UNL A   1      40.557  30.444  33.197  1.00  0.00     0.167 HD
ATOM     39  C   UNL A   1      41.507  31.326  35.784  1.00  0.00     0.074 A 
ATOM     40  C   UNL A   1      42.279  31.478  37.003  1.00  0.00     0.031 C 
ATOM     41  C   UNL A   1      40.459  32.119  35.445  1.00  0.00     0.037 A 
BRANCH  28  42
ATOM     42  C   UNL A   1      37.824  30.897  29.964  1.00  0.00     0.064 A 
ATOM     43  C   UNL A   1      37.802  32.113  29.266  1.00  0.00     0.173 A 
ATOM     44  C   UNL A   1      36.796  29.975  29.706  1.00  0.00     0.173 A 
ATOM     45  F   UNL A   1      38.736  33.045  29.504  1.00  0.00    -0.203 F 
ATOM     46  C   UNL A   1      36.776  32.405  28.368  1.00  0.00     0.198 A 
ATOM     47  C   UNL A   1      35.788  30.259  28.789  1.00  0.00     0.198 A 
ATOM     48  F   UNL A   1      36.759  28.804  30.360  1.00  0.00    -0.203 F 
ATOM     49  F   UNL A   1      36.739  33.598  27.758  1.00  0.00    -0.200 F 
ATOM     50  C   UNL A   1      35.773  31.477  28.128  1.00  0.00     0.200 A 
ATOM     51  F   UNL A   1      34.818  29.362  28.563  1.00  0.00    -0.200 F 
ATOM     52  F   UNL A   1      34.781  31.764  27.272  1.00  0.00    -0.200 F 
ENDBRANCH  28  42
BRANCH  29  53
ATOM     53  C   UNL A   1      45.158  28.392  36.488  1.00  0.00     0.064 A 
ATOM     54  C   UNL A   1      46.420  28.991  36.379  1.00  0.00     0.173 A 
ATOM     55  C   UNL A   1      44.986  27.432  37.500  1.00  0.00     0.173 A 
ATOM     56  F   UNL A   1      46.651  29.895  35.416  1.00  0.00    -0.203 F 
ATOM     57  C   UNL A   1      47.467  28.632  37.228  1.00  0.00     0.198 A 
ATOM     58  C   UNL A   1      46.022  27.098  38.370  1.00  0.00     0.198 A 
ATOM     59  F   UNL A   1      43.805  26.813  37.648  1.00  0.00    -0.203 F 
ATOM     60  F   UNL A   1      48.678  29.180  37.065  1.00  0.00    -0.200 F 
ATOM     61  C   UNL A   1      47.265  27.690  38.227  1.00  0.00     0.200 A 
ATOM     62  F   UNL A   1      45.816  26.195  39.339  1.00  0.00    -0.200 F 
ATOM     63  F   UNL A   1      48.274  27.341  39.039  1.00  0.00    -0.200 F 
ENDBRANCH  29  53
BRANCH  41  64
ATOM     64  C   UNL A   1      40.083  33.191  36.419  1.00  0.00     0.064 A 
ATOM     65  C   UNL A   1      40.652  34.470  36.350  1.00  0.00     0.173 A 
ATOM     66  C   UNL A   1      39.081  32.958  37.370  1.00  0.00     0.173 A 
ATOM     67  F   UNL A   1      41.626  34.730  35.464  1.00  0.00    -0.203 F 
ATOM     68  C   UNL A   1      40.235  35.478  37.211  1.00  0.00     0.198 A 
ATOM     69  C   UNL A   1      38.644  33.977  38.207  1.00  0.00     0.198 A 
ATOM     70  F   UNL A   1      38.504  31.750  37.462  1.00  0.00    -0.203 F 
ATOM     71  F   UNL A   1      40.813  36.686  37.153  1.00  0.00    -0.200 F 
ATOM     72  C   UNL A   1      39.224  35.234  38.130  1.00  0.00     0.200 A 
ATOM     73  F   UNL A   1      37.654  33.746  39.081  1.00  0.00    -0.200 F 
ATOM     74  F   UNL A   1      38.807  36.215  38.942  1.00  0.00    -0.200 F 
ENDBRANCH  41  64
ENDBRANCH  15  16
ENDBRANCH   8  10
ENDBRANCH   7   8
ENDBRANCH   6   7
ENDBRANCH   5   6
ENDBRANCH   4   5
ENDBRANCH   3   4
ENDBRANCH   2   3
ENDBRANCH   1   2
BRANCH   1  75
ATOM     75  C   UNL A   1      39.511  24.621  27.221  1.00  0.00     0.188 C 
BRANCH  75  76
ATOM     76  C   UNL A   1      39.235  23.214  26.677  1.00  0.00     0.188 C 
BRANCH  76  77
ATOM     77  O   UNL A   1      38.289  22.984  25.642  1.00  0.00    -0.376 OA
BRANCH  77  78
ATOM     78  C   UNL A   1      37.417  21.872  25.732  1.00  0.00     0.202 C 
BRANCH  78  79
ATOM     79  C   UNL A   1      35.910  22.175  25.682  1.00  0.00     0.261 C 
BRANCH  79  80
ATOM     80  O   UNL A   1      35.037  21.025  25.716  1.00  0.00    -0.463 OA
BRANCH  80  81
ATOM     81  C   UNL A   1      33.837  21.180  26.347  1.00  0.00     0.314 C 
ATOM     82  O   UNL A   1      33.718  21.342  27.547  1.00  0.00    -0.252 OA
BRANCH  81  83
ATOM     83  C   UNL A   1      32.612  21.139  25.409  1.00  0.00     0.154 C 
ATOM     84  C   UNL A   1      32.799  20.928  23.896  1.00  0.00     0.027 C 
ATOM     85  C   UNL A   1      31.607  22.263  25.751  1.00  0.00     0.277 C 
ATOM     86  C   UNL A   1      32.584  22.147  22.993  1.00  0.00     0.062 C 
ATOM     87  N   UNL A   1      31.669  23.455  24.890  1.00  0.00    -0.330 N 
ATOM     88  C   UNL A   1      31.500  23.109  23.477  1.00  0.00     0.262 C 
ATOM     89  H   UNL A   1      32.609  23.833  24.995  1.00  0.00     0.348 HD
BRANCH  87  90
ATOM     90  C   UNL A   1      30.776  24.560  25.330  1.00  0.00     0.299 C 
BRANCH  90  91
ATOM     91  C   UNL A   1      31.381  25.958  25.367  1.00  0.00     0.014 A 
ATOM     92  C   UNL A   1      32.509  26.146  26.187  1.00  0.00     0.010 A 
ATOM     93  C   UNL A   1      30.827  27.081  24.671  1.00  0.00    -0.010 A 
ATOM     94  C   UNL A   1      33.010  27.414  26.440  1.00  0.00     0.001 A 
ATOM     95  C   UNL A   1      31.350  28.371  24.952  1.00  0.00    -0.018 A 
ATOM     96  C   UNL A   1      29.791  27.013  23.703  1.00  0.00     0.009 A 
ATOM     97  C   UNL A   1      32.414  28.521  25.849  1.00  0.00     0.009 A 
ATOM     98  C   UNL A   1      30.813  29.511  24.330  1.00  0.00     0.009 A 
ATOM     99  C   UNL A   1      29.292  28.154  23.064  1.00  0.00     0.001 A 
ATOM    100  C   UNL A   1      29.793  29.405  23.390  1.00  0.00     0.001 A 
ENDBRANCH  90  91
ENDBRANCH  87  90
ENDBRANCH  81  83
ENDBRANCH  80  81
ENDBRANCH  79  80
ENDBRANCH  78  79
ENDBRANCH  77  78
ENDBRANCH  76  77
ENDBRANCH  75  76
ENDBRANCH   1  75
TORSDOF 22
ENDMDL
