MODEL 1
REMARK VINA RESULT:     -10.2      0.000      0.000
REMARK SMILES C[C@@H](C(=O)OCCOCCOCCOCCOC(=O)c1ccc(-c2c3nc(c(-c4c(F)c(F)c(F)c(F)c4F)c4ccc([nH]4)c(-c4c(F)c(F)c(F)c(F)c4F)c4nc(c(-c5c(F)c(F)c(F)c(F)c5F)c5ccc2[nH]5)C=C4)C=C3)cc1)c1ccc(C[C@H]2CCCC2=O)cc1
REMARK SMILES IDX 10 1 9 2 8 3 7 4 6 5 5 6 3 7 4 8 2 9 1 10 83 11 84 12 95 13
REMARK SMILES IDX 85 14 94 15 86 16 87 17 88 18 89 19 92 20 90 21 91 22 93 23
REMARK SMILES IDX 11 24 12 25 13 26 14 27 15 28 16 29 17 30 18 31 19 32 20 33
REMARK SMILES IDX 21 34 82 35 22 36 81 37 23 38 24 39 25 40 75 41 26 42 80 43
REMARK SMILES IDX 74 44 76 45 27 46 79 47 73 48 72 49 28 51 60 52 40 53 59 54
REMARK SMILES IDX 41 55 44 56 58 57 77 58 42 59 43 60 57 62 78 63 45 64 29 65
REMARK SMILES IDX 30 66 38 67 31 68 32 69 36 70 39 71 33 72 34 73 37 74 35 75
REMARK SMILES IDX 61 76 62 77 70 78 63 79 64 80 68 81 71 82 65 83 66 84 69 85
REMARK SMILES IDX 67 86 46 87 47 88 55 89 48 90 49 91 53 92 56 93 50 94 51 95
REMARK SMILES IDX 54 96 52 97
REMARK H PARENT 76 50 44 61
REMARK Flexibility Score: inf
ROOT
ATOM      1  C   UNL A   1      34.032  22.817  26.866  1.00  0.00     0.188 C 
ENDROOT
BRANCH   1   2
ATOM      2  C   UNL A   1      32.558  22.778  27.291  1.00  0.00     0.188 C 
BRANCH   2   3
ATOM      3  O   UNL A   1      31.669  23.516  26.479  1.00  0.00    -0.376 OA
BRANCH   3   4
ATOM      4  C   UNL A   1      32.009  23.836  25.139  1.00  0.00     0.202 C 
BRANCH   4   5
ATOM      5  C   UNL A   1      31.643  23.011  23.884  1.00  0.00     0.261 C 
BRANCH   5   6
ATOM      6  O   UNL A   1      32.439  23.204  22.710  1.00  0.00    -0.463 OA
BRANCH   6   7
ATOM      7  C   UNL A   1      33.060  24.396  22.541  1.00  0.00     0.313 C 
ATOM      8  O   UNL A   1      34.221  24.616  22.867  1.00  0.00    -0.252 OA
BRANCH   7   9
ATOM      9  C   UNL A   1      32.192  25.418  21.789  1.00  0.00     0.126 C 
ATOM     10  C   UNL A   1      32.620  25.637  20.325  1.00  0.00     0.025 C 
BRANCH   9  11
ATOM     11  C   UNL A   1      31.933  26.714  22.566  1.00  0.00    -0.034 A 
ATOM     12  C   UNL A   1      32.941  27.668  22.775  1.00  0.00     0.005 A 
ATOM     13  C   UNL A   1      30.688  26.956  23.168  1.00  0.00     0.005 A 
ATOM     14  C   UNL A   1      32.717  28.821  23.523  1.00  0.00     0.004 A 
ATOM     15  C   UNL A   1      30.489  28.069  23.999  1.00  0.00     0.004 A 
ATOM     16  C   UNL A   1      31.522  28.986  24.220  1.00  0.00    -0.047 A 
BRANCH  16  17
ATOM     17  C   UNL A   1      31.406  30.067  25.269  1.00  0.00     0.047 C 
BRANCH  17  18
ATOM     18  C   UNL A   1      31.838  29.644  26.687  1.00  0.00     0.060 C 
ATOM     19  C   UNL A   1      31.653  28.165  27.047  1.00  0.00     0.012 C 
ATOM     20  C   UNL A   1      33.319  29.837  26.936  1.00  0.00     0.136 C 
ATOM     21  C   UNL A   1      33.002  27.486  26.833  1.00  0.00     0.009 C 
ATOM     22  C   UNL A   1      34.054  28.539  27.154  1.00  0.00     0.076 C 
ATOM     23  O   UNL A   1      33.867  30.933  26.955  1.00  0.00    -0.299 OA
ENDBRANCH  17  18
ENDBRANCH  16  17
ENDBRANCH   9  11
ENDBRANCH   7   9
ENDBRANCH   6   7
ENDBRANCH   5   6
ENDBRANCH   4   5
ENDBRANCH   3   4
ENDBRANCH   2   3
ENDBRANCH   1   2
BRANCH   1  24
ATOM     24  O   UNL A   1      34.594  21.555  26.545  1.00  0.00    -0.377 OA
BRANCH  24  25
ATOM     25  C   UNL A   1      35.193  21.389  25.263  1.00  0.00     0.188 C 
BRANCH  25  26
ATOM     26  C   UNL A   1      36.430  22.205  24.822  1.00  0.00     0.188 C 
BRANCH  26  27
ATOM     27  O   UNL A   1      37.646  21.477  24.764  1.00  0.00    -0.376 OA
BRANCH  27  28
ATOM     28  C   UNL A   1      37.599  20.063  24.858  1.00  0.00     0.202 C 
BRANCH  28  29
ATOM     29  C   UNL A   1      38.870  19.348  25.343  1.00  0.00     0.261 C 
BRANCH  29  30
ATOM     30  O   UNL A   1      39.780  20.138  26.127  1.00  0.00    -0.460 OA
BRANCH  30  31
ATOM     31  C   UNL A   1      41.077  19.771  26.144  1.00  0.00     0.338 C 
ATOM     32  O   UNL A   1      41.554  18.713  25.770  1.00  0.00    -0.246 OA
BRANCH  31  33
ATOM     33  C   UNL A   1      41.874  20.958  26.517  1.00  0.00     0.060 A 
ATOM     34  C   UNL A   1      42.045  21.263  27.874  1.00  0.00     0.016 A 
ATOM     35  C   UNL A   1      42.456  21.761  25.533  1.00  0.00     0.016 A 
ATOM     36  C   UNL A   1      42.767  22.395  28.250  1.00  0.00     0.010 A 
ATOM     37  C   UNL A   1      43.157  22.908  25.910  1.00  0.00     0.010 A 
ATOM     38  C   UNL A   1      43.283  23.251  27.269  1.00  0.00    -0.014 A 
BRANCH  38  39
ATOM     39  C   UNL A   1      43.760  24.603  27.651  1.00  0.00     0.031 A 
ATOM     40  C   UNL A   1      42.733  25.638  28.019  1.00  0.00     0.074 A 
ATOM     41  C   UNL A   1      45.069  24.903  27.698  1.00  0.00     0.049 A 
ATOM     42  N   UNL A   1      42.890  26.900  28.327  1.00  0.00    -0.248 NA
ATOM     43  C   UNL A   1      41.331  25.186  28.040  1.00  0.00     0.031 C 
ATOM     44  C   UNL A   1      46.160  23.976  27.412  1.00  0.00     0.029 A 
ATOM     45  N   UNL A   1      45.699  26.087  27.994  1.00  0.00    -0.354 N 
ATOM     46  C   UNL A   1      41.613  27.390  28.569  1.00  0.00     0.074 A 
ATOM     47  C   UNL A   1      40.689  26.303  28.340  1.00  0.00     0.031 C 
ATOM     48  C   UNL A   1      47.328  24.630  27.532  1.00  0.00     0.029 A 
ATOM     49  C   UNL A   1      47.064  26.030  27.864  1.00  0.00     0.049 A 
ATOM     50  H   UNL A   1      45.218  26.899  28.273  1.00  0.00     0.167 HD
ATOM     51  C   UNL A   1      41.246  28.634  28.957  1.00  0.00     0.037 A 
ATOM     52  C   UNL A   1      47.989  27.005  27.973  1.00  0.00     0.037 A 
ATOM     53  C   UNL A   1      42.170  29.716  29.180  1.00  0.00     0.049 A 
ATOM     54  C   UNL A   1      47.547  28.406  28.323  1.00  0.00     0.074 A 
ATOM     55  C   UNL A   1      41.900  31.011  29.583  1.00  0.00     0.029 A 
ATOM     56  N   UNL A   1      43.544  29.628  29.007  1.00  0.00    -0.354 N 
ATOM     57  N   UNL A   1      46.341  28.860  28.571  1.00  0.00    -0.248 NA
ATOM     58  C   UNL A   1      48.597  29.430  28.410  1.00  0.00     0.031 C 
ATOM     59  C   UNL A   1      43.103  31.723  29.593  1.00  0.00     0.029 A 
ATOM     60  C   UNL A   1      44.131  30.855  29.267  1.00  0.00     0.049 A 
ATOM     61  H   UNL A   1      44.029  28.814  28.739  1.00  0.00     0.167 HD
ATOM     62  C   UNL A   1      46.493  30.207  28.876  1.00  0.00     0.074 A 
ATOM     63  C   UNL A   1      47.909  30.494  28.797  1.00  0.00     0.031 C 
ATOM     64  C   UNL A   1      45.545  31.124  29.195  1.00  0.00     0.037 A 
BRANCH  51  65
ATOM     65  C   UNL A   1      39.780  28.901  29.136  1.00  0.00     0.064 A 
ATOM     66  C   UNL A   1      39.140  28.723  30.373  1.00  0.00     0.173 A 
ATOM     67  C   UNL A   1      39.010  29.371  28.062  1.00  0.00     0.173 A 
ATOM     68  F   UNL A   1      39.826  28.259  31.428  1.00  0.00    -0.203 F 
ATOM     69  C   UNL A   1      37.779  28.980  30.518  1.00  0.00     0.198 A 
ATOM     70  C   UNL A   1      37.657  29.661  28.220  1.00  0.00     0.198 A 
ATOM     71  F   UNL A   1      39.571  29.562  26.858  1.00  0.00    -0.203 F 
ATOM     72  F   UNL A   1      37.177  28.752  31.694  1.00  0.00    -0.200 F 
ATOM     73  C   UNL A   1      37.041  29.457  29.445  1.00  0.00     0.200 A 
ATOM     74  F   UNL A   1      36.950  30.135  27.186  1.00  0.00    -0.200 F 
ATOM     75  F   UNL A   1      35.734  29.714  29.590  1.00  0.00    -0.200 F 
ENDBRANCH  51  65
BRANCH  52  76
ATOM     76  C   UNL A   1      49.426  26.704  27.727  1.00  0.00     0.064 A 
ATOM     77  C   UNL A   1      50.308  26.458  28.788  1.00  0.00     0.173 A 
ATOM     78  C   UNL A   1      49.953  26.694  26.428  1.00  0.00     0.173 A 
ATOM     79  F   UNL A   1      49.861  26.484  30.051  1.00  0.00    -0.203 F 
ATOM     80  C   UNL A   1      51.666  26.237  28.561  1.00  0.00     0.198 A 
ATOM     81  C   UNL A   1      51.304  26.439  26.198  1.00  0.00     0.198 A 
ATOM     82  F   UNL A   1      49.155  26.929  25.376  1.00  0.00    -0.203 F 
ATOM     83  F   UNL A   1      52.497  26.063  29.597  1.00  0.00    -0.200 F 
ATOM     84  C   UNL A   1      52.162  26.223  27.265  1.00  0.00     0.200 A 
ATOM     85  F   UNL A   1      51.775  26.414  24.944  1.00  0.00    -0.200 F 
ATOM     86  F   UNL A   1      53.466  26.009  27.047  1.00  0.00    -0.200 F 
ENDBRANCH  52  76
BRANCH  64  87
ATOM     87  C   UNL A   1      46.008  32.514  29.534  1.00  0.00     0.064 A 
ATOM     88  C   UNL A   1      46.100  33.522  28.563  1.00  0.00     0.173 A 
ATOM     89  C   UNL A   1      46.319  32.853  30.860  1.00  0.00     0.173 A 
ATOM     90  F   UNL A   1      45.826  33.251  27.279  1.00  0.00    -0.203 F 
ATOM     91  C   UNL A   1      46.515  34.809  28.903  1.00  0.00     0.198 A 
ATOM     92  C   UNL A   1      46.697  34.147  31.203  1.00  0.00     0.198 A 
ATOM     93  F   UNL A   1      46.238  31.930  31.831  1.00  0.00    -0.203 F 
ATOM     94  F   UNL A   1      46.648  35.741  27.950  1.00  0.00    -0.200 F 
ATOM     95  C   UNL A   1      46.806  35.121  30.222  1.00  0.00     0.200 A 
ATOM     96  F   UNL A   1      46.959  34.452  32.481  1.00  0.00    -0.200 F 
ATOM     97  F   UNL A   1      47.195  36.361  30.548  1.00  0.00    -0.200 F 
ENDBRANCH  64  87
ENDBRANCH  38  39
ENDBRANCH  31  33
ENDBRANCH  30  31
ENDBRANCH  29  30
ENDBRANCH  28  29
ENDBRANCH  27  28
ENDBRANCH  26  27
ENDBRANCH  25  26
ENDBRANCH  24  25
ENDBRANCH   1  24
TORSDOF 23
ENDMDL
MODEL 2
REMARK VINA RESULT:     -10.1      3.033      9.279
REMARK SMILES C[C@@H](C(=O)OCCOCCOCCOCCOC(=O)c1ccc(-c2c3nc(c(-c4c(F)c(F)c(F)c(F)c4F)c4ccc([nH]4)c(-c4c(F)c(F)c(F)c(F)c4F)c4nc(c(-c5c(F)c(F)c(F)c(F)c5F)c5ccc2[nH]5)C=C4)C=C3)cc1)c1ccc(C[C@H]2CCCC2=O)cc1
REMARK SMILES IDX 10 1 9 2 8 3 7 4 6 5 5 6 3 7 4 8 2 9 1 10 83 11 84 12 95 13
REMARK SMILES IDX 85 14 94 15 86 16 87 17 88 18 89 19 92 20 90 21 91 22 93 23
REMARK SMILES IDX 11 24 12 25 13 26 14 27 15 28 16 29 17 30 18 31 19 32 20 33
REMARK SMILES IDX 21 34 82 35 22 36 81 37 23 38 24 39 25 40 75 41 26 42 80 43
REMARK SMILES IDX 74 44 76 45 27 46 79 47 73 48 72 49 28 51 60 52 40 53 59 54
REMARK SMILES IDX 41 55 44 56 58 57 77 58 42 59 43 60 57 62 78 63 45 64 29 65
REMARK SMILES IDX 30 66 38 67 31 68 32 69 36 70 39 71 33 72 34 73 37 74 35 75
REMARK SMILES IDX 61 76 62 77 70 78 63 79 64 80 68 81 71 82 65 83 66 84 69 85
REMARK SMILES IDX 67 86 46 87 47 88 55 89 48 90 49 91 53 92 56 93 50 94 51 95
REMARK SMILES IDX 54 96 52 97
REMARK H PARENT 76 50 44 61
REMARK Flexibility Score: inf
ROOT
ATOM      1  C   UNL A   1      35.076  32.015  27.769  1.00  0.00     0.188 C 
ENDROOT
BRANCH   1   2
ATOM      2  C   UNL A   1      33.626  31.593  27.498  1.00  0.00     0.188 C 
BRANCH   2   3
ATOM      3  O   UNL A   1      33.354  30.216  27.644  1.00  0.00    -0.376 OA
BRANCH   3   4
ATOM      4  C   UNL A   1      32.372  29.583  26.839  1.00  0.00     0.202 C 
BRANCH   4   5
ATOM      5  C   UNL A   1      31.887  30.058  25.450  1.00  0.00     0.261 C 
BRANCH   5   6
ATOM      6  O   UNL A   1      31.435  29.059  24.529  1.00  0.00    -0.463 OA
BRANCH   6   7
ATOM      7  C   UNL A   1      31.871  27.788  24.692  1.00  0.00     0.313 C 
ATOM      8  O   UNL A   1      31.224  26.908  25.251  1.00  0.00    -0.252 OA
BRANCH   7   9
ATOM      9  C   UNL A   1      33.219  27.526  24.001  1.00  0.00     0.126 C 
ATOM     10  C   UNL A   1      33.283  28.046  22.552  1.00  0.00     0.025 C 
BRANCH   9  11
ATOM     11  C   UNL A   1      33.749  26.099  24.178  1.00  0.00    -0.034 A 
ATOM     12  C   UNL A   1      34.375  25.681  25.362  1.00  0.00     0.005 A 
ATOM     13  C   UNL A   1      33.698  25.175  23.122  1.00  0.00     0.005 A 
ATOM     14  C   UNL A   1      34.901  24.400  25.502  1.00  0.00     0.004 A 
ATOM     15  C   UNL A   1      34.309  23.917  23.228  1.00  0.00     0.004 A 
ATOM     16  C   UNL A   1      34.958  23.539  24.409  1.00  0.00    -0.047 A 
BRANCH  16  17
ATOM     17  C   UNL A   1      35.803  22.289  24.479  1.00  0.00     0.047 C 
BRANCH  17  18
ATOM     18  C   UNL A   1      35.264  21.192  25.418  1.00  0.00     0.060 C 
ATOM     19  C   UNL A   1      33.740  21.108  25.570  1.00  0.00     0.012 C 
ATOM     20  C   UNL A   1      35.603  19.793  24.950  1.00  0.00     0.136 C 
ATOM     21  C   UNL A   1      33.262  20.013  24.621  1.00  0.00     0.009 C 
ATOM     22  C   UNL A   1      34.387  18.989  24.566  1.00  0.00     0.076 C 
ATOM     23  O   UNL A   1      36.747  19.358  24.885  1.00  0.00    -0.299 OA
ENDBRANCH  17  18
ENDBRANCH  16  17
ENDBRANCH   9  11
ENDBRANCH   7   9
ENDBRANCH   6   7
ENDBRANCH   5   6
ENDBRANCH   4   5
ENDBRANCH   3   4
ENDBRANCH   2   3
ENDBRANCH   1   2
BRANCH   1  24
ATOM     24  O   UNL A   1      35.309  33.412  27.731  1.00  0.00    -0.377 OA
BRANCH  24  25
ATOM     25  C   UNL A   1      35.292  34.134  28.958  1.00  0.00     0.188 C 
BRANCH  25  26
ATOM     26  C   UNL A   1      33.973  34.564  29.642  1.00  0.00     0.188 C 
BRANCH  26  27
ATOM     27  O   UNL A   1      34.126  35.327  30.827  1.00  0.00    -0.376 OA
BRANCH  27  28
ATOM     28  C   UNL A   1      33.666  34.781  32.053  1.00  0.00     0.202 C 
BRANCH  28  29
ATOM     29  C   UNL A   1      34.348  33.498  32.552  1.00  0.00     0.261 C 
BRANCH  29  30
ATOM     30  O   UNL A   1      35.770  33.419  32.354  1.00  0.00    -0.460 OA
BRANCH  30  31
ATOM     31  C   UNL A   1      36.481  32.641  33.195  1.00  0.00     0.338 C 
ATOM     32  O   UNL A   1      36.287  32.467  34.386  1.00  0.00    -0.246 OA
BRANCH  31  33
ATOM     33  C   UNL A   1      37.438  31.861  32.385  1.00  0.00     0.060 A 
ATOM     34  C   UNL A   1      38.363  31.033  33.035  1.00  0.00     0.016 A 
ATOM     35  C   UNL A   1      37.420  31.941  30.990  1.00  0.00     0.016 A 
ATOM     36  C   UNL A   1      39.297  30.310  32.294  1.00  0.00     0.010 A 
ATOM     37  C   UNL A   1      38.372  31.236  30.251  1.00  0.00     0.010 A 
ATOM     38  C   UNL A   1      39.340  30.448  30.902  1.00  0.00    -0.014 A 
BRANCH  38  39
ATOM     39  C   UNL A   1      40.516  29.948  30.149  1.00  0.00     0.031 A 
ATOM     40  C   UNL A   1      41.655  30.900  29.902  1.00  0.00     0.074 A 
ATOM     41  C   UNL A   1      40.591  28.678  29.718  1.00  0.00     0.049 A 
ATOM     42  N   UNL A   1      42.758  30.724  29.222  1.00  0.00    -0.248 NA
ATOM     43  C   UNL A   1      41.526  32.238  30.503  1.00  0.00     0.031 C 
ATOM     44  C   UNL A   1      39.579  27.649  29.938  1.00  0.00     0.029 A 
ATOM     45  N   UNL A   1      41.568  28.043  28.990  1.00  0.00    -0.354 N 
ATOM     46  C   UNL A   1      43.449  31.926  29.308  1.00  0.00     0.074 A 
ATOM     47  C   UNL A   1      42.627  32.835  30.075  1.00  0.00     0.031 C 
ATOM     48  C   UNL A   1      39.978  26.512  29.342  1.00  0.00     0.029 A 
ATOM     49  C   UNL A   1      41.256  26.745  28.669  1.00  0.00     0.049 A 
ATOM     50  H   UNL A   1      42.410  28.476  28.725  1.00  0.00     0.167 HD
ATOM     51  C   UNL A   1      44.664  32.240  28.801  1.00  0.00     0.037 A 
ATOM     52  C   UNL A   1      41.916  25.860  27.894  1.00  0.00     0.037 A 
ATOM     53  C   UNL A   1      45.477  31.334  28.034  1.00  0.00     0.049 A 
ATOM     54  C   UNL A   1      43.229  26.262  27.268  1.00  0.00     0.074 A 
ATOM     55  C   UNL A   1      46.727  31.552  27.483  1.00  0.00     0.029 A 
ATOM     56  N   UNL A   1      45.113  30.037  27.701  1.00  0.00    -0.354 N 
ATOM     57  N   UNL A   1      43.887  27.392  27.369  1.00  0.00    -0.248 NA
ATOM     58  C   UNL A   1      43.893  25.261  26.420  1.00  0.00     0.031 C 
ATOM     59  C   UNL A   1      47.092  30.409  26.765  1.00  0.00     0.029 A 
ATOM     60  C   UNL A   1      46.103  29.453  26.927  1.00  0.00     0.049 A 
ATOM     61  H   UNL A   1      44.276  29.597  27.975  1.00  0.00     0.167 HD
ATOM     62  C   UNL A   1      45.053  27.226  26.631  1.00  0.00     0.074 A 
ATOM     63  C   UNL A   1      45.019  25.880  26.098  1.00  0.00     0.031 C 
ATOM     64  C   UNL A   1      46.061  28.107  26.414  1.00  0.00     0.037 A 
BRANCH  51  65
ATOM     65  C   UNL A   1      45.175  33.633  29.033  1.00  0.00     0.064 A 
ATOM     66  C   UNL A   1      44.826  34.700  28.190  1.00  0.00     0.173 A 
ATOM     67  C   UNL A   1      46.002  33.909  30.132  1.00  0.00     0.173 A 
ATOM     68  F   UNL A   1      44.051  34.487  27.116  1.00  0.00    -0.203 F 
ATOM     69  C   UNL A   1      45.308  35.985  28.425  1.00  0.00     0.198 A 
ATOM     70  C   UNL A   1      46.454  35.202  30.383  1.00  0.00     0.198 A 
ATOM     71  F   UNL A   1      46.365  32.927  30.971  1.00  0.00    -0.203 F 
ATOM     72  F   UNL A   1      45.005  36.978  27.578  1.00  0.00    -0.200 F 
ATOM     73  C   UNL A   1      46.114  36.236  29.526  1.00  0.00     0.200 A 
ATOM     74  F   UNL A   1      47.220  35.446  31.455  1.00  0.00    -0.200 F 
ATOM     75  F   UNL A   1      46.568  37.476  29.756  1.00  0.00    -0.200 F 
ENDBRANCH  51  65
BRANCH  52  76
ATOM     76  C   UNL A   1      41.339  24.511  27.644  1.00  0.00     0.064 A 
ATOM     77  C   UNL A   1      41.904  23.362  28.216  1.00  0.00     0.173 A 
ATOM     78  C   UNL A   1      40.234  24.339  26.798  1.00  0.00     0.173 A 
ATOM     79  F   UNL A   1      42.979  23.468  29.010  1.00  0.00    -0.203 F 
ATOM     80  C   UNL A   1      41.402  22.093  27.932  1.00  0.00     0.198 A 
ATOM     81  C   UNL A   1      39.711  23.073  26.541  1.00  0.00     0.198 A 
ATOM     82  F   UNL A   1      39.658  25.403  26.220  1.00  0.00    -0.203 F 
ATOM     83  F   UNL A   1      41.997  21.008  28.444  1.00  0.00    -0.200 F 
ATOM     84  C   UNL A   1      40.302  21.950  27.099  1.00  0.00     0.200 A 
ATOM     85  F   UNL A   1      38.640  22.942  25.746  1.00  0.00    -0.200 F 
ATOM     86  F   UNL A   1      39.818  20.730  26.827  1.00  0.00    -0.200 F 
ENDBRANCH  52  76
BRANCH  64  87
ATOM     87  C   UNL A   1      47.239  27.633  25.608  1.00  0.00     0.064 A 
ATOM     88  C   UNL A   1      47.272  27.738  24.209  1.00  0.00     0.173 A 
ATOM     89  C   UNL A   1      48.370  27.107  26.251  1.00  0.00     0.173 A 
ATOM     90  F   UNL A   1      46.213  28.222  23.543  1.00  0.00    -0.203 F 
ATOM     91  C   UNL A   1      48.381  27.307  23.483  1.00  0.00     0.198 A 
ATOM     92  C   UNL A   1      49.492  26.712  25.526  1.00  0.00     0.198 A 
ATOM     93  F   UNL A   1      48.398  26.993  27.587  1.00  0.00    -0.203 F 
ATOM     94  F   UNL A   1      48.368  27.367  22.145  1.00  0.00    -0.200 F 
ATOM     95  C   UNL A   1      49.491  26.802  24.143  1.00  0.00     0.200 A 
ATOM     96  F   UNL A   1      50.571  26.243  26.167  1.00  0.00    -0.200 F 
ATOM     97  F   UNL A   1      50.561  26.398  23.444  1.00  0.00    -0.200 F 
ENDBRANCH  64  87
ENDBRANCH  38  39
ENDBRANCH  31  33
ENDBRANCH  30  31
ENDBRANCH  29  30
ENDBRANCH  28  29
ENDBRANCH  27  28
ENDBRANCH  26  27
ENDBRANCH  25  26
ENDBRANCH  24  25
ENDBRANCH   1  24
TORSDOF 23
ENDMDL
MODEL 3
REMARK VINA RESULT:      -9.9      2.986      8.114
REMARK SMILES C[C@@H](C(=O)OCCOCCOCCOCCOC(=O)c1ccc(-c2c3nc(c(-c4c(F)c(F)c(F)c(F)c4F)c4ccc([nH]4)c(-c4c(F)c(F)c(F)c(F)c4F)c4nc(c(-c5c(F)c(F)c(F)c(F)c5F)c5ccc2[nH]5)C=C4)C=C3)cc1)c1ccc(C[C@H]2CCCC2=O)cc1
REMARK SMILES IDX 10 1 9 2 8 3 7 4 6 5 5 6 3 7 4 8 2 9 1 10 83 11 84 12 95 13
REMARK SMILES IDX 85 14 94 15 86 16 87 17 88 18 89 19 92 20 90 21 91 22 93 23
REMARK SMILES IDX 11 24 12 25 13 26 14 27 15 28 16 29 17 30 18 31 19 32 20 33
REMARK SMILES IDX 21 34 82 35 22 36 81 37 23 38 24 39 25 40 75 41 26 42 80 43
REMARK SMILES IDX 74 44 76 45 27 46 79 47 73 48 72 49 28 51 60 52 40 53 59 54
REMARK SMILES IDX 41 55 44 56 58 57 77 58 42 59 43 60 57 62 78 63 45 64 29 65
REMARK SMILES IDX 30 66 38 67 31 68 32 69 36 70 39 71 33 72 34 73 37 74 35 75
REMARK SMILES IDX 61 76 62 77 70 78 63 79 64 80 68 81 71 82 65 83 66 84 69 85
REMARK SMILES IDX 67 86 46 87 47 88 55 89 48 90 49 91 53 92 56 93 50 94 51 95
REMARK SMILES IDX 54 96 52 97
REMARK H PARENT 76 50 44 61
REMARK Flexibility Score: inf
ROOT
ATOM      1  C   UNL A   1      33.946  22.766  27.010  1.00  0.00     0.188 C 
ENDROOT
BRANCH   1   2
ATOM      2  C   UNL A   1      32.442  22.886  27.290  1.00  0.00     0.188 C 
BRANCH   2   3
ATOM      3  O   UNL A   1      31.674  23.467  26.259  1.00  0.00    -0.376 OA
BRANCH   3   4
ATOM      4  C   UNL A   1      32.216  23.637  24.960  1.00  0.00     0.202 C 
BRANCH   4   5
ATOM      5  C   UNL A   1      31.957  22.726  23.737  1.00  0.00     0.261 C 
BRANCH   5   6
ATOM      6  O   UNL A   1      32.557  23.102  22.493  1.00  0.00    -0.463 OA
BRANCH   6   7
ATOM      7  C   UNL A   1      33.123  24.328  22.394  1.00  0.00     0.313 C 
ATOM      8  O   UNL A   1      34.276  24.580  22.725  1.00  0.00    -0.252 OA
BRANCH   7   9
ATOM      9  C   UNL A   1      32.203  25.354  21.712  1.00  0.00     0.126 C 
ATOM     10  C   UNL A   1      32.580  25.648  20.248  1.00  0.00     0.025 C 
BRANCH   9  11
ATOM     11  C   UNL A   1      31.929  26.607  22.551  1.00  0.00    -0.034 A 
ATOM     12  C   UNL A   1      32.782  27.721  22.522  1.00  0.00     0.005 A 
ATOM     13  C   UNL A   1      30.849  26.652  23.447  1.00  0.00     0.005 A 
ATOM     14  C   UNL A   1      32.559  28.838  23.323  1.00  0.00     0.004 A 
ATOM     15  C   UNL A   1      30.676  27.736  24.320  1.00  0.00     0.004 A 
ATOM     16  C   UNL A   1      31.561  28.819  24.296  1.00  0.00    -0.047 A 
BRANCH  16  17
ATOM     17  C   UNL A   1      31.528  29.890  25.360  1.00  0.00     0.047 C 
BRANCH  17  18
ATOM     18  C   UNL A   1      32.147  29.483  26.712  1.00  0.00     0.060 C 
ATOM     19  C   UNL A   1      32.951  28.177  26.731  1.00  0.00     0.012 C 
ATOM     20  C   UNL A   1      33.168  30.479  27.218  1.00  0.00     0.136 C 
ATOM     21  C   UNL A   1      34.420  28.561  26.593  1.00  0.00     0.009 C 
ATOM     22  C   UNL A   1      34.564  29.913  27.278  1.00  0.00     0.076 C 
ATOM     23  O   UNL A   1      32.892  31.629  27.542  1.00  0.00    -0.299 OA
ENDBRANCH  17  18
ENDBRANCH  16  17
ENDBRANCH   9  11
ENDBRANCH   7   9
ENDBRANCH   6   7
ENDBRANCH   5   6
ENDBRANCH   4   5
ENDBRANCH   3   4
ENDBRANCH   2   3
ENDBRANCH   1   2
BRANCH   1  24
ATOM     24  O   UNL A   1      34.418  21.441  26.840  1.00  0.00    -0.377 OA
BRANCH  24  25
ATOM     25  C   UNL A   1      34.832  21.032  25.540  1.00  0.00     0.188 C 
BRANCH  25  26
ATOM     26  C   UNL A   1      35.507  22.008  24.548  1.00  0.00     0.188 C 
BRANCH  26  27
ATOM     27  O   UNL A   1      36.915  21.881  24.438  1.00  0.00    -0.376 OA
BRANCH  27  28
ATOM     28  C   UNL A   1      37.558  20.808  25.107  1.00  0.00     0.202 C 
BRANCH  28  29
ATOM     29  C   UNL A   1      38.939  21.088  25.718  1.00  0.00     0.261 C 
BRANCH  29  30
ATOM     30  O   UNL A   1      39.158  22.424  26.204  1.00  0.00    -0.460 OA
BRANCH  30  31
ATOM     31  C   UNL A   1      40.430  22.864  26.285  1.00  0.00     0.338 C 
ATOM     32  O   UNL A   1      41.426  22.344  25.810  1.00  0.00    -0.246 OA
BRANCH  31  33
ATOM     33  C   UNL A   1      40.401  24.211  26.890  1.00  0.00     0.060 A 
ATOM     34  C   UNL A   1      41.004  25.276  26.206  1.00  0.00     0.016 A 
ATOM     35  C   UNL A   1      39.776  24.425  28.120  1.00  0.00     0.016 A 
ATOM     36  C   UNL A   1      41.017  26.551  26.770  1.00  0.00     0.010 A 
ATOM     37  C   UNL A   1      39.813  25.697  28.696  1.00  0.00     0.010 A 
ATOM     38  C   UNL A   1      40.467  26.757  28.041  1.00  0.00    -0.014 A 
BRANCH  38  39
ATOM     39  C   UNL A   1      40.761  28.012  28.774  1.00  0.00     0.031 A 
ATOM     40  C   UNL A   1      42.143  28.193  29.341  1.00  0.00     0.074 A 
ATOM     41  C   UNL A   1      39.841  28.981  28.915  1.00  0.00     0.049 A 
ATOM     42  N   UNL A   1      42.627  29.166  30.069  1.00  0.00    -0.248 NA
ATOM     43  C   UNL A   1      43.112  27.124  29.046  1.00  0.00     0.031 C 
ATOM     44  C   UNL A   1      38.486  28.946  28.371  1.00  0.00     0.029 A 
ATOM     45  N   UNL A   1      39.910  30.184  29.574  1.00  0.00    -0.354 N 
ATOM     46  C   UNL A   1      43.949  28.823  30.324  1.00  0.00     0.074 A 
ATOM     47  C   UNL A   1      44.183  27.539  29.703  1.00  0.00     0.031 C 
ATOM     48  C   UNL A   1      37.844  30.070  28.732  1.00  0.00     0.029 A 
ATOM     49  C   UNL A   1      38.730  30.884  29.564  1.00  0.00     0.049 A 
ATOM     50  H   UNL A   1      40.728  30.512  30.012  1.00  0.00     0.167 HD
ATOM     51  C   UNL A   1      44.886  29.522  31.006  1.00  0.00     0.037 A 
ATOM     52  C   UNL A   1      38.398  32.037  30.181  1.00  0.00     0.037 A 
ATOM     53  C   UNL A   1      44.647  30.799  31.627  1.00  0.00     0.049 A 
ATOM     54  C   UNL A   1      39.436  32.756  31.009  1.00  0.00     0.074 A 
ATOM     55  C   UNL A   1      45.532  31.593  32.334  1.00  0.00     0.029 A 
ATOM     56  N   UNL A   1      43.429  31.463  31.622  1.00  0.00    -0.354 N 
ATOM     57  N   UNL A   1      40.690  32.438  31.230  1.00  0.00    -0.248 NA
ATOM     58  C   UNL A   1      39.012  33.997  31.672  1.00  0.00     0.031 C 
ATOM     59  C   UNL A   1      44.833  32.707  32.810  1.00  0.00     0.029 A 
ATOM     60  C   UNL A   1      43.532  32.643  32.340  1.00  0.00     0.049 A 
ATOM     61  H   UNL A   1      42.612  31.142  31.175  1.00  0.00     0.167 HD
ATOM     62  C   UNL A   1      41.209  33.454  32.023  1.00  0.00     0.074 A 
ATOM     63  C   UNL A   1      40.139  34.406  32.234  1.00  0.00     0.031 C 
ATOM     64  C   UNL A   1      42.460  33.588  32.532  1.00  0.00     0.037 A 
BRANCH  51  65
ATOM     65  C   UNL A   1      46.248  28.907  31.145  1.00  0.00     0.064 A 
ATOM     66  C   UNL A   1      46.575  28.066  32.220  1.00  0.00     0.173 A 
ATOM     67  C   UNL A   1      47.231  29.138  30.171  1.00  0.00     0.173 A 
ATOM     68  F   UNL A   1      45.678  27.826  33.188  1.00  0.00    -0.203 F 
ATOM     69  C   UNL A   1      47.844  27.503  32.328  1.00  0.00     0.198 A 
ATOM     70  C   UNL A   1      48.488  28.545  30.264  1.00  0.00     0.198 A 
ATOM     71  F   UNL A   1      46.971  29.932  29.121  1.00  0.00    -0.203 F 
ATOM     72  F   UNL A   1      48.152  26.746  33.390  1.00  0.00    -0.200 F 
ATOM     73  C   UNL A   1      48.796  27.735  31.346  1.00  0.00     0.200 A 
ATOM     74  F   UNL A   1      49.400  28.758  29.306  1.00  0.00    -0.200 F 
ATOM     75  F   UNL A   1      50.013  27.183  31.446  1.00  0.00    -0.200 F 
ENDBRANCH  51  65
BRANCH  52  76
ATOM     76  C   UNL A   1      37.017  32.576  30.064  1.00  0.00     0.064 A 
ATOM     77  C   UNL A   1      36.616  33.308  28.937  1.00  0.00     0.173 A 
ATOM     78  C   UNL A   1      36.080  32.404  31.094  1.00  0.00     0.173 A 
ATOM     79  F   UNL A   1      37.482  33.525  27.937  1.00  0.00    -0.203 F 
ATOM     80  C   UNL A   1      35.341  33.866  28.856  1.00  0.00     0.198 A 
ATOM     81  C   UNL A   1      34.794  32.933  30.997  1.00  0.00     0.198 A 
ATOM     82  F   UNL A   1      36.412  31.718  32.197  1.00  0.00    -0.203 F 
ATOM     83  F   UNL A   1      35.004  34.610  27.794  1.00  0.00    -0.200 F 
ATOM     84  C   UNL A   1      34.429  33.673  29.883  1.00  0.00     0.200 A 
ATOM     85  F   UNL A   1      33.914  32.733  31.987  1.00  0.00    -0.200 F 
ATOM     86  F   UNL A   1      33.204  34.209  29.804  1.00  0.00    -0.200 F 
ENDBRANCH  52  76
BRANCH  64  87
ATOM     87  C   UNL A   1      42.761  34.831  33.323  1.00  0.00     0.064 A 
ATOM     88  C   UNL A   1      43.182  36.019  32.707  1.00  0.00     0.173 A 
ATOM     89  C   UNL A   1      42.580  34.844  34.715  1.00  0.00     0.173 A 
ATOM     90  F   UNL A   1      43.381  36.059  31.381  1.00  0.00    -0.203 F 
ATOM     91  C   UNL A   1      43.439  37.164  33.459  1.00  0.00     0.198 A 
ATOM     92  C   UNL A   1      42.802  35.999  35.459  1.00  0.00     0.198 A 
ATOM     93  F   UNL A   1      42.169  33.739  35.355  1.00  0.00    -0.203 F 
ATOM     94  F   UNL A   1      43.892  38.271  32.856  1.00  0.00    -0.200 F 
ATOM     95  C   UNL A   1      43.241  37.155  34.831  1.00  0.00     0.200 A 
ATOM     96  F   UNL A   1      42.592  35.994  36.782  1.00  0.00    -0.200 F 
ATOM     97  F   UNL A   1      43.480  38.260  35.551  1.00  0.00    -0.200 F 
ENDBRANCH  64  87
ENDBRANCH  38  39
ENDBRANCH  31  33
ENDBRANCH  30  31
ENDBRANCH  29  30
ENDBRANCH  28  29
ENDBRANCH  27  28
ENDBRANCH  26  27
ENDBRANCH  25  26
ENDBRANCH  24  25
ENDBRANCH   1  24
TORSDOF 23
ENDMDL
