MODEL 1
REMARK VINA RESULT:     -10.6      0.000      0.000
REMARK SMILES Cc1ccc(C)c(-c2csc(C(=O)OCCOCCOCCOCCOC(=O)c3ccc(-c4c5nc(c(-c6c(F)c(F)c(F)c(F)c6F)c6ccc([nH]6)c(-c6c(F)c(F)c(F)c(F)c6F)c6nc(c(-c7c(F)c(F)c(F)c(F)c7F)c7ccc4[nH]7)C=C6)C=C5)cc3)n2)c1
REMARK SMILES IDX 21 1 20 2 19 3 18 4 17 5 16 6 15 7 14 8 12 9 13 10 11 11
REMARK SMILES IDX 8 12 9 13 92 14 10 15 7 16 1 17 2 18 3 19 93 20 4 21 5 22
REMARK SMILES IDX 6 23 22 24 23 25 24 26 25 27 26 28 27 29 28 30 29 31 30 32
REMARK SMILES IDX 91 33 31 34 90 35 32 36 33 37 34 38 84 39 35 40 89 41 83 42
REMARK SMILES IDX 85 43 36 44 88 45 82 46 81 47 37 49 69 50 49 51 68 52 50 53
REMARK SMILES IDX 53 54 67 55 86 56 51 57 52 58 66 60 87 61 54 62 38 63 39 64
REMARK SMILES IDX 47 65 40 66 41 67 45 68 48 69 42 70 43 71 46 72 44 73 70 74
REMARK SMILES IDX 71 75 79 76 72 77 73 78 77 79 80 80 74 81 75 82 78 83 76 84
REMARK SMILES IDX 55 85 56 86 64 87 57 88 58 89 62 90 65 91 59 92 60 93 63 94
REMARK SMILES IDX 61 95
REMARK H PARENT 85 48 53 59
REMARK Flexibility Score: inf
ROOT
ATOM      1  C   UNL A   1      42.299  19.447  26.148  1.00  0.00     0.188 C 
ENDROOT
BRANCH   1   2
ATOM      2  O   UNL A   1      41.677  19.825  27.371  1.00  0.00    -0.377 OA
BRANCH   2   3
ATOM      3  C   UNL A   1      40.886  21.015  27.383  1.00  0.00     0.188 C 
BRANCH   3   4
ATOM      4  C   UNL A   1      40.090  21.413  26.133  1.00  0.00     0.188 C 
BRANCH   4   5
ATOM      5  O   UNL A   1      39.031  22.310  26.454  1.00  0.00    -0.376 OA
BRANCH   5   6
ATOM      6  C   UNL A   1      37.894  22.209  25.609  1.00  0.00     0.202 C 
BRANCH   6   7
ATOM      7  C   UNL A   1      37.113  23.524  25.673  1.00  0.00     0.261 C 
BRANCH   7   8
ATOM      8  O   UNL A   1      35.821  23.417  26.297  1.00  0.00    -0.458 OA
BRANCH   8   9
ATOM      9  C   UNL A   1      34.778  23.998  25.637  1.00  0.00     0.367 C 
ATOM     10  O   UNL A   1      34.825  25.125  25.157  1.00  0.00    -0.243 OA
BRANCH   9  11
ATOM     11  C   UNL A   1      33.707  23.037  25.482  1.00  0.00     0.202 A 
ATOM     12  C   UNL A   1      32.622  21.179  24.953  1.00  0.00     0.082 A 
ATOM     13  C   UNL A   1      31.606  21.833  25.612  1.00  0.00     0.096 A 
ATOM     14  N   UNL A   1      33.832  21.866  24.903  1.00  0.00    -0.230 NA
ATOM     15  S   UNL A   1      32.116  23.420  25.949  1.00  0.00    -0.115 S 
BRANCH  12  16
ATOM     16  C   UNL A   1      32.536  19.881  24.310  1.00  0.00     0.004 A 
ATOM     17  C   UNL A   1      33.772  16.472  25.440  1.00  0.00     0.044 C 
ATOM     18  C   UNL A   1      33.171  17.540  24.579  1.00  0.00    -0.050 A 
ATOM     19  C   UNL A   1      32.929  17.337  23.221  1.00  0.00     0.004 A 
ATOM     20  C   UNL A   1      32.924  18.797  25.118  1.00  0.00     0.014 A 
ATOM     21  C   UNL A   1      32.467  18.386  22.418  1.00  0.00     0.004 A 
ATOM     22  C   UNL A   1      32.291  19.679  22.938  1.00  0.00    -0.042 A 
ATOM     23  C   UNL A   1      31.881  20.772  21.987  1.00  0.00     0.045 C 
ENDBRANCH  12  16
ENDBRANCH   9  11
ENDBRANCH   8   9
ENDBRANCH   7   8
ENDBRANCH   6   7
ENDBRANCH   5   6
ENDBRANCH   4   5
ENDBRANCH   3   4
ENDBRANCH   2   3
ENDBRANCH   1   2
BRANCH   1  24
ATOM     24  C   UNL A   1      43.190  18.212  26.257  1.00  0.00     0.188 C 
BRANCH  24  25
ATOM     25  O   UNL A   1      44.173  18.203  25.226  1.00  0.00    -0.376 OA
BRANCH  25  26
ATOM     26  C   UNL A   1      45.500  18.424  25.683  1.00  0.00     0.202 C 
BRANCH  26  27
ATOM     27  C   UNL A   1      46.273  19.380  24.768  1.00  0.00     0.261 C 
BRANCH  27  28
ATOM     28  O   UNL A   1      46.145  20.757  25.172  1.00  0.00    -0.460 OA
BRANCH  28  29
ATOM     29  C   UNL A   1      45.155  21.446  24.554  1.00  0.00     0.338 C 
ATOM     30  O   UNL A   1      44.601  21.115  23.517  1.00  0.00    -0.246 OA
BRANCH  29  31
ATOM     31  C   UNL A   1      44.937  22.724  25.281  1.00  0.00     0.060 A 
ATOM     32  C   UNL A   1      44.269  23.763  24.630  1.00  0.00     0.016 A 
ATOM     33  C   UNL A   1      45.528  22.940  26.538  1.00  0.00     0.016 A 
ATOM     34  C   UNL A   1      44.256  25.027  25.210  1.00  0.00     0.010 A 
ATOM     35  C   UNL A   1      45.544  24.208  27.099  1.00  0.00     0.010 A 
ATOM     36  C   UNL A   1      44.922  25.257  26.425  1.00  0.00    -0.014 A 
BRANCH  36  37
ATOM     37  C   UNL A   1      44.719  26.541  27.102  1.00  0.00     0.031 A 
ATOM     38  C   UNL A   1      45.872  27.441  26.960  1.00  0.00     0.074 A 
ATOM     39  C   UNL A   1      43.579  26.964  27.693  1.00  0.00     0.049 A 
ATOM     40  N   UNL A   1      46.540  27.985  27.921  1.00  0.00    -0.248 NA
ATOM     41  C   UNL A   1      46.403  27.706  25.611  1.00  0.00     0.031 C 
ATOM     42  C   UNL A   1      42.364  26.171  27.740  1.00  0.00     0.029 A 
ATOM     43  N   UNL A   1      43.214  28.147  28.316  1.00  0.00    -0.354 N 
ATOM     44  C   UNL A   1      47.345  28.914  27.292  1.00  0.00     0.074 A 
ATOM     45  C   UNL A   1      47.361  28.591  25.884  1.00  0.00     0.031 C 
ATOM     46  C   UNL A   1      41.369  26.911  28.259  1.00  0.00     0.029 A 
ATOM     47  C   UNL A   1      41.857  28.223  28.634  1.00  0.00     0.049 A 
ATOM     48  H   UNL A   1      43.854  28.868  28.516  1.00  0.00     0.167 HD
ATOM     49  C   UNL A   1      47.469  30.124  27.888  1.00  0.00     0.037 A 
ATOM     50  C   UNL A   1      41.102  29.209  29.197  1.00  0.00     0.037 A 
ATOM     51  C   UNL A   1      47.364  30.061  29.321  1.00  0.00     0.049 A 
ATOM     52  C   UNL A   1      41.988  30.092  29.993  1.00  0.00     0.074 A 
ATOM     53  C   UNL A   1      48.137  29.573  30.350  1.00  0.00     0.029 A 
ATOM     54  N   UNL A   1      46.116  30.279  29.832  1.00  0.00    -0.354 N 
ATOM     55  N   UNL A   1      42.451  29.786  31.175  1.00  0.00    -0.248 NA
ATOM     56  C   UNL A   1      42.564  31.292  29.388  1.00  0.00     0.031 C 
ATOM     57  C   UNL A   1      47.306  29.508  31.507  1.00  0.00     0.029 A 
ATOM     58  C   UNL A   1      46.036  29.957  31.164  1.00  0.00     0.049 A 
ATOM     59  H   UNL A   1      45.361  30.629  29.306  1.00  0.00     0.167 HD
ATOM     60  C   UNL A   1      43.643  30.475  31.251  1.00  0.00     0.074 A 
ATOM     61  C   UNL A   1      43.576  31.506  30.230  1.00  0.00     0.031 C 
ATOM     62  C   UNL A   1      44.741  29.897  31.807  1.00  0.00     0.037 A 
BRANCH  49  63
ATOM     63  C   UNL A   1      47.087  31.360  27.123  1.00  0.00     0.064 A 
ATOM     64  C   UNL A   1      47.980  32.435  27.050  1.00  0.00     0.173 A 
ATOM     65  C   UNL A   1      45.760  31.617  26.699  1.00  0.00     0.173 A 
ATOM     66  F   UNL A   1      49.228  32.307  27.521  1.00  0.00    -0.203 F 
ATOM     67  C   UNL A   1      47.577  33.678  26.559  1.00  0.00     0.198 A 
ATOM     68  C   UNL A   1      45.378  32.835  26.152  1.00  0.00     0.198 A 
ATOM     69  F   UNL A   1      44.771  30.738  26.911  1.00  0.00    -0.203 F 
ATOM     70  F   UNL A   1      48.430  34.710  26.586  1.00  0.00    -0.200 F 
ATOM     71  C   UNL A   1      46.284  33.872  26.095  1.00  0.00     0.200 A 
ATOM     72  F   UNL A   1      44.111  33.014  25.754  1.00  0.00    -0.200 F 
ATOM     73  F   UNL A   1      45.894  35.072  25.648  1.00  0.00    -0.200 F 
ENDBRANCH  49  63
BRANCH  50  74
ATOM     74  C   UNL A   1      39.609  29.355  29.231  1.00  0.00     0.064 A 
ATOM     75  C   UNL A   1      38.855  29.589  28.064  1.00  0.00     0.173 A 
ATOM     76  C   UNL A   1      38.844  29.117  30.395  1.00  0.00     0.173 A 
ATOM     77  F   UNL A   1      39.457  29.727  26.875  1.00  0.00    -0.203 F 
ATOM     78  C   UNL A   1      37.451  29.620  28.076  1.00  0.00     0.198 A 
ATOM     79  C   UNL A   1      37.451  29.204  30.417  1.00  0.00     0.198 A 
ATOM     80  F   UNL A   1      39.414  28.711  31.536  1.00  0.00    -0.203 F 
ATOM     81  F   UNL A   1      36.777  29.784  26.928  1.00  0.00    -0.200 F 
ATOM     82  C   UNL A   1      36.752  29.444  29.255  1.00  0.00     0.200 A 
ATOM     83  F   UNL A   1      36.796  29.004  31.571  1.00  0.00    -0.200 F 
ATOM     84  F   UNL A   1      35.412  29.456  29.266  1.00  0.00    -0.200 F 
ENDBRANCH  50  74
BRANCH  62  85
ATOM     85  C   UNL A   1      44.556  29.064  33.031  1.00  0.00     0.064 A 
ATOM     86  C   UNL A   1      44.549  29.548  34.346  1.00  0.00     0.173 A 
ATOM     87  C   UNL A   1      44.335  27.690  32.842  1.00  0.00     0.173 A 
ATOM     88  F   UNL A   1      44.757  30.845  34.606  1.00  0.00    -0.203 F 
ATOM     89  C   UNL A   1      44.313  28.690  35.421  1.00  0.00     0.198 A 
ATOM     90  C   UNL A   1      44.090  26.839  33.915  1.00  0.00     0.198 A 
ATOM     91  F   UNL A   1      44.338  27.173  31.603  1.00  0.00    -0.203 F 
ATOM     92  F   UNL A   1      44.299  29.171  36.673  1.00  0.00    -0.200 F 
ATOM     93  C   UNL A   1      44.078  27.340  35.205  1.00  0.00     0.200 A 
ATOM     94  F   UNL A   1      43.858  25.538  33.694  1.00  0.00    -0.200 F 
ATOM     95  F   UNL A   1      43.832  26.522  36.238  1.00  0.00    -0.200 F 
ENDBRANCH  62  85
ENDBRANCH  36  37
ENDBRANCH  29  31
ENDBRANCH  28  29
ENDBRANCH  27  28
ENDBRANCH  26  27
ENDBRANCH  25  26
ENDBRANCH  24  25
ENDBRANCH   1  24
TORSDOF 21
ENDMDL
MODEL 2
REMARK VINA RESULT:     -10.5      1.905      3.360
REMARK SMILES Cc1ccc(C)c(-c2csc(C(=O)OCCOCCOCCOCCOC(=O)c3ccc(-c4c5nc(c(-c6c(F)c(F)c(F)c(F)c6F)c6ccc([nH]6)c(-c6c(F)c(F)c(F)c(F)c6F)c6nc(c(-c7c(F)c(F)c(F)c(F)c7F)c7ccc4[nH]7)C=C6)C=C5)cc3)n2)c1
REMARK SMILES IDX 21 1 20 2 19 3 18 4 17 5 16 6 15 7 14 8 12 9 13 10 11 11
REMARK SMILES IDX 8 12 9 13 92 14 10 15 7 16 1 17 2 18 3 19 93 20 4 21 5 22
REMARK SMILES IDX 6 23 22 24 23 25 24 26 25 27 26 28 27 29 28 30 29 31 30 32
REMARK SMILES IDX 91 33 31 34 90 35 32 36 33 37 34 38 84 39 35 40 89 41 83 42
REMARK SMILES IDX 85 43 36 44 88 45 82 46 81 47 37 49 69 50 49 51 68 52 50 53
REMARK SMILES IDX 53 54 67 55 86 56 51 57 52 58 66 60 87 61 54 62 38 63 39 64
REMARK SMILES IDX 47 65 40 66 41 67 45 68 48 69 42 70 43 71 46 72 44 73 70 74
REMARK SMILES IDX 71 75 79 76 72 77 73 78 77 79 80 80 74 81 75 82 78 83 76 84
REMARK SMILES IDX 55 85 56 86 64 87 57 88 58 89 62 90 65 91 59 92 60 93 63 94
REMARK SMILES IDX 61 95
REMARK H PARENT 85 48 53 59
REMARK Flexibility Score: inf
ROOT
ATOM      1  C   UNL A   1      41.447  19.426  26.939  1.00  0.00     0.188 C 
ENDROOT
BRANCH   1   2
ATOM      2  O   UNL A   1      40.996  20.307  27.962  1.00  0.00    -0.377 OA
BRANCH   2   3
ATOM      3  C   UNL A   1      40.814  21.685  27.630  1.00  0.00     0.188 C 
BRANCH   3   4
ATOM      4  C   UNL A   1      40.216  22.068  26.270  1.00  0.00     0.188 C 
BRANCH   4   5
ATOM      5  O   UNL A   1      38.815  22.306  26.367  1.00  0.00    -0.376 OA
BRANCH   5   6
ATOM      6  C   UNL A   1      38.032  21.627  25.396  1.00  0.00     0.202 C 
BRANCH   6   7
ATOM      7  C   UNL A   1      36.572  22.062  25.547  1.00  0.00     0.261 C 
BRANCH   7   8
ATOM      8  O   UNL A   1      35.770  21.869  24.368  1.00  0.00    -0.458 OA
BRANCH   8   9
ATOM      9  C   UNL A   1      35.791  22.876  23.449  1.00  0.00     0.367 C 
ATOM     10  O   UNL A   1      36.603  22.939  22.531  1.00  0.00    -0.243 OA
BRANCH   9  11
ATOM     11  C   UNL A   1      34.646  23.739  23.649  1.00  0.00     0.202 A 
ATOM     12  C   UNL A   1      33.434  25.531  24.126  1.00  0.00     0.082 A 
ATOM     13  C   UNL A   1      32.424  24.707  23.686  1.00  0.00     0.096 A 
ATOM     14  N   UNL A   1      34.710  24.977  24.080  1.00  0.00    -0.230 NA
ATOM     15  S   UNL A   1      33.063  23.149  23.450  1.00  0.00    -0.115 S 
BRANCH  12  16
ATOM     16  C   UNL A   1      33.284  26.881  24.635  1.00  0.00     0.004 A 
ATOM     17  C   UNL A   1      31.614  28.167  27.795  1.00  0.00     0.044 C 
ATOM     18  C   UNL A   1      32.319  28.164  26.473  1.00  0.00    -0.050 A 
ATOM     19  C   UNL A   1      32.448  29.323  25.709  1.00  0.00     0.004 A 
ATOM     20  C   UNL A   1      32.785  26.965  25.947  1.00  0.00     0.014 A 
ATOM     21  C   UNL A   1      33.016  29.270  24.431  1.00  0.00     0.004 A 
ATOM     22  C   UNL A   1      33.416  28.050  23.861  1.00  0.00    -0.042 A 
ATOM     23  C   UNL A   1      33.931  28.068  22.446  1.00  0.00     0.045 C 
ENDBRANCH  12  16
ENDBRANCH   9  11
ENDBRANCH   8   9
ENDBRANCH   7   8
ENDBRANCH   6   7
ENDBRANCH   5   6
ENDBRANCH   4   5
ENDBRANCH   3   4
ENDBRANCH   2   3
ENDBRANCH   1   2
BRANCH   1  24
ATOM     24  C   UNL A   1      42.605  18.523  27.359  1.00  0.00     0.188 C 
BRANCH  24  25
ATOM     25  O   UNL A   1      43.192  17.891  26.226  1.00  0.00    -0.376 OA
BRANCH  25  26
ATOM     26  C   UNL A   1      44.416  18.475  25.801  1.00  0.00     0.202 C 
BRANCH  26  27
ATOM     27  C   UNL A   1      44.303  19.099  24.406  1.00  0.00     0.261 C 
BRANCH  27  28
ATOM     28  O   UNL A   1      44.276  20.539  24.444  1.00  0.00    -0.460 OA
BRANCH  28  29
ATOM     29  C   UNL A   1      45.486  21.131  24.587  1.00  0.00     0.338 C 
ATOM     30  O   UNL A   1      46.563  20.613  24.336  1.00  0.00    -0.246 OA
BRANCH  29  31
ATOM     31  C   UNL A   1      45.294  22.469  25.205  1.00  0.00     0.060 A 
ATOM     32  C   UNL A   1      45.759  22.683  26.504  1.00  0.00     0.016 A 
ATOM     33  C   UNL A   1      44.520  23.449  24.559  1.00  0.00     0.016 A 
ATOM     34  C   UNL A   1      45.390  23.847  27.170  1.00  0.00     0.010 A 
ATOM     35  C   UNL A   1      44.124  24.592  25.237  1.00  0.00     0.010 A 
ATOM     36  C   UNL A   1      44.546  24.783  26.551  1.00  0.00    -0.014 A 
BRANCH  36  37
ATOM     37  C   UNL A   1      44.343  26.080  27.201  1.00  0.00     0.031 A 
ATOM     38  C   UNL A   1      45.519  26.956  27.091  1.00  0.00     0.074 A 
ATOM     39  C   UNL A   1      43.190  26.535  27.742  1.00  0.00     0.049 A 
ATOM     40  N   UNL A   1      46.161  27.500  28.069  1.00  0.00    -0.248 NA
ATOM     41  C   UNL A   1      46.106  27.191  25.759  1.00  0.00     0.031 C 
ATOM     42  C   UNL A   1      41.959  25.766  27.754  1.00  0.00     0.029 A 
ATOM     43  N   UNL A   1      42.826  27.734  28.335  1.00  0.00    -0.354 N 
ATOM     44  C   UNL A   1      47.008  28.403  27.458  1.00  0.00     0.074 A 
ATOM     45  C   UNL A   1      47.071  28.060  26.056  1.00  0.00     0.031 C 
ATOM     46  C   UNL A   1      40.961  26.533  28.225  1.00  0.00     0.029 A 
ATOM     47  C   UNL A   1      41.460  27.841  28.601  1.00  0.00     0.049 A 
ATOM     48  H   UNL A   1      43.473  28.445  28.549  1.00  0.00     0.167 HD
ATOM     49  C   UNL A   1      47.134  29.620  28.041  1.00  0.00     0.037 A 
ATOM     50  C   UNL A   1      40.705  28.849  29.120  1.00  0.00     0.037 A 
ATOM     51  C   UNL A   1      46.973  29.580  29.470  1.00  0.00     0.049 A 
ATOM     52  C   UNL A   1      41.578  29.727  29.938  1.00  0.00     0.074 A 
ATOM     53  C   UNL A   1      47.698  29.092  30.534  1.00  0.00     0.029 A 
ATOM     54  N   UNL A   1      45.712  29.830  29.931  1.00  0.00    -0.354 N 
ATOM     55  N   UNL A   1      41.990  29.429  31.139  1.00  0.00    -0.248 NA
ATOM     56  C   UNL A   1      42.200  30.906  29.338  1.00  0.00     0.031 C 
ATOM     57  C   UNL A   1      46.822  29.060  31.660  1.00  0.00     0.029 A 
ATOM     58  C   UNL A   1      45.576  29.529  31.263  1.00  0.00     0.049 A 
ATOM     59  H   UNL A   1      44.985  30.187  29.371  1.00  0.00     0.167 HD
ATOM     60  C   UNL A   1      43.192  30.095  31.251  1.00  0.00     0.074 A 
ATOM     61  C   UNL A   1      43.184  31.112  30.215  1.00  0.00     0.031 C 
ATOM     62  C   UNL A   1      44.256  29.503  31.857  1.00  0.00     0.037 A 
BRANCH  49  63
ATOM     63  C   UNL A   1      46.806  30.852  27.245  1.00  0.00     0.064 A 
ATOM     64  C   UNL A   1      47.727  31.903  27.182  1.00  0.00     0.173 A 
ATOM     65  C   UNL A   1      45.499  31.134  26.777  1.00  0.00     0.173 A 
ATOM     66  F   UNL A   1      48.957  31.752  27.694  1.00  0.00    -0.203 F 
ATOM     67  C   UNL A   1      47.370  33.147  26.660  1.00  0.00     0.198 A 
ATOM     68  C   UNL A   1      45.165  32.352  26.200  1.00  0.00     0.198 A 
ATOM     69  F   UNL A   1      44.482  30.283  26.973  1.00  0.00    -0.203 F 
ATOM     70  F   UNL A   1      48.248  34.158  26.696  1.00  0.00    -0.200 F 
ATOM     71  C   UNL A   1      46.098  33.365  26.154  1.00  0.00     0.200 A 
ATOM     72  F   UNL A   1      43.915  32.555  25.760  1.00  0.00    -0.200 F 
ATOM     73  F   UNL A   1      45.751  34.567  25.676  1.00  0.00    -0.200 F 
ENDBRANCH  49  63
BRANCH  50  74
ATOM     74  C   UNL A   1      39.215  29.026  29.096  1.00  0.00     0.064 A 
ATOM     75  C   UNL A   1      38.440  28.990  30.272  1.00  0.00     0.173 A 
ATOM     76  C   UNL A   1      38.507  29.391  27.930  1.00  0.00     0.173 A 
ATOM     77  F   UNL A   1      39.011  28.758  31.462  1.00  0.00    -0.203 F 
ATOM     78  C   UNL A   1      37.062  29.260  30.268  1.00  0.00     0.198 A 
ATOM     79  C   UNL A   1      37.127  29.604  27.915  1.00  0.00     0.198 A 
ATOM     80  F   UNL A   1      39.139  29.635  26.775  1.00  0.00    -0.203 F 
ATOM     81  F   UNL A   1      36.380  29.275  31.422  1.00  0.00    -0.200 F 
ATOM     82  C   UNL A   1      36.405  29.551  29.087  1.00  0.00     0.200 A 
ATOM     83  F   UNL A   1      36.518  29.909  26.760  1.00  0.00    -0.200 F 
ATOM     84  F   UNL A   1      35.094  29.827  29.082  1.00  0.00    -0.200 F 
ENDBRANCH  50  74
BRANCH  62  85
ATOM     85  C   UNL A   1      44.008  28.693  33.085  1.00  0.00     0.064 A 
ATOM     86  C   UNL A   1      43.834  29.210  34.375  1.00  0.00     0.173 A 
ATOM     87  C   UNL A   1      43.906  27.301  32.922  1.00  0.00     0.173 A 
ATOM     88  F   UNL A   1      43.921  30.525  34.609  1.00  0.00    -0.203 F 
ATOM     89  C   UNL A   1      43.552  28.366  35.450  1.00  0.00     0.198 A 
ATOM     90  C   UNL A   1      43.616  26.464  33.994  1.00  0.00     0.198 A 
ATOM     91  F   UNL A   1      44.071  26.753  31.708  1.00  0.00    -0.203 F 
ATOM     92  F   UNL A   1      43.377  28.878  36.677  1.00  0.00    -0.200 F 
ATOM     93  C   UNL A   1      43.437  26.997  35.258  1.00  0.00     0.200 A 
ATOM     94  F   UNL A   1      43.500  25.143  33.796  1.00  0.00    -0.200 F 
ATOM     95  F   UNL A   1      43.148  26.190  36.289  1.00  0.00    -0.200 F 
ENDBRANCH  62  85
ENDBRANCH  36  37
ENDBRANCH  29  31
ENDBRANCH  28  29
ENDBRANCH  27  28
ENDBRANCH  26  27
ENDBRANCH  25  26
ENDBRANCH  24  25
ENDBRANCH   1  24
TORSDOF 21
ENDMDL
MODEL 3
REMARK VINA RESULT:     -10.2      4.607      9.981
REMARK SMILES Cc1ccc(C)c(-c2csc(C(=O)OCCOCCOCCOCCOC(=O)c3ccc(-c4c5nc(c(-c6c(F)c(F)c(F)c(F)c6F)c6ccc([nH]6)c(-c6c(F)c(F)c(F)c(F)c6F)c6nc(c(-c7c(F)c(F)c(F)c(F)c7F)c7ccc4[nH]7)C=C6)C=C5)cc3)n2)c1
REMARK SMILES IDX 21 1 20 2 19 3 18 4 17 5 16 6 15 7 14 8 12 9 13 10 11 11
REMARK SMILES IDX 8 12 9 13 92 14 10 15 7 16 1 17 2 18 3 19 93 20 4 21 5 22
REMARK SMILES IDX 6 23 22 24 23 25 24 26 25 27 26 28 27 29 28 30 29 31 30 32
REMARK SMILES IDX 91 33 31 34 90 35 32 36 33 37 34 38 84 39 35 40 89 41 83 42
REMARK SMILES IDX 85 43 36 44 88 45 82 46 81 47 37 49 69 50 49 51 68 52 50 53
REMARK SMILES IDX 53 54 67 55 86 56 51 57 52 58 66 60 87 61 54 62 38 63 39 64
REMARK SMILES IDX 47 65 40 66 41 67 45 68 48 69 42 70 43 71 46 72 44 73 70 74
REMARK SMILES IDX 71 75 79 76 72 77 73 78 77 79 80 80 74 81 75 82 78 83 76 84
REMARK SMILES IDX 55 85 56 86 64 87 57 88 58 89 62 90 65 91 59 92 60 93 63 94
REMARK SMILES IDX 61 95
REMARK H PARENT 85 48 53 59
REMARK Flexibility Score: inf
ROOT
ATOM      1  C   UNL A   1      34.994  33.273  28.555  1.00  0.00     0.188 C 
ENDROOT
BRANCH   1   2
ATOM      2  O   UNL A   1      34.348  32.006  28.629  1.00  0.00    -0.377 OA
BRANCH   2   3
ATOM      3  C   UNL A   1      33.500  31.621  27.545  1.00  0.00     0.188 C 
BRANCH   3   4
ATOM      4  C   UNL A   1      33.284  30.132  27.240  1.00  0.00     0.188 C 
BRANCH   4   5
ATOM      5  O   UNL A   1      33.299  29.882  25.839  1.00  0.00    -0.376 OA
BRANCH   5   6
ATOM      6  C   UNL A   1      32.023  29.625  25.270  1.00  0.00     0.202 C 
BRANCH   6   7
ATOM      7  C   UNL A   1      32.194  28.682  24.077  1.00  0.00     0.261 C 
BRANCH   7   8
ATOM      8  O   UNL A   1      33.561  28.347  23.776  1.00  0.00    -0.458 OA
BRANCH   8   9
ATOM      9  C   UNL A   1      33.787  27.734  22.580  1.00  0.00     0.367 C 
ATOM     10  O   UNL A   1      34.216  28.317  21.590  1.00  0.00    -0.243 OA
BRANCH   9  11
ATOM     11  C   UNL A   1      33.581  26.308  22.720  1.00  0.00     0.202 A 
ATOM     12  C   UNL A   1      33.685  24.247  23.526  1.00  0.00     0.082 A 
ATOM     13  C   UNL A   1      32.793  24.026  22.502  1.00  0.00     0.096 A 
ATOM     14  N   UNL A   1      34.114  25.565  23.660  1.00  0.00    -0.230 NA
ATOM     15  S   UNL A   1      32.694  25.437  21.558  1.00  0.00    -0.115 S 
BRANCH  12  16
ATOM     16  C   UNL A   1      34.212  23.252  24.440  1.00  0.00     0.004 A 
ATOM     17  C   UNL A   1      33.110  22.272  27.941  1.00  0.00     0.044 C 
ATOM     18  C   UNL A   1      33.913  22.321  26.676  1.00  0.00    -0.050 A 
ATOM     19  C   UNL A   1      35.184  21.756  26.592  1.00  0.00     0.004 A 
ATOM     20  C   UNL A   1      33.421  23.020  25.580  1.00  0.00     0.014 A 
ATOM     21  C   UNL A   1      35.954  21.911  25.434  1.00  0.00     0.004 A 
ATOM     22  C   UNL A   1      35.497  22.682  24.352  1.00  0.00    -0.042 A 
ATOM     23  C   UNL A   1      36.425  22.875  23.182  1.00  0.00     0.045 C 
ENDBRANCH  12  16
ENDBRANCH   9  11
ENDBRANCH   8   9
ENDBRANCH   7   8
ENDBRANCH   6   7
ENDBRANCH   5   6
ENDBRANCH   4   5
ENDBRANCH   3   4
ENDBRANCH   2   3
ENDBRANCH   1   2
BRANCH   1  24
ATOM     24  C   UNL A   1      34.105  34.396  28.026  1.00  0.00     0.188 C 
BRANCH  24  25
ATOM     25  O   UNL A   1      33.170  34.812  29.017  1.00  0.00    -0.376 OA
BRANCH  25  26
ATOM     26  C   UNL A   1      33.182  36.209  29.280  1.00  0.00     0.202 C 
BRANCH  26  27
ATOM     27  C   UNL A   1      32.769  36.527  30.721  1.00  0.00     0.261 C 
BRANCH  27  28
ATOM     28  O   UNL A   1      33.779  36.159  31.681  1.00  0.00    -0.460 OA
BRANCH  28  29
ATOM     29  C   UNL A   1      33.571  34.976  32.307  1.00  0.00     0.338 C 
ATOM     30  O   UNL A   1      32.536  34.640  32.861  1.00  0.00    -0.246 OA
BRANCH  29  31
ATOM     31  C   UNL A   1      34.842  34.206  32.309  1.00  0.00     0.060 A 
ATOM     32  C   UNL A   1      36.042  34.888  32.101  1.00  0.00     0.016 A 
ATOM     33  C   UNL A   1      34.825  32.801  32.357  1.00  0.00     0.016 A 
ATOM     34  C   UNL A   1      37.205  34.158  31.877  1.00  0.00     0.010 A 
ATOM     35  C   UNL A   1      35.977  32.075  32.100  1.00  0.00     0.010 A 
ATOM     36  C   UNL A   1      37.166  32.754  31.843  1.00  0.00    -0.014 A 
BRANCH  36  37
ATOM     37  C   UNL A   1      38.434  32.020  31.806  1.00  0.00     0.031 A 
ATOM     38  C   UNL A   1      39.231  32.210  33.027  1.00  0.00     0.074 A 
ATOM     39  C   UNL A   1      38.828  31.148  30.851  1.00  0.00     0.049 A 
ATOM     40  N   UNL A   1      40.442  32.649  33.087  1.00  0.00    -0.248 NA
ATOM     41  C   UNL A   1      38.593  31.971  34.334  1.00  0.00     0.031 C 
ATOM     42  C   UNL A   1      38.018  30.816  29.693  1.00  0.00     0.029 A 
ATOM     43  N   UNL A   1      39.949  30.347  30.700  1.00  0.00    -0.354 N 
ATOM     44  C   UNL A   1      40.822  32.417  34.395  1.00  0.00     0.074 A 
ATOM     45  C   UNL A   1      39.621  32.170  35.158  1.00  0.00     0.031 C 
ATOM     46  C   UNL A   1      38.609  29.821  29.008  1.00  0.00     0.029 A 
ATOM     47  C   UNL A   1      39.865  29.454  29.630  1.00  0.00     0.049 A 
ATOM     48  H   UNL A   1      40.734  30.404  31.292  1.00  0.00     0.167 HD
ATOM     49  C   UNL A   1      42.071  31.932  34.596  1.00  0.00     0.037 A 
ATOM     50  C   UNL A   1      40.710  28.485  29.178  1.00  0.00     0.037 A 
ATOM     51  C   UNL A   1      43.013  32.369  33.600  1.00  0.00     0.049 A 
ATOM     52  C   UNL A   1      42.088  28.807  29.625  1.00  0.00     0.074 A 
ATOM     53  C   UNL A   1      43.623  33.559  33.269  1.00  0.00     0.029 A 
ATOM     54  N   UNL A   1      43.188  31.526  32.541  1.00  0.00    -0.354 N 
ATOM     55  N   UNL A   1      42.842  29.714  29.066  1.00  0.00    -0.248 NA
ATOM     56  C   UNL A   1      42.602  28.251  30.875  1.00  0.00     0.031 C 
ATOM     57  C   UNL A   1      44.176  33.398  31.964  1.00  0.00     0.029 A 
ATOM     58  C   UNL A   1      43.894  32.112  31.520  1.00  0.00     0.049 A 
ATOM     59  H   UNL A   1      42.847  30.603  32.513  1.00  0.00     0.167 HD
ATOM     60  C   UNL A   1      43.664  30.137  30.089  1.00  0.00     0.074 A 
ATOM     61  C   UNL A   1      43.604  29.101  31.105  1.00  0.00     0.031 C 
ATOM     62  C   UNL A   1      43.966  31.455  30.233  1.00  0.00     0.037 A 
BRANCH  49  63
ATOM     63  C   UNL A   1      42.244  30.630  35.326  1.00  0.00     0.064 A 
ATOM     64  C   UNL A   1      43.185  30.531  36.356  1.00  0.00     0.173 A 
ATOM     65  C   UNL A   1      41.703  29.410  34.850  1.00  0.00     0.173 A 
ATOM     66  F   UNL A   1      43.818  31.627  36.797  1.00  0.00    -0.203 F 
ATOM     67  C   UNL A   1      43.542  29.293  36.892  1.00  0.00     0.198 A 
ATOM     68  C   UNL A   1      42.012  28.186  35.429  1.00  0.00     0.198 A 
ATOM     69  F   UNL A   1      40.954  29.358  33.740  1.00  0.00    -0.203 F 
ATOM     70  F   UNL A   1      44.511  29.224  37.814  1.00  0.00    -0.200 F 
ATOM     71  C   UNL A   1      42.944  28.126  36.442  1.00  0.00     0.200 A 
ATOM     72  F   UNL A   1      41.456  27.066  34.946  1.00  0.00    -0.200 F 
ATOM     73  F   UNL A   1      43.307  26.937  36.942  1.00  0.00    -0.200 F 
ENDBRANCH  49  63
BRANCH  50  74
ATOM     74  C   UNL A   1      40.436  27.359  28.225  1.00  0.00     0.064 A 
ATOM     75  C   UNL A   1      41.119  27.236  26.999  1.00  0.00     0.173 A 
ATOM     76  C   UNL A   1      39.601  26.268  28.551  1.00  0.00     0.173 A 
ATOM     77  F   UNL A   1      42.020  28.153  26.621  1.00  0.00    -0.203 F 
ATOM     78  C   UNL A   1      40.944  26.128  26.154  1.00  0.00     0.198 A 
ATOM     79  C   UNL A   1      39.384  25.193  27.686  1.00  0.00     0.198 A 
ATOM     80  F   UNL A   1      39.026  26.162  29.756  1.00  0.00    -0.203 F 
ATOM     81  F   UNL A   1      41.663  26.027  25.027  1.00  0.00    -0.200 F 
ATOM     82  C   UNL A   1      40.064  25.117  26.491  1.00  0.00     0.200 A 
ATOM     83  F   UNL A   1      38.543  24.213  28.049  1.00  0.00    -0.200 F 
ATOM     84  F   UNL A   1      39.909  24.049  25.696  1.00  0.00    -0.200 F 
ENDBRANCH  50  74
BRANCH  62  85
ATOM     85  C   UNL A   1      44.234  32.255  29.002  1.00  0.00     0.064 A 
ATOM     86  C   UNL A   1      43.438  33.307  28.532  1.00  0.00     0.173 A 
ATOM     87  C   UNL A   1      45.399  31.948  28.281  1.00  0.00     0.173 A 
ATOM     88  F   UNL A   1      42.310  33.656  29.165  1.00  0.00    -0.203 F 
ATOM     89  C   UNL A   1      43.807  34.030  27.397  1.00  0.00     0.198 A 
ATOM     90  C   UNL A   1      45.769  32.676  27.155  1.00  0.00     0.198 A 
ATOM     91  F   UNL A   1      46.195  30.945  28.684  1.00  0.00    -0.203 F 
ATOM     92  F   UNL A   1      43.039  35.042  26.966  1.00  0.00    -0.200 F 
ATOM     93  C   UNL A   1      44.974  33.718  26.714  1.00  0.00     0.200 A 
ATOM     94  F   UNL A   1      46.902  32.371  26.507  1.00  0.00    -0.200 F 
ATOM     95  F   UNL A   1      45.336  34.426  25.634  1.00  0.00    -0.200 F 
ENDBRANCH  62  85
ENDBRANCH  36  37
ENDBRANCH  29  31
ENDBRANCH  28  29
ENDBRANCH  27  28
ENDBRANCH  26  27
ENDBRANCH  25  26
ENDBRANCH  24  25
ENDBRANCH   1  24
TORSDOF 21
ENDMDL
