MODEL 1
REMARK VINA RESULT:      -9.8      0.000      0.000
REMARK SMILES CC[C@@](C)([NH2+]CC(=O)N[C@@H](C)c1ccc(F)cc1)C(=O)OCCOCCOCCOCCOC(=O)c1ccc(-c2c3nc(c(-c4c(F)c(F)c(F)c(F)c4F)c4ccc([nH]4)c(-c4c(F)c(F)c(F)c(F)c4F)c4nc(c(-c5c(F)c(F)c(F)c(F)c5F)c5ccc2[nH]5)C=C4)C=C3)cc1
REMARK SMILES IDX 25 1 24 2 23 3 22 4 21 5 19 6 20 7 3 8 4 9 2 10 1 11 5 12
REMARK SMILES IDX 6 15 7 16 8 17 9 18 10 20 11 21 12 22 13 23 18 24 14 25
REMARK SMILES IDX 17 26 15 27 16 28 26 29 27 30 28 31 29 32 30 33 31 34 32 35
REMARK SMILES IDX 33 36 34 37 35 38 36 39 37 40 98 41 38 42 97 43 39 44 40 45
REMARK SMILES IDX 41 46 91 47 42 48 96 49 90 50 92 51 43 52 95 53 89 54 88 55
REMARK SMILES IDX 44 57 76 58 56 59 75 60 57 61 60 62 74 63 93 64 58 65 59 66
REMARK SMILES IDX 73 68 94 69 61 70 45 71 46 72 54 73 47 74 48 75 52 76 55 77
REMARK SMILES IDX 49 78 50 79 53 80 51 81 77 82 78 83 86 84 79 85 80 86 84 87
REMARK SMILES IDX 87 88 81 89 82 90 85 91 83 92 62 93 63 94 71 95 64 96 65 97
REMARK SMILES IDX 69 98 72 99 66 100 67 101 70 102 68 103
REMARK H PARENT 5 13 5 14 9 19 92 56 60 67
REMARK Flexibility Score: inf
ROOT
ATOM      1  C   UNL A   1      34.333  30.181  26.947  1.00  0.00     0.188 C 
ENDROOT
BRANCH   1   2
ATOM      2  O   UNL A   1      32.973  30.491  26.667  1.00  0.00    -0.376 OA
BRANCH   2   3
ATOM      3  C   UNL A   1      31.936  29.711  27.248  1.00  0.00     0.202 C 
BRANCH   3   4
ATOM      4  C   UNL A   1      31.950  28.175  27.182  1.00  0.00     0.261 C 
BRANCH   4   5
ATOM      5  O   UNL A   1      31.033  27.601  26.243  1.00  0.00    -0.459 OA
BRANCH   5   6
ATOM      6  C   UNL A   1      31.274  27.645  24.905  1.00  0.00     0.367 C 
ATOM      7  O   UNL A   1      31.061  28.633  24.210  1.00  0.00    -0.245 OA
BRANCH   6   8
ATOM      8  C   UNL A   1      31.819  26.270  24.359  1.00  0.00     0.191 C 
ATOM      9  C   UNL A   1      31.119  25.661  23.133  1.00  0.00     0.092 C 
BRANCH   8  10
ATOM     10  C   UNL A   1      33.277  26.583  23.881  1.00  0.00     0.077 C 
ATOM     11  C   UNL A   1      33.422  26.653  22.348  1.00  0.00     0.011 C 
ENDBRANCH   8  10
BRANCH   8  12
ATOM     12  N   UNL A   1      31.767  25.184  25.392  1.00  0.00    -0.325 N 
ATOM     13  H   UNL A   1      31.341  25.590  26.225  1.00  0.00     0.347 HD
ATOM     14  H   UNL A   1      32.738  24.881  25.466  1.00  0.00     0.347 HD
BRANCH  12  15
ATOM     15  C   UNL A   1      31.030  23.919  25.100  1.00  0.00     0.362 C 
BRANCH  15  16
ATOM     16  C   UNL A   1      31.109  22.776  26.135  1.00  0.00     0.275 C 
ATOM     17  O   UNL A   1      30.563  22.884  27.236  1.00  0.00    -0.268 OA
ATOM     18  N   UNL A   1      31.736  21.581  25.839  1.00  0.00    -0.345 N 
ATOM     19  H   UNL A   1      31.417  20.788  26.330  1.00  0.00     0.164 HD
BRANCH  18  20
ATOM     20  C   UNL A   1      32.813  21.358  24.885  1.00  0.00     0.109 C 
ATOM     21  C   UNL A   1      32.290  21.265  23.442  1.00  0.00     0.036 C 
BRANCH  20  22
ATOM     22  C   UNL A   1      34.074  22.188  25.016  1.00  0.00    -0.026 A 
ATOM     23  C   UNL A   1      34.547  22.655  26.247  1.00  0.00     0.009 A 
ATOM     24  C   UNL A   1      34.889  22.370  23.873  1.00  0.00     0.009 A 
ATOM     25  C   UNL A   1      35.786  23.301  26.327  1.00  0.00     0.039 A 
ATOM     26  C   UNL A   1      36.122  23.015  23.954  1.00  0.00     0.039 A 
ATOM     27  C   UNL A   1      36.558  23.476  25.184  1.00  0.00     0.123 A 
ATOM     28  F   UNL A   1      37.751  24.077  25.275  1.00  0.00    -0.207 F 
ENDBRANCH  20  22
ENDBRANCH  18  20
ENDBRANCH  15  16
ENDBRANCH  12  15
ENDBRANCH   8  12
ENDBRANCH   6   8
ENDBRANCH   5   6
ENDBRANCH   4   5
ENDBRANCH   3   4
ENDBRANCH   2   3
ENDBRANCH   1   2
BRANCH   1  29
ATOM     29  C   UNL A   1      35.164  31.122  27.850  1.00  0.00     0.188 C 
BRANCH  29  30
ATOM     30  O   UNL A   1      34.391  31.917  28.731  1.00  0.00    -0.377 OA
BRANCH  30  31
ATOM     31  C   UNL A   1      34.335  33.306  28.453  1.00  0.00     0.188 C 
BRANCH  31  32
ATOM     32  C   UNL A   1      32.997  33.928  27.998  1.00  0.00     0.188 C 
BRANCH  32  33
ATOM     33  O   UNL A   1      32.528  35.002  28.803  1.00  0.00    -0.376 OA
BRANCH  33  34
ATOM     34  C   UNL A   1      33.293  36.194  28.897  1.00  0.00     0.202 C 
BRANCH  34  35
ATOM     35  C   UNL A   1      32.905  37.206  29.986  1.00  0.00     0.261 C 
BRANCH  35  36
ATOM     36  O   UNL A   1      33.497  37.006  31.274  1.00  0.00    -0.460 OA
BRANCH  36  37
ATOM     37  C   UNL A   1      32.992  36.009  32.039  1.00  0.00     0.338 C 
ATOM     38  O   UNL A   1      31.884  35.917  32.500  1.00  0.00    -0.246 OA
BRANCH  37  39
ATOM     39  C   UNL A   1      34.011  34.938  32.075  1.00  0.00     0.060 A 
ATOM     40  C   UNL A   1      33.735  33.758  32.778  1.00  0.00     0.016 A 
ATOM     41  C   UNL A   1      35.230  35.114  31.420  1.00  0.00     0.016 A 
ATOM     42  C   UNL A   1      34.708  32.764  32.876  1.00  0.00     0.010 A 
ATOM     43  C   UNL A   1      36.212  34.134  31.541  1.00  0.00     0.010 A 
ATOM     44  C   UNL A   1      35.969  32.980  32.307  1.00  0.00    -0.014 A 
BRANCH  44  45
ATOM     45  C   UNL A   1      37.125  32.158  32.727  1.00  0.00     0.031 A 
ATOM     46  C   UNL A   1      37.775  32.499  34.037  1.00  0.00     0.074 A 
ATOM     47  C   UNL A   1      37.609  31.169  31.958  1.00  0.00     0.049 A 
ATOM     48  N   UNL A   1      38.891  32.058  34.552  1.00  0.00    -0.248 NA
ATOM     49  C   UNL A   1      37.069  33.483  34.874  1.00  0.00     0.031 C 
ATOM     50  C   UNL A   1      37.022  30.711  30.703  1.00  0.00     0.029 A 
ATOM     51  N   UNL A   1      38.725  30.388  32.121  1.00  0.00    -0.354 N 
ATOM     52  C   UNL A   1      39.033  32.729  35.760  1.00  0.00     0.074 A 
ATOM     53  C   UNL A   1      37.902  33.620  35.893  1.00  0.00     0.031 C 
ATOM     54  C   UNL A   1      37.801  29.742  30.192  1.00  0.00     0.029 A 
ATOM     55  C   UNL A   1      38.963  29.549  31.063  1.00  0.00     0.049 A 
ATOM     56  H   UNL A   1      39.300  30.428  32.919  1.00  0.00     0.167 HD
ATOM     57  C   UNL A   1      40.020  32.609  36.675  1.00  0.00     0.037 A 
ATOM     58  C   UNL A   1      40.017  28.748  30.812  1.00  0.00     0.037 A 
ATOM     59  C   UNL A   1      41.138  31.718  36.530  1.00  0.00     0.049 A 
ATOM     60  C   UNL A   1      41.153  28.690  31.801  1.00  0.00     0.074 A 
ATOM     61  C   UNL A   1      42.184  31.503  37.406  1.00  0.00     0.029 A 
ATOM     62  N   UNL A   1      41.357  30.901  35.429  1.00  0.00    -0.354 N 
ATOM     63  N   UNL A   1      41.288  29.321  32.943  1.00  0.00    -0.248 NA
ATOM     64  C   UNL A   1      42.287  27.814  31.467  1.00  0.00     0.031 C 
ATOM     65  C   UNL A   1      43.072  30.605  36.808  1.00  0.00     0.029 A 
ATOM     66  C   UNL A   1      42.542  30.204  35.591  1.00  0.00     0.049 A 
ATOM     67  H   UNL A   1      40.760  30.829  34.650  1.00  0.00     0.167 HD
ATOM     68  C   UNL A   1      42.500  28.900  33.477  1.00  0.00     0.074 A 
ATOM     69  C   UNL A   1      43.066  27.960  32.532  1.00  0.00     0.031 C 
ATOM     70  C   UNL A   1      43.084  29.258  34.647  1.00  0.00     0.037 A 
BRANCH  57  71
ATOM     71  C   UNL A   1      39.957  33.486  37.890  1.00  0.00     0.064 A 
ATOM     72  C   UNL A   1      40.748  34.642  37.968  1.00  0.00     0.173 A 
ATOM     73  C   UNL A   1      39.149  33.167  38.991  1.00  0.00     0.173 A 
ATOM     74  F   UNL A   1      41.538  34.993  36.943  1.00  0.00    -0.203 F 
ATOM     75  C   UNL A   1      40.740  35.441  39.108  1.00  0.00     0.198 A 
ATOM     76  C   UNL A   1      39.117  33.988  40.117  1.00  0.00     0.198 A 
ATOM     77  F   UNL A   1      38.361  32.083  38.961  1.00  0.00    -0.203 F 
ATOM     78  F   UNL A   1      41.526  36.524  39.170  1.00  0.00    -0.200 F 
ATOM     79  C   UNL A   1      39.920  35.117  40.177  1.00  0.00     0.200 A 
ATOM     80  F   UNL A   1      38.301  33.691  41.137  1.00  0.00    -0.200 F 
ATOM     81  F   UNL A   1      39.900  35.897  41.266  1.00  0.00    -0.200 F 
ENDBRANCH  57  71
BRANCH  58  82
ATOM     82  C   UNL A   1      40.036  27.945  29.562  1.00  0.00     0.064 A 
ATOM     83  C   UNL A   1      39.389  26.702  29.484  1.00  0.00     0.173 A 
ATOM     84  C   UNL A   1      40.752  28.379  28.440  1.00  0.00     0.173 A 
ATOM     85  F   UNL A   1      38.689  26.241  30.531  1.00  0.00    -0.203 F 
ATOM     86  C   UNL A   1      39.489  25.909  28.343  1.00  0.00     0.198 A 
ATOM     87  C   UNL A   1      40.830  27.597  27.289  1.00  0.00     0.198 A 
ATOM     88  F   UNL A   1      41.367  29.571  28.459  1.00  0.00    -0.203 F 
ATOM     89  F   UNL A   1      38.901  24.706  28.310  1.00  0.00    -0.200 F 
ATOM     90  C   UNL A   1      40.209  26.357  27.246  1.00  0.00     0.200 A 
ATOM     91  F   UNL A   1      41.509  28.042  26.224  1.00  0.00    -0.200 F 
ATOM     92  F   UNL A   1      40.308  25.594  26.149  1.00  0.00    -0.200 F 
ENDBRANCH  58  82
BRANCH  70  93
ATOM     93  C   UNL A   1      44.390  28.616  35.017  1.00  0.00     0.064 A 
ATOM     94  C   UNL A   1      44.400  27.408  35.733  1.00  0.00     0.173 A 
ATOM     95  C   UNL A   1      45.614  29.262  34.798  1.00  0.00     0.173 A 
ATOM     96  F   UNL A   1      43.253  26.759  35.980  1.00  0.00    -0.203 F 
ATOM     97  C   UNL A   1      45.586  26.889  36.246  1.00  0.00     0.198 A 
ATOM     98  C   UNL A   1      46.802  28.723  35.288  1.00  0.00     0.198 A 
ATOM     99  F   UNL A   1      45.657  30.413  34.112  1.00  0.00    -0.203 F 
ATOM    100  F   UNL A   1      45.562  25.766  36.978  1.00  0.00    -0.200 F 
ATOM    101  C   UNL A   1      46.784  27.548  36.024  1.00  0.00     0.200 A 
ATOM    102  F   UNL A   1      47.964  29.351  35.059  1.00  0.00    -0.200 F 
ATOM    103  F   UNL A   1      47.924  27.052  36.528  1.00  0.00    -0.200 F 
ENDBRANCH  70  93
ENDBRANCH  44  45
ENDBRANCH  37  39
ENDBRANCH  36  37
ENDBRANCH  35  36
ENDBRANCH  34  35
ENDBRANCH  33  34
ENDBRANCH  32  33
ENDBRANCH  31  32
ENDBRANCH  30  31
ENDBRANCH  29  30
ENDBRANCH   1  29
TORSDOF 26
ENDMDL
MODEL 2
REMARK VINA RESULT:      -9.8      1.563      2.741
REMARK SMILES CC[C@@](C)([NH2+]CC(=O)N[C@@H](C)c1ccc(F)cc1)C(=O)OCCOCCOCCOCCOC(=O)c1ccc(-c2c3nc(c(-c4c(F)c(F)c(F)c(F)c4F)c4ccc([nH]4)c(-c4c(F)c(F)c(F)c(F)c4F)c4nc(c(-c5c(F)c(F)c(F)c(F)c5F)c5ccc2[nH]5)C=C4)C=C3)cc1
REMARK SMILES IDX 25 1 24 2 23 3 22 4 21 5 19 6 20 7 3 8 4 9 2 10 1 11 5 12
REMARK SMILES IDX 6 15 7 16 8 17 9 18 10 20 11 21 12 22 13 23 18 24 14 25
REMARK SMILES IDX 17 26 15 27 16 28 26 29 27 30 28 31 29 32 30 33 31 34 32 35
REMARK SMILES IDX 33 36 34 37 35 38 36 39 37 40 98 41 38 42 97 43 39 44 40 45
REMARK SMILES IDX 41 46 91 47 42 48 96 49 90 50 92 51 43 52 95 53 89 54 88 55
REMARK SMILES IDX 44 57 76 58 56 59 75 60 57 61 60 62 74 63 93 64 58 65 59 66
REMARK SMILES IDX 73 68 94 69 61 70 45 71 46 72 54 73 47 74 48 75 52 76 55 77
REMARK SMILES IDX 49 78 50 79 53 80 51 81 77 82 78 83 86 84 79 85 80 86 84 87
REMARK SMILES IDX 87 88 81 89 82 90 85 91 83 92 62 93 63 94 71 95 64 96 65 97
REMARK SMILES IDX 69 98 72 99 66 100 67 101 70 102 68 103
REMARK H PARENT 5 13 5 14 9 19 92 56 60 67
REMARK Flexibility Score: inf
ROOT
ATOM      1  C   UNL A   1      31.837  28.873  27.156  1.00  0.00     0.188 C 
ENDROOT
BRANCH   1   2
ATOM      2  O   UNL A   1      31.350  28.430  25.894  1.00  0.00    -0.376 OA
BRANCH   2   3
ATOM      3  C   UNL A   1      31.610  29.199  24.726  1.00  0.00     0.202 C 
BRANCH   3   4
ATOM      4  C   UNL A   1      31.224  28.692  23.327  1.00  0.00     0.261 C 
BRANCH   4   5
ATOM      5  O   UNL A   1      32.105  27.704  22.777  1.00  0.00    -0.459 OA
BRANCH   5   6
ATOM      6  C   UNL A   1      32.951  26.994  23.571  1.00  0.00     0.367 C 
ATOM      7  O   UNL A   1      34.023  27.427  23.977  1.00  0.00    -0.245 OA
BRANCH   6   8
ATOM      8  C   UNL A   1      32.403  25.546  23.867  1.00  0.00     0.191 C 
ATOM      9  C   UNL A   1      31.593  24.849  22.763  1.00  0.00     0.092 C 
BRANCH   8  10
ATOM     10  C   UNL A   1      33.686  24.666  24.047  1.00  0.00     0.077 C 
ATOM     11  C   UNL A   1      33.876  23.618  22.933  1.00  0.00     0.011 C 
ENDBRANCH   8  10
BRANCH   8  12
ATOM     12  N   UNL A   1      31.502  25.510  25.065  1.00  0.00    -0.325 N 
ATOM     13  H   UNL A   1      30.592  25.183  24.741  1.00  0.00     0.347 HD
ATOM     14  H   UNL A   1      31.552  26.462  25.428  1.00  0.00     0.347 HD
BRANCH  12  15
ATOM     15  C   UNL A   1      31.869  24.670  26.244  1.00  0.00     0.362 C 
BRANCH  15  16
ATOM     16  C   UNL A   1      30.956  23.476  26.599  1.00  0.00     0.275 C 
ATOM     17  O   UNL A   1      29.922  23.647  27.251  1.00  0.00    -0.268 OA
ATOM     18  N   UNL A   1      31.233  22.200  26.148  1.00  0.00    -0.345 N 
ATOM     19  H   UNL A   1      30.461  21.597  26.045  1.00  0.00     0.164 HD
BRANCH  18  20
ATOM     20  C   UNL A   1      32.535  21.644  25.807  1.00  0.00     0.109 C 
ATOM     21  C   UNL A   1      33.485  21.626  27.017  1.00  0.00     0.036 C 
BRANCH  20  22
ATOM     22  C   UNL A   1      32.581  20.371  24.987  1.00  0.00    -0.026 A 
ATOM     23  C   UNL A   1      32.167  20.317  23.652  1.00  0.00     0.009 A 
ATOM     24  C   UNL A   1      33.210  19.230  25.540  1.00  0.00     0.009 A 
ATOM     25  C   UNL A   1      32.358  19.151  22.901  1.00  0.00     0.039 A 
ATOM     26  C   UNL A   1      33.398  18.069  24.792  1.00  0.00     0.039 A 
ATOM     27  C   UNL A   1      32.968  18.041  23.477  1.00  0.00     0.123 A 
ATOM     28  F   UNL A   1      33.163  16.938  22.744  1.00  0.00    -0.207 F 
ENDBRANCH  20  22
ENDBRANCH  18  20
ENDBRANCH  15  16
ENDBRANCH  12  15
ENDBRANCH   8  12
ENDBRANCH   6   8
ENDBRANCH   5   6
ENDBRANCH   4   5
ENDBRANCH   3   4
ENDBRANCH   2   3
ENDBRANCH   1   2
BRANCH   1  29
ATOM     29  C   UNL A   1      33.328  28.676  27.514  1.00  0.00     0.188 C 
BRANCH  29  30
ATOM     30  O   UNL A   1      34.173  29.730  27.092  1.00  0.00    -0.377 OA
BRANCH  30  31
ATOM     31  C   UNL A   1      33.929  31.008  27.655  1.00  0.00     0.188 C 
BRANCH  31  32
ATOM     32  C   UNL A   1      35.104  31.996  27.816  1.00  0.00     0.188 C 
BRANCH  32  33
ATOM     33  O   UNL A   1      34.771  33.365  27.626  1.00  0.00    -0.376 OA
BRANCH  33  34
ATOM     34  C   UNL A   1      33.634  33.907  28.282  1.00  0.00     0.202 C 
BRANCH  34  35
ATOM     35  C   UNL A   1      33.851  34.576  29.648  1.00  0.00     0.261 C 
BRANCH  35  36
ATOM     36  O   UNL A   1      32.668  34.927  30.373  1.00  0.00    -0.460 OA
BRANCH  36  37
ATOM     37  C   UNL A   1      32.828  35.651  31.507  1.00  0.00     0.338 C 
ATOM     38  O   UNL A   1      32.151  36.565  31.904  1.00  0.00    -0.246 OA
BRANCH  37  39
ATOM     39  C   UNL A   1      33.907  35.002  32.282  1.00  0.00     0.060 A 
ATOM     40  C   UNL A   1      35.155  35.632  32.373  1.00  0.00     0.016 A 
ATOM     41  C   UNL A   1      33.676  33.774  32.902  1.00  0.00     0.016 A 
ATOM     42  C   UNL A   1      36.202  35.004  33.045  1.00  0.00     0.010 A 
ATOM     43  C   UNL A   1      34.730  33.133  33.550  1.00  0.00     0.010 A 
ATOM     44  C   UNL A   1      36.005  33.726  33.582  1.00  0.00    -0.014 A 
BRANCH  44  45
ATOM     45  C   UNL A   1      37.166  32.878  33.930  1.00  0.00     0.031 A 
ATOM     46  C   UNL A   1      37.856  33.154  35.235  1.00  0.00     0.074 A 
ATOM     47  C   UNL A   1      37.620  31.923  33.103  1.00  0.00     0.049 A 
ATOM     48  N   UNL A   1      38.983  32.684  35.697  1.00  0.00    -0.248 NA
ATOM     49  C   UNL A   1      37.182  34.104  36.136  1.00  0.00     0.031 C 
ATOM     50  C   UNL A   1      36.994  31.527  31.846  1.00  0.00     0.029 A 
ATOM     51  N   UNL A   1      38.735  31.129  33.197  1.00  0.00    -0.354 N 
ATOM     52  C   UNL A   1      39.164  33.297  36.929  1.00  0.00     0.074 A 
ATOM     53  C   UNL A   1      38.045  34.188  37.136  1.00  0.00     0.031 C 
ATOM     54  C   UNL A   1      37.751  30.578  31.269  1.00  0.00     0.029 A 
ATOM     55  C   UNL A   1      38.936  30.338  32.095  1.00  0.00     0.049 A 
ATOM     56  H   UNL A   1      39.333  31.128  33.980  1.00  0.00     0.167 HD
ATOM     57  C   UNL A   1      40.177  33.129  37.808  1.00  0.00     0.037 A 
ATOM     58  C   UNL A   1      39.976  29.543  31.777  1.00  0.00     0.037 A 
ATOM     59  C   UNL A   1      41.283  32.239  37.591  1.00  0.00     0.049 A 
ATOM     60  C   UNL A   1      41.141  29.432  32.730  1.00  0.00     0.074 A 
ATOM     61  C   UNL A   1      42.353  31.977  38.426  1.00  0.00     0.029 A 
ATOM     62  N   UNL A   1      41.464  31.473  36.448  1.00  0.00    -0.354 N 
ATOM     63  N   UNL A   1      41.313  30.009  33.895  1.00  0.00    -0.248 NA
ATOM     64  C   UNL A   1      42.258  28.566  32.323  1.00  0.00     0.031 C 
ATOM     65  C   UNL A   1      43.216  31.103  37.762  1.00  0.00     0.029 A 
ATOM     66  C   UNL A   1      42.648  30.761  36.543  1.00  0.00     0.049 A 
ATOM     67  H   UNL A   1      40.845  31.440  35.684  1.00  0.00     0.167 HD
ATOM     68  C   UNL A   1      42.536  29.557  34.374  1.00  0.00     0.074 A 
ATOM     69  C   UNL A   1      43.068  28.658  33.371  1.00  0.00     0.031 C 
ATOM     70  C   UNL A   1      43.156  29.857  35.541  1.00  0.00     0.037 A 
BRANCH  57  71
ATOM     71  C   UNL A   1      40.155  33.950  39.064  1.00  0.00     0.064 A 
ATOM     72  C   UNL A   1      40.808  35.191  39.107  1.00  0.00     0.173 A 
ATOM     73  C   UNL A   1      39.525  33.497  40.233  1.00  0.00     0.173 A 
ATOM     74  F   UNL A   1      41.425  35.670  38.018  1.00  0.00    -0.203 F 
ATOM     75  C   UNL A   1      40.841  35.943  40.278  1.00  0.00     0.198 A 
ATOM     76  C   UNL A   1      39.531  34.268  41.393  1.00  0.00     0.198 A 
ATOM     77  F   UNL A   1      38.872  32.326  40.240  1.00  0.00    -0.203 F 
ATOM     78  F   UNL A   1      41.497  37.112  40.303  1.00  0.00    -0.200 F 
ATOM     79  C   UNL A   1      40.197  35.485  41.417  1.00  0.00     0.200 A 
ATOM     80  F   UNL A   1      38.882  33.839  42.483  1.00  0.00    -0.200 F 
ATOM     81  F   UNL A   1      40.214  36.219  42.538  1.00  0.00    -0.200 F 
ENDBRANCH  57  71
BRANCH  58  82
ATOM     82  C   UNL A   1      39.954  28.797  30.492  1.00  0.00     0.064 A 
ATOM     83  C   UNL A   1      40.484  29.353  29.317  1.00  0.00     0.173 A 
ATOM     84  C   UNL A   1      39.349  27.538  30.403  1.00  0.00     0.173 A 
ATOM     85  F   UNL A   1      41.076  30.556  29.349  1.00  0.00    -0.203 F 
ATOM     86  C   UNL A   1      40.376  28.690  28.096  1.00  0.00     0.198 A 
ATOM     87  C   UNL A   1      39.265  26.865  29.186  1.00  0.00     0.198 A 
ATOM     88  F   UNL A   1      38.850  26.956  31.504  1.00  0.00    -0.203 F 
ATOM     89  F   UNL A   1      40.849  29.263  26.981  1.00  0.00    -0.200 F 
ATOM     90  C   UNL A   1      39.767  27.447  28.031  1.00  0.00     0.200 A 
ATOM     91  F   UNL A   1      38.694  25.654  29.130  1.00  0.00    -0.200 F 
ATOM     92  F   UNL A   1      39.661  26.811  26.857  1.00  0.00    -0.200 F 
ENDBRANCH  58  82
BRANCH  70  93
ATOM     93  C   UNL A   1      44.467  29.191  35.843  1.00  0.00     0.064 A 
ATOM     94  C   UNL A   1      45.666  29.753  35.373  1.00  0.00     0.173 A 
ATOM     95  C   UNL A   1      44.529  27.935  36.462  1.00  0.00     0.173 A 
ATOM     96  F   UNL A   1      45.657  30.947  34.763  1.00  0.00    -0.203 F 
ATOM     97  C   UNL A   1      46.871  29.065  35.480  1.00  0.00     0.198 A 
ATOM     98  C   UNL A   1      45.741  27.263  36.593  1.00  0.00     0.198 A 
ATOM     99  F   UNL A   1      43.413  27.360  36.935  1.00  0.00    -0.203 F 
ATOM    100  F   UNL A   1      47.991  29.596  34.969  1.00  0.00    -0.200 F 
ATOM    101  C   UNL A   1      46.907  27.821  36.088  1.00  0.00     0.200 A 
ATOM    102  F   UNL A   1      45.781  26.067  37.197  1.00  0.00    -0.200 F 
ATOM    103  F   UNL A   1      48.067  27.154  36.181  1.00  0.00    -0.200 F 
ENDBRANCH  70  93
ENDBRANCH  44  45
ENDBRANCH  37  39
ENDBRANCH  36  37
ENDBRANCH  35  36
ENDBRANCH  34  35
ENDBRANCH  33  34
ENDBRANCH  32  33
ENDBRANCH  31  32
ENDBRANCH  30  31
ENDBRANCH  29  30
ENDBRANCH   1  29
TORSDOF 26
ENDMDL
MODEL 3
REMARK VINA RESULT:      -9.1      2.103      3.146
REMARK SMILES CC[C@@](C)([NH2+]CC(=O)N[C@@H](C)c1ccc(F)cc1)C(=O)OCCOCCOCCOCCOC(=O)c1ccc(-c2c3nc(c(-c4c(F)c(F)c(F)c(F)c4F)c4ccc([nH]4)c(-c4c(F)c(F)c(F)c(F)c4F)c4nc(c(-c5c(F)c(F)c(F)c(F)c5F)c5ccc2[nH]5)C=C4)C=C3)cc1
REMARK SMILES IDX 25 1 24 2 23 3 22 4 21 5 19 6 20 7 3 8 4 9 2 10 1 11 5 12
REMARK SMILES IDX 6 15 7 16 8 17 9 18 10 20 11 21 12 22 13 23 18 24 14 25
REMARK SMILES IDX 17 26 15 27 16 28 26 29 27 30 28 31 29 32 30 33 31 34 32 35
REMARK SMILES IDX 33 36 34 37 35 38 36 39 37 40 98 41 38 42 97 43 39 44 40 45
REMARK SMILES IDX 41 46 91 47 42 48 96 49 90 50 92 51 43 52 95 53 89 54 88 55
REMARK SMILES IDX 44 57 76 58 56 59 75 60 57 61 60 62 74 63 93 64 58 65 59 66
REMARK SMILES IDX 73 68 94 69 61 70 45 71 46 72 54 73 47 74 48 75 52 76 55 77
REMARK SMILES IDX 49 78 50 79 53 80 51 81 77 82 78 83 86 84 79 85 80 86 84 87
REMARK SMILES IDX 87 88 81 89 82 90 85 91 83 92 62 93 63 94 71 95 64 96 65 97
REMARK SMILES IDX 69 98 72 99 66 100 67 101 70 102 68 103
REMARK H PARENT 5 13 5 14 9 19 92 56 60 67
REMARK Flexibility Score: inf
ROOT
ATOM      1  C   UNL A   1      35.455  31.154  27.903  1.00  0.00     0.188 C 
ENDROOT
BRANCH   1   2
ATOM      2  O   UNL A   1      34.216  30.683  27.385  1.00  0.00    -0.376 OA
BRANCH   2   3
ATOM      3  C   UNL A   1      34.116  29.354  26.892  1.00  0.00     0.202 C 
BRANCH   3   4
ATOM      4  C   UNL A   1      33.619  29.059  25.466  1.00  0.00     0.261 C 
BRANCH   4   5
ATOM      5  O   UNL A   1      33.125  27.729  25.260  1.00  0.00    -0.459 OA
BRANCH   5   6
ATOM      6  C   UNL A   1      31.805  27.438  25.403  1.00  0.00     0.367 C 
ATOM      7  O   UNL A   1      31.274  27.214  26.486  1.00  0.00    -0.245 OA
BRANCH   6   8
ATOM      8  C   UNL A   1      31.059  27.387  24.015  1.00  0.00     0.191 C 
ATOM      9  C   UNL A   1      29.928  26.360  23.850  1.00  0.00     0.092 C 
BRANCH   8  10
ATOM     10  C   UNL A   1      30.361  28.783  23.889  1.00  0.00     0.077 C 
ATOM     11  C   UNL A   1      30.374  29.353  22.457  1.00  0.00     0.011 C 
ENDBRANCH   8  10
BRANCH   8  12
ATOM     12  N   UNL A   1      31.991  27.098  22.877  1.00  0.00    -0.325 N 
ATOM     13  H   UNL A   1      32.873  26.794  23.287  1.00  0.00     0.347 HD
ATOM     14  H   UNL A   1      32.000  27.972  22.350  1.00  0.00     0.347 HD
BRANCH  12  15
ATOM     15  C   UNL A   1      31.615  26.080  21.852  1.00  0.00     0.362 C 
BRANCH  15  16
ATOM     16  C   UNL A   1      32.750  25.366  21.085  1.00  0.00     0.275 C 
ATOM     17  O   UNL A   1      32.907  25.554  19.875  1.00  0.00    -0.268 OA
ATOM     18  N   UNL A   1      33.656  24.552  21.735  1.00  0.00    -0.345 N 
ATOM     19  H   UNL A   1      34.544  24.467  21.318  1.00  0.00     0.164 HD
BRANCH  18  20
ATOM     20  C   UNL A   1      33.449  23.804  22.968  1.00  0.00     0.109 C 
ATOM     21  C   UNL A   1      32.510  22.604  22.759  1.00  0.00     0.036 C 
BRANCH  20  22
ATOM     22  C   UNL A   1      34.656  23.481  23.825  1.00  0.00    -0.026 A 
ATOM     23  C   UNL A   1      35.842  22.960  23.295  1.00  0.00     0.009 A 
ATOM     24  C   UNL A   1      34.643  23.864  25.188  1.00  0.00     0.009 A 
ATOM     25  C   UNL A   1      36.970  22.808  24.109  1.00  0.00     0.039 A 
ATOM     26  C   UNL A   1      35.767  23.710  25.997  1.00  0.00     0.039 A 
ATOM     27  C   UNL A   1      36.922  23.182  25.448  1.00  0.00     0.123 A 
ATOM     28  F   UNL A   1      38.013  23.050  26.213  1.00  0.00    -0.207 F 
ENDBRANCH  20  22
ENDBRANCH  18  20
ENDBRANCH  15  16
ENDBRANCH  12  15
ENDBRANCH   8  12
ENDBRANCH   6   8
ENDBRANCH   5   6
ENDBRANCH   4   5
ENDBRANCH   3   4
ENDBRANCH   2   3
ENDBRANCH   1   2
BRANCH   1  29
ATOM     29  C   UNL A   1      35.538  31.639  29.369  1.00  0.00     0.188 C 
BRANCH  29  30
ATOM     30  O   UNL A   1      34.510  32.535  29.746  1.00  0.00    -0.377 OA
BRANCH  30  31
ATOM     31  C   UNL A   1      34.460  33.774  29.057  1.00  0.00     0.188 C 
BRANCH  31  32
ATOM     32  C   UNL A   1      33.142  34.204  28.378  1.00  0.00     0.188 C 
BRANCH  32  33
ATOM     33  O   UNL A   1      32.571  35.407  28.877  1.00  0.00    -0.376 OA
BRANCH  33  34
ATOM     34  C   UNL A   1      33.407  36.378  29.489  1.00  0.00     0.202 C 
BRANCH  34  35
ATOM     35  C   UNL A   1      32.861  37.114  30.722  1.00  0.00     0.261 C 
BRANCH  35  36
ATOM     36  O   UNL A   1      33.391  36.705  31.987  1.00  0.00    -0.460 OA
BRANCH  36  37
ATOM     37  C   UNL A   1      33.050  35.472  32.432  1.00  0.00     0.338 C 
ATOM     38  O   UNL A   1      31.945  35.010  32.561  1.00  0.00    -0.246 OA
BRANCH  37  39
ATOM     39  C   UNL A   1      34.306  34.707  32.579  1.00  0.00     0.060 A 
ATOM     40  C   UNL A   1      34.246  33.372  33.001  1.00  0.00     0.016 A 
ATOM     41  C   UNL A   1      35.530  35.318  32.307  1.00  0.00     0.016 A 
ATOM     42  C   UNL A   1      35.423  32.655  33.207  1.00  0.00     0.010 A 
ATOM     43  C   UNL A   1      36.707  34.611  32.539  1.00  0.00     0.010 A 
ATOM     44  C   UNL A   1      36.656  33.295  33.033  1.00  0.00    -0.014 A 
BRANCH  44  45
ATOM     45  C   UNL A   1      37.884  32.716  33.619  1.00  0.00     0.031 A 
ATOM     46  C   UNL A   1      38.130  32.954  35.082  1.00  0.00     0.074 A 
ATOM     47  C   UNL A   1      38.772  32.035  32.877  1.00  0.00     0.049 A 
ATOM     48  N   UNL A   1      39.195  32.711  35.797  1.00  0.00    -0.248 NA
ATOM     49  C   UNL A   1      37.021  33.564  35.834  1.00  0.00     0.031 C 
ATOM     50  C   UNL A   1      38.607  31.690  31.469  1.00  0.00     0.029 A 
ATOM     51  N   UNL A   1      40.004  31.533  33.211  1.00  0.00    -0.354 N 
ATOM     52  C   UNL A   1      38.893  33.159  37.076  1.00  0.00     0.074 A 
ATOM     53  C   UNL A   1      37.556  33.707  37.037  1.00  0.00     0.031 C 
ATOM     54  C   UNL A   1      39.713  31.052  31.049  1.00  0.00     0.029 A 
ATOM     55  C   UNL A   1      40.678  30.989  32.149  1.00  0.00     0.049 A 
ATOM     56  H   UNL A   1      40.369  31.562  34.126  1.00  0.00     0.167 HD
ATOM     57  C   UNL A   1      39.665  33.115  38.184  1.00  0.00     0.037 A 
ATOM     58  C   UNL A   1      41.943  30.530  32.068  1.00  0.00     0.037 A 
ATOM     59  C   UNL A   1      40.993  32.565  38.210  1.00  0.00     0.049 A 
ATOM     60  C   UNL A   1      42.823  30.566  33.292  1.00  0.00     0.074 A 
ATOM     61  C   UNL A   1      41.855  32.452  39.284  1.00  0.00     0.029 A 
ATOM     62  N   UNL A   1      41.652  32.046  37.105  1.00  0.00    -0.354 N 
ATOM     63  N   UNL A   1      42.539  30.987  34.501  1.00  0.00    -0.248 NA
ATOM     64  C   UNL A   1      44.199  30.071  33.142  1.00  0.00     0.031 C 
ATOM     65  C   UNL A   1      43.061  31.925  38.817  1.00  0.00     0.029 A 
ATOM     66  C   UNL A   1      42.925  31.640  37.466  1.00  0.00     0.049 A 
ATOM     67  H   UNL A   1      41.272  31.977  36.199  1.00  0.00     0.167 HD
ATOM     68  C   UNL A   1      43.683  30.783  35.262  1.00  0.00     0.074 A 
ATOM     69  C   UNL A   1      44.671  30.201  34.376  1.00  0.00     0.031 C 
ATOM     70  C   UNL A   1      43.892  31.048  36.575  1.00  0.00     0.037 A 
BRANCH  57  71
ATOM     71  C   UNL A   1      39.112  33.708  39.446  1.00  0.00     0.064 A 
ATOM     72  C   UNL A   1      38.289  32.940  40.284  1.00  0.00     0.173 A 
ATOM     73  C   UNL A   1      39.359  35.040  39.808  1.00  0.00     0.173 A 
ATOM     74  F   UNL A   1      38.021  31.661  39.984  1.00  0.00    -0.203 F 
ATOM     75  C   UNL A   1      37.725  33.489  41.432  1.00  0.00     0.198 A 
ATOM     76  C   UNL A   1      38.821  35.576  40.977  1.00  0.00     0.198 A 
ATOM     77  F   UNL A   1      40.153  35.811  39.051  1.00  0.00    -0.203 F 
ATOM     78  F   UNL A   1      36.918  32.745  42.202  1.00  0.00    -0.200 F 
ATOM     79  C   UNL A   1      37.997  34.802  41.781  1.00  0.00     0.200 A 
ATOM     80  F   UNL A   1      39.110  36.835  41.329  1.00  0.00    -0.200 F 
ATOM     81  F   UNL A   1      37.468  35.323  42.897  1.00  0.00    -0.200 F 
ENDBRANCH  57  71
BRANCH  58  82
ATOM     82  C   UNL A   1      42.442  30.002  30.772  1.00  0.00     0.064 A 
ATOM     83  C   UNL A   1      42.970  30.856  29.791  1.00  0.00     0.173 A 
ATOM     84  C   UNL A   1      42.345  28.639  30.466  1.00  0.00     0.173 A 
ATOM     85  F   UNL A   1      43.085  32.170  30.035  1.00  0.00    -0.203 F 
ATOM     86  C   UNL A   1      43.349  30.369  28.542  1.00  0.00     0.198 A 
ATOM     87  C   UNL A   1      42.749  28.149  29.226  1.00  0.00     0.198 A 
ATOM     88  F   UNL A   1      41.870  27.781  31.381  1.00  0.00    -0.203 F 
ATOM     89  F   UNL A   1      43.807  31.212  27.606  1.00  0.00    -0.200 F 
ATOM     90  C   UNL A   1      43.238  29.016  28.260  1.00  0.00     0.200 A 
ATOM     91  F   UNL A   1      42.660  26.838  28.965  1.00  0.00    -0.200 F 
ATOM     92  F   UNL A   1      43.600  28.548  27.058  1.00  0.00    -0.200 F 
ENDBRANCH  58  82
BRANCH  70  93
ATOM     93  C   UNL A   1      45.220  30.685  37.173  1.00  0.00     0.064 A 
ATOM     94  C   UNL A   1      45.414  29.412  37.734  1.00  0.00     0.173 A 
ATOM     95  C   UNL A   1      46.241  31.633  37.324  1.00  0.00     0.173 A 
ATOM     96  F   UNL A   1      44.461  28.475  37.627  1.00  0.00    -0.203 F 
ATOM     97  C   UNL A   1      46.567  29.115  38.455  1.00  0.00     0.198 A 
ATOM     98  C   UNL A   1      47.406  31.321  38.020  1.00  0.00     0.198 A 
ATOM     99  F   UNL A   1      46.107  32.860  36.798  1.00  0.00    -0.203 F 
ATOM    100  F   UNL A   1      46.702  27.912  39.032  1.00  0.00    -0.200 F 
ATOM    101  C   UNL A   1      47.560  30.070  38.598  1.00  0.00     0.200 A 
ATOM    102  F   UNL A   1      48.376  32.239  38.145  1.00  0.00    -0.200 F 
ATOM    103  F   UNL A   1      48.666  29.785  39.302  1.00  0.00    -0.200 F 
ENDBRANCH  70  93
ENDBRANCH  44  45
ENDBRANCH  37  39
ENDBRANCH  36  37
ENDBRANCH  35  36
ENDBRANCH  34  35
ENDBRANCH  33  34
ENDBRANCH  32  33
ENDBRANCH  31  32
ENDBRANCH  30  31
ENDBRANCH  29  30
ENDBRANCH   1  29
TORSDOF 26
ENDMDL
