MODEL 1
REMARK VINA RESULT:      -8.9      0.000      0.000
REMARK SMILES C[C@@H](C(=O)OCCOCCOCCOCCOC(=O)c1ccc(-c2c3nc(c(-c4c(F)c(F)c(F)c(F)c4F)c4ccc([nH]4)c(-c4c(F)c(F)c(F)c(F)c4F)c4nc(c(-c5c(F)c(F)c(F)c(F)c5F)c5ccc2[nH]5)C=C4)C=C3)cc1)c1ccc(C(=O)c2cccs2)cc1
REMARK SMILES IDX 10 1 9 2 8 3 7 4 6 5 5 6 3 7 4 8 2 9 1 10 83 11 84 12 95 13
REMARK SMILES IDX 85 14 94 15 86 16 87 17 88 18 89 19 90 20 93 21 91 22 92 23
REMARK SMILES IDX 11 24 12 25 13 26 14 27 15 28 16 29 17 30 18 31 19 32 20 33
REMARK SMILES IDX 21 34 82 35 22 36 81 37 23 38 24 39 25 40 75 41 26 42 80 43
REMARK SMILES IDX 74 44 76 45 27 46 79 47 73 48 72 49 28 51 60 52 40 53 59 54
REMARK SMILES IDX 41 55 44 56 58 57 77 58 42 59 43 60 57 62 78 63 45 64 29 65
REMARK SMILES IDX 30 66 38 67 31 68 32 69 36 70 39 71 33 72 34 73 37 74 35 75
REMARK SMILES IDX 61 76 62 77 70 78 63 79 64 80 68 81 71 82 65 83 66 84 69 85
REMARK SMILES IDX 67 86 46 87 47 88 55 89 48 90 49 91 53 92 56 93 50 94 51 95
REMARK SMILES IDX 54 96 52 97
REMARK H PARENT 76 50 44 61
REMARK Flexibility Score: inf
ROOT
ATOM      1  C   UNL A   1      33.239  28.312  27.302  1.00  0.00     0.188 C 
ENDROOT
BRANCH   1   2
ATOM      2  C   UNL A   1      31.858  28.308  26.635  1.00  0.00     0.188 C 
BRANCH   2   3
ATOM      3  O   UNL A   1      31.169  27.084  26.792  1.00  0.00    -0.376 OA
BRANCH   3   4
ATOM      4  C   UNL A   1      31.468  26.022  25.904  1.00  0.00     0.202 C 
BRANCH   4   5
ATOM      5  C   UNL A   1      32.124  24.705  26.372  1.00  0.00     0.261 C 
BRANCH   5   6
ATOM      6  O   UNL A   1      33.089  24.090  25.502  1.00  0.00    -0.463 OA
BRANCH   6   7
ATOM      7  C   UNL A   1      34.288  23.727  26.016  1.00  0.00     0.313 C 
ATOM      8  O   UNL A   1      34.423  23.232  27.129  1.00  0.00    -0.252 OA
BRANCH   7   9
ATOM      9  C   UNL A   1      35.461  23.951  25.041  1.00  0.00     0.126 C 
ATOM     10  C   UNL A   1      35.143  23.763  23.542  1.00  0.00     0.025 C 
BRANCH   9  11
ATOM     11  C   UNL A   1      36.761  23.238  25.437  1.00  0.00    -0.034 A 
ATOM     12  C   UNL A   1      37.766  23.844  26.206  1.00  0.00     0.005 A 
ATOM     13  C   UNL A   1      36.985  21.921  25.007  1.00  0.00     0.005 A 
ATOM     14  C   UNL A   1      38.934  23.166  26.563  1.00  0.00     0.012 A 
ATOM     15  C   UNL A   1      38.172  21.247  25.327  1.00  0.00     0.012 A 
ATOM     16  C   UNL A   1      39.161  21.872  26.098  1.00  0.00     0.023 A 
BRANCH  16  17
ATOM     17  C   UNL A   1      40.458  21.213  26.450  1.00  0.00     0.202 C 
ATOM     18  O   UNL A   1      40.532  19.989  26.365  1.00  0.00    -0.288 OA
BRANCH  17  19
ATOM     19  C   UNL A   1      41.560  22.050  26.882  1.00  0.00     0.075 A 
ATOM     20  C   UNL A   1      41.992  22.332  28.164  1.00  0.00     0.024 A 
ATOM     21  S   UNL A   1      42.510  22.842  25.703  1.00  0.00    -0.140 S 
ATOM     22  C   UNL A   1      43.067  23.268  28.173  1.00  0.00     0.012 A 
ATOM     23  C   UNL A   1      43.435  23.640  26.900  1.00  0.00     0.065 A 
ENDBRANCH  17  19
ENDBRANCH  16  17
ENDBRANCH   9  11
ENDBRANCH   7   9
ENDBRANCH   6   7
ENDBRANCH   5   6
ENDBRANCH   4   5
ENDBRANCH   3   4
ENDBRANCH   2   3
ENDBRANCH   1   2
BRANCH   1  24
ATOM     24  O   UNL A   1      34.010  29.482  27.086  1.00  0.00    -0.377 OA
BRANCH  24  25
ATOM     25  C   UNL A   1      33.412  30.747  27.371  1.00  0.00     0.188 C 
BRANCH  25  26
ATOM     26  C   UNL A   1      34.206  31.913  28.017  1.00  0.00     0.188 C 
BRANCH  26  27
ATOM     27  O   UNL A   1      34.848  31.604  29.243  1.00  0.00    -0.376 OA
BRANCH  27  28
ATOM     28  C   UNL A   1      34.960  32.618  30.227  1.00  0.00     0.202 C 
BRANCH  28  29
ATOM     29  C   UNL A   1      34.997  32.174  31.696  1.00  0.00     0.261 C 
BRANCH  29  30
ATOM     30  O   UNL A   1      36.298  31.922  32.250  1.00  0.00    -0.460 OA
BRANCH  30  31
ATOM     31  C   UNL A   1      36.841  30.704  32.054  1.00  0.00     0.338 C 
ATOM     32  O   UNL A   1      36.292  29.620  32.164  1.00  0.00    -0.246 OA
BRANCH  31  33
ATOM     33  C   UNL A   1      38.184  30.906  31.471  1.00  0.00     0.060 A 
ATOM     34  C   UNL A   1      39.279  31.092  32.326  1.00  0.00     0.016 A 
ATOM     35  C   UNL A   1      38.363  30.880  30.085  1.00  0.00     0.016 A 
ATOM     36  C   UNL A   1      40.555  31.289  31.797  1.00  0.00     0.010 A 
ATOM     37  C   UNL A   1      39.636  31.107  29.556  1.00  0.00     0.010 A 
ATOM     38  C   UNL A   1      40.728  31.349  30.408  1.00  0.00    -0.014 A 
BRANCH  38  39
ATOM     39  C   UNL A   1      41.991  31.891  29.854  1.00  0.00     0.031 A 
ATOM     40  C   UNL A   1      43.040  30.910  29.406  1.00  0.00     0.074 A 
ATOM     41  C   UNL A   1      42.196  33.213  29.727  1.00  0.00     0.049 A 
ATOM     42  N   UNL A   1      44.244  31.128  28.945  1.00  0.00    -0.248 NA
ATOM     43  C   UNL A   1      42.678  29.486  29.495  1.00  0.00     0.031 C 
ATOM     44  C   UNL A   1      41.235  34.256  30.074  1.00  0.00     0.029 A 
ATOM     45  N   UNL A   1      43.295  33.901  29.275  1.00  0.00    -0.354 N 
ATOM     46  C   UNL A   1      44.785  29.872  28.703  1.00  0.00     0.074 A 
ATOM     47  C   UNL A   1      43.792  28.896  29.093  1.00  0.00     0.031 C 
ATOM     48  C   UNL A   1      41.792  35.457  29.834  1.00  0.00     0.029 A 
ATOM     49  C   UNL A   1      43.160  35.264  29.353  1.00  0.00     0.049 A 
ATOM     50  H   UNL A   1      44.103  33.458  28.928  1.00  0.00     0.167 HD
ATOM     51  C   UNL A   1      46.000  29.562  28.194  1.00  0.00     0.037 A 
ATOM     52  C   UNL A   1      44.053  36.240  29.089  1.00  0.00     0.037 A 
ATOM     53  C   UNL A   1      46.983  30.539  27.807  1.00  0.00     0.049 A 
ATOM     54  C   UNL A   1      45.432  35.864  28.604  1.00  0.00     0.074 A 
ATOM     55  C   UNL A   1      48.237  30.329  27.261  1.00  0.00     0.029 A 
ATOM     56  N   UNL A   1      46.826  31.911  27.937  1.00  0.00    -0.354 N 
ATOM     57  N   UNL A   1      45.931  34.678  28.352  1.00  0.00    -0.248 NA
ATOM     58  C   UNL A   1      46.374  36.968  28.366  1.00  0.00     0.031 C 
ATOM     59  C   UNL A   1      48.865  31.571  27.126  1.00  0.00     0.029 A 
ATOM     60  C   UNL A   1      47.974  32.559  27.514  1.00  0.00     0.049 A 
ATOM     61  H   UNL A   1      46.018  32.357  28.279  1.00  0.00     0.167 HD
ATOM     62  C   UNL A   1      47.224  34.894  27.891  1.00  0.00     0.074 A 
ATOM     63  C   UNL A   1      47.430  36.326  27.888  1.00  0.00     0.031 C 
ATOM     64  C   UNL A   1      48.158  33.989  27.504  1.00  0.00     0.037 A 
BRANCH  51  65
ATOM     65  C   UNL A   1      46.350  28.108  28.065  1.00  0.00     0.064 A 
ATOM     66  C   UNL A   1      46.961  27.395  29.107  1.00  0.00     0.173 A 
ATOM     67  C   UNL A   1      46.041  27.411  26.887  1.00  0.00     0.173 A 
ATOM     68  F   UNL A   1      47.293  28.018  30.248  1.00  0.00    -0.203 F 
ATOM     69  C   UNL A   1      47.271  26.045  28.965  1.00  0.00     0.198 A 
ATOM     70  C   UNL A   1      46.322  26.053  26.761  1.00  0.00     0.198 A 
ATOM     71  F   UNL A   1      45.457  28.045  25.858  1.00  0.00    -0.203 F 
ATOM     72  F   UNL A   1      47.900  25.395  29.955  1.00  0.00    -0.200 F 
ATOM     73  C   UNL A   1      46.944  25.373  27.797  1.00  0.00     0.200 A 
ATOM     74  F   UNL A   1      45.991  25.403  25.637  1.00  0.00    -0.200 F 
ATOM     75  F   UNL A   1      47.233  24.071  27.666  1.00  0.00    -0.200 F 
ENDBRANCH  51  65
BRANCH  52  76
ATOM     76  C   UNL A   1      43.685  37.668  29.290  1.00  0.00     0.064 A 
ATOM     77  C   UNL A   1      43.989  38.332  30.487  1.00  0.00     0.173 A 
ATOM     78  C   UNL A   1      42.987  38.386  28.307  1.00  0.00     0.173 A 
ATOM     79  F   UNL A   1      44.630  37.682  31.470  1.00  0.00    -0.203 F 
ATOM     80  C   UNL A   1      43.590  39.650  30.703  1.00  0.00     0.198 A 
ATOM     81  C   UNL A   1      42.618  39.714  28.511  1.00  0.00     0.198 A 
ATOM     82  F   UNL A   1      42.667  37.798  27.146  1.00  0.00    -0.203 F 
ATOM     83  F   UNL A   1      43.842  40.240  31.879  1.00  0.00    -0.200 F 
ATOM     84  C   UNL A   1      42.909  40.341  29.712  1.00  0.00     0.200 A 
ATOM     85  F   UNL A   1      41.972  40.382  27.545  1.00  0.00    -0.200 F 
ATOM     86  F   UNL A   1      42.524  41.608  29.920  1.00  0.00    -0.200 F 
ENDBRANCH  52  76
BRANCH  64  87
ATOM     87  C   UNL A   1      49.469  34.518  26.993  1.00  0.00     0.064 A 
ATOM     88  C   UNL A   1      49.632  34.948  25.668  1.00  0.00     0.173 A 
ATOM     89  C   UNL A   1      50.568  34.641  27.859  1.00  0.00     0.173 A 
ATOM     90  F   UNL A   1      48.618  34.842  24.795  1.00  0.00    -0.203 F 
ATOM     91  C   UNL A   1      50.851  35.450  25.221  1.00  0.00     0.198 A 
ATOM     92  C   UNL A   1      51.774  35.178  27.419  1.00  0.00     0.198 A 
ATOM     93  F   UNL A   1      50.466  34.255  29.140  1.00  0.00    -0.203 F 
ATOM     94  F   UNL A   1      50.999  35.802  23.936  1.00  0.00    -0.200 F 
ATOM     95  C   UNL A   1      51.918  35.572  26.099  1.00  0.00     0.200 A 
ATOM     96  F   UNL A   1      52.797  35.314  28.275  1.00  0.00    -0.200 F 
ATOM     97  F   UNL A   1      53.088  36.066  25.669  1.00  0.00    -0.200 F 
ENDBRANCH  64  87
ENDBRANCH  38  39
ENDBRANCH  31  33
ENDBRANCH  30  31
ENDBRANCH  29  30
ENDBRANCH  28  29
ENDBRANCH  27  28
ENDBRANCH  26  27
ENDBRANCH  25  26
ENDBRANCH  24  25
ENDBRANCH   1  24
TORSDOF 23
ENDMDL
MODEL 2
REMARK VINA RESULT:      -8.8      3.697      9.379
REMARK SMILES C[C@@H](C(=O)OCCOCCOCCOCCOC(=O)c1ccc(-c2c3nc(c(-c4c(F)c(F)c(F)c(F)c4F)c4ccc([nH]4)c(-c4c(F)c(F)c(F)c(F)c4F)c4nc(c(-c5c(F)c(F)c(F)c(F)c5F)c5ccc2[nH]5)C=C4)C=C3)cc1)c1ccc(C(=O)c2cccs2)cc1
REMARK SMILES IDX 10 1 9 2 8 3 7 4 6 5 5 6 3 7 4 8 2 9 1 10 83 11 84 12 95 13
REMARK SMILES IDX 85 14 94 15 86 16 87 17 88 18 89 19 90 20 93 21 91 22 92 23
REMARK SMILES IDX 11 24 12 25 13 26 14 27 15 28 16 29 17 30 18 31 19 32 20 33
REMARK SMILES IDX 21 34 82 35 22 36 81 37 23 38 24 39 25 40 75 41 26 42 80 43
REMARK SMILES IDX 74 44 76 45 27 46 79 47 73 48 72 49 28 51 60 52 40 53 59 54
REMARK SMILES IDX 41 55 44 56 58 57 77 58 42 59 43 60 57 62 78 63 45 64 29 65
REMARK SMILES IDX 30 66 38 67 31 68 32 69 36 70 39 71 33 72 34 73 37 74 35 75
REMARK SMILES IDX 61 76 62 77 70 78 63 79 64 80 68 81 71 82 65 83 66 84 69 85
REMARK SMILES IDX 67 86 46 87 47 88 55 89 48 90 49 91 53 92 56 93 50 94 51 95
REMARK SMILES IDX 54 96 52 97
REMARK H PARENT 76 50 44 61
REMARK Flexibility Score: inf
ROOT
ATOM      1  C   UNL A   1      35.150  29.332  27.348  1.00  0.00     0.188 C 
ENDROOT
BRANCH   1   2
ATOM      2  C   UNL A   1      33.863  30.077  26.975  1.00  0.00     0.188 C 
BRANCH   2   3
ATOM      3  O   UNL A   1      33.095  29.404  25.997  1.00  0.00    -0.376 OA
BRANCH   3   4
ATOM      4  C   UNL A   1      33.462  28.082  25.643  1.00  0.00     0.202 C 
BRANCH   4   5
ATOM      5  C   UNL A   1      33.931  27.700  24.223  1.00  0.00     0.261 C 
BRANCH   5   6
ATOM      6  O   UNL A   1      34.116  26.305  23.930  1.00  0.00    -0.463 OA
BRANCH   6   7
ATOM      7  C   UNL A   1      33.391  25.749  22.931  1.00  0.00     0.313 C 
ATOM      8  O   UNL A   1      33.793  25.656  21.776  1.00  0.00    -0.252 OA
BRANCH   7   9
ATOM      9  C   UNL A   1      32.030  25.198  23.400  1.00  0.00     0.126 C 
ATOM     10  C   UNL A   1      31.646  23.799  22.872  1.00  0.00     0.025 C 
BRANCH   9  11
ATOM     11  C   UNL A   1      30.865  26.189  23.272  1.00  0.00    -0.034 A 
ATOM     12  C   UNL A   1      30.958  27.394  22.559  1.00  0.00     0.005 A 
ATOM     13  C   UNL A   1      29.645  25.907  23.905  1.00  0.00     0.005 A 
ATOM     14  C   UNL A   1      29.877  28.272  22.449  1.00  0.00     0.012 A 
ATOM     15  C   UNL A   1      28.568  26.802  23.832  1.00  0.00     0.012 A 
ATOM     16  C   UNL A   1      28.682  27.999  23.113  1.00  0.00     0.023 A 
BRANCH  16  17
ATOM     17  C   UNL A   1      27.577  29.003  23.020  1.00  0.00     0.202 C 
ATOM     18  O   UNL A   1      26.463  28.684  23.430  1.00  0.00    -0.288 OA
BRANCH  17  19
ATOM     19  C   UNL A   1      27.873  30.301  22.444  1.00  0.00     0.075 A 
ATOM     20  C   UNL A   1      27.869  30.689  21.118  1.00  0.00     0.024 A 
ATOM     21  S   UNL A   1      28.300  31.589  23.483  1.00  0.00    -0.140 S 
ATOM     22  C   UNL A   1      28.296  32.039  20.955  1.00  0.00     0.012 A 
ATOM     23  C   UNL A   1      28.577  32.639  22.161  1.00  0.00     0.065 A 
ENDBRANCH  17  19
ENDBRANCH  16  17
ENDBRANCH   9  11
ENDBRANCH   7   9
ENDBRANCH   6   7
ENDBRANCH   5   6
ENDBRANCH   4   5
ENDBRANCH   3   4
ENDBRANCH   2   3
ENDBRANCH   1   2
BRANCH   1  24
ATOM     24  O   UNL A   1      36.072  30.074  28.129  1.00  0.00    -0.377 OA
BRANCH  24  25
ATOM     25  C   UNL A   1      36.273  29.685  29.488  1.00  0.00     0.188 C 
BRANCH  25  26
ATOM     26  C   UNL A   1      36.324  30.716  30.647  1.00  0.00     0.188 C 
BRANCH  26  27
ATOM     27  O   UNL A   1      35.203  31.577  30.744  1.00  0.00    -0.376 OA
BRANCH  27  28
ATOM     28  C   UNL A   1      34.975  32.516  29.707  1.00  0.00     0.202 C 
BRANCH  28  29
ATOM     29  C   UNL A   1      35.878  33.756  29.668  1.00  0.00     0.261 C 
BRANCH  29  30
ATOM     30  O   UNL A   1      37.290  33.517  29.775  1.00  0.00    -0.460 OA
BRANCH  30  31
ATOM     31  C   UNL A   1      37.909  33.895  30.911  1.00  0.00     0.338 C 
ATOM     32  O   UNL A   1      37.504  33.765  32.056  1.00  0.00    -0.246 OA
BRANCH  31  33
ATOM     33  C   UNL A   1      39.279  34.316  30.552  1.00  0.00     0.060 A 
ATOM     34  C   UNL A   1      39.520  34.840  29.276  1.00  0.00     0.016 A 
ATOM     35  C   UNL A   1      40.314  34.219  31.486  1.00  0.00     0.016 A 
ATOM     36  C   UNL A   1      40.807  35.239  28.914  1.00  0.00     0.010 A 
ATOM     37  C   UNL A   1      41.609  34.591  31.113  1.00  0.00     0.010 A 
ATOM     38  C   UNL A   1      41.865  35.067  29.815  1.00  0.00    -0.014 A 
BRANCH  38  39
ATOM     39  C   UNL A   1      43.261  35.163  29.327  1.00  0.00     0.031 A 
ATOM     40  C   UNL A   1      43.833  36.535  29.098  1.00  0.00     0.074 A 
ATOM     41  C   UNL A   1      44.011  34.068  29.115  1.00  0.00     0.049 A 
ATOM     42  N   UNL A   1      45.000  36.884  28.621  1.00  0.00    -0.248 NA
ATOM     43  C   UNL A   1      42.964  37.669  29.455  1.00  0.00     0.031 C 
ATOM     44  C   UNL A   1      43.586  32.692  29.352  1.00  0.00     0.029 A 
ATOM     45  N   UNL A   1      45.294  33.950  28.639  1.00  0.00    -0.354 N 
ATOM     46  C   UNL A   1      44.997  38.273  28.609  1.00  0.00     0.074 A 
ATOM     47  C   UNL A   1      43.707  38.704  29.098  1.00  0.00     0.031 C 
ATOM     48  C   UNL A   1      44.589  31.863  29.009  1.00  0.00     0.029 A 
ATOM     49  C   UNL A   1      45.708  32.650  28.493  1.00  0.00     0.049 A 
ATOM     50  H   UNL A   1      45.862  34.725  28.423  1.00  0.00     0.167 HD
ATOM     51  C   UNL A   1      45.988  39.114  28.230  1.00  0.00     0.037 A 
ATOM     52  C   UNL A   1      46.852  32.158  27.975  1.00  0.00     0.037 A 
ATOM     53  C   UNL A   1      47.271  38.678  27.745  1.00  0.00     0.049 A 
ATOM     54  C   UNL A   1      47.907  33.117  27.478  1.00  0.00     0.074 A 
ATOM     55  C   UNL A   1      48.351  39.449  27.354  1.00  0.00     0.029 A 
ATOM     56  N   UNL A   1      47.641  37.352  27.573  1.00  0.00    -0.354 N 
ATOM     57  N   UNL A   1      47.913  34.428  27.493  1.00  0.00    -0.248 NA
ATOM     58  C   UNL A   1      49.118  32.523  26.893  1.00  0.00     0.031 C 
ATOM     59  C   UNL A   1      49.349  38.591  26.880  1.00  0.00     0.029 A 
ATOM     60  C   UNL A   1      48.921  37.284  27.048  1.00  0.00     0.049 A 
ATOM     61  H   UNL A   1      47.077  36.576  27.792  1.00  0.00     0.167 HD
ATOM     62  C   UNL A   1      49.136  34.814  26.957  1.00  0.00     0.074 A 
ATOM     63  C   UNL A   1      49.852  33.597  26.638  1.00  0.00     0.031 C 
ATOM     64  C   UNL A   1      49.625  36.062  26.749  1.00  0.00     0.037 A 
BRANCH  51  65
ATOM     65  C   UNL A   1      45.710  40.588  28.285  1.00  0.00     0.064 A 
ATOM     66  C   UNL A   1      46.067  41.370  29.394  1.00  0.00     0.173 A 
ATOM     67  C   UNL A   1      45.102  41.232  27.197  1.00  0.00     0.173 A 
ATOM     68  F   UNL A   1      46.636  40.802  30.468  1.00  0.00    -0.203 F 
ATOM     69  C   UNL A   1      45.803  42.738  29.420  1.00  0.00     0.198 A 
ATOM     70  C   UNL A   1      44.871  42.605  27.212  1.00  0.00     0.198 A 
ATOM     71  F   UNL A   1      44.740  40.530  26.112  1.00  0.00    -0.203 F 
ATOM     72  F   UNL A   1      46.107  43.457  30.509  1.00  0.00    -0.200 F 
ATOM     73  C   UNL A   1      45.214  43.355  28.326  1.00  0.00     0.200 A 
ATOM     74  F   UNL A   1      44.315  43.200  26.149  1.00  0.00    -0.200 F 
ATOM     75  F   UNL A   1      44.970  44.672  28.348  1.00  0.00    -0.200 F 
ENDBRANCH  51  65
BRANCH  52  76
ATOM     76  C   UNL A   1      47.062  30.688  27.882  1.00  0.00     0.064 A 
ATOM     77  C   UNL A   1      46.677  29.973  26.738  1.00  0.00     0.173 A 
ATOM     78  C   UNL A   1      47.615  29.962  28.947  1.00  0.00     0.173 A 
ATOM     79  F   UNL A   1      46.117  30.617  25.703  1.00  0.00    -0.203 F 
ATOM     80  C   UNL A   1      46.813  28.588  26.674  1.00  0.00     0.198 A 
ATOM     81  C   UNL A   1      47.783  28.580  28.868  1.00  0.00     0.198 A 
ATOM     82  F   UNL A   1      47.996  30.595  30.066  1.00  0.00    -0.203 F 
ATOM     83  F   UNL A   1      46.382  27.924  25.593  1.00  0.00    -0.200 F 
ATOM     84  C   UNL A   1      47.372  27.893  27.737  1.00  0.00     0.200 A 
ATOM     85  F   UNL A   1      48.334  27.916  29.892  1.00  0.00    -0.200 F 
ATOM     86  F   UNL A   1      47.502  26.561  27.675  1.00  0.00    -0.200 F 
ENDBRANCH  52  76
BRANCH  64  87
ATOM     87  C   UNL A   1      51.020  36.180  26.199  1.00  0.00     0.064 A 
ATOM     88  C   UNL A   1      52.152  36.106  27.022  1.00  0.00     0.173 A 
ATOM     89  C   UNL A   1      51.224  36.323  24.816  1.00  0.00     0.173 A 
ATOM     90  F   UNL A   1      52.014  35.982  28.351  1.00  0.00    -0.203 F 
ATOM     91  C   UNL A   1      53.435  36.202  26.488  1.00  0.00     0.198 A 
ATOM     92  C   UNL A   1      52.508  36.379  24.282  1.00  0.00     0.198 A 
ATOM     93  F   UNL A   1      50.177  36.388  23.980  1.00  0.00    -0.203 F 
ATOM     94  F   UNL A   1      54.500  36.184  27.301  1.00  0.00    -0.200 F 
ATOM     95  C   UNL A   1      53.611  36.330  25.118  1.00  0.00     0.200 A 
ATOM     96  F   UNL A   1      52.676  36.483  22.956  1.00  0.00    -0.200 F 
ATOM     97  F   UNL A   1      54.847  36.410  24.605  1.00  0.00    -0.200 F 
ENDBRANCH  64  87
ENDBRANCH  38  39
ENDBRANCH  31  33
ENDBRANCH  30  31
ENDBRANCH  29  30
ENDBRANCH  28  29
ENDBRANCH  27  28
ENDBRANCH  26  27
ENDBRANCH  25  26
ENDBRANCH  24  25
ENDBRANCH   1  24
TORSDOF 23
ENDMDL
MODEL 3
REMARK VINA RESULT:      -8.8      4.236      9.213
REMARK SMILES C[C@@H](C(=O)OCCOCCOCCOCCOC(=O)c1ccc(-c2c3nc(c(-c4c(F)c(F)c(F)c(F)c4F)c4ccc([nH]4)c(-c4c(F)c(F)c(F)c(F)c4F)c4nc(c(-c5c(F)c(F)c(F)c(F)c5F)c5ccc2[nH]5)C=C4)C=C3)cc1)c1ccc(C(=O)c2cccs2)cc1
REMARK SMILES IDX 10 1 9 2 8 3 7 4 6 5 5 6 3 7 4 8 2 9 1 10 83 11 84 12 95 13
REMARK SMILES IDX 85 14 94 15 86 16 87 17 88 18 89 19 90 20 93 21 91 22 92 23
REMARK SMILES IDX 11 24 12 25 13 26 14 27 15 28 16 29 17 30 18 31 19 32 20 33
REMARK SMILES IDX 21 34 82 35 22 36 81 37 23 38 24 39 25 40 75 41 26 42 80 43
REMARK SMILES IDX 74 44 76 45 27 46 79 47 73 48 72 49 28 51 60 52 40 53 59 54
REMARK SMILES IDX 41 55 44 56 58 57 77 58 42 59 43 60 57 62 78 63 45 64 29 65
REMARK SMILES IDX 30 66 38 67 31 68 32 69 36 70 39 71 33 72 34 73 37 74 35 75
REMARK SMILES IDX 61 76 62 77 70 78 63 79 64 80 68 81 71 82 65 83 66 84 69 85
REMARK SMILES IDX 67 86 46 87 47 88 55 89 48 90 49 91 53 92 56 93 50 94 51 95
REMARK SMILES IDX 54 96 52 97
REMARK H PARENT 76 50 44 61
REMARK Flexibility Score: inf
ROOT
ATOM      1  C   UNL A   1      46.504  20.064  24.582  1.00  0.00     0.188 C 
ENDROOT
BRANCH   1   2
ATOM      2  C   UNL A   1      45.229  19.222  24.454  1.00  0.00     0.188 C 
BRANCH   2   3
ATOM      3  O   UNL A   1      44.044  19.987  24.558  1.00  0.00    -0.376 OA
BRANCH   3   4
ATOM      4  C   UNL A   1      43.341  19.980  25.788  1.00  0.00     0.202 C 
BRANCH   4   5
ATOM      5  C   UNL A   1      42.112  19.080  26.039  1.00  0.00     0.261 C 
BRANCH   5   6
ATOM      6  O   UNL A   1      40.811  19.640  25.799  1.00  0.00    -0.463 OA
BRANCH   6   7
ATOM      7  C   UNL A   1      40.350  20.596  26.640  1.00  0.00     0.313 C 
ATOM      8  O   UNL A   1      40.615  20.627  27.837  1.00  0.00    -0.252 OA
BRANCH   7   9
ATOM      9  C   UNL A   1      39.500  21.670  25.933  1.00  0.00     0.126 C 
ATOM     10  C   UNL A   1      39.511  23.074  26.574  1.00  0.00     0.025 C 
BRANCH   9  11
ATOM     11  C   UNL A   1      38.075  21.222  25.580  1.00  0.00    -0.034 A 
ATOM     12  C   UNL A   1      36.940  22.013  25.816  1.00  0.00     0.005 A 
ATOM     13  C   UNL A   1      37.870  19.956  25.009  1.00  0.00     0.005 A 
ATOM     14  C   UNL A   1      35.656  21.584  25.473  1.00  0.00     0.012 A 
ATOM     15  C   UNL A   1      36.580  19.502  24.698  1.00  0.00     0.012 A 
ATOM     16  C   UNL A   1      35.462  20.310  24.941  1.00  0.00     0.023 A 
BRANCH  16  17
ATOM     17  C   UNL A   1      34.061  19.871  24.653  1.00  0.00     0.202 C 
ATOM     18  O   UNL A   1      33.199  20.735  24.498  1.00  0.00    -0.288 OA
BRANCH  17  19
ATOM     19  C   UNL A   1      33.786  18.449  24.580  1.00  0.00     0.075 A 
ATOM     20  C   UNL A   1      34.276  17.509  23.692  1.00  0.00     0.024 A 
ATOM     21  S   UNL A   1      32.712  17.754  25.713  1.00  0.00    -0.140 S 
ATOM     22  C   UNL A   1      33.700  16.223  23.903  1.00  0.00     0.012 A 
ATOM     23  C   UNL A   1      32.819  16.222  24.962  1.00  0.00     0.065 A 
ENDBRANCH  17  19
ENDBRANCH  16  17
ENDBRANCH   9  11
ENDBRANCH   7   9
ENDBRANCH   6   7
ENDBRANCH   5   6
ENDBRANCH   4   5
ENDBRANCH   3   4
ENDBRANCH   2   3
ENDBRANCH   1   2
BRANCH   1  24
ATOM     24  O   UNL A   1      46.328  21.336  25.181  1.00  0.00    -0.377 OA
BRANCH  24  25
ATOM     25  C   UNL A   1      46.349  22.488  24.338  1.00  0.00     0.188 C 
BRANCH  25  26
ATOM     26  C   UNL A   1      45.974  23.902  24.856  1.00  0.00     0.188 C 
BRANCH  26  27
ATOM     27  O   UNL A   1      46.185  24.117  26.242  1.00  0.00    -0.376 OA
BRANCH  27  28
ATOM     28  C   UNL A   1      45.111  24.610  27.024  1.00  0.00     0.202 C 
BRANCH  28  29
ATOM     29  C   UNL A   1      43.757  24.797  26.326  1.00  0.00     0.261 C 
BRANCH  29  30
ATOM     30  O   UNL A   1      42.898  25.813  26.869  1.00  0.00    -0.460 OA
BRANCH  30  31
ATOM     31  C   UNL A   1      42.297  25.566  28.050  1.00  0.00     0.338 C 
ATOM     32  O   UNL A   1      42.010  24.478  28.523  1.00  0.00    -0.246 OA
BRANCH  31  33
ATOM     33  C   UNL A   1      42.228  26.844  28.789  1.00  0.00     0.060 A 
ATOM     34  C   UNL A   1      41.497  27.909  28.244  1.00  0.00     0.016 A 
ATOM     35  C   UNL A   1      42.856  26.977  30.029  1.00  0.00     0.016 A 
ATOM     36  C   UNL A   1      41.422  29.125  28.922  1.00  0.00     0.010 A 
ATOM     37  C   UNL A   1      42.806  28.205  30.693  1.00  0.00     0.010 A 
ATOM     38  C   UNL A   1      42.120  29.293  30.125  1.00  0.00    -0.014 A 
BRANCH  38  39
ATOM     39  C   UNL A   1      42.326  30.658  30.664  1.00  0.00     0.031 A 
ATOM     40  C   UNL A   1      43.441  31.482  30.082  1.00  0.00     0.074 A 
ATOM     41  C   UNL A   1      41.533  31.164  31.624  1.00  0.00     0.049 A 
ATOM     42  N   UNL A   1      43.861  32.674  30.419  1.00  0.00    -0.248 NA
ATOM     43  C   UNL A   1      44.186  30.874  28.968  1.00  0.00     0.031 C 
ATOM     44  C   UNL A   1      40.390  30.483  32.225  1.00  0.00     0.029 A 
ATOM     45  N   UNL A   1      41.583  32.377  32.267  1.00  0.00    -0.354 N 
ATOM     46  C   UNL A   1      44.924  32.949  29.569  1.00  0.00     0.074 A 
ATOM     47  C   UNL A   1      45.105  31.793  28.720  1.00  0.00     0.031 C 
ATOM     48  C   UNL A   1      39.851  31.284  33.162  1.00  0.00     0.029 A 
ATOM     49  C   UNL A   1      40.635  32.516  33.250  1.00  0.00     0.049 A 
ATOM     50  H   UNL A   1      42.236  33.079  32.045  1.00  0.00     0.167 HD
ATOM     51  C   UNL A   1      45.678  34.072  29.498  1.00  0.00     0.037 A 
ATOM     52  C   UNL A   1      40.445  33.516  34.135  1.00  0.00     0.037 A 
ATOM     53  C   UNL A   1      45.492  35.220  30.346  1.00  0.00     0.049 A 
ATOM     54  C   UNL A   1      41.355  34.719  34.093  1.00  0.00     0.074 A 
ATOM     55  C   UNL A   1      46.189  36.415  30.342  1.00  0.00     0.029 A 
ATOM     56  N   UNL A   1      44.547  35.309  31.357  1.00  0.00    -0.354 N 
ATOM     57  N   UNL A   1      42.342  34.988  33.271  1.00  0.00    -0.248 NA
ATOM     58  C   UNL A   1      41.122  35.761  35.103  1.00  0.00     0.031 C 
ATOM     59  C   UNL A   1      45.711  37.200  31.396  1.00  0.00     0.029 A 
ATOM     60  C   UNL A   1      44.666  36.526  32.007  1.00  0.00     0.049 A 
ATOM     61  H   UNL A   1      43.890  34.611  31.579  1.00  0.00     0.167 HD
ATOM     62  C   UNL A   1      42.820  36.240  33.639  1.00  0.00     0.074 A 
ATOM     63  C   UNL A   1      42.007  36.684  34.752  1.00  0.00     0.031 C 
ATOM     64  C   UNL A   1      43.838  36.959  33.105  1.00  0.00     0.037 A 
BRANCH  51  65
ATOM     65  C   UNL A   1      46.798  34.097  28.500  1.00  0.00     0.064 A 
ATOM     66  C   UNL A   1      46.600  34.502  27.171  1.00  0.00     0.173 A 
ATOM     67  C   UNL A   1      48.097  33.736  28.888  1.00  0.00     0.173 A 
ATOM     68  F   UNL A   1      45.375  34.842  26.743  1.00  0.00    -0.203 F 
ATOM     69  C   UNL A   1      47.657  34.522  26.263  1.00  0.00     0.198 A 
ATOM     70  C   UNL A   1      49.157  33.789  27.987  1.00  0.00     0.198 A 
ATOM     71  F   UNL A   1      48.341  33.339  30.147  1.00  0.00    -0.203 F 
ATOM     72  F   UNL A   1      47.436  34.865  24.987  1.00  0.00    -0.200 F 
ATOM     73  C   UNL A   1      48.935  34.174  26.675  1.00  0.00     0.200 A 
ATOM     74  F   UNL A   1      50.393  33.466  28.391  1.00  0.00    -0.200 F 
ATOM     75  F   UNL A   1      49.953  34.204  25.803  1.00  0.00    -0.200 F 
ENDBRANCH  51  65
BRANCH  52  76
ATOM     76  C   UNL A   1      39.361  33.423  35.150  1.00  0.00     0.064 A 
ATOM     77  C   UNL A   1      38.038  33.760  34.829  1.00  0.00     0.173 A 
ATOM     78  C   UNL A   1      39.630  33.034  36.471  1.00  0.00     0.173 A 
ATOM     79  F   UNL A   1      37.733  34.166  33.587  1.00  0.00    -0.203 F 
ATOM     80  C   UNL A   1      37.032  33.736  35.793  1.00  0.00     0.198 A 
ATOM     81  C   UNL A   1      38.617  32.978  37.427  1.00  0.00     0.198 A 
ATOM     82  F   UNL A   1      40.878  32.706  36.833  1.00  0.00    -0.203 F 
ATOM     83  F   UNL A   1      35.790  34.120  35.472  1.00  0.00    -0.200 F 
ATOM     84  C   UNL A   1      37.322  33.339  37.090  1.00  0.00     0.200 A 
ATOM     85  F   UNL A   1      38.900  32.581  38.675  1.00  0.00    -0.200 F 
ATOM     86  F   UNL A   1      36.355  33.317  38.018  1.00  0.00    -0.200 F 
ENDBRANCH  52  76
BRANCH  64  87
ATOM     87  C   UNL A   1      44.100  38.325  33.678  1.00  0.00     0.064 A 
ATOM     88  C   UNL A   1      44.888  38.513  34.822  1.00  0.00     0.173 A 
ATOM     89  C   UNL A   1      43.591  39.468  33.039  1.00  0.00     0.173 A 
ATOM     90  F   UNL A   1      45.390  37.455  35.478  1.00  0.00    -0.203 F 
ATOM     91  C   UNL A   1      45.131  39.789  35.324  1.00  0.00     0.198 A 
ATOM     92  C   UNL A   1      43.867  40.744  33.521  1.00  0.00     0.198 A 
ATOM     93  F   UNL A   1      42.840  39.348  31.934  1.00  0.00    -0.203 F 
ATOM     94  F   UNL A   1      45.840  39.940  36.451  1.00  0.00    -0.200 F 
ATOM     95  C   UNL A   1      44.627  40.903  34.669  1.00  0.00     0.200 A 
ATOM     96  F   UNL A   1      43.396  41.819  32.875  1.00  0.00    -0.200 F 
ATOM     97  F   UNL A   1      44.871  42.131  35.148  1.00  0.00    -0.200 F 
ENDBRANCH  64  87
ENDBRANCH  38  39
ENDBRANCH  31  33
ENDBRANCH  30  31
ENDBRANCH  29  30
ENDBRANCH  28  29
ENDBRANCH  27  28
ENDBRANCH  26  27
ENDBRANCH  25  26
ENDBRANCH  24  25
ENDBRANCH   1  24
TORSDOF 23
ENDMDL
