MODEL 1
REMARK VINA RESULT:      -9.7      0.000      0.000
REMARK SMILES CCOc1ncnc(N[C@@H]2C=C[C@H](C(=O)OCCOCCOCCOCCOC(=O)c3ccc(-c4c5nc(c(-c6c(F)c(F)c(F)c(F)c6F)c6ccc([nH]6)c(-c6c(F)c(F)c(F)c(F)c6F)c6nc(c(-c7c(F)c(F)c(F)c(F)c7F)c7ccc4[nH]7)C=C6)C=C5)cc3)C2)c1C
REMARK SMILES IDX 21 1 20 2 19 3 18 4 17 5 16 6 14 7 15 8 13 9 10 10 11 11
REMARK SMILES IDX 94 12 12 13 9 14 8 16 4 17 5 18 95 19 6 20 96 21 7 22 3 23
REMARK SMILES IDX 2 24 1 25 22 26 23 27 24 28 25 29 26 30 27 31 28 32 29 33
REMARK SMILES IDX 30 34 31 35 32 36 93 37 33 38 92 39 34 40 35 41 36 42 86 43
REMARK SMILES IDX 37 44 91 45 85 46 87 47 38 48 90 49 84 50 83 51 39 53 71 54
REMARK SMILES IDX 51 55 70 56 52 57 55 58 69 59 88 60 53 61 54 62 68 64 89 65
REMARK SMILES IDX 56 66 40 67 41 68 49 69 42 70 43 71 47 72 50 73 44 74 45 75
REMARK SMILES IDX 48 76 46 77 72 78 73 79 81 80 74 81 75 82 79 83 82 84 76 85
REMARK SMILES IDX 77 86 80 87 78 88 57 89 58 90 66 91 59 92 60 93 64 94 67 95
REMARK SMILES IDX 61 96 62 97 65 98 63 99
REMARK H PARENT 9 15 87 52 55 63
REMARK Flexibility Score: inf
ROOT
ATOM      1  C   UNL A   1      31.279  27.370  22.679  1.00  0.00     0.188 C 
ENDROOT
BRANCH   1   2
ATOM      2  C   UNL A   1      31.146  25.860  22.451  1.00  0.00     0.188 C 
BRANCH   2   3
ATOM      3  O   UNL A   1      30.509  25.058  23.438  1.00  0.00    -0.376 OA
BRANCH   3   4
ATOM      4  C   UNL A   1      30.162  25.567  24.717  1.00  0.00     0.202 C 
BRANCH   4   5
ATOM      5  C   UNL A   1      30.259  24.729  25.996  1.00  0.00     0.261 C 
BRANCH   5   6
ATOM      6  O   UNL A   1      31.392  25.018  26.824  1.00  0.00    -0.463 OA
BRANCH   6   7
ATOM      7  C   UNL A   1      32.601  25.064  26.208  1.00  0.00     0.312 C 
ATOM      8  O   UNL A   1      33.189  26.103  25.922  1.00  0.00    -0.252 OA
BRANCH   7   9
ATOM      9  C   UNL A   1      33.214  23.688  25.954  1.00  0.00     0.124 C 
ATOM     10  C   UNL A   1      35.457  22.871  25.407  1.00  0.00     0.104 C 
ATOM     11  C   UNL A   1      34.605  22.972  24.191  1.00  0.00    -0.006 C 
ATOM     12  C   UNL A   1      34.625  23.498  26.529  1.00  0.00     0.048 C 
ATOM     13  C   UNL A   1      33.362  23.362  24.499  1.00  0.00    -0.014 C 
BRANCH  10  14
ATOM     14  N   UNL A   1      36.790  23.401  25.231  1.00  0.00    -0.363 N 
ATOM     15  H   UNL A   1      36.876  24.137  24.584  1.00  0.00     0.162 HD
BRANCH  14  16
ATOM     16  C   UNL A   1      37.956  23.006  25.855  1.00  0.00     0.136 A 
ATOM     17  C   UNL A   1      39.657  21.425  26.245  1.00  0.00     0.221 A 
ATOM     18  N   UNL A   1      40.353  22.264  27.019  1.00  0.00    -0.201 NA
ATOM     19  C   UNL A   1      38.428  21.713  25.670  1.00  0.00     0.054 A 
ATOM     20  C   UNL A   1      39.759  23.444  27.200  1.00  0.00     0.228 A 
ATOM     21  C   UNL A   1      37.665  20.692  24.892  1.00  0.00     0.054 C 
ATOM     22  N   UNL A   1      38.598  23.851  26.663  1.00  0.00    -0.219 NA
BRANCH  17  23
ATOM     23  O   UNL A   1      40.181  20.163  26.131  1.00  0.00    -0.478 OA
BRANCH  23  24
ATOM     24  C   UNL A   1      41.441  20.070  26.802  1.00  0.00     0.228 C 
ATOM     25  C   UNL A   1      42.369  19.172  26.009  1.00  0.00     0.049 C 
ENDBRANCH  23  24
ENDBRANCH  17  23
ENDBRANCH  14  16
ENDBRANCH  10  14
ENDBRANCH   7   9
ENDBRANCH   6   7
ENDBRANCH   5   6
ENDBRANCH   4   5
ENDBRANCH   3   4
ENDBRANCH   2   3
ENDBRANCH   1   2
BRANCH   1  26
ATOM     26  O   UNL A   1      32.551  27.954  22.866  1.00  0.00    -0.377 OA
BRANCH  26  27
ATOM     27  C   UNL A   1      32.662  28.953  23.844  1.00  0.00     0.188 C 
BRANCH  27  28
ATOM     28  C   UNL A   1      31.388  29.165  24.666  1.00  0.00     0.188 C 
BRANCH  28  29
ATOM     29  O   UNL A   1      30.852  30.464  24.862  1.00  0.00    -0.376 OA
BRANCH  29  30
ATOM     30  C   UNL A   1      31.148  31.205  26.038  1.00  0.00     0.202 C 
BRANCH  30  31
ATOM     31  C   UNL A   1      32.216  30.727  27.041  1.00  0.00     0.261 C 
BRANCH  31  32
ATOM     32  O   UNL A   1      33.583  31.064  26.749  1.00  0.00    -0.460 OA
BRANCH  32  33
ATOM     33  C   UNL A   1      34.202  31.849  27.652  1.00  0.00     0.338 C 
ATOM     34  O   UNL A   1      33.761  32.869  28.177  1.00  0.00    -0.246 OA
BRANCH  33  35
ATOM     35  C   UNL A   1      35.485  31.252  28.061  1.00  0.00     0.060 A 
ATOM     36  C   UNL A   1      35.513  29.891  28.395  1.00  0.00     0.016 A 
ATOM     37  C   UNL A   1      36.628  32.038  28.215  1.00  0.00     0.016 A 
ATOM     38  C   UNL A   1      36.670  29.313  28.916  1.00  0.00     0.010 A 
ATOM     39  C   UNL A   1      37.781  31.464  28.764  1.00  0.00     0.010 A 
ATOM     40  C   UNL A   1      37.795  30.109  29.154  1.00  0.00    -0.014 A 
BRANCH  40  41
ATOM     41  C   UNL A   1      38.896  29.591  30.006  1.00  0.00     0.031 A 
ATOM     42  C   UNL A   1      39.137  30.244  31.339  1.00  0.00     0.074 A 
ATOM     43  C   UNL A   1      39.665  28.555  29.627  1.00  0.00     0.049 A 
ATOM     44  N   UNL A   1      40.096  30.042  32.207  1.00  0.00    -0.248 NA
ATOM     45  C   UNL A   1      38.151  31.254  31.755  1.00  0.00     0.031 C 
ATOM     46  C   UNL A   1      39.496  27.768  28.409  1.00  0.00     0.029 A 
ATOM     47  N   UNL A   1      40.798  28.037  30.209  1.00  0.00    -0.354 N 
ATOM     48  C   UNL A   1      39.809  30.872  33.282  1.00  0.00     0.074 A 
ATOM     49  C   UNL A   1      38.632  31.636  32.927  1.00  0.00     0.031 C 
ATOM     50  C   UNL A   1      40.554  26.949  28.272  1.00  0.00     0.029 A 
ATOM     51  C   UNL A   1      41.468  27.160  29.392  1.00  0.00     0.049 A 
ATOM     52  H   UNL A   1      41.097  28.271  31.117  1.00  0.00     0.167 HD
ATOM     53  C   UNL A   1      40.446  30.964  34.475  1.00  0.00     0.037 A 
ATOM     54  C   UNL A   1      42.705  26.640  29.507  1.00  0.00     0.037 A 
ATOM     55  C   UNL A   1      41.626  30.215  34.820  1.00  0.00     0.049 A 
ATOM     56  C   UNL A   1      43.505  26.888  30.759  1.00  0.00     0.074 A 
ATOM     57  C   UNL A   1      42.322  30.201  36.015  1.00  0.00     0.029 A 
ATOM     58  N   UNL A   1      42.300  29.365  33.956  1.00  0.00    -0.354 N 
ATOM     59  N   UNL A   1      43.206  27.626  31.799  1.00  0.00    -0.248 NA
ATOM     60  C   UNL A   1      44.795  26.193  30.871  1.00  0.00     0.031 C 
ATOM     61  C   UNL A   1      43.456  29.399  35.852  1.00  0.00     0.029 A 
ATOM     62  C   UNL A   1      43.429  28.855  34.578  1.00  0.00     0.049 A 
ATOM     63  H   UNL A   1      42.018  29.154  33.038  1.00  0.00     0.167 HD
ATOM     64  C   UNL A   1      44.234  27.435  32.714  1.00  0.00     0.074 A 
ATOM     65  C   UNL A   1      45.176  26.527  32.096  1.00  0.00     0.031 C 
ATOM     66  C   UNL A   1      44.365  27.945  33.964  1.00  0.00     0.037 A 
BRANCH  53  67
ATOM     67  C   UNL A   1      39.880  31.919  35.486  1.00  0.00     0.064 A 
ATOM     68  C   UNL A   1      38.880  31.528  36.390  1.00  0.00     0.173 A 
ATOM     69  C   UNL A   1      40.352  33.237  35.561  1.00  0.00     0.173 A 
ATOM     70  F   UNL A   1      38.385  30.281  36.355  1.00  0.00    -0.203 F 
ATOM     71  C   UNL A   1      38.347  32.433  37.305  1.00  0.00     0.198 A 
ATOM     72  C   UNL A   1      39.842  34.130  36.500  1.00  0.00     0.198 A 
ATOM     73  F   UNL A   1      41.312  33.662  34.725  1.00  0.00    -0.203 F 
ATOM     74  F   UNL A   1      37.350  32.054  38.117  1.00  0.00    -0.200 F 
ATOM     75  C   UNL A   1      38.832  33.730  37.363  1.00  0.00     0.200 A 
ATOM     76  F   UNL A   1      40.322  35.378  36.565  1.00  0.00    -0.200 F 
ATOM     77  F   UNL A   1      38.321  34.600  38.245  1.00  0.00    -0.200 F 
ENDBRANCH  53  67
BRANCH  54  78
ATOM     78  C   UNL A   1      43.275  25.855  28.384  1.00  0.00     0.064 A 
ATOM     79  C   UNL A   1      43.185  24.459  28.347  1.00  0.00     0.173 A 
ATOM     80  C   UNL A   1      43.946  26.498  27.330  1.00  0.00     0.173 A 
ATOM     81  F   UNL A   1      42.583  23.801  29.349  1.00  0.00    -0.203 F 
ATOM     82  C   UNL A   1      43.758  23.730  27.306  1.00  0.00     0.198 A 
ATOM     83  C   UNL A   1      44.498  25.770  26.278  1.00  0.00     0.198 A 
ATOM     84  F   UNL A   1      44.073  27.833  27.331  1.00  0.00    -0.203 F 
ATOM     85  F   UNL A   1      43.701  22.391  27.319  1.00  0.00    -0.200 F 
ATOM     86  C   UNL A   1      44.409  24.385  26.271  1.00  0.00     0.200 A 
ATOM     87  F   UNL A   1      45.129  26.406  25.283  1.00  0.00    -0.200 F 
ATOM     88  F   UNL A   1      44.964  23.683  25.275  1.00  0.00    -0.200 F 
ENDBRANCH  54  78
BRANCH  66  89
ATOM     89  C   UNL A   1      45.537  27.485  34.786  1.00  0.00     0.064 A 
ATOM     90  C   UNL A   1      46.772  28.146  34.760  1.00  0.00     0.173 A 
ATOM     91  C   UNL A   1      45.404  26.380  35.643  1.00  0.00     0.173 A 
ATOM     92  F   UNL A   1      46.959  29.197  33.947  1.00  0.00    -0.203 F 
ATOM     93  C   UNL A   1      47.840  27.702  35.538  1.00  0.00     0.198 A 
ATOM     94  C   UNL A   1      46.461  25.961  36.446  1.00  0.00     0.198 A 
ATOM     95  F   UNL A   1      44.242  25.713  35.714  1.00  0.00    -0.203 F 
ATOM     96  F   UNL A   1      49.027  28.318  35.457  1.00  0.00    -0.200 F 
ATOM     97  C   UNL A   1      47.680  26.617  36.387  1.00  0.00     0.200 A 
ATOM     98  F   UNL A   1      46.298  24.923  37.278  1.00  0.00    -0.200 F 
ATOM     99  F   UNL A   1      48.706  26.198  37.143  1.00  0.00    -0.200 F 
ENDBRANCH  66  89
ENDBRANCH  40  41
ENDBRANCH  33  35
ENDBRANCH  32  33
ENDBRANCH  31  32
ENDBRANCH  30  31
ENDBRANCH  29  30
ENDBRANCH  28  29
ENDBRANCH  27  28
ENDBRANCH  26  27
ENDBRANCH   1  26
TORSDOF 24
ENDMDL
MODEL 2
REMARK VINA RESULT:      -9.3      1.760      2.955
REMARK SMILES CCOc1ncnc(N[C@@H]2C=C[C@H](C(=O)OCCOCCOCCOCCOC(=O)c3ccc(-c4c5nc(c(-c6c(F)c(F)c(F)c(F)c6F)c6ccc([nH]6)c(-c6c(F)c(F)c(F)c(F)c6F)c6nc(c(-c7c(F)c(F)c(F)c(F)c7F)c7ccc4[nH]7)C=C6)C=C5)cc3)C2)c1C
REMARK SMILES IDX 21 1 20 2 19 3 18 4 17 5 16 6 14 7 15 8 13 9 10 10 11 11
REMARK SMILES IDX 94 12 12 13 9 14 8 16 4 17 5 18 95 19 6 20 96 21 7 22 3 23
REMARK SMILES IDX 2 24 1 25 22 26 23 27 24 28 25 29 26 30 27 31 28 32 29 33
REMARK SMILES IDX 30 34 31 35 32 36 93 37 33 38 92 39 34 40 35 41 36 42 86 43
REMARK SMILES IDX 37 44 91 45 85 46 87 47 38 48 90 49 84 50 83 51 39 53 71 54
REMARK SMILES IDX 51 55 70 56 52 57 55 58 69 59 88 60 53 61 54 62 68 64 89 65
REMARK SMILES IDX 56 66 40 67 41 68 49 69 42 70 43 71 47 72 50 73 44 74 45 75
REMARK SMILES IDX 48 76 46 77 72 78 73 79 81 80 74 81 75 82 79 83 82 84 76 85
REMARK SMILES IDX 77 86 80 87 78 88 57 89 58 90 66 91 59 92 60 93 64 94 67 95
REMARK SMILES IDX 61 96 62 97 65 98 63 99
REMARK H PARENT 9 15 87 52 55 63
REMARK Flexibility Score: inf
ROOT
ATOM      1  C   UNL A   1      30.826  29.481  23.167  1.00  0.00     0.188 C 
ENDROOT
BRANCH   1   2
ATOM      2  C   UNL A   1      29.557  29.079  22.408  1.00  0.00     0.188 C 
BRANCH   2   3
ATOM      3  O   UNL A   1      28.940  27.829  22.690  1.00  0.00    -0.376 OA
BRANCH   3   4
ATOM      4  C   UNL A   1      29.253  27.078  23.855  1.00  0.00     0.202 C 
BRANCH   4   5
ATOM      5  C   UNL A   1      29.974  25.728  23.800  1.00  0.00     0.261 C 
BRANCH   5   6
ATOM      6  O   UNL A   1      31.390  25.789  24.009  1.00  0.00    -0.463 OA
BRANCH   6   7
ATOM      7  C   UNL A   1      32.177  25.579  22.922  1.00  0.00     0.312 C 
ATOM      8  O   UNL A   1      31.792  25.694  21.762  1.00  0.00    -0.252 OA
BRANCH   7   9
ATOM      9  C   UNL A   1      33.627  25.247  23.267  1.00  0.00     0.124 C 
ATOM     10  C   UNL A   1      34.725  23.584  24.690  1.00  0.00     0.104 C 
ATOM     11  C   UNL A   1      34.621  24.901  25.377  1.00  0.00    -0.006 C 
ATOM     12  C   UNL A   1      33.930  23.747  23.392  1.00  0.00     0.048 C 
ATOM     13  C   UNL A   1      34.073  25.824  24.577  1.00  0.00    -0.014 C 
BRANCH  10  14
ATOM     14  N   UNL A   1      34.361  22.461  25.523  1.00  0.00    -0.363 N 
ATOM     15  H   UNL A   1      34.447  22.600  26.493  1.00  0.00     0.162 HD
BRANCH  14  16
ATOM     16  C   UNL A   1      33.907  21.218  25.130  1.00  0.00     0.136 A 
ATOM     17  C   UNL A   1      34.279  18.948  24.626  1.00  0.00     0.221 A 
ATOM     18  N   UNL A   1      32.976  18.702  24.455  1.00  0.00    -0.201 NA
ATOM     19  C   UNL A   1      34.819  20.192  24.916  1.00  0.00     0.054 A 
ATOM     20  C   UNL A   1      32.205  19.780  24.595  1.00  0.00     0.228 A 
ATOM     21  C   UNL A   1      36.294  20.408  25.002  1.00  0.00     0.054 C 
ATOM     22  N   UNL A   1      32.605  21.020  24.917  1.00  0.00    -0.219 NA
BRANCH  17  23
ATOM     23  O   UNL A   1      35.112  17.887  24.375  1.00  0.00    -0.478 OA
BRANCH  23  24
ATOM     24  C   UNL A   1      34.364  16.726  24.004  1.00  0.00     0.228 C 
ATOM     25  C   UNL A   1      34.619  15.620  25.008  1.00  0.00     0.049 C 
ENDBRANCH  23  24
ENDBRANCH  17  23
ENDBRANCH  14  16
ENDBRANCH  10  14
ENDBRANCH   7   9
ENDBRANCH   6   7
ENDBRANCH   5   6
ENDBRANCH   4   5
ENDBRANCH   3   4
ENDBRANCH   2   3
ENDBRANCH   1   2
BRANCH   1  26
ATOM     26  O   UNL A   1      32.067  28.887  22.849  1.00  0.00    -0.377 OA
BRANCH  26  27
ATOM     27  C   UNL A   1      33.192  29.328  23.561  1.00  0.00     0.188 C 
BRANCH  27  28
ATOM     28  C   UNL A   1      33.176  28.953  25.045  1.00  0.00     0.188 C 
BRANCH  28  29
ATOM     29  O   UNL A   1      31.977  29.004  25.800  1.00  0.00    -0.376 OA
BRANCH  29  30
ATOM     30  C   UNL A   1      31.838  29.905  26.890  1.00  0.00     0.202 C 
BRANCH  30  31
ATOM     31  C   UNL A   1      32.350  31.357  26.803  1.00  0.00     0.261 C 
BRANCH  31  32
ATOM     32  O   UNL A   1      32.991  31.895  27.972  1.00  0.00    -0.460 OA
BRANCH  32  33
ATOM     33  C   UNL A   1      34.072  32.666  27.747  1.00  0.00     0.338 C 
ATOM     34  O   UNL A   1      34.086  33.846  27.401  1.00  0.00    -0.246 OA
BRANCH  33  35
ATOM     35  C   UNL A   1      35.306  31.943  28.104  1.00  0.00     0.060 A 
ATOM     36  C   UNL A   1      35.222  30.567  28.364  1.00  0.00     0.016 A 
ATOM     37  C   UNL A   1      36.512  32.620  28.282  1.00  0.00     0.016 A 
ATOM     38  C   UNL A   1      36.332  29.868  28.834  1.00  0.00     0.010 A 
ATOM     39  C   UNL A   1      37.618  31.923  28.782  1.00  0.00     0.010 A 
ATOM     40  C   UNL A   1      37.523  30.552  29.097  1.00  0.00    -0.014 A 
BRANCH  40  41
ATOM     41  C   UNL A   1      38.586  29.898  29.903  1.00  0.00     0.031 A 
ATOM     42  C   UNL A   1      38.863  30.425  31.284  1.00  0.00     0.074 A 
ATOM     43  C   UNL A   1      39.287  28.848  29.440  1.00  0.00     0.049 A 
ATOM     44  N   UNL A   1      39.804  30.093  32.132  1.00  0.00    -0.248 NA
ATOM     45  C   UNL A   1      37.942  31.459  31.782  1.00  0.00     0.031 C 
ATOM     46  C   UNL A   1      39.072  28.174  28.164  1.00  0.00     0.029 A 
ATOM     47  N   UNL A   1      40.383  28.215  29.977  1.00  0.00    -0.354 N 
ATOM     48  C   UNL A   1      39.567  30.851  33.270  1.00  0.00     0.074 A 
ATOM     49  C   UNL A   1      38.443  31.715  32.980  1.00  0.00     0.031 C 
ATOM     50  C   UNL A   1      40.076  27.303  27.960  1.00  0.00     0.029 A 
ATOM     51  C   UNL A   1      40.998  27.365  29.092  1.00  0.00     0.049 A 
ATOM     52  H   UNL A   1      40.694  28.355  30.901  1.00  0.00     0.167 HD
ATOM     53  C   UNL A   1      40.205  30.805  34.465  1.00  0.00     0.037 A 
ATOM     54  C   UNL A   1      42.200  26.759  29.162  1.00  0.00     0.037 A 
ATOM     55  C   UNL A   1      41.334  29.958  34.747  1.00  0.00     0.049 A 
ATOM     56  C   UNL A   1      43.009  26.854  30.428  1.00  0.00     0.074 A 
ATOM     57  C   UNL A   1      42.023  29.804  35.936  1.00  0.00     0.029 A 
ATOM     58  N   UNL A   1      41.954  29.138  33.816  1.00  0.00    -0.354 N 
ATOM     59  N   UNL A   1      42.755  27.524  31.525  1.00  0.00    -0.248 NA
ATOM     60  C   UNL A   1      44.252  26.071  30.481  1.00  0.00     0.031 C 
ATOM     61  C   UNL A   1      43.104  28.946  35.706  1.00  0.00     0.029 A 
ATOM     62  C   UNL A   1      43.047  28.509  34.393  1.00  0.00     0.049 A 
ATOM     63  H   UNL A   1      41.662  29.020  32.884  1.00  0.00     0.167 HD
ATOM     64  C   UNL A   1      43.765  27.195  32.420  1.00  0.00     0.074 A 
ATOM     65  C   UNL A   1      44.650  26.280  31.729  1.00  0.00     0.031 C 
ATOM     66  C   UNL A   1      43.925  27.593  33.706  1.00  0.00     0.037 A 
BRANCH  53  67
ATOM     67  C   UNL A   1      39.697  31.711  35.550  1.00  0.00     0.064 A 
ATOM     68  C   UNL A   1      40.230  32.995  35.748  1.00  0.00     0.173 A 
ATOM     69  C   UNL A   1      38.656  31.296  36.393  1.00  0.00     0.173 A 
ATOM     70  F   UNL A   1      41.234  33.438  34.976  1.00  0.00    -0.203 F 
ATOM     71  C   UNL A   1      39.766  33.813  36.775  1.00  0.00     0.198 A 
ATOM     72  C   UNL A   1      38.171  32.130  37.397  1.00  0.00     0.198 A 
ATOM     73  F   UNL A   1      38.106  30.081  36.244  1.00  0.00    -0.203 F 
ATOM     74  F   UNL A   1      40.331  35.010  36.984  1.00  0.00    -0.200 F 
ATOM     75  C   UNL A   1      38.734  33.383  37.595  1.00  0.00     0.200 A 
ATOM     76  F   UNL A   1      37.164  31.719  38.179  1.00  0.00    -0.200 F 
ATOM     77  F   UNL A   1      38.286  34.171  38.582  1.00  0.00    -0.200 F 
ENDBRANCH  53  67
BRANCH  54  78
ATOM     78  C   UNL A   1      42.722  26.032  27.978  1.00  0.00     0.064 A 
ATOM     79  C   UNL A   1      43.543  26.662  27.036  1.00  0.00     0.173 A 
ATOM     80  C   UNL A   1      42.385  24.686  27.760  1.00  0.00     0.173 A 
ATOM     81  F   UNL A   1      43.864  27.956  27.187  1.00  0.00    -0.203 F 
ATOM     82  C   UNL A   1      43.996  25.980  25.909  1.00  0.00     0.198 A 
ATOM     83  C   UNL A   1      42.858  23.998  26.644  1.00  0.00     0.198 A 
ATOM     84  F   UNL A   1      41.586  24.045  28.626  1.00  0.00    -0.203 F 
ATOM     85  F   UNL A   1      44.741  26.619  24.996  1.00  0.00    -0.200 F 
ATOM     86  C   UNL A   1      43.658  24.649  25.716  1.00  0.00     0.200 A 
ATOM     87  F   UNL A   1      42.525  22.713  26.459  1.00  0.00    -0.200 F 
ATOM     88  F   UNL A   1      44.090  23.996  24.628  1.00  0.00    -0.200 F 
ENDBRANCH  54  78
BRANCH  66  89
ATOM     89  C   UNL A   1      45.062  26.994  34.486  1.00  0.00     0.064 A 
ATOM     90  C   UNL A   1      46.311  27.622  34.586  1.00  0.00     0.173 A 
ATOM     91  C   UNL A   1      44.881  25.785  35.176  1.00  0.00     0.173 A 
ATOM     92  F   UNL A   1      46.543  28.772  33.933  1.00  0.00    -0.203 F 
ATOM     93  C   UNL A   1      47.345  27.048  35.323  1.00  0.00     0.198 A 
ATOM     94  C   UNL A   1      45.905  25.232  35.940  1.00  0.00     0.198 A 
ATOM     95  F   UNL A   1      43.705  25.142  35.122  1.00  0.00    -0.203 F 
ATOM     96  F   UNL A   1      48.547  27.640  35.360  1.00  0.00    -0.200 F 
ATOM     97  C   UNL A   1      47.139  25.860  36.007  1.00  0.00     0.200 A 
ATOM     98  F   UNL A   1      45.696  24.092  36.614  1.00  0.00    -0.200 F 
ATOM     99  F   UNL A   1      48.132  25.315  36.723  1.00  0.00    -0.200 F 
ENDBRANCH  66  89
ENDBRANCH  40  41
ENDBRANCH  33  35
ENDBRANCH  32  33
ENDBRANCH  31  32
ENDBRANCH  30  31
ENDBRANCH  29  30
ENDBRANCH  28  29
ENDBRANCH  27  28
ENDBRANCH  26  27
ENDBRANCH   1  26
TORSDOF 24
ENDMDL
MODEL 3
REMARK VINA RESULT:      -9.3      1.017      2.022
REMARK SMILES CCOc1ncnc(N[C@@H]2C=C[C@H](C(=O)OCCOCCOCCOCCOC(=O)c3ccc(-c4c5nc(c(-c6c(F)c(F)c(F)c(F)c6F)c6ccc([nH]6)c(-c6c(F)c(F)c(F)c(F)c6F)c6nc(c(-c7c(F)c(F)c(F)c(F)c7F)c7ccc4[nH]7)C=C6)C=C5)cc3)C2)c1C
REMARK SMILES IDX 21 1 20 2 19 3 18 4 17 5 16 6 14 7 15 8 13 9 10 10 11 11
REMARK SMILES IDX 94 12 12 13 9 14 8 16 4 17 5 18 95 19 6 20 96 21 7 22 3 23
REMARK SMILES IDX 2 24 1 25 22 26 23 27 24 28 25 29 26 30 27 31 28 32 29 33
REMARK SMILES IDX 30 34 31 35 32 36 93 37 33 38 92 39 34 40 35 41 36 42 86 43
REMARK SMILES IDX 37 44 91 45 85 46 87 47 38 48 90 49 84 50 83 51 39 53 71 54
REMARK SMILES IDX 51 55 70 56 52 57 55 58 69 59 88 60 53 61 54 62 68 64 89 65
REMARK SMILES IDX 56 66 40 67 41 68 49 69 42 70 43 71 47 72 50 73 44 74 45 75
REMARK SMILES IDX 48 76 46 77 72 78 73 79 81 80 74 81 75 82 79 83 82 84 76 85
REMARK SMILES IDX 77 86 80 87 78 88 57 89 58 90 66 91 59 92 60 93 64 94 67 95
REMARK SMILES IDX 61 96 62 97 65 98 63 99
REMARK H PARENT 9 15 87 52 55 63
REMARK Flexibility Score: inf
ROOT
ATOM      1  C   UNL A   1      31.757  29.312  23.295  1.00  0.00     0.188 C 
ENDROOT
BRANCH   1   2
ATOM      2  C   UNL A   1      30.580  29.147  22.328  1.00  0.00     0.188 C 
BRANCH   2   3
ATOM      3  O   UNL A   1      29.820  27.945  22.350  1.00  0.00    -0.376 OA
BRANCH   3   4
ATOM      4  C   UNL A   1      29.421  27.326  23.564  1.00  0.00     0.202 C 
BRANCH   4   5
ATOM      5  C   UNL A   1      29.946  25.956  24.006  1.00  0.00     0.261 C 
BRANCH   5   6
ATOM      6  O   UNL A   1      30.872  25.343  23.102  1.00  0.00    -0.463 OA
BRANCH   6   7
ATOM      7  C   UNL A   1      31.313  24.101  23.432  1.00  0.00     0.312 C 
ATOM      8  O   UNL A   1      30.652  23.280  24.061  1.00  0.00    -0.252 OA
BRANCH   7   9
ATOM      9  C   UNL A   1      32.702  23.777  22.886  1.00  0.00     0.124 C 
ATOM     10  C   UNL A   1      34.836  23.105  23.884  1.00  0.00     0.104 C 
ATOM     11  C   UNL A   1      34.808  24.565  23.594  1.00  0.00    -0.006 C 
ATOM     12  C   UNL A   1      33.415  22.615  23.593  1.00  0.00     0.048 C 
ATOM     13  C   UNL A   1      33.665  24.920  22.996  1.00  0.00    -0.014 C 
BRANCH  10  14
ATOM     14  N   UNL A   1      35.366  22.779  25.188  1.00  0.00    -0.363 N 
ATOM     15  H   UNL A   1      34.701  22.564  25.880  1.00  0.00     0.162 HD
BRANCH  14  16
ATOM     16  C   UNL A   1      36.687  22.731  25.585  1.00  0.00     0.136 A 
ATOM     17  C   UNL A   1      38.747  21.606  25.778  1.00  0.00     0.221 A 
ATOM     18  N   UNL A   1      39.365  22.682  26.278  1.00  0.00    -0.201 NA
ATOM     19  C   UNL A   1      37.400  21.545  25.455  1.00  0.00     0.054 A 
ATOM     20  C   UNL A   1      38.562  23.732  26.444  1.00  0.00     0.228 A 
ATOM     21  C   UNL A   1      36.759  20.280  24.988  1.00  0.00     0.054 C 
ATOM     22  N   UNL A   1      37.259  23.807  26.128  1.00  0.00    -0.219 NA
BRANCH  17  23
ATOM     23  O   UNL A   1      39.516  20.473  25.702  1.00  0.00    -0.478 OA
BRANCH  23  24
ATOM     24  C   UNL A   1      40.613  20.537  26.617  1.00  0.00     0.228 C 
ATOM     25  C   UNL A   1      41.678  19.545  26.196  1.00  0.00     0.049 C 
ENDBRANCH  23  24
ENDBRANCH  17  23
ENDBRANCH  14  16
ENDBRANCH  10  14
ENDBRANCH   7   9
ENDBRANCH   6   7
ENDBRANCH   5   6
ENDBRANCH   4   5
ENDBRANCH   3   4
ENDBRANCH   2   3
ENDBRANCH   1   2
BRANCH   1  26
ATOM     26  O   UNL A   1      32.785  28.345  23.339  1.00  0.00    -0.377 OA
BRANCH  26  27
ATOM     27  C   UNL A   1      33.511  28.233  24.534  1.00  0.00     0.188 C 
BRANCH  27  28
ATOM     28  C   UNL A   1      32.769  27.491  25.648  1.00  0.00     0.188 C 
BRANCH  28  29
ATOM     29  O   UNL A   1      31.655  28.078  26.301  1.00  0.00    -0.376 OA
BRANCH  29  30
ATOM     30  C   UNL A   1      31.834  29.087  27.286  1.00  0.00     0.202 C 
BRANCH  30  31
ATOM     31  C   UNL A   1      32.374  30.483  26.917  1.00  0.00     0.261 C 
BRANCH  31  32
ATOM     32  O   UNL A   1      32.952  31.261  27.979  1.00  0.00    -0.460 OA
BRANCH  32  33
ATOM     33  C   UNL A   1      33.959  32.082  27.626  1.00  0.00     0.338 C 
ATOM     34  O   UNL A   1      33.867  33.213  27.154  1.00  0.00    -0.246 OA
BRANCH  33  35
ATOM     35  C   UNL A   1      35.258  31.497  28.005  1.00  0.00     0.060 A 
ATOM     36  C   UNL A   1      35.366  30.101  28.080  1.00  0.00     0.016 A 
ATOM     37  C   UNL A   1      36.329  32.307  28.383  1.00  0.00     0.016 A 
ATOM     38  C   UNL A   1      36.531  29.507  28.563  1.00  0.00     0.010 A 
ATOM     39  C   UNL A   1      37.488  31.710  28.894  1.00  0.00     0.010 A 
ATOM     40  C   UNL A   1      37.579  30.310  29.024  1.00  0.00    -0.014 A 
BRANCH  40  41
ATOM     41  C   UNL A   1      38.664  29.706  29.839  1.00  0.00     0.031 A 
ATOM     42  C   UNL A   1      38.934  30.276  31.205  1.00  0.00     0.074 A 
ATOM     43  C   UNL A   1      39.393  28.666  29.398  1.00  0.00     0.049 A 
ATOM     44  N   UNL A   1      39.889  29.992  32.054  1.00  0.00    -0.248 NA
ATOM     45  C   UNL A   1      37.987  31.296  31.682  1.00  0.00     0.031 C 
ATOM     46  C   UNL A   1      39.191  27.954  28.140  1.00  0.00     0.029 A 
ATOM     47  N   UNL A   1      40.510  28.077  29.944  1.00  0.00    -0.354 N 
ATOM     48  C   UNL A   1      39.637  30.771  33.175  1.00  0.00     0.074 A 
ATOM     49  C   UNL A   1      38.486  31.595  32.870  1.00  0.00     0.031 C 
ATOM     50  C   UNL A   1      40.218  27.107  27.952  1.00  0.00     0.029 A 
ATOM     51  C   UNL A   1      41.144  27.224  29.076  1.00  0.00     0.049 A 
ATOM     52  H   UNL A   1      40.822  28.250  30.862  1.00  0.00     0.167 HD
ATOM     53  C   UNL A   1      40.282  30.774  34.367  1.00  0.00     0.037 A 
ATOM     54  C   UNL A   1      42.363  26.654  29.154  1.00  0.00     0.037 A 
ATOM     55  C   UNL A   1      41.436  29.966  34.663  1.00  0.00     0.049 A 
ATOM     56  C   UNL A   1      43.177  26.804  30.412  1.00  0.00     0.074 A 
ATOM     57  C   UNL A   1      42.136  29.862  35.851  1.00  0.00     0.029 A 
ATOM     58  N   UNL A   1      42.075  29.141  33.749  1.00  0.00    -0.354 N 
ATOM     59  N   UNL A   1      42.909  27.494  31.494  1.00  0.00    -0.248 NA
ATOM     60  C   UNL A   1      44.442  26.059  30.477  1.00  0.00     0.031 C 
ATOM     61  C   UNL A   1      43.241  29.030  35.636  1.00  0.00     0.029 A 
ATOM     62  C   UNL A   1      43.189  28.559  34.334  1.00  0.00     0.049 A 
ATOM     63  H   UNL A   1      41.782  28.992  32.822  1.00  0.00     0.167 HD
ATOM     64  C   UNL A   1      43.933  27.216  32.390  1.00  0.00     0.074 A 
ATOM     65  C   UNL A   1      44.840  26.310  31.717  1.00  0.00     0.031 C 
ATOM     66  C   UNL A   1      44.088  27.651  33.665  1.00  0.00     0.037 A 
BRANCH  53  67
ATOM     67  C   UNL A   1      39.755  31.692  35.432  1.00  0.00     0.064 A 
ATOM     68  C   UNL A   1      40.292  32.973  35.634  1.00  0.00     0.173 A 
ATOM     69  C   UNL A   1      38.690  31.292  36.252  1.00  0.00     0.173 A 
ATOM     70  F   UNL A   1      41.319  33.402  34.884  1.00  0.00    -0.203 F 
ATOM     71  C   UNL A   1      39.809  33.802  36.643  1.00  0.00     0.198 A 
ATOM     72  C   UNL A   1      38.186  32.137  37.237  1.00  0.00     0.198 A 
ATOM     73  F   UNL A   1      38.134  30.080  36.098  1.00  0.00    -0.203 F 
ATOM     74  F   UNL A   1      40.379  34.996  36.857  1.00  0.00    -0.200 F 
ATOM     75  C   UNL A   1      38.754  33.386  37.440  1.00  0.00     0.200 A 
ATOM     76  F   UNL A   1      37.156  31.739  37.996  1.00  0.00    -0.200 F 
ATOM     77  F   UNL A   1      38.287  34.185  38.409  1.00  0.00    -0.200 F 
ENDBRANCH  53  67
BRANCH  54  78
ATOM     78  C   UNL A   1      42.900  25.913  27.985  1.00  0.00     0.064 A 
ATOM     79  C   UNL A   1      42.765  24.524  27.875  1.00  0.00     0.173 A 
ATOM     80  C   UNL A   1      43.582  26.590  26.962  1.00  0.00     0.173 A 
ATOM     81  F   UNL A   1      42.150  23.833  28.846  1.00  0.00    -0.203 F 
ATOM     82  C   UNL A   1      43.307  23.835  26.792  1.00  0.00     0.198 A 
ATOM     83  C   UNL A   1      44.103  25.902  25.867  1.00  0.00     0.198 A 
ATOM     84  F   UNL A   1      43.752  27.919  27.032  1.00  0.00    -0.203 F 
ATOM     85  F   UNL A   1      43.207  22.500  26.734  1.00  0.00    -0.200 F 
ATOM     86  C   UNL A   1      43.971  24.523  25.788  1.00  0.00     0.200 A 
ATOM     87  F   UNL A   1      44.747  26.571  24.901  1.00  0.00    -0.200 F 
ATOM     88  F   UNL A   1      44.496  23.858  24.750  1.00  0.00    -0.200 F 
ENDBRANCH  54  78
BRANCH  66  89
ATOM     89  C   UNL A   1      45.246  27.105  34.453  1.00  0.00     0.064 A 
ATOM     90  C   UNL A   1      45.153  25.915  35.188  1.00  0.00     0.173 A 
ATOM     91  C   UNL A   1      46.482  27.770  34.440  1.00  0.00     0.173 A 
ATOM     92  F   UNL A   1      43.991  25.247  35.248  1.00  0.00    -0.203 F 
ATOM     93  C   UNL A   1      46.246  25.426  35.902  1.00  0.00     0.198 A 
ATOM     94  C   UNL A   1      47.582  27.261  35.126  1.00  0.00     0.198 A 
ATOM     95  F   UNL A   1      46.631  28.910  33.748  1.00  0.00    -0.203 F 
ATOM     96  F   UNL A   1      46.118  24.315  36.641  1.00  0.00    -0.200 F 
ATOM     97  C   UNL A   1      47.460  26.094  35.863  1.00  0.00     0.200 A 
ATOM     98  F   UNL A   1      48.759  27.900  35.071  1.00  0.00    -0.200 F 
ATOM     99  F   UNL A   1      48.512  25.617  36.544  1.00  0.00    -0.200 F 
ENDBRANCH  66  89
ENDBRANCH  40  41
ENDBRANCH  33  35
ENDBRANCH  32  33
ENDBRANCH  31  32
ENDBRANCH  30  31
ENDBRANCH  29  30
ENDBRANCH  28  29
ENDBRANCH  27  28
ENDBRANCH  26  27
ENDBRANCH   1  26
TORSDOF 24
ENDMDL
