MODEL 1
REMARK VINA RESULT:     -10.2      0.000      0.000
REMARK SMILES O=C(OCCOCCOCCOCCOC(=O)[C@@H](Cc1ccccc1)NC(=O)c1ccccc1[N+](=O)[O-])c1ccc(-c2c3nc(c(-c4c(F)c(F)c(F)c(F)c4F)c4ccc([nH]4)c(-c4c(F)c(F)c(F)c(F)c4F)c4nc(c(-c5c(F)c(F)c(F)c(F)c5F)c5ccc2[nH]5)C=C4)C=C3)cc1
REMARK SMILES IDX 10 1 9 2 8 3 7 4 6 5 5 6 4 7 3 8 2 9 1 10 38 11 39 12 100 13
REMARK SMILES IDX 40 14 99 15 41 16 42 17 43 18 93 19 44 20 98 21 92 22 94 23
REMARK SMILES IDX 45 24 97 25 91 26 90 27 46 29 78 30 58 31 77 32 59 33 62 34
REMARK SMILES IDX 76 35 95 36 60 37 61 38 75 40 96 41 63 42 47 43 48 44 56 45
REMARK SMILES IDX 49 46 50 47 54 48 57 49 51 50 52 51 55 52 53 53 79 54 80 55
REMARK SMILES IDX 88 56 81 57 82 58 86 59 89 60 83 61 84 62 87 63 85 64 64 65
REMARK SMILES IDX 65 66 73 67 66 68 67 69 71 70 74 71 68 72 69 73 72 74 70 75
REMARK SMILES IDX 11 76 12 77 13 78 14 79 15 80 16 81 17 82 18 83 19 84 20 85
REMARK SMILES IDX 21 86 25 87 22 88 24 89 23 90 26 91 27 92 28 94 29 95 30 96
REMARK SMILES IDX 34 97 31 98 33 99 32 100 35 101 36 102 37 103
REMARK H PARENT 94 28 62 39 26 93
REMARK Flexibility Score: inf
ROOT
ATOM      1  C   UNL A   1      42.439  18.549  26.273  1.00  0.00     0.188 C 
ENDROOT
BRANCH   1   2
ATOM      2  O   UNL A   1      42.980  18.969  25.034  1.00  0.00    -0.377 OA
BRANCH   2   3
ATOM      3  C   UNL A   1      44.384  19.062  24.852  1.00  0.00     0.188 C 
BRANCH   3   4
ATOM      4  C   UNL A   1      44.900  20.462  24.613  1.00  0.00     0.188 C 
BRANCH   4   5
ATOM      5  O   UNL A   1      44.543  21.330  25.682  1.00  0.00    -0.376 OA
BRANCH   5   6
ATOM      6  C   UNL A   1      45.430  22.432  25.868  1.00  0.00     0.202 C 
BRANCH   6   7
ATOM      7  C   UNL A   1      45.538  23.370  24.666  1.00  0.00     0.261 C 
BRANCH   7   8
ATOM      8  O   UNL A   1      44.685  24.529  24.724  1.00  0.00    -0.460 OA
BRANCH   8   9
ATOM      9  C   UNL A   1      44.934  25.786  25.166  1.00  0.00     0.338 C 
ATOM     10  O   UNL A   1      45.881  26.392  24.666  1.00  0.00    -0.246 OA
BRANCH   9  11
ATOM     11  C   UNL A   1      44.192  26.473  26.272  1.00  0.00     0.060 A 
ATOM     12  C   UNL A   1      44.321  27.816  26.612  1.00  0.00     0.016 A 
ATOM     13  C   UNL A   1      43.231  25.721  26.976  1.00  0.00     0.016 A 
ATOM     14  C   UNL A   1      43.503  28.429  27.538  1.00  0.00     0.010 A 
ATOM     15  C   UNL A   1      42.447  26.304  27.978  1.00  0.00     0.010 A 
ATOM     16  C   UNL A   1      42.597  27.665  28.257  1.00  0.00    -0.014 A 
BRANCH  16  17
ATOM     17  C   UNL A   1      42.084  28.299  29.474  1.00  0.00     0.031 A 
ATOM     18  C   UNL A   1      40.741  28.950  29.371  1.00  0.00     0.074 A 
ATOM     19  C   UNL A   1      42.680  28.060  30.653  1.00  0.00     0.049 A 
ATOM     20  N   UNL A   1      40.055  29.594  30.272  1.00  0.00    -0.248 NA
ATOM     21  C   UNL A   1      40.055  28.825  28.070  1.00  0.00     0.031 C 
ATOM     22  C   UNL A   1      43.869  27.225  30.842  1.00  0.00     0.029 A 
ATOM     23  N   UNL A   1      42.346  28.461  31.915  1.00  0.00    -0.354 N 
ATOM     24  C   UNL A   1      38.885  29.985  29.637  1.00  0.00     0.074 A 
ATOM     25  C   UNL A   1      38.936  29.494  28.281  1.00  0.00     0.031 C 
ATOM     26  C   UNL A   1      44.173  27.189  32.150  1.00  0.00     0.029 A 
ATOM     27  C   UNL A   1      43.246  28.056  32.868  1.00  0.00     0.049 A 
ATOM     28  H   UNL A   1      41.539  28.986  32.121  1.00  0.00     0.167 HD
ATOM     29  C   UNL A   1      37.871  30.714  30.153  1.00  0.00     0.037 A 
ATOM     30  C   UNL A   1      43.328  28.416  34.161  1.00  0.00     0.037 A 
ATOM     31  C   UNL A   1      37.881  31.185  31.509  1.00  0.00     0.049 A 
ATOM     32  C   UNL A   1      42.269  29.355  34.679  1.00  0.00     0.074 A 
ATOM     33  C   UNL A   1      36.984  32.014  32.150  1.00  0.00     0.029 A 
ATOM     34  N   UNL A   1      38.869  30.858  32.433  1.00  0.00    -0.354 N 
ATOM     35  N   UNL A   1      41.213  29.831  34.059  1.00  0.00    -0.248 NA
ATOM     36  C   UNL A   1      42.416  29.822  36.060  1.00  0.00     0.031 C 
ATOM     37  C   UNL A   1      37.464  32.238  33.446  1.00  0.00     0.029 A 
ATOM     38  C   UNL A   1      38.621  31.492  33.635  1.00  0.00     0.049 A 
ATOM     39  H   UNL A   1      39.633  30.263  32.256  1.00  0.00     0.167 HD
ATOM     40  C   UNL A   1      40.558  30.638  34.975  1.00  0.00     0.074 A 
ATOM     41  C   UNL A   1      41.330  30.570  36.202  1.00  0.00     0.031 C 
ATOM     42  C   UNL A   1      39.426  31.374  34.827  1.00  0.00     0.037 A 
BRANCH  29  43
ATOM     43  C   UNL A   1      36.783  31.129  29.208  1.00  0.00     0.064 A 
ATOM     44  C   UNL A   1      36.655  32.444  28.733  1.00  0.00     0.173 A 
ATOM     45  C   UNL A   1      35.793  30.204  28.841  1.00  0.00     0.173 A 
ATOM     46  F   UNL A   1      37.549  33.380  29.088  1.00  0.00    -0.203 F 
ATOM     47  C   UNL A   1      35.559  32.825  27.960  1.00  0.00     0.198 A 
ATOM     48  C   UNL A   1      34.716  30.580  28.043  1.00  0.00     0.198 A 
ATOM     49  F   UNL A   1      35.855  28.939  29.281  1.00  0.00    -0.203 F 
ATOM     50  F   UNL A   1      35.417  34.104  27.586  1.00  0.00    -0.200 F 
ATOM     51  C   UNL A   1      34.593  31.892  27.613  1.00  0.00     0.200 A 
ATOM     52  F   UNL A   1      33.783  29.676  27.712  1.00  0.00    -0.200 F 
ATOM     53  F   UNL A   1      33.531  32.264  26.886  1.00  0.00    -0.200 F 
ENDBRANCH  29  43
BRANCH  30  54
ATOM     54  C   UNL A   1      44.474  27.970  34.998  1.00  0.00     0.064 A 
ATOM     55  C   UNL A   1      44.458  26.746  35.678  1.00  0.00     0.173 A 
ATOM     56  C   UNL A   1      45.615  28.779  35.150  1.00  0.00     0.173 A 
ATOM     57  F   UNL A   1      43.389  25.942  35.585  1.00  0.00    -0.203 F 
ATOM     58  C   UNL A   1      45.525  26.357  36.490  1.00  0.00     0.198 A 
ATOM     59  C   UNL A   1      46.693  28.375  35.934  1.00  0.00     0.198 A 
ATOM     60  F   UNL A   1      45.687  29.965  34.527  1.00  0.00    -0.203 F 
ATOM     61  F   UNL A   1      45.461  25.202  37.168  1.00  0.00    -0.200 F 
ATOM     62  C   UNL A   1      46.643  27.168  36.613  1.00  0.00     0.200 A 
ATOM     63  F   UNL A   1      47.777  29.156  36.035  1.00  0.00    -0.200 F 
ATOM     64  F   UNL A   1      47.667  26.792  37.391  1.00  0.00    -0.200 F 
ENDBRANCH  30  54
BRANCH  42  65
ATOM     65  C   UNL A   1      38.946  32.119  36.035  1.00  0.00     0.064 A 
ATOM     66  C   UNL A   1      38.173  31.497  37.024  1.00  0.00     0.173 A 
ATOM     67  C   UNL A   1      39.327  33.455  36.230  1.00  0.00     0.173 A 
ATOM     68  F   UNL A   1      37.775  30.225  36.871  1.00  0.00    -0.203 F 
ATOM     69  C   UNL A   1      37.778  32.195  38.160  1.00  0.00     0.198 A 
ATOM     70  C   UNL A   1      38.962  34.137  37.384  1.00  0.00     0.198 A 
ATOM     71  F   UNL A   1      40.075  34.087  35.313  1.00  0.00    -0.203 F 
ATOM     72  F   UNL A   1      37.000  31.598  39.073  1.00  0.00    -0.200 F 
ATOM     73  C   UNL A   1      38.182  33.510  38.344  1.00  0.00     0.200 A 
ATOM     74  F   UNL A   1      39.371  35.399  37.570  1.00  0.00    -0.200 F 
ATOM     75  F   UNL A   1      37.816  34.175  39.448  1.00  0.00    -0.200 F 
ENDBRANCH  42  65
ENDBRANCH  16  17
ENDBRANCH   9  11
ENDBRANCH   8   9
ENDBRANCH   7   8
ENDBRANCH   6   7
ENDBRANCH   5   6
ENDBRANCH   4   5
ENDBRANCH   3   4
ENDBRANCH   2   3
ENDBRANCH   1   2
BRANCH   1  76
ATOM     76  C   UNL A   1      41.896  19.576  27.266  1.00  0.00     0.188 C 
BRANCH  76  77
ATOM     77  O   UNL A   1      40.670  20.161  26.907  1.00  0.00    -0.376 OA
BRANCH  77  78
ATOM     78  C   UNL A   1      40.669  21.394  26.201  1.00  0.00     0.202 C 
BRANCH  78  79
ATOM     79  C   UNL A   1      39.706  22.582  26.464  1.00  0.00     0.261 C 
BRANCH  79  80
ATOM     80  O   UNL A   1      38.319  22.449  26.098  1.00  0.00    -0.462 OA
BRANCH  80  81
ATOM     81  C   UNL A   1      37.541  23.546  26.260  1.00  0.00     0.329 C 
ATOM     82  O   UNL A   1      38.003  24.652  26.554  1.00  0.00    -0.250 OA
BRANCH  81  83
ATOM     83  C   UNL A   1      36.032  23.403  25.925  1.00  0.00     0.197 C 
BRANCH  83  84
ATOM     84  C   UNL A   1      34.997  22.466  26.591  1.00  0.00     0.072 C 
BRANCH  84  85
ATOM     85  C   UNL A   1      34.386  21.257  25.939  1.00  0.00    -0.045 A 
ATOM     86  C   UNL A   1      35.218  20.448  25.133  1.00  0.00     0.004 A 
ATOM     87  C   UNL A   1      33.032  20.949  26.019  1.00  0.00     0.004 A 
ATOM     88  C   UNL A   1      34.726  19.314  24.492  1.00  0.00     0.000 A 
ATOM     89  C   UNL A   1      32.533  19.821  25.359  1.00  0.00     0.000 A 
ATOM     90  C   UNL A   1      33.379  18.999  24.610  1.00  0.00     0.000 A 
ENDBRANCH  84  85
ENDBRANCH  83  84
BRANCH  83  91
ATOM     91  N   UNL A   1      35.449  24.741  25.746  1.00  0.00    -0.338 N 
ATOM     92  C   UNL A   1      34.373  25.145  25.009  1.00  0.00     0.258 C 
ATOM     93  H   UNL A   1      35.908  25.461  26.237  1.00  0.00     0.164 HD
ATOM     94  O   UNL A   1      34.157  26.359  24.889  1.00  0.00    -0.269 OA
BRANCH  92  95
ATOM     95  C   UNL A   1      33.483  24.213  24.282  1.00  0.00     0.117 A 
ATOM     96  C   UNL A   1      34.041  23.579  23.160  1.00  0.00     0.021 A 
ATOM     97  C   UNL A   1      32.125  24.002  24.538  1.00  0.00     0.282 A 
ATOM     98  C   UNL A   1      33.266  22.751  22.339  1.00  0.00     0.001 A 
ATOM     99  C   UNL A   1      31.342  23.154  23.732  1.00  0.00     0.086 A 
ATOM    100  C   UNL A   1      31.919  22.537  22.626  1.00  0.00     0.007 A 
BRANCH  97 101
ATOM    101  N   UNL A   1      31.448  24.667  25.627  1.00  0.00     0.063 N 
ATOM    102  O   UNL A   1      30.637  25.554  25.314  1.00  0.00    -0.258 OA
ATOM    103  O   UNL A   1      31.721  24.320  26.779  1.00  0.00    -0.258 OA
ENDBRANCH  97 101
ENDBRANCH  92  95
ENDBRANCH  83  91
ENDBRANCH  81  83
ENDBRANCH  80  81
ENDBRANCH  79  80
ENDBRANCH  78  79
ENDBRANCH  77  78
ENDBRANCH  76  77
ENDBRANCH   1  76
TORSDOF 25
ENDMDL
MODEL 2
REMARK VINA RESULT:      -9.6      6.954     11.440
REMARK SMILES O=C(OCCOCCOCCOCCOC(=O)[C@@H](Cc1ccccc1)NC(=O)c1ccccc1[N+](=O)[O-])c1ccc(-c2c3nc(c(-c4c(F)c(F)c(F)c(F)c4F)c4ccc([nH]4)c(-c4c(F)c(F)c(F)c(F)c4F)c4nc(c(-c5c(F)c(F)c(F)c(F)c5F)c5ccc2[nH]5)C=C4)C=C3)cc1
REMARK SMILES IDX 10 1 9 2 8 3 7 4 6 5 5 6 4 7 3 8 2 9 1 10 38 11 39 12 100 13
REMARK SMILES IDX 40 14 99 15 41 16 42 17 43 18 93 19 44 20 98 21 92 22 94 23
REMARK SMILES IDX 45 24 97 25 91 26 90 27 46 29 78 30 58 31 77 32 59 33 62 34
REMARK SMILES IDX 76 35 95 36 60 37 61 38 75 40 96 41 63 42 47 43 48 44 56 45
REMARK SMILES IDX 49 46 50 47 54 48 57 49 51 50 52 51 55 52 53 53 79 54 80 55
REMARK SMILES IDX 88 56 81 57 82 58 86 59 89 60 83 61 84 62 87 63 85 64 64 65
REMARK SMILES IDX 65 66 73 67 66 68 67 69 71 70 74 71 68 72 69 73 72 74 70 75
REMARK SMILES IDX 11 76 12 77 13 78 14 79 15 80 16 81 17 82 18 83 19 84 20 85
REMARK SMILES IDX 21 86 25 87 22 88 24 89 23 90 26 91 27 92 28 94 29 95 30 96
REMARK SMILES IDX 34 97 31 98 33 99 32 100 35 101 36 102 37 103
REMARK H PARENT 94 28 62 39 26 93
REMARK Flexibility Score: inf
ROOT
ATOM      1  C   UNL A   1      42.006  18.953  26.352  1.00  0.00     0.188 C 
ENDROOT
BRANCH   1   2
ATOM      2  O   UNL A   1      42.698  19.072  25.123  1.00  0.00    -0.377 OA
BRANCH   2   3
ATOM      3  C   UNL A   1      44.069  18.720  25.028  1.00  0.00     0.188 C 
BRANCH   3   4
ATOM      4  C   UNL A   1      44.926  19.711  24.274  1.00  0.00     0.188 C 
BRANCH   4   5
ATOM      5  O   UNL A   1      45.720  20.485  25.164  1.00  0.00    -0.376 OA
BRANCH   5   6
ATOM      6  C   UNL A   1      45.493  21.891  25.086  1.00  0.00     0.202 C 
BRANCH   6   7
ATOM      7  C   UNL A   1      44.020  22.300  25.135  1.00  0.00     0.261 C 
BRANCH   7   8
ATOM      8  O   UNL A   1      43.546  22.705  26.433  1.00  0.00    -0.460 OA
BRANCH   8   9
ATOM      9  C   UNL A   1      43.329  23.939  26.947  1.00  0.00     0.338 C 
ATOM     10  O   UNL A   1      42.225  24.169  27.441  1.00  0.00    -0.246 OA
BRANCH   9  11
ATOM     11  C   UNL A   1      44.302  25.078  26.894  1.00  0.00     0.060 A 
ATOM     12  C   UNL A   1      45.057  25.539  27.968  1.00  0.00     0.016 A 
ATOM     13  C   UNL A   1      44.530  25.681  25.642  1.00  0.00     0.016 A 
ATOM     14  C   UNL A   1      46.048  26.489  27.826  1.00  0.00     0.010 A 
ATOM     15  C   UNL A   1      45.472  26.705  25.492  1.00  0.00     0.010 A 
ATOM     16  C   UNL A   1      46.224  27.108  26.599  1.00  0.00    -0.014 A 
BRANCH  16  17
ATOM     17  C   UNL A   1      46.985  28.360  26.644  1.00  0.00     0.031 A 
ATOM     18  C   UNL A   1      48.432  28.274  26.273  1.00  0.00     0.074 A 
ATOM     19  C   UNL A   1      46.338  29.531  26.751  1.00  0.00     0.049 A 
ATOM     20  N   UNL A   1      49.341  29.206  26.239  1.00  0.00    -0.248 NA
ATOM     21  C   UNL A   1      48.915  26.947  25.842  1.00  0.00     0.031 C 
ATOM     22  C   UNL A   1      44.886  29.682  26.876  1.00  0.00     0.029 A 
ATOM     23  N   UNL A   1      46.810  30.812  26.732  1.00  0.00    -0.354 N 
ATOM     24  C   UNL A   1      50.505  28.572  25.828  1.00  0.00     0.074 A 
ATOM     25  C   UNL A   1      50.193  27.182  25.603  1.00  0.00     0.031 C 
ATOM     26  C   UNL A   1      44.588  30.991  26.937  1.00  0.00     0.029 A 
ATOM     27  C   UNL A   1      45.831  31.753  26.931  1.00  0.00     0.049 A 
ATOM     28  H   UNL A   1      47.757  31.038  26.588  1.00  0.00     0.167 HD
ATOM     29  C   UNL A   1      51.732  29.119  25.678  1.00  0.00     0.037 A 
ATOM     30  C   UNL A   1      45.959  33.074  27.147  1.00  0.00     0.037 A 
ATOM     31  C   UNL A   1      51.985  30.510  25.927  1.00  0.00     0.049 A 
ATOM     32  C   UNL A   1      47.356  33.639  27.127  1.00  0.00     0.074 A 
ATOM     33  C   UNL A   1      53.183  31.193  25.918  1.00  0.00     0.029 A 
ATOM     34  N   UNL A   1      50.991  31.432  26.244  1.00  0.00    -0.354 N 
ATOM     35  N   UNL A   1      48.489  33.031  26.853  1.00  0.00    -0.248 NA
ATOM     36  C   UNL A   1      47.501  35.058  27.460  1.00  0.00     0.031 C 
ATOM     37  C   UNL A   1      52.920  32.517  26.290  1.00  0.00     0.029 A 
ATOM     38  C   UNL A   1      51.551  32.675  26.462  1.00  0.00     0.049 A 
ATOM     39  H   UNL A   1      50.030  31.227  26.305  1.00  0.00     0.167 HD
ATOM     40  C   UNL A   1      49.480  33.994  26.962  1.00  0.00     0.074 A 
ATOM     41  C   UNL A   1      48.807  35.232  27.309  1.00  0.00     0.031 C 
ATOM     42  C   UNL A   1      50.822  33.876  26.796  1.00  0.00     0.037 A 
BRANCH  29  43
ATOM     43  C   UNL A   1      52.860  28.182  25.364  1.00  0.00     0.064 A 
ATOM     44  C   UNL A   1      53.575  27.499  26.361  1.00  0.00     0.173 A 
ATOM     45  C   UNL A   1      53.291  28.035  24.037  1.00  0.00     0.173 A 
ATOM     46  F   UNL A   1      53.233  27.637  27.652  1.00  0.00    -0.203 F 
ATOM     47  C   UNL A   1      54.698  26.736  26.044  1.00  0.00     0.198 A 
ATOM     48  C   UNL A   1      54.395  27.248  23.720  1.00  0.00     0.198 A 
ATOM     49  F   UNL A   1      52.657  28.680  23.046  1.00  0.00    -0.203 F 
ATOM     50  F   UNL A   1      55.411  26.159  27.021  1.00  0.00    -0.200 F 
ATOM     51  C   UNL A   1      55.105  26.610  24.725  1.00  0.00     0.200 A 
ATOM     52  F   UNL A   1      54.787  27.131  22.444  1.00  0.00    -0.200 F 
ATOM     53  F   UNL A   1      56.196  25.893  24.424  1.00  0.00    -0.200 F 
ENDBRANCH  29  43
BRANCH  30  54
ATOM     54  C   UNL A   1      44.771  33.903  27.485  1.00  0.00     0.064 A 
ATOM     55  C   UNL A   1      44.281  33.989  28.794  1.00  0.00     0.173 A 
ATOM     56  C   UNL A   1      44.083  34.620  26.489  1.00  0.00     0.173 A 
ATOM     57  F   UNL A   1      44.884  33.312  29.781  1.00  0.00    -0.203 F 
ATOM     58  C   UNL A   1      43.142  34.741  29.091  1.00  0.00     0.198 A 
ATOM     59  C   UNL A   1      42.968  35.396  26.792  1.00  0.00     0.198 A 
ATOM     60  F   UNL A   1      44.503  34.573  25.216  1.00  0.00    -0.203 F 
ATOM     61  F   UNL A   1      42.667  34.765  30.344  1.00  0.00    -0.200 F 
ATOM     62  C   UNL A   1      42.491  35.448  28.092  1.00  0.00     0.200 A 
ATOM     63  F   UNL A   1      42.353  36.090  25.825  1.00  0.00    -0.200 F 
ATOM     64  F   UNL A   1      41.399  36.171  28.379  1.00  0.00    -0.200 F 
ENDBRANCH  30  54
BRANCH  42  65
ATOM     65  C   UNL A   1      51.630  35.128  26.946  1.00  0.00     0.064 A 
ATOM     66  C   UNL A   1      51.839  36.002  25.872  1.00  0.00     0.173 A 
ATOM     67  C   UNL A   1      52.141  35.484  28.203  1.00  0.00     0.173 A 
ATOM     68  F   UNL A   1      51.380  35.695  24.649  1.00  0.00    -0.203 F 
ATOM     69  C   UNL A   1      52.553  37.183  26.046  1.00  0.00     0.198 A 
ATOM     70  C   UNL A   1      52.821  36.683  28.381  1.00  0.00     0.198 A 
ATOM     71  F   UNL A   1      51.956  34.681  29.262  1.00  0.00    -0.203 F 
ATOM     72  F   UNL A   1      52.784  37.984  24.997  1.00  0.00    -0.200 F 
ATOM     73  C   UNL A   1      53.033  37.528  27.302  1.00  0.00     0.200 A 
ATOM     74  F   UNL A   1      53.264  37.023  29.598  1.00  0.00    -0.200 F 
ATOM     75  F   UNL A   1      53.705  38.674  27.471  1.00  0.00    -0.200 F 
ENDBRANCH  42  65
ENDBRANCH  16  17
ENDBRANCH   9  11
ENDBRANCH   8   9
ENDBRANCH   7   8
ENDBRANCH   6   7
ENDBRANCH   5   6
ENDBRANCH   4   5
ENDBRANCH   3   4
ENDBRANCH   2   3
ENDBRANCH   1   2
BRANCH   1  76
ATOM     76  C   UNL A   1      41.198  20.129  26.900  1.00  0.00     0.188 C 
BRANCH  76  77
ATOM     77  O   UNL A   1      40.103  20.518  26.111  1.00  0.00    -0.376 OA
BRANCH  77  78
ATOM     78  C   UNL A   1      39.695  21.880  26.113  1.00  0.00     0.202 C 
BRANCH  78  79
ATOM     79  C   UNL A   1      38.227  22.381  26.116  1.00  0.00     0.261 C 
BRANCH  79  80
ATOM     80  O   UNL A   1      37.486  22.381  24.881  1.00  0.00    -0.462 OA
BRANCH  80  81
ATOM     81  C   UNL A   1      36.441  21.524  24.799  1.00  0.00     0.329 C 
ATOM     82  O   UNL A   1      36.525  20.338  25.129  1.00  0.00    -0.250 OA
BRANCH  81  83
ATOM     83  C   UNL A   1      35.063  22.120  24.401  1.00  0.00     0.197 C 
BRANCH  83  84
ATOM     84  C   UNL A   1      34.740  23.042  23.202  1.00  0.00     0.072 C 
BRANCH  84  85
ATOM     85  C   UNL A   1      34.262  24.463  23.314  1.00  0.00    -0.045 A 
ATOM     86  C   UNL A   1      34.483  25.141  24.534  1.00  0.00     0.004 A 
ATOM     87  C   UNL A   1      33.542  25.107  22.314  1.00  0.00     0.004 A 
ATOM     88  C   UNL A   1      34.066  26.457  24.718  1.00  0.00     0.000 A 
ATOM     89  C   UNL A   1      33.105  26.423  22.507  1.00  0.00     0.000 A 
ATOM     90  C   UNL A   1      33.379  27.100  23.697  1.00  0.00     0.000 A 
ENDBRANCH  84  85
ENDBRANCH  83  84
BRANCH  83  91
ATOM     91  N   UNL A   1      34.035  21.074  24.516  1.00  0.00    -0.338 N 
ATOM     92  C   UNL A   1      32.739  21.153  24.937  1.00  0.00     0.258 C 
ATOM     93  H   UNL A   1      34.328  20.174  24.247  1.00  0.00     0.164 HD
ATOM     94  O   UNL A   1      32.100  20.102  25.094  1.00  0.00    -0.269 OA
BRANCH  92  95
ATOM     95  C   UNL A   1      32.068  22.424  25.287  1.00  0.00     0.117 A 
ATOM     96  C   UNL A   1      31.257  22.987  24.288  1.00  0.00     0.021 A 
ATOM     97  C   UNL A   1      32.262  23.163  26.458  1.00  0.00     0.282 A 
ATOM     98  C   UNL A   1      30.650  24.236  24.469  1.00  0.00     0.001 A 
ATOM     99  C   UNL A   1      31.638  24.409  26.660  1.00  0.00     0.086 A 
ATOM    100  C   UNL A   1      30.838  24.945  25.654  1.00  0.00     0.007 A 
BRANCH  97 101
ATOM    101  N   UNL A   1      33.135  22.698  27.511  1.00  0.00     0.063 N 
ATOM    102  O   UNL A   1      34.352  22.863  27.331  1.00  0.00    -0.258 OA
ATOM    103  O   UNL A   1      32.621  22.171  28.500  1.00  0.00    -0.258 OA
ENDBRANCH  97 101
ENDBRANCH  92  95
ENDBRANCH  83  91
ENDBRANCH  81  83
ENDBRANCH  80  81
ENDBRANCH  79  80
ENDBRANCH  78  79
ENDBRANCH  77  78
ENDBRANCH  76  77
ENDBRANCH   1  76
TORSDOF 25
ENDMDL
MODEL 3
REMARK VINA RESULT:      -9.5      6.239     11.401
REMARK SMILES O=C(OCCOCCOCCOCCOC(=O)[C@@H](Cc1ccccc1)NC(=O)c1ccccc1[N+](=O)[O-])c1ccc(-c2c3nc(c(-c4c(F)c(F)c(F)c(F)c4F)c4ccc([nH]4)c(-c4c(F)c(F)c(F)c(F)c4F)c4nc(c(-c5c(F)c(F)c(F)c(F)c5F)c5ccc2[nH]5)C=C4)C=C3)cc1
REMARK SMILES IDX 10 1 9 2 8 3 7 4 6 5 5 6 4 7 3 8 2 9 1 10 38 11 39 12 100 13
REMARK SMILES IDX 40 14 99 15 41 16 42 17 43 18 93 19 44 20 98 21 92 22 94 23
REMARK SMILES IDX 45 24 97 25 91 26 90 27 46 29 78 30 58 31 77 32 59 33 62 34
REMARK SMILES IDX 76 35 95 36 60 37 61 38 75 40 96 41 63 42 47 43 48 44 56 45
REMARK SMILES IDX 49 46 50 47 54 48 57 49 51 50 52 51 55 52 53 53 79 54 80 55
REMARK SMILES IDX 88 56 81 57 82 58 86 59 89 60 83 61 84 62 87 63 85 64 64 65
REMARK SMILES IDX 65 66 73 67 66 68 67 69 71 70 74 71 68 72 69 73 72 74 70 75
REMARK SMILES IDX 11 76 12 77 13 78 14 79 15 80 16 81 17 82 18 83 19 84 20 85
REMARK SMILES IDX 21 86 25 87 22 88 24 89 23 90 26 91 27 92 28 94 29 95 30 96
REMARK SMILES IDX 34 97 31 98 33 99 32 100 35 101 36 102 37 103
REMARK H PARENT 94 28 62 39 26 93
REMARK Flexibility Score: inf
ROOT
ATOM      1  C   UNL A   1      35.103  33.037  30.017  1.00  0.00     0.188 C 
ENDROOT
BRANCH   1   2
ATOM      2  O   UNL A   1      34.033  33.744  30.618  1.00  0.00    -0.377 OA
BRANCH   2   3
ATOM      3  C   UNL A   1      34.274  34.935  31.349  1.00  0.00     0.188 C 
BRANCH   3   4
ATOM      4  C   UNL A   1      34.370  34.750  32.846  1.00  0.00     0.188 C 
BRANCH   4   5
ATOM      5  O   UNL A   1      35.653  35.128  33.330  1.00  0.00    -0.376 OA
BRANCH   5   6
ATOM      6  C   UNL A   1      36.684  34.177  33.070  1.00  0.00     0.202 C 
BRANCH   6   7
ATOM      7  C   UNL A   1      36.577  32.886  33.884  1.00  0.00     0.261 C 
BRANCH   7   8
ATOM      8  O   UNL A   1      36.178  31.726  33.128  1.00  0.00    -0.460 OA
BRANCH   8   9
ATOM      9  C   UNL A   1      36.920  30.820  32.447  1.00  0.00     0.338 C 
ATOM     10  O   UNL A   1      36.496  29.666  32.380  1.00  0.00    -0.246 OA
BRANCH   9  11
ATOM     11  C   UNL A   1      38.258  31.092  31.830  1.00  0.00     0.060 A 
ATOM     12  C   UNL A   1      39.460  31.182  32.527  1.00  0.00     0.016 A 
ATOM     13  C   UNL A   1      38.320  31.186  30.426  1.00  0.00     0.016 A 
ATOM     14  C   UNL A   1      40.681  31.282  31.892  1.00  0.00     0.010 A 
ATOM     15  C   UNL A   1      39.540  31.370  29.766  1.00  0.00     0.010 A 
ATOM     16  C   UNL A   1      40.720  31.424  30.514  1.00  0.00    -0.014 A 
BRANCH  16  17
ATOM     17  C   UNL A   1      41.989  31.930  29.982  1.00  0.00     0.031 A 
ATOM     18  C   UNL A   1      42.918  30.915  29.395  1.00  0.00     0.074 A 
ATOM     19  C   UNL A   1      42.158  33.250  29.803  1.00  0.00     0.049 A 
ATOM     20  N   UNL A   1      44.101  31.071  28.872  1.00  0.00    -0.248 NA
ATOM     21  C   UNL A   1      42.424  29.524  29.361  1.00  0.00     0.031 C 
ATOM     22  C   UNL A   1      41.172  34.279  30.142  1.00  0.00     0.029 A 
ATOM     23  N   UNL A   1      43.198  33.946  29.257  1.00  0.00    -0.354 N 
ATOM     24  C   UNL A   1      44.506  29.800  28.490  1.00  0.00     0.074 A 
ATOM     25  C   UNL A   1      43.443  28.882  28.818  1.00  0.00     0.031 C 
ATOM     26  C   UNL A   1      41.666  35.483  29.807  1.00  0.00     0.029 A 
ATOM     27  C   UNL A   1      43.023  35.306  29.305  1.00  0.00     0.049 A 
ATOM     28  H   UNL A   1      43.993  33.515  28.868  1.00  0.00     0.167 HD
ATOM     29  C   UNL A   1      45.684  29.444  27.932  1.00  0.00     0.037 A 
ATOM     30  C   UNL A   1      43.906  36.282  29.027  1.00  0.00     0.037 A 
ATOM     31  C   UNL A   1      46.711  30.403  27.637  1.00  0.00     0.049 A 
ATOM     32  C   UNL A   1      45.270  35.857  28.550  1.00  0.00     0.074 A 
ATOM     33  C   UNL A   1      47.991  30.193  27.168  1.00  0.00     0.029 A 
ATOM     34  N   UNL A   1      46.557  31.777  27.803  1.00  0.00    -0.354 N 
ATOM     35  N   UNL A   1      45.715  34.648  28.291  1.00  0.00    -0.248 NA
ATOM     36  C   UNL A   1      46.260  36.917  28.343  1.00  0.00     0.031 C 
ATOM     37  C   UNL A   1      48.631  31.436  27.107  1.00  0.00     0.029 A 
ATOM     38  C   UNL A   1      47.729  32.428  27.471  1.00  0.00     0.049 A 
ATOM     39  H   UNL A   1      45.733  32.218  28.111  1.00  0.00     0.167 HD
ATOM     40  C   UNL A   1      47.027  34.799  27.873  1.00  0.00     0.074 A 
ATOM     41  C   UNL A   1      47.299  36.224  27.897  1.00  0.00     0.031 C 
ATOM     42  C   UNL A   1      47.933  33.856  27.506  1.00  0.00     0.037 A 
BRANCH  29  43
ATOM     43  C   UNL A   1      45.934  27.976  27.750  1.00  0.00     0.064 A 
ATOM     44  C   UNL A   1      46.528  27.182  28.744  1.00  0.00     0.173 A 
ATOM     45  C   UNL A   1      45.652  27.373  26.515  1.00  0.00     0.173 A 
ATOM     46  F   UNL A   1      46.859  27.718  29.929  1.00  0.00    -0.203 F 
ATOM     47  C   UNL A   1      46.863  25.852  28.494  1.00  0.00     0.198 A 
ATOM     48  C   UNL A   1      45.960  26.036  26.279  1.00  0.00     0.198 A 
ATOM     49  F   UNL A   1      45.103  28.090  25.523  1.00  0.00    -0.203 F 
ATOM     50  F   UNL A   1      47.502  25.136  29.430  1.00  0.00    -0.200 F 
ATOM     51  C   UNL A   1      46.576  25.280  27.264  1.00  0.00     0.200 A 
ATOM     52  F   UNL A   1      45.684  25.487  25.087  1.00  0.00    -0.200 F 
ATOM     53  F   UNL A   1      46.916  24.007  27.019  1.00  0.00    -0.200 F 
ENDBRANCH  29  43
BRANCH  30  54
ATOM     54  C   UNL A   1      43.560  37.707  29.280  1.00  0.00     0.064 A 
ATOM     55  C   UNL A   1      42.874  38.478  28.334  1.00  0.00     0.173 A 
ATOM     56  C   UNL A   1      43.930  38.338  30.482  1.00  0.00     0.173 A 
ATOM     57  F   UNL A   1      42.513  37.935  27.162  1.00  0.00    -0.203 F 
ATOM     58  C   UNL A   1      42.589  39.824  28.568  1.00  0.00     0.198 A 
ATOM     59  C   UNL A   1      43.615  39.672  30.728  1.00  0.00     0.198 A 
ATOM     60  F   UNL A   1      44.592  37.653  31.425  1.00  0.00    -0.203 F 
ATOM     61  F   UNL A   1      41.974  40.550  27.623  1.00  0.00    -0.200 F 
ATOM     62  C   UNL A   1      42.954  40.418  29.766  1.00  0.00     0.200 A 
ATOM     63  F   UNL A   1      43.957  40.235  31.895  1.00  0.00    -0.200 F 
ATOM     64  F   UNL A   1      42.677  41.710  29.990  1.00  0.00    -0.200 F 
ENDBRANCH  30  54
BRANCH  42  65
ATOM     65  C   UNL A   1      49.275  34.351  27.063  1.00  0.00     0.064 A 
ATOM     66  C   UNL A   1      50.377  34.364  27.928  1.00  0.00     0.173 A 
ATOM     67  C   UNL A   1      49.469  34.750  25.732  1.00  0.00     0.173 A 
ATOM     68  F   UNL A   1      50.234  34.003  29.212  1.00  0.00    -0.203 F 
ATOM     69  C   UNL A   1      51.626  34.783  27.481  1.00  0.00     0.198 A 
ATOM     70  C   UNL A   1      50.726  35.132  25.280  1.00  0.00     0.198 A 
ATOM     71  F   UNL A   1      48.444  34.744  24.867  1.00  0.00    -0.203 F 
ATOM     72  F   UNL A   1      52.657  34.835  28.334  1.00  0.00    -0.200 F 
ATOM     73  C   UNL A   1      51.801  35.156  26.155  1.00  0.00     0.200 A 
ATOM     74  F   UNL A   1      50.898  35.471  23.995  1.00  0.00    -0.200 F 
ATOM     75  F   UNL A   1      53.009  35.542  25.722  1.00  0.00    -0.200 F 
ENDBRANCH  42  65
ENDBRANCH  16  17
ENDBRANCH   9  11
ENDBRANCH   8   9
ENDBRANCH   7   8
ENDBRANCH   6   7
ENDBRANCH   5   6
ENDBRANCH   4   5
ENDBRANCH   3   4
ENDBRANCH   2   3
ENDBRANCH   1   2
BRANCH   1  76
ATOM     76  C   UNL A   1      34.838  31.740  29.253  1.00  0.00     0.188 C 
BRANCH  76  77
ATOM     77  O   UNL A   1      34.349  31.906  27.947  1.00  0.00    -0.376 OA
BRANCH  77  78
ATOM     78  C   UNL A   1      33.331  31.037  27.471  1.00  0.00     0.202 C 
BRANCH  78  79
ATOM     79  C   UNL A   1      33.551  29.595  26.943  1.00  0.00     0.261 C 
BRANCH  79  80
ATOM     80  O   UNL A   1      32.481  28.939  26.237  1.00  0.00    -0.462 OA
BRANCH  80  81
ATOM     81  C   UNL A   1      31.833  27.951  26.899  1.00  0.00     0.329 C 
ATOM     82  O   UNL A   1      31.248  28.140  27.969  1.00  0.00    -0.250 OA
BRANCH  81  83
ATOM     83  C   UNL A   1      31.726  26.573  26.192  1.00  0.00     0.197 C 
BRANCH  83  84
ATOM     84  C   UNL A   1      32.229  25.203  26.705  1.00  0.00     0.072 C 
BRANCH  84  85
ATOM     85  C   UNL A   1      33.191  24.311  25.972  1.00  0.00    -0.045 A 
ATOM     86  C   UNL A   1      34.382  24.888  25.475  1.00  0.00     0.004 A 
ATOM     87  C   UNL A   1      32.929  22.976  25.685  1.00  0.00     0.004 A 
ATOM     88  C   UNL A   1      35.321  24.130  24.782  1.00  0.00     0.000 A 
ATOM     89  C   UNL A   1      33.863  22.219  24.971  1.00  0.00     0.000 A 
ATOM     90  C   UNL A   1      35.061  22.789  24.534  1.00  0.00     0.000 A 
ENDBRANCH  84  85
ENDBRANCH  83  84
BRANCH  83  91
ATOM     91  N   UNL A   1      30.377  26.427  25.623  1.00  0.00    -0.338 N 
ATOM     92  C   UNL A   1      29.983  26.163  24.343  1.00  0.00     0.258 C 
ATOM     93  H   UNL A   1      29.642  26.536  26.268  1.00  0.00     0.164 HD
ATOM     94  O   UNL A   1      28.777  26.236  24.066  1.00  0.00    -0.269 OA
BRANCH  92  95
ATOM     95  C   UNL A   1      30.925  25.862  23.242  1.00  0.00     0.117 A 
ATOM     96  C   UNL A   1      31.340  24.525  23.137  1.00  0.00     0.021 A 
ATOM     97  C   UNL A   1      31.520  26.796  22.388  1.00  0.00     0.282 A 
ATOM     98  C   UNL A   1      32.303  24.140  22.197  1.00  0.00     0.001 A 
ATOM     99  C   UNL A   1      32.472  26.416  21.424  1.00  0.00     0.086 A 
ATOM    100  C   UNL A   1      32.867  25.083  21.339  1.00  0.00     0.007 A 
BRANCH  97 101
ATOM    101  N   UNL A   1      31.208  28.203  22.471  1.00  0.00     0.063 N 
ATOM    102  O   UNL A   1      32.034  28.918  23.061  1.00  0.00    -0.258 OA
ATOM    103  O   UNL A   1      30.155  28.595  21.962  1.00  0.00    -0.258 OA
ENDBRANCH  97 101
ENDBRANCH  92  95
ENDBRANCH  83  91
ENDBRANCH  81  83
ENDBRANCH  80  81
ENDBRANCH  79  80
ENDBRANCH  78  79
ENDBRANCH  77  78
ENDBRANCH  76  77
ENDBRANCH   1  76
TORSDOF 25
ENDMDL
