MODEL 1
REMARK VINA RESULT:      -9.9      0.000      0.000
REMARK SMILES Cc1cc(NC(=O)CC2(CC(=O)OCCOCCOCCOCCOC(=O)c3ccc(-c4c5nc(c(-c6c(F)c(F)c(F)c(F)c6F)c6ccc([nH]6)c(-c6c(F)c(F)c(F)c(F)c6F)c6nc(c(-c7c(F)c(F)c(F)c(F)c7F)c7ccc4[nH]7)C=C6)C=C5)cc3)CCCC2)ccn1
REMARK SMILES IDX 18 1 17 2 16 3 15 4 14 5 13 6 11 7 12 8 10 9 9 10 91 11
REMARK SMILES IDX 94 12 92 13 93 14 8 15 6 16 5 17 7 19 4 20 1 21 2 22 3 23
REMARK SMILES IDX 97 24 96 25 95 26 19 27 20 28 21 29 22 30 23 31 24 32 25 33
REMARK SMILES IDX 26 34 27 35 28 36 29 37 90 38 30 39 89 40 31 41 32 42 33 43
REMARK SMILES IDX 83 44 34 45 88 46 82 47 84 48 35 49 87 50 81 51 80 52 36 54
REMARK SMILES IDX 68 55 48 56 67 57 49 58 52 59 66 60 85 61 50 62 51 63 65 65
REMARK SMILES IDX 86 66 53 67 37 68 38 69 46 70 39 71 40 72 44 73 47 74 41 75
REMARK SMILES IDX 42 76 45 77 43 78 69 79 70 80 78 81 71 82 72 83 76 84 79 85
REMARK SMILES IDX 73 86 74 87 77 88 75 89 54 90 55 91 63 92 56 93 57 94 61 95
REMARK SMILES IDX 64 96 58 97 59 98 62 99 60 100
REMARK H PARENT 5 18 84 53 52 64
REMARK Flexibility Score: inf
ROOT
ATOM      1  C   UNL A   1      39.798  21.718  26.753  1.00  0.00     0.188 C 
ENDROOT
BRANCH   1   2
ATOM      2  C   UNL A   1      38.554  22.283  26.030  1.00  0.00     0.188 C 
BRANCH   2   3
ATOM      3  O   UNL A   1      37.863  21.483  25.085  1.00  0.00    -0.376 OA
BRANCH   3   4
ATOM      4  C   UNL A   1      36.531  21.091  25.358  1.00  0.00     0.202 C 
BRANCH   4   5
ATOM      5  C   UNL A   1      35.536  22.066  26.027  1.00  0.00     0.261 C 
BRANCH   5   6
ATOM      6  O   UNL A   1      34.527  21.538  26.917  1.00  0.00    -0.463 OA
BRANCH   6   7
ATOM      7  C   UNL A   1      33.473  22.343  27.185  1.00  0.00     0.306 C 
ATOM      8  O   UNL A   1      32.859  22.322  28.247  1.00  0.00    -0.252 OA
BRANCH   7   9
ATOM      9  C   UNL A   1      32.992  23.194  26.006  1.00  0.00     0.130 C 
BRANCH   9  10
ATOM     10  C   UNL A   1      31.941  22.785  24.914  1.00  0.00    -0.011 C 
ATOM     11  C   UNL A   1      32.292  21.340  24.486  1.00  0.00     0.008 C 
ATOM     12  C   UNL A   1      32.132  23.520  23.563  1.00  0.00     0.008 C 
ATOM     13  C   UNL A   1      33.421  21.456  23.468  1.00  0.00     0.001 C 
ATOM     14  C   UNL A   1      33.261  22.821  22.821  1.00  0.00     0.001 C 
BRANCH  10  15
ATOM     15  C   UNL A   1      30.468  22.929  25.403  1.00  0.00     0.108 C 
BRANCH  15  16
ATOM     16  C   UNL A   1      30.081  23.839  26.553  1.00  0.00     0.224 C 
ATOM     17  N   UNL A   1      30.101  25.198  26.494  1.00  0.00    -0.326 N 
ATOM     18  H   UNL A   1      29.939  25.631  27.363  1.00  0.00     0.169 HD
ATOM     19  O   UNL A   1      29.727  23.335  27.626  1.00  0.00    -0.275 OA
BRANCH  17  20
ATOM     20  C   UNL A   1      30.308  26.108  25.446  1.00  0.00     0.044 A 
ATOM     21  C   UNL A   1      32.569  29.102  25.032  1.00  0.00     0.067 C 
ATOM     22  C   UNL A   1      31.531  28.057  24.760  1.00  0.00     0.039 A 
ATOM     23  C   UNL A   1      31.401  26.961  25.605  1.00  0.00     0.049 A 
ATOM     24  N   UNL A   1      30.672  28.291  23.743  1.00  0.00    -0.261 NA
ATOM     25  C   UNL A   1      29.680  27.398  23.550  1.00  0.00     0.113 A 
ATOM     26  C   UNL A   1      29.467  26.292  24.358  1.00  0.00     0.046 A 
ENDBRANCH  17  20
ENDBRANCH  15  16
ENDBRANCH  10  15
ENDBRANCH   9  10
ENDBRANCH   7   9
ENDBRANCH   6   7
ENDBRANCH   5   6
ENDBRANCH   4   5
ENDBRANCH   3   4
ENDBRANCH   2   3
ENDBRANCH   1   2
BRANCH   1  27
ATOM     27  O   UNL A   1      40.602  22.699  27.381  1.00  0.00    -0.377 OA
BRANCH  27  28
ATOM     28  C   UNL A   1      41.983  22.605  27.091  1.00  0.00     0.188 C 
BRANCH  28  29
ATOM     29  C   UNL A   1      42.454  23.337  25.824  1.00  0.00     0.188 C 
BRANCH  29  30
ATOM     30  O   UNL A   1      43.032  22.451  24.875  1.00  0.00    -0.376 OA
BRANCH  30  31
ATOM     31  C   UNL A   1      44.097  22.879  24.050  1.00  0.00     0.202 C 
BRANCH  31  32
ATOM     32  C   UNL A   1      45.467  23.157  24.691  1.00  0.00     0.261 C 
BRANCH  32  33
ATOM     33  O   UNL A   1      45.667  24.453  25.264  1.00  0.00    -0.460 OA
BRANCH  33  34
ATOM     34  C   UNL A   1      46.226  24.509  26.493  1.00  0.00     0.338 C 
ATOM     35  O   UNL A   1      47.339  24.131  26.812  1.00  0.00    -0.246 OA
BRANCH  34  36
ATOM     36  C   UNL A   1      45.318  25.297  27.355  1.00  0.00     0.060 A 
ATOM     37  C   UNL A   1      45.276  26.688  27.190  1.00  0.00     0.016 A 
ATOM     38  C   UNL A   1      44.474  24.667  28.275  1.00  0.00     0.016 A 
ATOM     39  C   UNL A   1      44.394  27.456  27.949  1.00  0.00     0.010 A 
ATOM     40  C   UNL A   1      43.621  25.442  29.066  1.00  0.00     0.010 A 
ATOM     41  C   UNL A   1      43.597  26.840  28.923  1.00  0.00    -0.014 A 
BRANCH  41  42
ATOM     42  C   UNL A   1      42.931  27.680  29.945  1.00  0.00     0.031 A 
ATOM     43  C   UNL A   1      43.590  27.793  31.291  1.00  0.00     0.074 A 
ATOM     44  C   UNL A   1      41.791  28.343  29.684  1.00  0.00     0.049 A 
ATOM     45  N   UNL A   1      43.196  28.429  32.364  1.00  0.00    -0.248 NA
ATOM     46  C   UNL A   1      44.874  27.089  31.445  1.00  0.00     0.031 C 
ATOM     47  C   UNL A   1      41.090  28.351  28.403  1.00  0.00     0.029 A 
ATOM     48  N   UNL A   1      41.021  29.138  30.497  1.00  0.00    -0.354 N 
ATOM     49  C   UNL A   1      44.181  28.199  33.316  1.00  0.00     0.074 A 
ATOM     50  C   UNL A   1      45.172  27.341  32.710  1.00  0.00     0.031 C 
ATOM     51  C   UNL A   1      39.980  29.100  28.521  1.00  0.00     0.029 A 
ATOM     52  C   UNL A   1      39.877  29.598  29.892  1.00  0.00     0.049 A 
ATOM     53  H   UNL A   1      41.266  29.356  31.425  1.00  0.00     0.167 HD
ATOM     54  C   UNL A   1      44.253  28.670  34.583  1.00  0.00     0.037 A 
ATOM     55  C   UNL A   1      38.858  30.317  30.403  1.00  0.00     0.037 A 
ATOM     56  C   UNL A   1      43.254  29.512  35.184  1.00  0.00     0.049 A 
ATOM     57  C   UNL A   1      38.918  30.754  31.848  1.00  0.00     0.074 A 
ATOM     58  C   UNL A   1      43.232  30.048  36.459  1.00  0.00     0.029 A 
ATOM     59  N   UNL A   1      42.090  29.926  34.553  1.00  0.00    -0.354 N 
ATOM     60  N   UNL A   1      39.862  30.558  32.736  1.00  0.00    -0.248 NA
ATOM     61  C   UNL A   1      37.769  31.518  32.357  1.00  0.00     0.031 C 
ATOM     62  C   UNL A   1      42.025  30.734  36.620  1.00  0.00     0.029 A 
ATOM     63  C   UNL A   1      41.327  30.688  35.423  1.00  0.00     0.049 A 
ATOM     64  H   UNL A   1      41.843  29.712  33.624  1.00  0.00     0.167 HD
ATOM     65  C   UNL A   1      39.441  31.203  33.894  1.00  0.00     0.074 A 
ATOM     66  C   UNL A   1      38.159  31.805  33.591  1.00  0.00     0.031 C 
ATOM     67  C   UNL A   1      40.060  31.292  35.098  1.00  0.00     0.037 A 
BRANCH  54  68
ATOM     68  C   UNL A   1      45.432  28.250  35.409  1.00  0.00     0.064 A 
ATOM     69  C   UNL A   1      45.409  27.089  36.197  1.00  0.00     0.173 A 
ATOM     70  C   UNL A   1      46.611  29.010  35.398  1.00  0.00     0.173 A 
ATOM     71  F   UNL A   1      44.300  26.337  36.260  1.00  0.00    -0.203 F 
ATOM     72  C   UNL A   1      46.513  26.721  36.965  1.00  0.00     0.198 A 
ATOM     73  C   UNL A   1      47.723  28.622  36.139  1.00  0.00     0.198 A 
ATOM     74  F   UNL A   1      46.686  30.131  34.664  1.00  0.00    -0.203 F 
ATOM     75  F   UNL A   1      46.448  25.639  37.753  1.00  0.00    -0.200 F 
ATOM     76  C   UNL A   1      47.670  27.483  36.928  1.00  0.00     0.200 A 
ATOM     77  F   UNL A   1      48.845  29.353  36.093  1.00  0.00    -0.200 F 
ATOM     78  F   UNL A   1      48.733  27.125  37.662  1.00  0.00    -0.200 F 
ENDBRANCH  54  68
BRANCH  55  79
ATOM     79  C   UNL A   1      37.684  30.659  29.555  1.00  0.00     0.064 A 
ATOM     80  C   UNL A   1      36.723  29.693  29.222  1.00  0.00     0.173 A 
ATOM     81  C   UNL A   1      37.516  31.949  29.032  1.00  0.00     0.173 A 
ATOM     82  F   UNL A   1      36.852  28.438  29.673  1.00  0.00    -0.203 F 
ATOM     83  C   UNL A   1      35.654  30.000  28.380  1.00  0.00     0.198 A 
ATOM     84  C   UNL A   1      36.430  32.263  28.217  1.00  0.00     0.198 A 
ATOM     85  F   UNL A   1      38.408  32.911  29.314  1.00  0.00    -0.203 F 
ATOM     86  F   UNL A   1      34.783  29.043  28.034  1.00  0.00    -0.200 F 
ATOM     87  C   UNL A   1      35.506  31.285  27.884  1.00  0.00     0.200 A 
ATOM     88  F   UNL A   1      36.285  33.510  27.749  1.00  0.00    -0.200 F 
ATOM     89  F   UNL A   1      34.478  31.579  27.075  1.00  0.00    -0.200 F 
ENDBRANCH  55  79
BRANCH  67  90
ATOM     90  C   UNL A   1      39.391  32.114  36.165  1.00  0.00     0.064 A 
ATOM     91  C   UNL A   1      38.377  31.590  36.980  1.00  0.00     0.173 A 
ATOM     92  C   UNL A   1      39.815  33.431  36.409  1.00  0.00     0.173 A 
ATOM     93  F   UNL A   1      37.928  30.342  36.782  1.00  0.00    -0.203 F 
ATOM     94  C   UNL A   1      37.793  32.363  37.980  1.00  0.00     0.198 A 
ATOM     95  C   UNL A   1      39.254  34.187  37.433  1.00  0.00     0.198 A 
ATOM     96  F   UNL A   1      40.789  33.977  35.666  1.00  0.00    -0.203 F 
ATOM     97  F   UNL A   1      36.790  31.860  38.713  1.00  0.00    -0.200 F 
ATOM     98  C   UNL A   1      38.237  33.656  38.212  1.00  0.00     0.200 A 
ATOM     99  F   UNL A   1      39.699  35.429  37.668  1.00  0.00    -0.200 F 
ATOM    100  F   UNL A   1      37.681  34.393  39.184  1.00  0.00    -0.200 F 
ENDBRANCH  67  90
ENDBRANCH  41  42
ENDBRANCH  34  36
ENDBRANCH  33  34
ENDBRANCH  32  33
ENDBRANCH  31  32
ENDBRANCH  30  31
ENDBRANCH  29  30
ENDBRANCH  28  29
ENDBRANCH  27  28
ENDBRANCH   1  27
TORSDOF 24
ENDMDL
MODEL 2
REMARK VINA RESULT:      -9.2      3.319      4.898
REMARK SMILES Cc1cc(NC(=O)CC2(CC(=O)OCCOCCOCCOCCOC(=O)c3ccc(-c4c5nc(c(-c6c(F)c(F)c(F)c(F)c6F)c6ccc([nH]6)c(-c6c(F)c(F)c(F)c(F)c6F)c6nc(c(-c7c(F)c(F)c(F)c(F)c7F)c7ccc4[nH]7)C=C6)C=C5)cc3)CCCC2)ccn1
REMARK SMILES IDX 18 1 17 2 16 3 15 4 14 5 13 6 11 7 12 8 10 9 9 10 91 11
REMARK SMILES IDX 94 12 92 13 93 14 8 15 6 16 5 17 7 19 4 20 1 21 2 22 3 23
REMARK SMILES IDX 97 24 96 25 95 26 19 27 20 28 21 29 22 30 23 31 24 32 25 33
REMARK SMILES IDX 26 34 27 35 28 36 29 37 90 38 30 39 89 40 31 41 32 42 33 43
REMARK SMILES IDX 83 44 34 45 88 46 82 47 84 48 35 49 87 50 81 51 80 52 36 54
REMARK SMILES IDX 68 55 48 56 67 57 49 58 52 59 66 60 85 61 50 62 51 63 65 65
REMARK SMILES IDX 86 66 53 67 37 68 38 69 46 70 39 71 40 72 44 73 47 74 41 75
REMARK SMILES IDX 42 76 45 77 43 78 69 79 70 80 78 81 71 82 72 83 76 84 79 85
REMARK SMILES IDX 73 86 74 87 77 88 75 89 54 90 55 91 63 92 56 93 57 94 61 95
REMARK SMILES IDX 64 96 58 97 59 98 62 99 60 100
REMARK H PARENT 5 18 84 53 52 64
REMARK Flexibility Score: inf
ROOT
ATOM      1  C   UNL A   1      42.202  20.736  26.190  1.00  0.00     0.188 C 
ENDROOT
BRANCH   1   2
ATOM      2  C   UNL A   1      41.065  21.783  26.176  1.00  0.00     0.188 C 
BRANCH   2   3
ATOM      3  O   UNL A   1      39.772  21.415  25.723  1.00  0.00    -0.376 OA
BRANCH   3   4
ATOM      4  C   UNL A   1      38.657  22.186  26.124  1.00  0.00     0.202 C 
BRANCH   4   5
ATOM      5  C   UNL A   1      37.230  21.830  25.646  1.00  0.00     0.261 C 
BRANCH   5   6
ATOM      6  O   UNL A   1      36.670  22.538  24.517  1.00  0.00    -0.463 OA
BRANCH   6   7
ATOM      7  C   UNL A   1      35.873  23.594  24.798  1.00  0.00     0.306 C 
ATOM      8  O   UNL A   1      36.152  24.447  25.635  1.00  0.00    -0.252 OA
BRANCH   7   9
ATOM      9  C   UNL A   1      34.509  23.580  24.103  1.00  0.00     0.130 C 
BRANCH   9  10
ATOM     10  C   UNL A   1      33.119  23.254  24.757  1.00  0.00    -0.011 C 
ATOM     11  C   UNL A   1      33.158  21.757  25.150  1.00  0.00     0.008 C 
ATOM     12  C   UNL A   1      31.946  23.235  23.744  1.00  0.00     0.008 C 
ATOM     13  C   UNL A   1      32.835  20.973  23.884  1.00  0.00     0.001 C 
ATOM     14  C   UNL A   1      31.987  21.896  23.025  1.00  0.00     0.001 C 
BRANCH  10  15
ATOM     15  C   UNL A   1      32.780  24.185  25.960  1.00  0.00     0.108 C 
BRANCH  15  16
ATOM     16  C   UNL A   1      31.367  24.338  26.494  1.00  0.00     0.224 C 
ATOM     17  N   UNL A   1      30.548  25.384  26.202  1.00  0.00    -0.326 N 
ATOM     18  H   UNL A   1      29.716  25.389  26.727  1.00  0.00     0.169 HD
ATOM     19  O   UNL A   1      30.913  23.472  27.250  1.00  0.00    -0.275 OA
BRANCH  17  20
ATOM     20  C   UNL A   1      30.650  26.459  25.305  1.00  0.00     0.044 A 
ATOM     21  C   UNL A   1      32.036  29.956  25.610  1.00  0.00     0.067 C 
ATOM     22  C   UNL A   1      31.378  28.732  25.051  1.00  0.00     0.039 A 
ATOM     23  C   UNL A   1      31.430  27.530  25.744  1.00  0.00     0.049 A 
ATOM     24  N   UNL A   1      30.648  28.885  23.923  1.00  0.00    -0.261 NA
ATOM     25  C   UNL A   1      29.980  27.808  23.465  1.00  0.00     0.113 A 
ATOM     26  C   UNL A   1      29.962  26.579  24.106  1.00  0.00     0.046 A 
ENDBRANCH  17  20
ENDBRANCH  15  16
ENDBRANCH  10  15
ENDBRANCH   9  10
ENDBRANCH   7   9
ENDBRANCH   6   7
ENDBRANCH   5   6
ENDBRANCH   4   5
ENDBRANCH   3   4
ENDBRANCH   2   3
ENDBRANCH   1   2
BRANCH   1  27
ATOM     27  O   UNL A   1      41.797  19.443  26.598  1.00  0.00    -0.377 OA
BRANCH  27  28
ATOM     28  C   UNL A   1      42.668  18.400  26.208  1.00  0.00     0.188 C 
BRANCH  28  29
ATOM     29  C   UNL A   1      43.757  18.780  25.190  1.00  0.00     0.188 C 
BRANCH  29  30
ATOM     30  O   UNL A   1      44.977  18.091  25.426  1.00  0.00    -0.376 OA
BRANCH  30  31
ATOM     31  C   UNL A   1      46.211  18.779  25.373  1.00  0.00     0.202 C 
BRANCH  31  32
ATOM     32  C   UNL A   1      46.382  19.917  24.353  1.00  0.00     0.261 C 
BRANCH  32  33
ATOM     33  O   UNL A   1      46.402  21.254  24.865  1.00  0.00    -0.460 OA
BRANCH  33  34
ATOM     34  C   UNL A   1      45.403  22.079  24.483  1.00  0.00     0.338 C 
ATOM     35  O   UNL A   1      44.682  21.959  23.509  1.00  0.00    -0.246 OA
BRANCH  34  36
ATOM     36  C   UNL A   1      45.202  23.061  25.571  1.00  0.00     0.060 A 
ATOM     37  C   UNL A   1      45.228  24.427  25.255  1.00  0.00     0.016 A 
ATOM     38  C   UNL A   1      44.931  22.643  26.877  1.00  0.00     0.016 A 
ATOM     39  C   UNL A   1      44.990  25.379  26.246  1.00  0.00     0.010 A 
ATOM     40  C   UNL A   1      44.735  23.598  27.877  1.00  0.00     0.010 A 
ATOM     41  C   UNL A   1      44.789  24.969  27.570  1.00  0.00    -0.014 A 
BRANCH  41  42
ATOM     42  C   UNL A   1      44.882  25.971  28.656  1.00  0.00     0.031 A 
ATOM     43  C   UNL A   1      46.230  26.201  29.278  1.00  0.00     0.074 A 
ATOM     44  C   UNL A   1      43.811  26.674  29.065  1.00  0.00     0.049 A 
ATOM     45  N   UNL A   1      46.573  26.990  30.264  1.00  0.00    -0.248 NA
ATOM     46  C   UNL A   1      47.348  25.435  28.704  1.00  0.00     0.031 C 
ATOM     47  C   UNL A   1      42.467  26.573  28.502  1.00  0.00     0.029 A 
ATOM     48  N   UNL A   1      43.694  27.613  30.059  1.00  0.00    -0.354 N 
ATOM     49  C   UNL A   1      47.940  26.811  30.427  1.00  0.00     0.074 A 
ATOM     50  C   UNL A   1      48.361  25.818  29.466  1.00  0.00     0.031 C 
ATOM     51  C   UNL A   1      41.653  27.406  29.174  1.00  0.00     0.029 A 
ATOM     52  C   UNL A   1      42.412  28.073  30.231  1.00  0.00     0.049 A 
ATOM     53  H   UNL A   1      44.456  27.926  30.598  1.00  0.00     0.167 HD
ATOM     54  C   UNL A   1      48.771  27.427  31.300  1.00  0.00     0.037 A 
ATOM     55  C   UNL A   1      41.913  28.918  31.156  1.00  0.00     0.037 A 
ATOM     56  C   UNL A   1      48.341  28.402  32.265  1.00  0.00     0.049 A 
ATOM     57  C   UNL A   1      42.845  29.523  32.178  1.00  0.00     0.074 A 
ATOM     58  C   UNL A   1      49.102  29.091  33.192  1.00  0.00     0.029 A 
ATOM     59  N   UNL A   1      47.028  28.816  32.436  1.00  0.00    -0.354 N 
ATOM     60  N   UNL A   1      44.141  29.372  32.313  1.00  0.00    -0.248 NA
ATOM     61  C   UNL A   1      42.243  30.421  33.175  1.00  0.00     0.031 C 
ATOM     62  C   UNL A   1      48.240  29.872  33.967  1.00  0.00     0.029 A 
ATOM     63  C   UNL A   1      46.952  29.729  33.474  1.00  0.00     0.049 A 
ATOM     64  H   UNL A   1      46.264  28.507  31.897  1.00  0.00     0.167 HD
ATOM     65  C   UNL A   1      44.514  30.182  33.380  1.00  0.00     0.074 A 
ATOM     66  C   UNL A   1      43.307  30.829  33.851  1.00  0.00     0.031 C 
ATOM     67  C   UNL A   1      45.743  30.375  33.920  1.00  0.00     0.037 A 
BRANCH  54  68
ATOM     68  C   UNL A   1      50.218  27.030  31.272  1.00  0.00     0.064 A 
ATOM     69  C   UNL A   1      50.704  25.947  32.020  1.00  0.00     0.173 A 
ATOM     70  C   UNL A   1      51.129  27.733  30.469  1.00  0.00     0.173 A 
ATOM     71  F   UNL A   1      49.880  25.254  32.820  1.00  0.00    -0.203 F 
ATOM     72  C   UNL A   1      52.053  25.601  31.987  1.00  0.00     0.198 A 
ATOM     73  C   UNL A   1      52.469  27.364  30.412  1.00  0.00     0.198 A 
ATOM     74  F   UNL A   1      50.717  28.779  29.736  1.00  0.00    -0.203 F 
ATOM     75  F   UNL A   1      52.506  24.598  32.753  1.00  0.00    -0.200 F 
ATOM     76  C   UNL A   1      52.932  26.305  31.177  1.00  0.00     0.200 A 
ATOM     77  F   UNL A   1      53.315  28.038  29.620  1.00  0.00    -0.200 F 
ATOM     78  F   UNL A   1      54.229  25.967  31.141  1.00  0.00    -0.200 F 
ENDBRANCH  54  68
BRANCH  55  79
ATOM     79  C   UNL A   1      40.459  29.234  31.174  1.00  0.00     0.064 A 
ATOM     80  C   UNL A   1      39.923  30.237  30.354  1.00  0.00     0.173 A 
ATOM     81  C   UNL A   1      39.580  28.562  32.037  1.00  0.00     0.173 A 
ATOM     82  F   UNL A   1      40.724  30.928  29.531  1.00  0.00    -0.203 F 
ATOM     83  C   UNL A   1      38.570  30.571  30.414  1.00  0.00     0.198 A 
ATOM     84  C   UNL A   1      38.222  28.875  32.073  1.00  0.00     0.198 A 
ATOM     85  F   UNL A   1      40.039  27.597  32.847  1.00  0.00    -0.203 F 
ATOM     86  F   UNL A   1      38.096  31.572  29.659  1.00  0.00    -0.200 F 
ATOM     87  C   UNL A   1      37.721  29.886  31.268  1.00  0.00     0.200 A 
ATOM     88  F   UNL A   1      37.403  28.202  32.892  1.00  0.00    -0.200 F 
ATOM     89  F   UNL A   1      36.421  30.207  31.325  1.00  0.00    -0.200 F 
ENDBRANCH  55  79
BRANCH  67  90
ATOM     90  C   UNL A   1      45.862  31.364  35.045  1.00  0.00     0.064 A 
ATOM     91  C   UNL A   1      45.764  30.977  36.389  1.00  0.00     0.173 A 
ATOM     92  C   UNL A   1      46.134  32.715  34.770  1.00  0.00     0.173 A 
ATOM     93  F   UNL A   1      45.495  29.702  36.707  1.00  0.00    -0.203 F 
ATOM     94  C   UNL A   1      45.905  31.909  37.414  1.00  0.00     0.198 A 
ATOM     95  C   UNL A   1      46.311  33.636  35.798  1.00  0.00     0.198 A 
ATOM     96  F   UNL A   1      46.249  33.137  33.502  1.00  0.00    -0.203 F 
ATOM     97  F   UNL A   1      45.757  31.526  38.690  1.00  0.00    -0.200 F 
ATOM     98  C   UNL A   1      46.188  33.234  37.119  1.00  0.00     0.200 A 
ATOM     99  F   UNL A   1      46.603  34.911  35.510  1.00  0.00    -0.200 F 
ATOM    100  F   UNL A   1      46.336  34.126  38.108  1.00  0.00    -0.200 F 
ENDBRANCH  67  90
ENDBRANCH  41  42
ENDBRANCH  34  36
ENDBRANCH  33  34
ENDBRANCH  32  33
ENDBRANCH  31  32
ENDBRANCH  30  31
ENDBRANCH  29  30
ENDBRANCH  28  29
ENDBRANCH  27  28
ENDBRANCH   1  27
TORSDOF 24
ENDMDL
MODEL 3
REMARK VINA RESULT:      -9.0      3.507      7.940
REMARK SMILES Cc1cc(NC(=O)CC2(CC(=O)OCCOCCOCCOCCOC(=O)c3ccc(-c4c5nc(c(-c6c(F)c(F)c(F)c(F)c6F)c6ccc([nH]6)c(-c6c(F)c(F)c(F)c(F)c6F)c6nc(c(-c7c(F)c(F)c(F)c(F)c7F)c7ccc4[nH]7)C=C6)C=C5)cc3)CCCC2)ccn1
REMARK SMILES IDX 18 1 17 2 16 3 15 4 14 5 13 6 11 7 12 8 10 9 9 10 91 11
REMARK SMILES IDX 94 12 92 13 93 14 8 15 6 16 5 17 7 19 4 20 1 21 2 22 3 23
REMARK SMILES IDX 97 24 96 25 95 26 19 27 20 28 21 29 22 30 23 31 24 32 25 33
REMARK SMILES IDX 26 34 27 35 28 36 29 37 90 38 30 39 89 40 31 41 32 42 33 43
REMARK SMILES IDX 83 44 34 45 88 46 82 47 84 48 35 49 87 50 81 51 80 52 36 54
REMARK SMILES IDX 68 55 48 56 67 57 49 58 52 59 66 60 85 61 50 62 51 63 65 65
REMARK SMILES IDX 86 66 53 67 37 68 38 69 46 70 39 71 40 72 44 73 47 74 41 75
REMARK SMILES IDX 42 76 45 77 43 78 69 79 70 80 78 81 71 82 72 83 76 84 79 85
REMARK SMILES IDX 73 86 74 87 77 88 75 89 54 90 55 91 63 92 56 93 57 94 61 95
REMARK SMILES IDX 64 96 58 97 59 98 62 99 60 100
REMARK H PARENT 5 18 84 53 52 64
REMARK Flexibility Score: inf
ROOT
ATOM      1  C   UNL A   1      42.343  20.788  26.154  1.00  0.00     0.188 C 
ENDROOT
BRANCH   1   2
ATOM      2  C   UNL A   1      41.200  21.829  26.125  1.00  0.00     0.188 C 
BRANCH   2   3
ATOM      3  O   UNL A   1      39.871  21.409  25.860  1.00  0.00    -0.376 OA
BRANCH   3   4
ATOM      4  C   UNL A   1      38.808  22.320  26.064  1.00  0.00     0.202 C 
BRANCH   4   5
ATOM      5  C   UNL A   1      37.381  22.001  25.566  1.00  0.00     0.261 C 
BRANCH   5   6
ATOM      6  O   UNL A   1      36.817  22.792  24.495  1.00  0.00    -0.463 OA
BRANCH   6   7
ATOM      7  C   UNL A   1      35.875  23.698  24.842  1.00  0.00     0.306 C 
ATOM      8  O   UNL A   1      36.077  24.615  25.632  1.00  0.00    -0.252 OA
BRANCH   7   9
ATOM      9  C   UNL A   1      34.473  23.419  24.291  1.00  0.00     0.130 C 
BRANCH   9  10
ATOM     10  C   UNL A   1      33.224  22.916  25.100  1.00  0.00    -0.011 C 
ATOM     11  C   UNL A   1      33.591  21.517  25.650  1.00  0.00     0.008 C 
ATOM     12  C   UNL A   1      32.015  22.544  24.205  1.00  0.00     0.008 C 
ATOM     13  C   UNL A   1      33.349  20.532  24.513  1.00  0.00     0.001 C 
ATOM     14  C   UNL A   1      32.277  21.158  23.638  1.00  0.00     0.001 C 
BRANCH  10  15
ATOM     15  C   UNL A   1      32.784  23.908  26.218  1.00  0.00     0.108 C 
BRANCH  15  16
ATOM     16  C   UNL A   1      31.350  23.996  26.707  1.00  0.00     0.224 C 
ATOM     17  N   UNL A   1      30.469  24.959  26.323  1.00  0.00    -0.326 N 
ATOM     18  H   UNL A   1      29.624  24.940  26.826  1.00  0.00     0.169 HD
ATOM     19  O   UNL A   1      30.936  23.154  27.511  1.00  0.00    -0.275 OA
BRANCH  17  20
ATOM     20  C   UNL A   1      30.521  25.974  25.356  1.00  0.00     0.044 A 
ATOM     21  C   UNL A   1      31.752  29.542  25.419  1.00  0.00     0.067 C 
ATOM     22  C   UNL A   1      31.147  28.256  24.947  1.00  0.00     0.039 A 
ATOM     23  C   UNL A   1      31.254  27.105  25.718  1.00  0.00     0.049 A 
ATOM     24  N   UNL A   1      30.409  28.301  23.815  1.00  0.00    -0.261 NA
ATOM     25  C   UNL A   1      29.788  27.166  23.433  1.00  0.00     0.113 A 
ATOM     26  C   UNL A   1      29.826  25.984  24.155  1.00  0.00     0.046 A 
ENDBRANCH  17  20
ENDBRANCH  15  16
ENDBRANCH  10  15
ENDBRANCH   9  10
ENDBRANCH   7   9
ENDBRANCH   6   7
ENDBRANCH   5   6
ENDBRANCH   4   5
ENDBRANCH   3   4
ENDBRANCH   2   3
ENDBRANCH   1   2
BRANCH   1  27
ATOM     27  O   UNL A   1      41.959  19.515  26.637  1.00  0.00    -0.377 OA
BRANCH  27  28
ATOM     28  C   UNL A   1      42.803  18.452  26.241  1.00  0.00     0.188 C 
BRANCH  28  29
ATOM     29  C   UNL A   1      43.852  18.792  25.169  1.00  0.00     0.188 C 
BRANCH  29  30
ATOM     30  O   UNL A   1      45.068  18.083  25.362  1.00  0.00    -0.376 OA
BRANCH  30  31
ATOM     31  C   UNL A   1      46.298  18.776  25.435  1.00  0.00     0.202 C 
BRANCH  31  32
ATOM     32  C   UNL A   1      46.477  20.060  24.606  1.00  0.00     0.261 C 
BRANCH  32  33
ATOM     33  O   UNL A   1      46.428  21.304  25.312  1.00  0.00    -0.460 OA
BRANCH  33  34
ATOM     34  C   UNL A   1      45.605  22.259  24.828  1.00  0.00     0.338 C 
ATOM     35  O   UNL A   1      44.949  22.215  23.803  1.00  0.00    -0.246 OA
BRANCH  34  36
ATOM     36  C   UNL A   1      45.480  23.303  25.869  1.00  0.00     0.060 A 
ATOM     37  C   UNL A   1      45.575  24.648  25.486  1.00  0.00     0.016 A 
ATOM     38  C   UNL A   1      45.214  22.964  27.199  1.00  0.00     0.016 A 
ATOM     39  C   UNL A   1      45.410  25.659  26.432  1.00  0.00     0.010 A 
ATOM     40  C   UNL A   1      45.091  23.976  28.154  1.00  0.00     0.010 A 
ATOM     41  C   UNL A   1      45.214  25.325  27.778  1.00  0.00    -0.014 A 
BRANCH  41  42
ATOM     42  C   UNL A   1      45.384  26.372  28.812  1.00  0.00     0.031 A 
ATOM     43  C   UNL A   1      44.144  27.040  29.336  1.00  0.00     0.074 A 
ATOM     44  C   UNL A   1      46.595  26.705  29.291  1.00  0.00     0.049 A 
ATOM     45  N   UNL A   1      44.021  28.007  30.209  1.00  0.00    -0.248 NA
ATOM     46  C   UNL A   1      42.865  26.547  28.799  1.00  0.00     0.031 C 
ATOM     47  C   UNL A   1      47.860  26.091  28.897  1.00  0.00     0.029 A 
ATOM     48  N   UNL A   1      46.953  27.653  30.217  1.00  0.00    -0.354 N 
ATOM     49  C   UNL A   1      42.656  28.236  30.321  1.00  0.00     0.074 A 
ATOM     50  C   UNL A   1      41.993  27.335  29.408  1.00  0.00     0.031 C 
ATOM     51  C   UNL A   1      48.860  26.692  29.565  1.00  0.00     0.029 A 
ATOM     52  C   UNL A   1      48.309  27.752  30.407  1.00  0.00     0.049 A 
ATOM     53  H   UNL A   1      46.299  28.211  30.698  1.00  0.00     0.167 HD
ATOM     54  C   UNL A   1      42.014  29.117  31.124  1.00  0.00     0.037 A 
ATOM     55  C   UNL A   1      49.016  28.619  31.160  1.00  0.00     0.037 A 
ATOM     56  C   UNL A   1      42.683  30.022  32.019  1.00  0.00     0.049 A 
ATOM     57  C   UNL A   1      48.280  29.654  31.976  1.00  0.00     0.074 A 
ATOM     58  C   UNL A   1      42.126  30.951  32.879  1.00  0.00     0.029 A 
ATOM     59  N   UNL A   1      44.059  30.119  32.157  1.00  0.00    -0.354 N 
ATOM     60  N   UNL A   1      46.990  29.850  32.101  1.00  0.00    -0.248 NA
ATOM     61  C   UNL A   1      49.103  30.586  32.761  1.00  0.00     0.031 C 
ATOM     62  C   UNL A   1      43.168  31.655  33.490  1.00  0.00     0.029 A 
ATOM     63  C   UNL A   1      44.373  31.115  33.068  1.00  0.00     0.049 A 
ATOM     64  H   UNL A   1      44.716  29.562  31.681  1.00  0.00     0.167 HD
ATOM     65  C   UNL A   1      46.845  30.898  33.003  1.00  0.00     0.074 A 
ATOM     66  C   UNL A   1      48.180  31.290  33.402  1.00  0.00     0.031 C 
ATOM     67  C   UNL A   1      45.710  31.481  33.463  1.00  0.00     0.037 A 
BRANCH  54  68
ATOM     68  C   UNL A   1      40.517  29.168  31.034  1.00  0.00     0.064 A 
ATOM     69  C   UNL A   1      39.859  29.883  30.022  1.00  0.00     0.173 A 
ATOM     70  C   UNL A   1      39.729  28.473  31.964  1.00  0.00     0.173 A 
ATOM     71  F   UNL A   1      40.564  30.581  29.120  1.00  0.00    -0.203 F 
ATOM     72  C   UNL A   1      38.467  29.924  29.963  1.00  0.00     0.198 A 
ATOM     73  C   UNL A   1      38.340  28.488  31.881  1.00  0.00     0.198 A 
ATOM     74  F   UNL A   1      40.307  27.775  32.954  1.00  0.00    -0.203 F 
ATOM     75  F   UNL A   1      37.860  30.660  29.021  1.00  0.00    -0.200 F 
ATOM     76  C   UNL A   1      37.710  29.221  30.887  1.00  0.00     0.200 A 
ATOM     77  F   UNL A   1      37.610  27.798  32.769  1.00  0.00    -0.200 F 
ATOM     78  F   UNL A   1      36.372  29.256  30.825  1.00  0.00    -0.200 F 
ENDBRANCH  54  68
BRANCH  55  79
ATOM     79  C   UNL A   1      50.503  28.562  31.168  1.00  0.00     0.064 A 
ATOM     80  C   UNL A   1      51.195  27.792  32.114  1.00  0.00     0.173 A 
ATOM     81  C   UNL A   1      51.264  29.303  30.252  1.00  0.00     0.173 A 
ATOM     82  F   UNL A   1      50.516  27.087  33.030  1.00  0.00    -0.203 F 
ATOM     83  C   UNL A   1      52.589  27.784  32.158  1.00  0.00     0.198 A 
ATOM     84  C   UNL A   1      52.657  29.270  30.276  1.00  0.00     0.198 A 
ATOM     85  F   UNL A   1      50.654  30.061  29.329  1.00  0.00    -0.203 F 
ATOM     86  F   UNL A   1      53.223  27.084  33.107  1.00  0.00    -0.200 F 
ATOM     87  C   UNL A   1      53.318  28.518  31.235  1.00  0.00     0.200 A 
ATOM     88  F   UNL A   1      53.357  29.972  29.375  1.00  0.00    -0.200 F 
ATOM     89  F   UNL A   1      54.658  28.511  31.278  1.00  0.00    -0.200 F 
ENDBRANCH  55  79
BRANCH  67  90
ATOM     90  C   UNL A   1      45.853  32.569  34.491  1.00  0.00     0.064 A 
ATOM     91  C   UNL A   1      45.851  32.296  35.867  1.00  0.00     0.173 A 
ATOM     92  C   UNL A   1      46.052  33.899  34.087  1.00  0.00     0.173 A 
ATOM     93  F   UNL A   1      45.654  31.044  36.307  1.00  0.00    -0.203 F 
ATOM     94  C   UNL A   1      46.013  33.318  36.799  1.00  0.00     0.198 A 
ATOM     95  C   UNL A   1      46.251  34.912  35.020  1.00  0.00     0.198 A 
ATOM     96  F   UNL A   1      46.075  34.213  32.783  1.00  0.00    -0.203 F 
ATOM     97  F   UNL A   1      45.956  33.042  38.109  1.00  0.00    -0.200 F 
ATOM     98  C   UNL A   1      46.222  34.622  36.376  1.00  0.00     0.200 A 
ATOM     99  F   UNL A   1      46.472  36.167  34.608  1.00  0.00    -0.200 F 
ATOM    100  F   UNL A   1      46.391  35.601  37.275  1.00  0.00    -0.200 F 
ENDBRANCH  67  90
ENDBRANCH  41  42
ENDBRANCH  34  36
ENDBRANCH  33  34
ENDBRANCH  32  33
ENDBRANCH  31  32
ENDBRANCH  30  31
ENDBRANCH  29  30
ENDBRANCH  28  29
ENDBRANCH  27  28
ENDBRANCH   1  27
TORSDOF 24
ENDMDL
