MODEL 1
REMARK VINA RESULT:     -10.4      0.000      0.000
REMARK SMILES COc1ccc(C(=O)N(C)C)cc1NC(=O)[C@H]1[C@@H](C(=O)OCCOCCOCCOCCOC(=O)c2ccc(-c3c4nc(c(-c5c(F)c(F)c(F)c(F)c5F)c5ccc([nH]5)c(-c5c(F)c(F)c(F)c(F)c5F)c5nc(c(-c6c(F)c(F)c(F)c(F)c6F)c6ccc3[nH]6)C=C5)C=C4)cc2)[C@H]2C=C[C@@H]1C2
REMARK SMILES IDX 26 1 25 2 24 3 23 4 22 5 21 6 19 7 20 8 18 9 17 10 102 11
REMARK SMILES IDX 99 12 101 13 103 14 100 15 15 16 14 17 16 19 13 20 3 21 4 22
REMARK SMILES IDX 5 23 12 24 6 25 2 26 1 27 7 28 8 29 9 30 10 31 11 32 27 33
REMARK SMILES IDX 28 34 29 35 30 36 31 37 32 38 33 39 34 40 35 41 36 42 37 43
REMARK SMILES IDX 98 44 38 45 97 46 39 47 40 48 41 49 91 50 42 51 96 52 90 53
REMARK SMILES IDX 92 54 43 55 95 56 89 57 88 58 44 60 76 61 56 62 75 63 57 64
REMARK SMILES IDX 60 65 74 66 93 67 58 68 59 69 73 71 94 72 61 73 45 74 46 75
REMARK SMILES IDX 54 76 47 77 48 78 52 79 55 80 49 81 50 82 53 83 51 84 77 85
REMARK SMILES IDX 78 86 86 87 79 88 80 89 84 90 87 91 81 92 82 93 85 94 83 95
REMARK SMILES IDX 62 96 63 97 71 98 64 99 65 100 69 101 72 102 66 103 67 104
REMARK SMILES IDX 70 105 68 106
REMARK H PARENT 14 18 92 59 60 70
REMARK Flexibility Score: inf
ROOT
ATOM      1  C   UNL A   1      33.989  22.891  22.675  1.00  0.00     0.188 C 
ENDROOT
BRANCH   1   2
ATOM      2  C   UNL A   1      33.123  24.106  22.346  1.00  0.00     0.188 C 
BRANCH   2   3
ATOM      3  O   UNL A   1      33.743  25.320  21.983  1.00  0.00    -0.376 OA
BRANCH   3   4
ATOM      4  C   UNL A   1      32.964  26.509  22.001  1.00  0.00     0.202 C 
BRANCH   4   5
ATOM      5  C   UNL A   1      31.426  26.448  21.882  1.00  0.00     0.261 C 
BRANCH   5   6
ATOM      6  O   UNL A   1      30.675  26.314  23.123  1.00  0.00    -0.463 OA
BRANCH   6   7
ATOM      7  C   UNL A   1      29.793  27.306  23.365  1.00  0.00     0.310 C 
ATOM      8  O   UNL A   1      28.646  27.045  23.731  1.00  0.00    -0.252 OA
BRANCH   7   9
ATOM      9  C   UNL A   1      30.224  28.738  22.969  1.00  0.00     0.119 C 
ATOM     10  C   UNL A   1      30.465  30.118  23.785  1.00  0.00     0.100 C 
ATOM     11  C   UNL A   1      29.297  30.959  23.300  1.00  0.00     0.025 C 
ATOM     12  C   UNL A   1      29.024  29.194  22.025  1.00  0.00     0.027 C 
ATOM     13  C   UNL A   1      27.991  30.346  23.715  1.00  0.00    -0.027 C 
ATOM     14  C   UNL A   1      29.285  30.665  21.807  1.00  0.00     0.017 C 
ATOM     15  C   UNL A   1      27.783  29.316  22.894  1.00  0.00    -0.027 C 
BRANCH  10  16
ATOM     16  C   UNL A   1      30.963  30.431  25.220  1.00  0.00     0.229 C 
ATOM     17  N   UNL A   1      31.626  29.599  26.096  1.00  0.00    -0.323 N 
ATOM     18  H   UNL A   1      31.973  30.099  26.869  1.00  0.00     0.170 HD
ATOM     19  O   UNL A   1      30.763  31.577  25.654  1.00  0.00    -0.274 OA
BRANCH  17  20
ATOM     20  C   UNL A   1      31.945  28.224  26.192  1.00  0.00     0.084 A 
ATOM     21  C   UNL A   1      33.229  27.811  25.803  1.00  0.00     0.142 A 
ATOM     22  C   UNL A   1      33.516  26.457  25.637  1.00  0.00     0.049 A 
ATOM     23  C   UNL A   1      32.527  25.509  25.905  1.00  0.00     0.018 A 
ATOM     24  C   UNL A   1      31.068  27.251  26.686  1.00  0.00     0.044 A 
ATOM     25  C   UNL A   1      31.278  25.887  26.435  1.00  0.00     0.042 A 
BRANCH  21  26
ATOM     26  O   UNL A   1      34.169  28.741  25.440  1.00  0.00    -0.495 OA
ATOM     27  C   UNL A   1      34.934  29.154  26.577  1.00  0.00     0.278 C 
ENDBRANCH  21  26
BRANCH  25  28
ATOM     28  C   UNL A   1      30.215  24.813  26.461  1.00  0.00     0.253 C 
ATOM     29  O   UNL A   1      29.044  25.203  26.527  1.00  0.00    -0.269 OA
ATOM     30  N   UNL A   1      30.491  23.442  26.569  1.00  0.00    -0.345 N 
ATOM     31  C   UNL A   1      31.568  22.717  25.921  1.00  0.00     0.146 C 
ATOM     32  C   UNL A   1      29.436  22.607  27.127  1.00  0.00     0.146 C 
ENDBRANCH  25  28
ENDBRANCH  17  20
ENDBRANCH  10  16
ENDBRANCH   7   9
ENDBRANCH   6   7
ENDBRANCH   5   6
ENDBRANCH   4   5
ENDBRANCH   3   4
ENDBRANCH   2   3
ENDBRANCH   1   2
BRANCH   1  33
ATOM     33  O   UNL A   1      35.017  23.042  23.634  1.00  0.00    -0.377 OA
BRANCH  33  34
ATOM     34  C   UNL A   1      34.905  22.471  24.926  1.00  0.00     0.188 C 
BRANCH  34  35
ATOM     35  C   UNL A   1      35.784  23.072  26.017  1.00  0.00     0.188 C 
BRANCH  35  36
ATOM     36  O   UNL A   1      37.196  22.849  25.955  1.00  0.00    -0.376 OA
BRANCH  36  37
ATOM     37  C   UNL A   1      37.684  21.598  25.475  1.00  0.00     0.202 C 
BRANCH  37  38
ATOM     38  C   UNL A   1      39.131  21.310  25.841  1.00  0.00     0.261 C 
BRANCH  38  39
ATOM     39  O   UNL A   1      39.563  22.257  26.821  1.00  0.00    -0.460 OA
BRANCH  39  40
ATOM     40  C   UNL A   1      40.674  22.941  26.489  1.00  0.00     0.338 C 
ATOM     41  O   UNL A   1      41.571  22.594  25.735  1.00  0.00    -0.246 OA
BRANCH  40  42
ATOM     42  C   UNL A   1      40.547  24.303  27.031  1.00  0.00     0.060 A 
ATOM     43  C   UNL A   1      41.295  25.315  26.418  1.00  0.00     0.016 A 
ATOM     44  C   UNL A   1      39.711  24.583  28.117  1.00  0.00     0.016 A 
ATOM     45  C   UNL A   1      41.251  26.606  26.917  1.00  0.00     0.010 A 
ATOM     46  C   UNL A   1      39.688  25.871  28.639  1.00  0.00     0.010 A 
ATOM     47  C   UNL A   1      40.498  26.865  28.067  1.00  0.00    -0.014 A 
BRANCH  47  48
ATOM     48  C   UNL A   1      40.801  28.088  28.827  1.00  0.00     0.031 A 
ATOM     49  C   UNL A   1      42.207  28.257  29.324  1.00  0.00     0.074 A 
ATOM     50  C   UNL A   1      39.870  29.036  29.001  1.00  0.00     0.049 A 
ATOM     51  N   UNL A   1      42.734  29.229  30.020  1.00  0.00    -0.248 NA
ATOM     52  C   UNL A   1      43.152  27.178  28.985  1.00  0.00     0.031 C 
ATOM     53  C   UNL A   1      38.503  28.981  28.488  1.00  0.00     0.029 A 
ATOM     54  N   UNL A   1      39.943  30.233  29.658  1.00  0.00    -0.354 N 
ATOM     55  C   UNL A   1      44.066  28.879  30.196  1.00  0.00     0.074 A 
ATOM     56  C   UNL A   1      44.262  27.590  29.575  1.00  0.00     0.031 C 
ATOM     57  C   UNL A   1      37.859  30.101  28.856  1.00  0.00     0.029 A 
ATOM     58  C   UNL A   1      38.761  30.926  29.658  1.00  0.00     0.049 A 
ATOM     59  H   UNL A   1      40.764  30.565  30.088  1.00  0.00     0.167 HD
ATOM     60  C   UNL A   1      45.040  29.583  30.817  1.00  0.00     0.037 A 
ATOM     61  C   UNL A   1      38.452  32.087  30.265  1.00  0.00     0.037 A 
ATOM     62  C   UNL A   1      44.814  30.854  31.449  1.00  0.00     0.049 A 
ATOM     63  C   UNL A   1      39.527  32.797  31.048  1.00  0.00     0.074 A 
ATOM     64  C   UNL A   1      45.714  31.655  32.126  1.00  0.00     0.029 A 
ATOM     65  N   UNL A   1      43.587  31.501  31.487  1.00  0.00    -0.354 N 
ATOM     66  N   UNL A   1      40.787  32.472  31.214  1.00  0.00    -0.248 NA
ATOM     67  C   UNL A   1      39.135  34.037  31.727  1.00  0.00     0.031 C 
ATOM     68  C   UNL A   1      45.013  32.758  32.628  1.00  0.00     0.029 A 
ATOM     69  C   UNL A   1      43.696  32.680  32.204  1.00  0.00     0.049 A 
ATOM     70  H   UNL A   1      42.759  31.169  31.067  1.00  0.00     0.167 HD
ATOM     71  C   UNL A   1      41.347  33.482  31.984  1.00  0.00     0.074 A 
ATOM     72  C   UNL A   1      40.288  34.437  32.242  1.00  0.00     0.031 C 
ATOM     73  C   UNL A   1      42.621  33.614  32.435  1.00  0.00     0.037 A 
BRANCH  60  74
ATOM     74  C   UNL A   1      46.406  28.961  30.876  1.00  0.00     0.064 A 
ATOM     75  C   UNL A   1      46.796  28.126  31.936  1.00  0.00     0.173 A 
ATOM     76  C   UNL A   1      47.347  29.219  29.869  1.00  0.00     0.173 A 
ATOM     77  F   UNL A   1      45.944  27.866  32.940  1.00  0.00    -0.203 F 
ATOM     78  C   UNL A   1      48.086  27.604  32.002  1.00  0.00     0.198 A 
ATOM     79  C   UNL A   1      48.623  28.666  29.919  1.00  0.00     0.198 A 
ATOM     80  F   UNL A   1      47.030  30.015  28.836  1.00  0.00    -0.203 F 
ATOM     81  F   UNL A   1      48.455  26.864  33.057  1.00  0.00    -0.200 F 
ATOM     82  C   UNL A   1      48.996  27.869  30.990  1.00  0.00     0.200 A 
ATOM     83  F   UNL A   1      49.499  28.916  28.935  1.00  0.00    -0.200 F 
ATOM     84  F   UNL A   1      50.237  27.367  31.054  1.00  0.00    -0.200 F 
ENDBRANCH  60  74
BRANCH  61  85
ATOM     85  C   UNL A   1      37.078  32.641  30.157  1.00  0.00     0.064 A 
ATOM     86  C   UNL A   1      36.713  33.459  29.079  1.00  0.00     0.173 A 
ATOM     87  C   UNL A   1      36.104  32.371  31.130  1.00  0.00     0.173 A 
ATOM     88  F   UNL A   1      37.614  33.762  28.133  1.00  0.00    -0.203 F 
ATOM     89  C   UNL A   1      35.432  34.000  28.989  1.00  0.00     0.198 A 
ATOM     90  C   UNL A   1      34.815  32.888  31.022  1.00  0.00     0.198 A 
ATOM     91  F   UNL A   1      36.401  31.594  32.181  1.00  0.00    -0.203 F 
ATOM     92  F   UNL A   1      35.123  34.816  27.971  1.00  0.00    -0.200 F 
ATOM     93  C   UNL A   1      34.483  33.710  29.957  1.00  0.00     0.200 A 
ATOM     94  F   UNL A   1      33.896  32.592  31.952  1.00  0.00    -0.200 F 
ATOM     95  F   UNL A   1      33.250  34.227  29.866  1.00  0.00    -0.200 F 
ENDBRANCH  61  85
BRANCH  73  96
ATOM     96  C   UNL A   1      42.946  34.857  33.213  1.00  0.00     0.064 A 
ATOM     97  C   UNL A   1      43.305  36.055  32.580  1.00  0.00     0.173 A 
ATOM     98  C   UNL A   1      42.853  34.856  34.614  1.00  0.00     0.173 A 
ATOM     99  F   UNL A   1      43.419  36.105  31.243  1.00  0.00    -0.203 F 
ATOM    100  C   UNL A   1      43.592  37.198  33.321  1.00  0.00     0.198 A 
ATOM    101  C   UNL A   1      43.102  36.011  35.350  1.00  0.00     0.198 A 
ATOM    102  F   UNL A   1      42.502  33.739  35.268  1.00  0.00    -0.203 F 
ATOM    103  F   UNL A   1      43.989  38.316  32.698  1.00  0.00    -0.200 F 
ATOM    104  C   UNL A   1      43.481  37.178  34.704  1.00  0.00     0.200 A 
ATOM    105  F   UNL A   1      42.975  35.994  36.683  1.00  0.00    -0.200 F 
ATOM    106  F   UNL A   1      43.748  38.282  35.415  1.00  0.00    -0.200 F 
ENDBRANCH  73  96
ENDBRANCH  47  48
ENDBRANCH  40  42
ENDBRANCH  39  40
ENDBRANCH  38  39
ENDBRANCH  37  38
ENDBRANCH  36  37
ENDBRANCH  35  36
ENDBRANCH  34  35
ENDBRANCH  33  34
ENDBRANCH   1  33
TORSDOF 24
ENDMDL
MODEL 2
REMARK VINA RESULT:     -10.1      4.051      9.682
REMARK SMILES COc1ccc(C(=O)N(C)C)cc1NC(=O)[C@H]1[C@@H](C(=O)OCCOCCOCCOCCOC(=O)c2ccc(-c3c4nc(c(-c5c(F)c(F)c(F)c(F)c5F)c5ccc([nH]5)c(-c5c(F)c(F)c(F)c(F)c5F)c5nc(c(-c6c(F)c(F)c(F)c(F)c6F)c6ccc3[nH]6)C=C5)C=C4)cc2)[C@H]2C=C[C@@H]1C2
REMARK SMILES IDX 26 1 25 2 24 3 23 4 22 5 21 6 19 7 20 8 18 9 17 10 102 11
REMARK SMILES IDX 99 12 101 13 103 14 100 15 15 16 14 17 16 19 13 20 3 21 4 22
REMARK SMILES IDX 5 23 12 24 6 25 2 26 1 27 7 28 8 29 9 30 10 31 11 32 27 33
REMARK SMILES IDX 28 34 29 35 30 36 31 37 32 38 33 39 34 40 35 41 36 42 37 43
REMARK SMILES IDX 98 44 38 45 97 46 39 47 40 48 41 49 91 50 42 51 96 52 90 53
REMARK SMILES IDX 92 54 43 55 95 56 89 57 88 58 44 60 76 61 56 62 75 63 57 64
REMARK SMILES IDX 60 65 74 66 93 67 58 68 59 69 73 71 94 72 61 73 45 74 46 75
REMARK SMILES IDX 54 76 47 77 48 78 52 79 55 80 49 81 50 82 53 83 51 84 77 85
REMARK SMILES IDX 78 86 86 87 79 88 80 89 84 90 87 91 81 92 82 93 85 94 83 95
REMARK SMILES IDX 62 96 63 97 71 98 64 99 65 100 69 101 72 102 66 103 67 104
REMARK SMILES IDX 70 105 68 106
REMARK H PARENT 14 18 92 59 60 70
REMARK Flexibility Score: inf
ROOT
ATOM      1  C   UNL A   1      35.031  33.365  28.030  1.00  0.00     0.188 C 
ENDROOT
BRANCH   1   2
ATOM      2  C   UNL A   1      34.875  31.881  27.700  1.00  0.00     0.188 C 
BRANCH   2   3
ATOM      3  O   UNL A   1      33.583  31.316  27.644  1.00  0.00    -0.376 OA
BRANCH   3   4
ATOM      4  C   UNL A   1      33.461  29.940  27.311  1.00  0.00     0.202 C 
BRANCH   4   5
ATOM      5  C   UNL A   1      33.543  29.471  25.842  1.00  0.00     0.261 C 
BRANCH   5   6
ATOM      6  O   UNL A   1      32.330  28.910  25.262  1.00  0.00    -0.463 OA
BRANCH   6   7
ATOM      7  C   UNL A   1      32.530  27.896  24.394  1.00  0.00     0.310 C 
ATOM      8  O   UNL A   1      32.599  28.117  23.184  1.00  0.00    -0.252 OA
BRANCH   7   9
ATOM      9  C   UNL A   1      32.462  26.460  24.966  1.00  0.00     0.119 C 
ATOM     10  C   UNL A   1      32.532  24.976  24.319  1.00  0.00     0.100 C 
ATOM     11  C   UNL A   1      31.104  24.499  24.511  1.00  0.00     0.025 C 
ATOM     12  C   UNL A   1      30.988  26.417  25.570  1.00  0.00     0.027 C 
ATOM     13  C   UNL A   1      30.148  25.350  23.725  1.00  0.00    -0.027 C 
ATOM     14  C   UNL A   1      30.796  24.963  25.927  1.00  0.00     0.017 C 
ATOM     15  C   UNL A   1      30.016  26.489  24.404  1.00  0.00    -0.027 C 
BRANCH  10  16
ATOM     16  C   UNL A   1      33.275  24.386  23.092  1.00  0.00     0.229 C 
ATOM     17  N   UNL A   1      33.908  23.167  22.979  1.00  0.00    -0.323 N 
ATOM     18  H   UNL A   1      34.148  22.976  22.044  1.00  0.00     0.170 HD
ATOM     19  O   UNL A   1      33.307  25.077  22.061  1.00  0.00    -0.274 OA
BRANCH  17  20
ATOM     20  C   UNL A   1      34.308  22.115  23.836  1.00  0.00     0.084 A 
ATOM     21  C   UNL A   1      35.657  22.046  24.219  1.00  0.00     0.142 A 
ATOM     22  C   UNL A   1      36.156  20.907  24.847  1.00  0.00     0.049 A 
ATOM     23  C   UNL A   1      35.292  19.848  25.135  1.00  0.00     0.018 A 
ATOM     24  C   UNL A   1      33.431  21.155  24.357  1.00  0.00     0.044 A 
ATOM     25  C   UNL A   1      33.907  19.950  24.894  1.00  0.00     0.042 A 
BRANCH  21  26
ATOM     26  O   UNL A   1      36.527  23.037  23.846  1.00  0.00    -0.495 OA
ATOM     27  C   UNL A   1      36.955  23.788  24.988  1.00  0.00     0.278 C 
ENDBRANCH  21  26
BRANCH  25  28
ATOM     28  C   UNL A   1      33.115  18.669  25.022  1.00  0.00     0.253 C 
ATOM     29  O   UNL A   1      32.371  18.582  26.006  1.00  0.00    -0.269 OA
ATOM     30  N   UNL A   1      33.295  17.552  24.194  1.00  0.00    -0.345 N 
ATOM     31  C   UNL A   1      33.536  17.559  22.763  1.00  0.00     0.146 C 
ATOM     32  C   UNL A   1      32.904  16.262  24.746  1.00  0.00     0.146 C 
ENDBRANCH  25  28
ENDBRANCH  17  20
ENDBRANCH  10  16
ENDBRANCH   7   9
ENDBRANCH   6   7
ENDBRANCH   5   6
ENDBRANCH   4   5
ENDBRANCH   3   4
ENDBRANCH   2   3
ENDBRANCH   1   2
BRANCH   1  33
ATOM     33  O   UNL A   1      33.889  34.194  27.935  1.00  0.00    -0.377 OA
BRANCH  33  34
ATOM     34  C   UNL A   1      33.184  34.608  29.093  1.00  0.00     0.188 C 
BRANCH  34  35
ATOM     35  C   UNL A   1      34.025  34.971  30.312  1.00  0.00     0.188 C 
BRANCH  35  36
ATOM     36  O   UNL A   1      33.864  34.196  31.505  1.00  0.00    -0.376 OA
BRANCH  36  37
ATOM     37  C   UNL A   1      34.416  32.884  31.564  1.00  0.00     0.202 C 
BRANCH  37  38
ATOM     38  C   UNL A   1      35.919  32.848  31.788  1.00  0.00     0.261 C 
BRANCH  38  39
ATOM     39  O   UNL A   1      36.264  31.631  32.453  1.00  0.00    -0.460 OA
BRANCH  39  40
ATOM     40  C   UNL A   1      37.020  31.789  33.556  1.00  0.00     0.338 C 
ATOM     41  O   UNL A   1      36.717  32.350  34.599  1.00  0.00    -0.246 OA
BRANCH  40  42
ATOM     42  C   UNL A   1      38.238  30.981  33.391  1.00  0.00     0.060 A 
ATOM     43  C   UNL A   1      39.334  31.290  34.206  1.00  0.00     0.016 A 
ATOM     44  C   UNL A   1      38.306  29.942  32.456  1.00  0.00     0.016 A 
ATOM     45  C   UNL A   1      40.522  30.593  34.059  1.00  0.00     0.010 A 
ATOM     46  C   UNL A   1      39.506  29.262  32.286  1.00  0.00     0.010 A 
ATOM     47  C   UNL A   1      40.623  29.626  33.054  1.00  0.00    -0.014 A 
BRANCH  47  48
ATOM     48  C   UNL A   1      41.971  29.223  32.620  1.00  0.00     0.031 A 
ATOM     49  C   UNL A   1      42.627  30.054  31.557  1.00  0.00     0.074 A 
ATOM     50  C   UNL A   1      42.602  28.198  33.209  1.00  0.00     0.049 A 
ATOM     51  N   UNL A   1      43.798  29.913  30.994  1.00  0.00    -0.248 NA
ATOM     52  C   UNL A   1      41.855  31.206  31.060  1.00  0.00     0.031 C 
ATOM     53  C   UNL A   1      42.063  27.387  34.298  1.00  0.00     0.029 A 
ATOM     54  N   UNL A   1      43.841  27.670  32.968  1.00  0.00    -0.354 N 
ATOM     55  C   UNL A   1      43.900  30.957  30.085  1.00  0.00     0.074 A 
ATOM     56  C   UNL A   1      42.662  31.700  30.136  1.00  0.00     0.031 C 
ATOM     57  C   UNL A   1      42.971  26.454  34.632  1.00  0.00     0.029 A 
ATOM     58  C   UNL A   1      44.131  26.585  33.753  1.00  0.00     0.049 A 
ATOM     59  H   UNL A   1      44.463  28.034  32.297  1.00  0.00     0.167 HD
ATOM     60  C   UNL A   1      44.945  31.271  29.285  1.00  0.00     0.037 A 
ATOM     61  C   UNL A   1      45.212  25.783  33.734  1.00  0.00     0.037 A 
ATOM     62  C   UNL A   1      46.159  30.502  29.236  1.00  0.00     0.049 A 
ATOM     63  C   UNL A   1      46.316  26.087  32.753  1.00  0.00     0.074 A 
ATOM     64  C   UNL A   1      47.280  30.705  28.454  1.00  0.00     0.029 A 
ATOM     65  N   UNL A   1      46.397  29.367  29.999  1.00  0.00    -0.354 N 
ATOM     66  N   UNL A   1      46.418  27.075  31.895  1.00  0.00    -0.248 NA
ATOM     67  C   UNL A   1      47.455  25.162  32.739  1.00  0.00     0.031 C 
ATOM     68  C   UNL A   1      48.172  29.655  28.701  1.00  0.00     0.029 A 
ATOM     69  C   UNL A   1      47.638  28.839  29.686  1.00  0.00     0.049 A 
ATOM     70  H   UNL A   1      45.775  28.993  30.665  1.00  0.00     0.167 HD
ATOM     71  C   UNL A   1      47.644  26.913  31.266  1.00  0.00     0.074 A 
ATOM     72  C   UNL A   1      48.255  25.736  31.851  1.00  0.00     0.031 C 
ATOM     73  C   UNL A   1      48.220  27.668  30.296  1.00  0.00     0.037 A 
BRANCH  60  74
ATOM     74  C   UNL A   1      44.786  32.458  28.379  1.00  0.00     0.064 A 
ATOM     75  C   UNL A   1      45.097  33.761  28.801  1.00  0.00     0.173 A 
ATOM     76  C   UNL A   1      44.299  32.294  27.075  1.00  0.00     0.173 A 
ATOM     77  F   UNL A   1      45.544  33.979  30.048  1.00  0.00    -0.203 F 
ATOM     78  C   UNL A   1      44.890  34.856  27.965  1.00  0.00     0.198 A 
ATOM     79  C   UNL A   1      44.128  33.386  26.229  1.00  0.00     0.198 A 
ATOM     80  F   UNL A   1      43.981  31.072  26.621  1.00  0.00    -0.203 F 
ATOM     81  F   UNL A   1      45.131  36.096  28.414  1.00  0.00    -0.200 F 
ATOM     82  C   UNL A   1      44.412  34.666  26.677  1.00  0.00     0.200 A 
ATOM     83  F   UNL A   1      43.675  33.200  24.981  1.00  0.00    -0.200 F 
ATOM     84  F   UNL A   1      44.214  35.720  25.873  1.00  0.00    -0.200 F 
ENDBRANCH  60  74
BRANCH  61  85
ATOM     85  C   UNL A   1      45.299  24.629  34.666  1.00  0.00     0.064 A 
ATOM     86  C   UNL A   1      45.808  24.785  35.962  1.00  0.00     0.173 A 
ATOM     87  C   UNL A   1      44.881  23.347  34.279  1.00  0.00     0.173 A 
ATOM     88  F   UNL A   1      46.239  25.986  36.372  1.00  0.00    -0.203 F 
ATOM     89  C   UNL A   1      45.914  23.698  36.828  1.00  0.00     0.198 A 
ATOM     90  C   UNL A   1      44.960  22.268  35.156  1.00  0.00     0.198 A 
ATOM     91  F   UNL A   1      44.386  23.143  33.050  1.00  0.00    -0.203 F 
ATOM     92  F   UNL A   1      46.448  23.867  38.046  1.00  0.00    -0.200 F 
ATOM     93  C   UNL A   1      45.484  22.443  36.427  1.00  0.00     0.200 A 
ATOM     94  F   UNL A   1      44.528  21.060  34.770  1.00  0.00    -0.200 F 
ATOM     95  F   UNL A   1      45.582  21.400  37.263  1.00  0.00    -0.200 F 
ENDBRANCH  61  85
BRANCH  73  96
ATOM     96  C   UNL A   1      49.595  27.269  29.843  1.00  0.00     0.064 A 
ATOM     97  C   UNL A   1      49.796  26.429  28.738  1.00  0.00     0.173 A 
ATOM     98  C   UNL A   1      50.728  27.774  30.500  1.00  0.00     0.173 A 
ATOM     99  F   UNL A   1      48.746  25.910  28.083  1.00  0.00    -0.203 F 
ATOM    100  C   UNL A   1      51.081  26.081  28.330  1.00  0.00     0.198 A 
ATOM    101  C   UNL A   1      52.011  27.456  30.065  1.00  0.00     0.198 A 
ATOM    102  F   UNL A   1      50.590  28.591  31.555  1.00  0.00    -0.203 F 
ATOM    103  F   UNL A   1      51.249  25.230  27.308  1.00  0.00    -0.200 F 
ATOM    104  C   UNL A   1      52.186  26.602  28.986  1.00  0.00     0.200 A 
ATOM    105  F   UNL A   1      53.076  27.976  30.689  1.00  0.00    -0.200 F 
ATOM    106  F   UNL A   1      53.422  26.273  28.585  1.00  0.00    -0.200 F 
ENDBRANCH  73  96
ENDBRANCH  47  48
ENDBRANCH  40  42
ENDBRANCH  39  40
ENDBRANCH  38  39
ENDBRANCH  37  38
ENDBRANCH  36  37
ENDBRANCH  35  36
ENDBRANCH  34  35
ENDBRANCH  33  34
ENDBRANCH   1  33
TORSDOF 24
ENDMDL
MODEL 3
REMARK VINA RESULT:     -10.0      3.236      9.045
REMARK SMILES COc1ccc(C(=O)N(C)C)cc1NC(=O)[C@H]1[C@@H](C(=O)OCCOCCOCCOCCOC(=O)c2ccc(-c3c4nc(c(-c5c(F)c(F)c(F)c(F)c5F)c5ccc([nH]5)c(-c5c(F)c(F)c(F)c(F)c5F)c5nc(c(-c6c(F)c(F)c(F)c(F)c6F)c6ccc3[nH]6)C=C5)C=C4)cc2)[C@H]2C=C[C@@H]1C2
REMARK SMILES IDX 26 1 25 2 24 3 23 4 22 5 21 6 19 7 20 8 18 9 17 10 102 11
REMARK SMILES IDX 99 12 101 13 103 14 100 15 15 16 14 17 16 19 13 20 3 21 4 22
REMARK SMILES IDX 5 23 12 24 6 25 2 26 1 27 7 28 8 29 9 30 10 31 11 32 27 33
REMARK SMILES IDX 28 34 29 35 30 36 31 37 32 38 33 39 34 40 35 41 36 42 37 43
REMARK SMILES IDX 98 44 38 45 97 46 39 47 40 48 41 49 91 50 42 51 96 52 90 53
REMARK SMILES IDX 92 54 43 55 95 56 89 57 88 58 44 60 76 61 56 62 75 63 57 64
REMARK SMILES IDX 60 65 74 66 93 67 58 68 59 69 73 71 94 72 61 73 45 74 46 75
REMARK SMILES IDX 54 76 47 77 48 78 52 79 55 80 49 81 50 82 53 83 51 84 77 85
REMARK SMILES IDX 78 86 86 87 79 88 80 89 84 90 87 91 81 92 82 93 85 94 83 95
REMARK SMILES IDX 62 96 63 97 71 98 64 99 65 100 69 101 72 102 66 103 67 104
REMARK SMILES IDX 70 105 68 106
REMARK H PARENT 14 18 92 59 60 70
REMARK Flexibility Score: inf
ROOT
ATOM      1  C   UNL A   1      33.899  33.646  28.662  1.00  0.00     0.188 C 
ENDROOT
BRANCH   1   2
ATOM      2  C   UNL A   1      32.803  33.494  27.608  1.00  0.00     0.188 C 
BRANCH   2   3
ATOM      3  O   UNL A   1      32.342  32.204  27.270  1.00  0.00    -0.376 OA
BRANCH   3   4
ATOM      4  C   UNL A   1      33.220  31.102  27.455  1.00  0.00     0.202 C 
BRANCH   4   5
ATOM      5  C   UNL A   1      33.523  30.128  26.295  1.00  0.00     0.261 C 
BRANCH   5   6
ATOM      6  O   UNL A   1      33.028  28.766  26.435  1.00  0.00    -0.463 OA
BRANCH   6   7
ATOM      7  C   UNL A   1      33.329  27.942  25.408  1.00  0.00     0.310 C 
ATOM      8  O   UNL A   1      33.819  28.393  24.372  1.00  0.00    -0.252 OA
BRANCH   7   9
ATOM      9  C   UNL A   1      32.847  26.477  25.521  1.00  0.00     0.119 C 
ATOM     10  C   UNL A   1      32.793  25.217  24.503  1.00  0.00     0.100 C 
ATOM     11  C   UNL A   1      31.298  25.082  24.273  1.00  0.00     0.025 C 
ATOM     12  C   UNL A   1      31.288  26.664  25.794  1.00  0.00     0.027 C 
ATOM     13  C   UNL A   1      30.751  26.306  23.596  1.00  0.00    -0.027 C 
ATOM     14  C   UNL A   1      30.738  25.263  25.676  1.00  0.00     0.017 C 
ATOM     15  C   UNL A   1      30.673  27.250  24.535  1.00  0.00    -0.027 C 
BRANCH  10  16
ATOM     16  C   UNL A   1      33.694  24.765  23.323  1.00  0.00     0.229 C 
ATOM     17  N   UNL A   1      34.351  23.566  23.160  1.00  0.00    -0.323 N 
ATOM     18  H   UNL A   1      34.712  23.478  22.249  1.00  0.00     0.170 HD
ATOM     19  O   UNL A   1      33.848  25.565  22.387  1.00  0.00    -0.274 OA
BRANCH  17  20
ATOM     20  C   UNL A   1      34.653  22.425  23.941  1.00  0.00     0.084 A 
ATOM     21  C   UNL A   1      35.985  22.224  24.338  1.00  0.00     0.142 A 
ATOM     22  C   UNL A   1      36.383  21.006  24.885  1.00  0.00     0.049 A 
ATOM     23  C   UNL A   1      35.435  19.999  25.079  1.00  0.00     0.018 A 
ATOM     24  C   UNL A   1      33.696  21.500  24.375  1.00  0.00     0.044 A 
ATOM     25  C   UNL A   1      34.068  20.225  24.826  1.00  0.00     0.042 A 
BRANCH  21  26
ATOM     26  O   UNL A   1      36.936  23.170  24.054  1.00  0.00    -0.495 OA
ATOM     27  C   UNL A   1      37.440  23.755  25.259  1.00  0.00     0.278 C 
ENDBRANCH  21  26
BRANCH  25  28
ATOM     28  C   UNL A   1      33.178  19.003  24.846  1.00  0.00     0.253 C 
ATOM     29  O   UNL A   1      31.963  19.212  24.935  1.00  0.00    -0.269 OA
ATOM     30  N   UNL A   1      33.658  17.688  24.924  1.00  0.00    -0.345 N 
ATOM     31  C   UNL A   1      34.821  17.144  24.247  1.00  0.00     0.146 C 
ATOM     32  C   UNL A   1      32.749  16.694  25.480  1.00  0.00     0.146 C 
ENDBRANCH  25  28
ENDBRANCH  17  20
ENDBRANCH  10  16
ENDBRANCH   7   9
ENDBRANCH   6   7
ENDBRANCH   5   6
ENDBRANCH   4   5
ENDBRANCH   3   4
ENDBRANCH   2   3
ENDBRANCH   1   2
BRANCH   1  33
ATOM     33  O   UNL A   1      34.083  34.915  29.257  1.00  0.00    -0.377 OA
BRANCH  33  34
ATOM     34  C   UNL A   1      32.979  35.750  29.562  1.00  0.00     0.188 C 
BRANCH  34  35
ATOM     35  C   UNL A   1      32.592  35.860  31.033  1.00  0.00     0.188 C 
BRANCH  35  36
ATOM     36  O   UNL A   1      33.258  36.837  31.841  1.00  0.00    -0.376 OA
BRANCH  36  37
ATOM     37  C   UNL A   1      34.399  36.452  32.602  1.00  0.00     0.202 C 
BRANCH  37  38
ATOM     38  C   UNL A   1      34.309  35.059  33.202  1.00  0.00     0.261 C 
BRANCH  38  39
ATOM     39  O   UNL A   1      35.447  34.298  32.791  1.00  0.00    -0.460 OA
BRANCH  39  40
ATOM     40  C   UNL A   1      35.156  33.097  32.256  1.00  0.00     0.338 C 
ATOM     41  O   UNL A   1      34.053  32.598  32.088  1.00  0.00    -0.246 OA
BRANCH  40  42
ATOM     42  C   UNL A   1      36.396  32.538  31.697  1.00  0.00     0.060 A 
ATOM     43  C   UNL A   1      37.210  31.786  32.553  1.00  0.00     0.016 A 
ATOM     44  C   UNL A   1      36.755  32.746  30.360  1.00  0.00     0.016 A 
ATOM     45  C   UNL A   1      38.412  31.276  32.092  1.00  0.00     0.010 A 
ATOM     46  C   UNL A   1      37.976  32.261  29.904  1.00  0.00     0.010 A 
ATOM     47  C   UNL A   1      38.821  31.572  30.788  1.00  0.00    -0.014 A 
BRANCH  47  48
ATOM     48  C   UNL A   1      40.248  31.416  30.463  1.00  0.00     0.031 A 
ATOM     49  C   UNL A   1      41.145  32.591  30.724  1.00  0.00     0.074 A 
ATOM     50  C   UNL A   1      40.726  30.246  30.017  1.00  0.00     0.049 A 
ATOM     51  N   UNL A   1      42.429  32.720  30.522  1.00  0.00    -0.248 NA
ATOM     52  C   UNL A   1      40.502  33.786  31.300  1.00  0.00     0.031 C 
ATOM     53  C   UNL A   1      39.934  29.036  29.805  1.00  0.00     0.029 A 
ATOM     54  N   UNL A   1      41.999  29.889  29.667  1.00  0.00    -0.354 N 
ATOM     55  C   UNL A   1      42.743  34.004  30.946  1.00  0.00     0.074 A 
ATOM     56  C   UNL A   1      41.516  34.631  31.378  1.00  0.00     0.031 C 
ATOM     57  C   UNL A   1      40.745  28.064  29.354  1.00  0.00     0.029 A 
ATOM     58  C   UNL A   1      42.097  28.600  29.214  1.00  0.00     0.049 A 
ATOM     59  H   UNL A   1      42.770  30.498  29.735  1.00  0.00     0.167 HD
ATOM     60  C   UNL A   1      43.958  34.600  30.979  1.00  0.00     0.037 A 
ATOM     61  C   UNL A   1      43.166  27.948  28.721  1.00  0.00     0.037 A 
ATOM     62  C   UNL A   1      45.162  33.962  30.521  1.00  0.00     0.049 A 
ATOM     63  C   UNL A   1      44.487  28.673  28.662  1.00  0.00     0.074 A 
ATOM     64  C   UNL A   1      46.448  34.467  30.484  1.00  0.00     0.029 A 
ATOM     65  N   UNL A   1      45.218  32.674  30.006  1.00  0.00    -0.354 N 
ATOM     66  N   UNL A   1      44.789  29.884  29.066  1.00  0.00    -0.248 NA
ATOM     67  C   UNL A   1      45.615  27.937  28.080  1.00  0.00     0.031 C 
ATOM     68  C   UNL A   1      47.270  33.505  29.888  1.00  0.00     0.029 A 
ATOM     69  C   UNL A   1      46.512  32.375  29.619  1.00  0.00     0.049 A 
ATOM     70  H   UNL A   1      44.449  32.064  29.926  1.00  0.00     0.167 HD
ATOM     71  C   UNL A   1      46.146  30.044  28.821  1.00  0.00     0.074 A 
ATOM     72  C   UNL A   1      46.609  28.798  28.242  1.00  0.00     0.031 C 
ATOM     73  C   UNL A   1      46.941  31.119  29.053  1.00  0.00     0.037 A 
BRANCH  60  74
ATOM     74  C   UNL A   1      44.016  36.015  31.479  1.00  0.00     0.064 A 
ATOM     75  C   UNL A   1      43.966  37.114  30.605  1.00  0.00     0.173 A 
ATOM     76  C   UNL A   1      44.143  36.278  32.850  1.00  0.00     0.173 A 
ATOM     77  F   UNL A   1      43.869  36.919  29.281  1.00  0.00    -0.203 F 
ATOM     78  C   UNL A   1      44.077  38.417  31.083  1.00  0.00     0.198 A 
ATOM     79  C   UNL A   1      44.218  37.583  33.328  1.00  0.00     0.198 A 
ATOM     80  F   UNL A   1      44.202  35.266  33.730  1.00  0.00    -0.203 F 
ATOM     81  F   UNL A   1      44.093  39.446  30.224  1.00  0.00    -0.200 F 
ATOM     82  C   UNL A   1      44.196  38.651  32.445  1.00  0.00     0.200 A 
ATOM     83  F   UNL A   1      44.324  37.807  34.645  1.00  0.00    -0.200 F 
ATOM     84  F   UNL A   1      44.304  39.905  32.904  1.00  0.00    -0.200 F 
ENDBRANCH  60  74
BRANCH  61  85
ATOM     85  C   UNL A   1      43.030  26.545  28.249  1.00  0.00     0.064 A 
ATOM     86  C   UNL A   1      42.716  26.261  26.913  1.00  0.00     0.173 A 
ATOM     87  C   UNL A   1      43.205  25.461  29.123  1.00  0.00     0.173 A 
ATOM     88  F   UNL A   1      42.520  27.263  26.044  1.00  0.00    -0.203 F 
ATOM     89  C   UNL A   1      42.564  24.947  26.475  1.00  0.00     0.198 A 
ATOM     90  C   UNL A   1      43.081  24.148  28.676  1.00  0.00     0.198 A 
ATOM     91  F   UNL A   1      43.506  25.678  30.411  1.00  0.00    -0.203 F 
ATOM     92  F   UNL A   1      42.218  24.705  25.202  1.00  0.00    -0.200 F 
ATOM     93  C   UNL A   1      42.752  23.892  27.354  1.00  0.00     0.200 A 
ATOM     94  F   UNL A   1      43.280  23.131  29.526  1.00  0.00    -0.200 F 
ATOM     95  F   UNL A   1      42.609  22.629  26.930  1.00  0.00    -0.200 F 
ENDBRANCH  61  85
BRANCH  73  96
ATOM     96  C   UNL A   1      48.400  30.976  28.726  1.00  0.00     0.064 A 
ATOM     97  C   UNL A   1      48.929  31.398  27.498  1.00  0.00     0.173 A 
ATOM     98  C   UNL A   1      49.287  30.447  29.677  1.00  0.00     0.173 A 
ATOM     99  F   UNL A   1      48.120  31.898  26.551  1.00  0.00    -0.203 F 
ATOM    100  C   UNL A   1      50.286  31.264  27.220  1.00  0.00     0.198 A 
ATOM    101  C   UNL A   1      50.650  30.352  29.411  1.00  0.00     0.198 A 
ATOM    102  F   UNL A   1      48.835  30.039  30.872  1.00  0.00    -0.203 F 
ATOM    103  F   UNL A   1      50.760  31.621  26.018  1.00  0.00    -0.200 F 
ATOM    104  C   UNL A   1      51.147  30.751  28.179  1.00  0.00     0.200 A 
ATOM    105  F   UNL A   1      51.481  29.874  30.346  1.00  0.00    -0.200 F 
ATOM    106  F   UNL A   1      52.455  30.633  27.914  1.00  0.00    -0.200 F 
ENDBRANCH  73  96
ENDBRANCH  47  48
ENDBRANCH  40  42
ENDBRANCH  39  40
ENDBRANCH  38  39
ENDBRANCH  37  38
ENDBRANCH  36  37
ENDBRANCH  35  36
ENDBRANCH  34  35
ENDBRANCH  33  34
ENDBRANCH   1  33
TORSDOF 24
ENDMDL
