MODEL 1
REMARK VINA RESULT:     -10.6      0.000      0.000
REMARK SMILES Cc1cc2nc(S/C(=C\c3ccc(O)cc3)C(=O)OCCOCCOCCOCCOC(=O)c3ccc(-c4c5nc(c(-c6c(F)c(F)c(F)c(F)c6F)c6ccc([nH]6)c(-c6c(F)c(F)c(F)c(F)c6F)c6nc(c(-c7c(F)c(F)c(F)c(F)c7F)c7ccc4[nH]7)C=C6)C=C5)cc3)[nH]c2cc1C
REMARK SMILES IDX 25 1 24 2 23 3 22 4 21 5 20 6 19 7 17 8 18 9 8 10 9 11 7 12
REMARK SMILES IDX 6 13 1 14 2 15 3 16 100 17 4 18 99 19 101 20 5 21 98 22
REMARK SMILES IDX 97 23 10 25 11 26 16 27 12 28 15 29 13 30 14 31 26 33 27 34
REMARK SMILES IDX 28 35 29 36 30 37 31 38 32 39 33 40 34 41 35 42 96 43 36 44
REMARK SMILES IDX 95 45 37 46 38 47 39 48 89 49 40 50 94 51 88 52 90 53 41 54
REMARK SMILES IDX 93 55 87 56 86 57 42 59 74 60 54 61 73 62 55 63 58 64 72 65
REMARK SMILES IDX 91 66 56 67 57 68 71 70 92 71 59 72 43 73 44 74 52 75 45 76
REMARK SMILES IDX 46 77 50 78 53 79 47 80 48 81 51 82 49 83 75 84 76 85 84 86
REMARK SMILES IDX 77 87 78 88 82 89 85 90 79 91 80 92 83 93 81 94 60 95 61 96
REMARK SMILES IDX 69 97 62 98 63 99 67 100 70 101 64 102 65 103 68 104 66 105
REMARK H PARENT 97 24 14 32 90 58 58 69
REMARK Flexibility Score: inf
ROOT
ATOM      1  O   UNL A   1      42.693  21.768  26.782  1.00  0.00    -0.377 OA
ENDROOT
BRANCH   1   2
ATOM      2  C   UNL A   1      41.810  20.822  26.199  1.00  0.00     0.188 C 
BRANCH   2   3
ATOM      3  C   UNL A   1      40.338  20.955  26.640  1.00  0.00     0.188 C 
BRANCH   3   4
ATOM      4  O   UNL A   1      39.668  22.037  26.016  1.00  0.00    -0.376 OA
BRANCH   4   5
ATOM      5  C   UNL A   1      38.355  21.889  25.511  1.00  0.00     0.202 C 
BRANCH   5   6
ATOM      6  C   UNL A   1      37.302  23.012  25.520  1.00  0.00     0.261 C 
BRANCH   6   7
ATOM      7  O   UNL A   1      35.971  22.642  25.872  1.00  0.00    -0.459 OA
BRANCH   7   8
ATOM      8  C   UNL A   1      35.051  22.495  24.888  1.00  0.00     0.345 C 
ATOM      9  O   UNL A   1      34.998  23.163  23.868  1.00  0.00    -0.246 OA
BRANCH   8  10
ATOM     10  C   UNL A   1      34.185  21.289  25.195  1.00  0.00     0.101 C 
ATOM     11  C   UNL A   1      34.624  20.115  24.691  1.00  0.00     0.031 C 
BRANCH  10  12
ATOM     12  S   UNL A   1      32.732  21.740  26.027  1.00  0.00    -0.044 SA
BRANCH  12  13
ATOM     13  C   UNL A   1      32.350  23.366  25.632  1.00  0.00     0.171 A 
ATOM     14  C   UNL A   1      29.975  28.368  23.537  1.00  0.00     0.044 C 
ATOM     15  C   UNL A   1      30.756  27.400  24.389  1.00  0.00    -0.046 A 
ATOM     16  C   UNL A   1      30.660  26.026  24.074  1.00  0.00     0.034 A 
ATOM     17  C   UNL A   1      31.616  27.826  25.424  1.00  0.00    -0.046 A 
ATOM     18  C   UNL A   1      31.443  25.100  24.779  1.00  0.00     0.090 A 
ATOM     19  C   UNL A   1      32.495  26.914  26.039  1.00  0.00     0.032 A 
ATOM     20  C   UNL A   1      31.628  29.249  25.918  1.00  0.00     0.044 C 
ATOM     21  N   UNL A   1      31.447  23.726  24.745  1.00  0.00    -0.222 NA
ATOM     22  C   UNL A   1      32.376  25.571  25.690  1.00  0.00     0.066 A 
ATOM     23  N   UNL A   1      33.028  24.443  26.119  1.00  0.00    -0.333 N 
ATOM     24  H   UNL A   1      33.838  24.416  26.677  1.00  0.00     0.169 HD
ENDBRANCH  12  13
ENDBRANCH  10  12
BRANCH  11  25
ATOM     25  C   UNL A   1      34.068  18.760  24.732  1.00  0.00    -0.024 A 
ATOM     26  C   UNL A   1      32.795  18.464  25.229  1.00  0.00     0.012 A 
ATOM     27  C   UNL A   1      34.883  17.721  24.257  1.00  0.00     0.012 A 
ATOM     28  C   UNL A   1      32.395  17.132  25.368  1.00  0.00     0.047 A 
ATOM     29  C   UNL A   1      34.478  16.394  24.382  1.00  0.00     0.047 A 
ATOM     30  C   UNL A   1      33.256  16.111  24.975  1.00  0.00     0.115 A 
BRANCH  30  31
ATOM     31  O   UNL A   1      32.955  14.805  25.215  1.00  0.00    -0.508 OA
ATOM     32  H   UNL A   1      33.609  14.144  25.099  1.00  0.00     0.293 HD
ENDBRANCH  30  31
ENDBRANCH  11  25
ENDBRANCH   8  10
ENDBRANCH   7   8
ENDBRANCH   6   7
ENDBRANCH   5   6
ENDBRANCH   4   5
ENDBRANCH   3   4
ENDBRANCH   2   3
ENDBRANCH   1   2
BRANCH   1  33
ATOM     33  C   UNL A   1      42.669  21.953  28.198  1.00  0.00     0.188 C 
BRANCH  33  34
ATOM     34  C   UNL A   1      43.730  22.789  28.961  1.00  0.00     0.188 C 
BRANCH  34  35
ATOM     35  O   UNL A   1      44.451  23.708  28.161  1.00  0.00    -0.376 OA
BRANCH  35  36
ATOM     36  C   UNL A   1      45.646  23.278  27.534  1.00  0.00     0.202 C 
BRANCH  36  37
ATOM     37  C   UNL A   1      45.832  23.669  26.062  1.00  0.00     0.261 C 
BRANCH  37  38
ATOM     38  O   UNL A   1      44.833  24.544  25.516  1.00  0.00    -0.460 OA
BRANCH  38  39
ATOM     39  C   UNL A   1      45.141  25.853  25.428  1.00  0.00     0.338 C 
ATOM     40  O   UNL A   1      45.810  26.400  24.565  1.00  0.00    -0.246 OA
BRANCH  39  41
ATOM     41  C   UNL A   1      44.374  26.563  26.470  1.00  0.00     0.060 A 
ATOM     42  C   UNL A   1      44.856  27.784  26.961  1.00  0.00     0.016 A 
ATOM     43  C   UNL A   1      43.174  26.031  26.947  1.00  0.00     0.016 A 
ATOM     44  C   UNL A   1      44.152  28.460  27.959  1.00  0.00     0.010 A 
ATOM     45  C   UNL A   1      42.481  26.700  27.960  1.00  0.00     0.010 A 
ATOM     46  C   UNL A   1      42.983  27.902  28.492  1.00  0.00    -0.014 A 
BRANCH  46  47
ATOM     47  C   UNL A   1      42.386  28.469  29.725  1.00  0.00     0.031 A 
ATOM     48  C   UNL A   1      41.038  29.127  29.630  1.00  0.00     0.074 A 
ATOM     49  C   UNL A   1      43.018  28.393  30.910  1.00  0.00     0.049 A 
ATOM     50  N   UNL A   1      40.344  29.745  30.551  1.00  0.00    -0.248 NA
ATOM     51  C   UNL A   1      40.386  29.084  28.311  1.00  0.00     0.031 C 
ATOM     52  C   UNL A   1      44.307  27.746  31.140  1.00  0.00     0.029 A 
ATOM     53  N   UNL A   1      42.659  28.878  32.142  1.00  0.00    -0.354 N 
ATOM     54  C   UNL A   1      39.180  30.169  29.923  1.00  0.00     0.074 A 
ATOM     55  C   UNL A   1      39.277  29.771  28.535  1.00  0.00     0.031 C 
ATOM     56  C   UNL A   1      44.639  27.886  32.435  1.00  0.00     0.029 A 
ATOM     57  C   UNL A   1      43.603  28.664  33.115  1.00  0.00     0.049 A 
ATOM     58  H   UNL A   1      41.805  29.338  32.313  1.00  0.00     0.167 HD
ATOM     59  C   UNL A   1      38.123  30.825  30.457  1.00  0.00     0.037 A 
ATOM     60  C   UNL A   1      43.638  29.075  34.398  1.00  0.00     0.037 A 
ATOM     61  C   UNL A   1      38.032  31.223  31.837  1.00  0.00     0.049 A 
ATOM     62  C   UNL A   1      42.487  29.881  34.949  1.00  0.00     0.074 A 
ATOM     63  C   UNL A   1      36.994  31.873  32.480  1.00  0.00     0.029 A 
ATOM     64  N   UNL A   1      39.026  31.022  32.784  1.00  0.00    -0.354 N 
ATOM     65  N   UNL A   1      41.375  30.251  34.359  1.00  0.00    -0.248 NA
ATOM     66  C   UNL A   1      42.596  30.325  36.347  1.00  0.00     0.031 C 
ATOM     67  C   UNL A   1      37.387  32.124  33.799  1.00  0.00     0.029 A 
ATOM     68  C   UNL A   1      38.640  31.567  33.998  1.00  0.00     0.049 A 
ATOM     69  H   UNL A   1      39.879  30.559  32.618  1.00  0.00     0.167 HD
ATOM     70  C   UNL A   1      40.643  30.942  35.318  1.00  0.00     0.074 A 
ATOM     71  C   UNL A   1      41.429  30.924  36.534  1.00  0.00     0.031 C 
ATOM     72  C   UNL A   1      39.430  31.537  35.203  1.00  0.00     0.037 A 
BRANCH  59  73
ATOM     73  C   UNL A   1      36.991  31.183  29.537  1.00  0.00     0.064 A 
ATOM     74  C   UNL A   1      36.798  32.493  29.072  1.00  0.00     0.173 A 
ATOM     75  C   UNL A   1      36.102  30.193  29.091  1.00  0.00     0.173 A 
ATOM     76  F   UNL A   1      37.609  33.481  29.479  1.00  0.00    -0.203 F 
ATOM     77  C   UNL A   1      35.742  32.803  28.219  1.00  0.00     0.198 A 
ATOM     78  C   UNL A   1      35.069  30.499  28.210  1.00  0.00     0.198 A 
ATOM     79  F   UNL A   1      36.242  28.923  29.501  1.00  0.00    -0.203 F 
ATOM     80  F   UNL A   1      35.546  34.071  27.831  1.00  0.00    -0.200 F 
ATOM     81  C   UNL A   1      34.883  31.804  27.783  1.00  0.00     0.200 A 
ATOM     82  F   UNL A   1      34.249  29.530  27.778  1.00  0.00    -0.200 F 
ATOM     83  F   UNL A   1      33.873  32.102  26.955  1.00  0.00    -0.200 F 
ENDBRANCH  59  73
BRANCH  60  84
ATOM     84  C   UNL A   1      44.811  28.752  35.256  1.00  0.00     0.064 A 
ATOM     85  C   UNL A   1      45.913  29.615  35.333  1.00  0.00     0.173 A 
ATOM     86  C   UNL A   1      44.869  27.557  35.991  1.00  0.00     0.173 A 
ATOM     87  F   UNL A   1      45.920  30.756  34.629  1.00  0.00    -0.203 F 
ATOM     88  C   UNL A   1      47.035  29.286  36.093  1.00  0.00     0.198 A 
ATOM     89  C   UNL A   1      45.977  27.246  36.776  1.00  0.00     0.198 A 
ATOM     90  F   UNL A   1      43.845  26.693  35.949  1.00  0.00    -0.203 F 
ATOM     91  F   UNL A   1      48.097  30.104  36.103  1.00  0.00    -0.200 F 
ATOM     92  C   UNL A   1      47.064  28.106  36.818  1.00  0.00     0.200 A 
ATOM     93  F   UNL A   1      45.994  26.109  37.486  1.00  0.00    -0.200 F 
ATOM     94  F   UNL A   1      48.141  27.792  37.549  1.00  0.00    -0.200 F 
ENDBRANCH  60  84
BRANCH  72  95
ATOM     95  C   UNL A   1      38.855  32.189  36.431  1.00  0.00     0.064 A 
ATOM     96  C   UNL A   1      38.024  31.491  37.319  1.00  0.00     0.173 A 
ATOM     97  C   UNL A   1      39.181  33.517  36.748  1.00  0.00     0.173 A 
ATOM     98  F   UNL A   1      37.671  30.223  37.059  1.00  0.00    -0.203 F 
ATOM     99  C   UNL A   1      37.517  32.106  38.461  1.00  0.00     0.198 A 
ATOM    100  C   UNL A   1      38.701  34.118  37.909  1.00  0.00     0.198 A 
ATOM    101  F   UNL A   1      39.980  34.229  35.939  1.00  0.00    -0.203 F 
ATOM    102  F   UNL A   1      36.681  31.436  39.266  1.00  0.00    -0.200 F 
ATOM    103  C   UNL A   1      37.863  33.416  38.759  1.00  0.00     0.200 A 
ATOM    104  F   UNL A   1      39.054  35.377  38.204  1.00  0.00    -0.200 F 
ATOM    105  F   UNL A   1      37.382  34.003  39.864  1.00  0.00    -0.200 F 
ENDBRANCH  72  95
ENDBRANCH  46  47
ENDBRANCH  39  41
ENDBRANCH  38  39
ENDBRANCH  37  38
ENDBRANCH  36  37
ENDBRANCH  35  36
ENDBRANCH  34  35
ENDBRANCH  33  34
ENDBRANCH   1  33
TORSDOF 24
ENDMDL
MODEL 2
REMARK VINA RESULT:     -10.6      1.557      4.360
REMARK SMILES Cc1cc2nc(S/C(=C\c3ccc(O)cc3)C(=O)OCCOCCOCCOCCOC(=O)c3ccc(-c4c5nc(c(-c6c(F)c(F)c(F)c(F)c6F)c6ccc([nH]6)c(-c6c(F)c(F)c(F)c(F)c6F)c6nc(c(-c7c(F)c(F)c(F)c(F)c7F)c7ccc4[nH]7)C=C6)C=C5)cc3)[nH]c2cc1C
REMARK SMILES IDX 25 1 24 2 23 3 22 4 21 5 20 6 19 7 17 8 18 9 8 10 9 11 7 12
REMARK SMILES IDX 6 13 1 14 2 15 3 16 100 17 4 18 99 19 101 20 5 21 98 22
REMARK SMILES IDX 97 23 10 25 11 26 16 27 12 28 15 29 13 30 14 31 26 33 27 34
REMARK SMILES IDX 28 35 29 36 30 37 31 38 32 39 33 40 34 41 35 42 96 43 36 44
REMARK SMILES IDX 95 45 37 46 38 47 39 48 89 49 40 50 94 51 88 52 90 53 41 54
REMARK SMILES IDX 93 55 87 56 86 57 42 59 74 60 54 61 73 62 55 63 58 64 72 65
REMARK SMILES IDX 91 66 56 67 57 68 71 70 92 71 59 72 43 73 44 74 52 75 45 76
REMARK SMILES IDX 46 77 50 78 53 79 47 80 48 81 51 82 49 83 75 84 76 85 84 86
REMARK SMILES IDX 77 87 78 88 82 89 85 90 79 91 80 92 83 93 81 94 60 95 61 96
REMARK SMILES IDX 69 97 62 98 63 99 67 100 70 101 64 102 65 103 68 104 66 105
REMARK H PARENT 97 24 14 32 90 58 58 69
REMARK Flexibility Score: inf
ROOT
ATOM      1  O   UNL A   1      40.280  21.504  27.318  1.00  0.00    -0.377 OA
ENDROOT
BRANCH   1   2
ATOM      2  C   UNL A   1      39.376  22.114  26.409  1.00  0.00     0.188 C 
BRANCH   2   3
ATOM      3  C   UNL A   1      39.175  23.628  26.616  1.00  0.00     0.188 C 
BRANCH   3   4
ATOM      4  O   UNL A   1      37.989  24.118  26.014  1.00  0.00    -0.376 OA
BRANCH   4   5
ATOM      5  C   UNL A   1      36.959  23.236  25.609  1.00  0.00     0.202 C 
BRANCH   5   6
ATOM      6  C   UNL A   1      35.623  23.079  26.358  1.00  0.00     0.261 C 
BRANCH   6   7
ATOM      7  O   UNL A   1      34.636  24.083  26.128  1.00  0.00    -0.459 OA
BRANCH   7   8
ATOM      8  C   UNL A   1      34.503  24.593  24.880  1.00  0.00     0.345 C 
ATOM      9  O   UNL A   1      35.198  24.300  23.921  1.00  0.00    -0.246 OA
BRANCH   8  10
ATOM     10  C   UNL A   1      33.276  25.483  24.837  1.00  0.00     0.101 C 
ATOM     11  C   UNL A   1      33.502  26.767  24.486  1.00  0.00     0.031 C 
BRANCH  10  12
ATOM     12  S   UNL A   1      31.861  24.648  25.391  1.00  0.00    -0.044 SA
BRANCH  12  13
ATOM     13  C   UNL A   1      32.002  22.987  24.982  1.00  0.00     0.171 A 
ATOM     14  C   UNL A   1      32.537  17.766  22.245  1.00  0.00     0.044 C 
ATOM     15  C   UNL A   1      32.565  18.837  23.305  1.00  0.00    -0.046 A 
ATOM     16  C   UNL A   1      32.224  20.152  22.917  1.00  0.00     0.034 A 
ATOM     17  C   UNL A   1      32.848  18.554  24.659  1.00  0.00    -0.046 A 
ATOM     18  C   UNL A   1      32.145  21.160  23.888  1.00  0.00     0.090 A 
ATOM     19  C   UNL A   1      32.641  19.535  25.648  1.00  0.00     0.032 A 
ATOM     20  C   UNL A   1      33.386  17.218  25.101  1.00  0.00     0.044 C 
ATOM     21  N   UNL A   1      31.952  22.514  23.756  1.00  0.00    -0.222 NA
ATOM     22  C   UNL A   1      32.293  20.814  25.223  1.00  0.00     0.066 A 
ATOM     23  N   UNL A   1      32.064  21.983  25.902  1.00  0.00    -0.333 N 
ATOM     24  H   UNL A   1      31.964  22.081  26.876  1.00  0.00     0.169 HD
ENDBRANCH  12  13
ENDBRANCH  10  12
BRANCH  11  25
ATOM     25  C   UNL A   1      32.610  27.924  24.366  1.00  0.00    -0.024 A 
ATOM     26  C   UNL A   1      32.486  28.907  25.353  1.00  0.00     0.012 A 
ATOM     27  C   UNL A   1      31.836  28.016  23.199  1.00  0.00     0.012 A 
ATOM     28  C   UNL A   1      31.510  29.899  25.228  1.00  0.00     0.047 A 
ATOM     29  C   UNL A   1      30.873  29.013  23.068  1.00  0.00     0.047 A 
ATOM     30  C   UNL A   1      30.690  29.919  24.103  1.00  0.00     0.115 A 
BRANCH  30  31
ATOM     31  O   UNL A   1      29.645  30.787  24.009  1.00  0.00    -0.508 OA
ATOM     32  H   UNL A   1      28.941  30.742  24.625  1.00  0.00     0.293 HD
ENDBRANCH  30  31
ENDBRANCH  11  25
ENDBRANCH   8  10
ENDBRANCH   7   8
ENDBRANCH   6   7
ENDBRANCH   5   6
ENDBRANCH   4   5
ENDBRANCH   3   4
ENDBRANCH   2   3
ENDBRANCH   1   2
BRANCH   1  33
ATOM     33  C   UNL A   1      41.013  20.354  26.894  1.00  0.00     0.188 C 
BRANCH  33  34
ATOM     34  C   UNL A   1      42.367  20.442  26.143  1.00  0.00     0.188 C 
BRANCH  34  35
ATOM     35  O   UNL A   1      42.908  21.747  26.042  1.00  0.00    -0.376 OA
BRANCH  35  36
ATOM     36  C   UNL A   1      44.114  21.933  25.323  1.00  0.00     0.202 C 
BRANCH  36  37
ATOM     37  C   UNL A   1      44.150  23.101  24.327  1.00  0.00     0.261 C 
BRANCH  37  38
ATOM     38  O   UNL A   1      44.302  24.408  24.902  1.00  0.00    -0.460 OA
BRANCH  38  39
ATOM     39  C   UNL A   1      45.076  24.513  26.001  1.00  0.00     0.338 C 
ATOM     40  O   UNL A   1      46.240  24.167  26.123  1.00  0.00    -0.246 OA
BRANCH  39  41
ATOM     41  C   UNL A   1      44.324  25.294  27.003  1.00  0.00     0.060 A 
ATOM     42  C   UNL A   1      44.264  26.688  26.878  1.00  0.00     0.016 A 
ATOM     43  C   UNL A   1      43.668  24.648  28.053  1.00  0.00     0.016 A 
ATOM     44  C   UNL A   1      43.572  27.444  27.825  1.00  0.00     0.010 A 
ATOM     45  C   UNL A   1      42.992  25.407  29.011  1.00  0.00     0.010 A 
ATOM     46  C   UNL A   1      42.967  26.811  28.919  1.00  0.00    -0.014 A 
BRANCH  46  47
ATOM     47  C   UNL A   1      42.472  27.618  30.061  1.00  0.00     0.031 A 
ATOM     48  C   UNL A   1      41.189  28.384  29.892  1.00  0.00     0.074 A 
ATOM     49  C   UNL A   1      43.136  27.663  31.229  1.00  0.00     0.049 A 
ATOM     50  N   UNL A   1      40.590  29.201  30.719  1.00  0.00    -0.248 NA
ATOM     51  C   UNL A   1      40.488  28.203  28.610  1.00  0.00     0.031 C 
ATOM     52  C   UNL A   1      44.366  26.934  31.530  1.00  0.00     0.029 A 
ATOM     53  N   UNL A   1      42.869  28.365  32.377  1.00  0.00    -0.354 N 
ATOM     54  C   UNL A   1      39.450  29.637  30.057  1.00  0.00     0.074 A 
ATOM     55  C   UNL A   1      39.458  29.022  28.747  1.00  0.00     0.031 C 
ATOM     56  C   UNL A   1      44.755  27.238  32.780  1.00  0.00     0.029 A 
ATOM     57  C   UNL A   1      43.824  28.210  33.352  1.00  0.00     0.049 A 
ATOM     58  H   UNL A   1      42.069  28.928  32.492  1.00  0.00     0.167 HD
ATOM     59  C   UNL A   1      38.479  30.469  30.504  1.00  0.00     0.037 A 
ATOM     60  C   UNL A   1      43.944  28.809  34.554  1.00  0.00     0.037 A 
ATOM     61  C   UNL A   1      38.477  31.082  31.806  1.00  0.00     0.049 A 
ATOM     62  C   UNL A   1      42.895  29.800  34.995  1.00  0.00     0.074 A 
ATOM     63  C   UNL A   1      37.529  31.923  32.361  1.00  0.00     0.029 A 
ATOM     64  N   UNL A   1      39.481  30.931  32.751  1.00  0.00    -0.354 N 
ATOM     65  N   UNL A   1      41.802  30.183  34.378  1.00  0.00    -0.248 NA
ATOM     66  C   UNL A   1      43.095  30.441  36.303  1.00  0.00     0.031 C 
ATOM     67  C   UNL A   1      37.991  32.333  33.616  1.00  0.00     0.029 A 
ATOM     68  C   UNL A   1      39.192  31.692  33.873  1.00  0.00     0.049 A 
ATOM     69  H   UNL A   1      40.280  30.365  32.642  1.00  0.00     0.167 HD
ATOM     70  C   UNL A   1      41.174  31.082  35.232  1.00  0.00     0.074 A 
ATOM     71  C   UNL A   1      41.998  31.174  36.419  1.00  0.00     0.031 C 
ATOM     72  C   UNL A   1      40.019  31.770  35.050  1.00  0.00     0.037 A 
BRANCH  59  73
ATOM     73  C   UNL A   1      37.354  30.791  29.563  1.00  0.00     0.064 A 
ATOM     74  C   UNL A   1      37.266  32.028  28.907  1.00  0.00     0.173 A 
ATOM     75  C   UNL A   1      36.363  29.835  29.292  1.00  0.00     0.173 A 
ATOM     76  F   UNL A   1      38.178  32.984  29.141  1.00  0.00    -0.203 F 
ATOM     77  C   UNL A   1      36.214  32.307  28.038  1.00  0.00     0.198 A 
ATOM     78  C   UNL A   1      35.332  30.103  28.396  1.00  0.00     0.198 A 
ATOM     79  F   UNL A   1      36.400  28.634  29.889  1.00  0.00    -0.203 F 
ATOM     80  F   UNL A   1      36.122  33.514  27.465  1.00  0.00    -0.200 F 
ATOM     81  C   UNL A   1      35.253  31.341  27.777  1.00  0.00     0.200 A 
ATOM     82  F   UNL A   1      34.413  29.164  28.134  1.00  0.00    -0.200 F 
ATOM     83  F   UNL A   1      34.246  31.606  26.934  1.00  0.00    -0.200 F 
ENDBRANCH  59  73
BRANCH  60  84
ATOM     84  C   UNL A   1      45.111  28.507  35.426  1.00  0.00     0.064 A 
ATOM     85  C   UNL A   1      46.310  29.224  35.309  1.00  0.00     0.173 A 
ATOM     86  C   UNL A   1      45.064  27.473  36.374  1.00  0.00     0.173 A 
ATOM     87  F   UNL A   1      46.417  30.204  34.399  1.00  0.00    -0.203 F 
ATOM     88  C   UNL A   1      47.421  28.905  36.088  1.00  0.00     0.198 A 
ATOM     89  C   UNL A   1      46.165  27.176  37.176  1.00  0.00     0.198 A 
ATOM     90  F   UNL A   1      43.944  26.751  36.525  1.00  0.00    -0.203 F 
ATOM     91  F   UNL A   1      48.571  29.571  35.914  1.00  0.00    -0.200 F 
ATOM     92  C   UNL A   1      47.346  27.887  37.024  1.00  0.00     0.200 A 
ATOM     93  F   UNL A   1      46.082  26.200  38.089  1.00  0.00    -0.200 F 
ATOM     94  F   UNL A   1      48.414  27.582  37.774  1.00  0.00    -0.200 F 
ENDBRANCH  60  84
BRANCH  72  95
ATOM     95  C   UNL A   1      39.554  32.657  36.173  1.00  0.00     0.064 A 
ATOM     96  C   UNL A   1      38.588  32.234  37.099  1.00  0.00     0.173 A 
ATOM     97  C   UNL A   1      40.117  33.930  36.353  1.00  0.00     0.173 A 
ATOM     98  F   UNL A   1      38.008  31.031  36.968  1.00  0.00    -0.203 F 
ATOM     99  C   UNL A   1      38.184  33.062  38.143  1.00  0.00     0.198 A 
ATOM    100  C   UNL A   1      39.737  34.741  37.418  1.00  0.00     0.198 A 
ATOM    101  F   UNL A   1      41.051  34.382  35.502  1.00  0.00    -0.203 F 
ATOM    102  F   UNL A   1      37.221  32.657  38.983  1.00  0.00    -0.200 F 
ATOM    103  C   UNL A   1      38.765  34.311  38.306  1.00  0.00     0.200 A 
ATOM    104  F   UNL A   1      40.314  35.940  37.585  1.00  0.00    -0.200 F 
ATOM    105  F   UNL A   1      38.381  35.103  39.317  1.00  0.00    -0.200 F 
ENDBRANCH  72  95
ENDBRANCH  46  47
ENDBRANCH  39  41
ENDBRANCH  38  39
ENDBRANCH  37  38
ENDBRANCH  36  37
ENDBRANCH  35  36
ENDBRANCH  34  35
ENDBRANCH  33  34
ENDBRANCH   1  33
TORSDOF 24
ENDMDL
MODEL 3
REMARK VINA RESULT:     -10.3      4.938      8.822
REMARK SMILES Cc1cc2nc(S/C(=C\c3ccc(O)cc3)C(=O)OCCOCCOCCOCCOC(=O)c3ccc(-c4c5nc(c(-c6c(F)c(F)c(F)c(F)c6F)c6ccc([nH]6)c(-c6c(F)c(F)c(F)c(F)c6F)c6nc(c(-c7c(F)c(F)c(F)c(F)c7F)c7ccc4[nH]7)C=C6)C=C5)cc3)[nH]c2cc1C
REMARK SMILES IDX 25 1 24 2 23 3 22 4 21 5 20 6 19 7 17 8 18 9 8 10 9 11 7 12
REMARK SMILES IDX 6 13 1 14 2 15 3 16 100 17 4 18 99 19 101 20 5 21 98 22
REMARK SMILES IDX 97 23 10 25 11 26 16 27 12 28 15 29 13 30 14 31 26 33 27 34
REMARK SMILES IDX 28 35 29 36 30 37 31 38 32 39 33 40 34 41 35 42 96 43 36 44
REMARK SMILES IDX 95 45 37 46 38 47 39 48 89 49 40 50 94 51 88 52 90 53 41 54
REMARK SMILES IDX 93 55 87 56 86 57 42 59 74 60 54 61 73 62 55 63 58 64 72 65
REMARK SMILES IDX 91 66 56 67 57 68 71 70 92 71 59 72 43 73 44 74 52 75 45 76
REMARK SMILES IDX 46 77 50 78 53 79 47 80 48 81 51 82 49 83 75 84 76 85 84 86
REMARK SMILES IDX 77 87 78 88 82 89 85 90 79 91 80 92 83 93 81 94 60 95 61 96
REMARK SMILES IDX 69 97 62 98 63 99 67 100 70 101 64 102 65 103 68 104 66 105
REMARK H PARENT 97 24 14 32 90 58 58 69
REMARK Flexibility Score: inf
ROOT
ATOM      1  O   UNL A   1      38.908  22.421  25.744  1.00  0.00    -0.377 OA
ENDROOT
BRANCH   1   2
ATOM      2  C   UNL A   1      37.693  21.771  25.402  1.00  0.00     0.188 C 
BRANCH   2   3
ATOM      3  C   UNL A   1      36.997  22.324  24.141  1.00  0.00     0.188 C 
BRANCH   3   4
ATOM      4  O   UNL A   1      35.613  22.562  24.331  1.00  0.00    -0.376 OA
BRANCH   4   5
ATOM      5  C   UNL A   1      35.114  23.875  24.503  1.00  0.00     0.202 C 
BRANCH   5   6
ATOM      6  C   UNL A   1      34.207  24.587  23.484  1.00  0.00     0.261 C 
BRANCH   6   7
ATOM      7  O   UNL A   1      33.206  25.455  24.012  1.00  0.00    -0.459 OA
BRANCH   7   8
ATOM      8  C   UNL A   1      31.929  25.007  24.089  1.00  0.00     0.345 C 
ATOM      9  O   UNL A   1      31.592  23.835  24.098  1.00  0.00    -0.246 OA
BRANCH   8  10
ATOM     10  C   UNL A   1      31.002  26.190  24.290  1.00  0.00     0.101 C 
ATOM     11  C   UNL A   1      30.561  26.783  23.160  1.00  0.00     0.031 C 
BRANCH  10  12
ATOM     12  S   UNL A   1      30.831  26.590  25.969  1.00  0.00    -0.044 SA
BRANCH  12  13
ATOM     13  C   UNL A   1      31.972  27.810  26.366  1.00  0.00     0.171 A 
ATOM     14  C   UNL A   1      34.739  32.760  28.063  1.00  0.00     0.044 C 
ATOM     15  C   UNL A   1      34.463  31.318  27.724  1.00  0.00    -0.046 A 
ATOM     16  C   UNL A   1      33.141  30.971  27.366  1.00  0.00     0.034 A 
ATOM     17  C   UNL A   1      35.482  30.341  27.687  1.00  0.00    -0.046 A 
ATOM     18  C   UNL A   1      32.860  29.661  26.951  1.00  0.00     0.090 A 
ATOM     19  C   UNL A   1      35.225  29.066  27.147  1.00  0.00     0.032 A 
ATOM     20  C   UNL A   1      36.864  30.608  28.222  1.00  0.00     0.044 C 
ATOM     21  N   UNL A   1      31.661  29.052  26.669  1.00  0.00    -0.222 NA
ATOM     22  C   UNL A   1      33.911  28.770  26.795  1.00  0.00     0.066 A 
ATOM     23  N   UNL A   1      33.321  27.638  26.293  1.00  0.00    -0.333 N 
ATOM     24  H   UNL A   1      33.788  26.844  25.945  1.00  0.00     0.169 HD
ENDBRANCH  12  13
ENDBRANCH  10  12
BRANCH  11  25
ATOM     25  C   UNL A   1      29.702  27.947  22.932  1.00  0.00    -0.024 A 
ATOM     26  C   UNL A   1      30.168  29.159  22.412  1.00  0.00     0.012 A 
ATOM     27  C   UNL A   1      28.348  27.820  23.280  1.00  0.00     0.012 A 
ATOM     28  C   UNL A   1      29.318  30.267  22.360  1.00  0.00     0.047 A 
ATOM     29  C   UNL A   1      27.497  28.921  23.215  1.00  0.00     0.047 A 
ATOM     30  C   UNL A   1      28.002  30.145  22.796  1.00  0.00     0.115 A 
BRANCH  30  31
ATOM     31  O   UNL A   1      27.184  31.231  22.884  1.00  0.00    -0.508 OA
ATOM     32  H   UNL A   1      26.676  31.373  23.657  1.00  0.00     0.293 HD
ENDBRANCH  30  31
ENDBRANCH  11  25
ENDBRANCH   8  10
ENDBRANCH   7   8
ENDBRANCH   6   7
ENDBRANCH   5   6
ENDBRANCH   4   5
ENDBRANCH   3   4
ENDBRANCH   2   3
ENDBRANCH   1   2
BRANCH   1  33
ATOM     33  C   UNL A   1      39.721  21.862  26.777  1.00  0.00     0.188 C 
BRANCH  33  34
ATOM     34  C   UNL A   1      40.743  20.722  26.525  1.00  0.00     0.188 C 
BRANCH  34  35
ATOM     35  O   UNL A   1      42.101  21.096  26.676  1.00  0.00    -0.376 OA
BRANCH  35  36
ATOM     36  C   UNL A   1      42.728  21.824  25.637  1.00  0.00     0.202 C 
BRANCH  36  37
ATOM     37  C   UNL A   1      42.790  23.349  25.803  1.00  0.00     0.261 C 
BRANCH  37  38
ATOM     38  O   UNL A   1      43.404  24.071  24.724  1.00  0.00    -0.460 OA
BRANCH  38  39
ATOM     39  C   UNL A   1      44.601  24.643  24.966  1.00  0.00     0.338 C 
ATOM     40  O   UNL A   1      45.682  24.324  24.497  1.00  0.00    -0.246 OA
BRANCH  39  41
ATOM     41  C   UNL A   1      44.360  25.857  25.770  1.00  0.00     0.060 A 
ATOM     42  C   UNL A   1      43.624  26.911  25.214  1.00  0.00     0.016 A 
ATOM     43  C   UNL A   1      44.850  25.946  27.075  1.00  0.00     0.016 A 
ATOM     44  C   UNL A   1      43.402  28.073  25.954  1.00  0.00     0.010 A 
ATOM     45  C   UNL A   1      44.643  27.117  27.808  1.00  0.00     0.010 A 
ATOM     46  C   UNL A   1      43.945  28.199  27.240  1.00  0.00    -0.014 A 
BRANCH  46  47
ATOM     47  C   UNL A   1      43.948  29.518  27.917  1.00  0.00     0.031 A 
ATOM     48  C   UNL A   1      45.170  30.385  27.787  1.00  0.00     0.074 A 
ATOM     49  C   UNL A   1      42.887  29.948  28.622  1.00  0.00     0.049 A 
ATOM     50  N   UNL A   1      45.432  31.545  28.333  1.00  0.00    -0.248 NA
ATOM     51  C   UNL A   1      46.244  29.869  26.923  1.00  0.00     0.031 C 
ATOM     52  C   UNL A   1      41.632  29.220  28.788  1.00  0.00     0.029 A 
ATOM     53  N   UNL A   1      42.707  31.103  29.341  1.00  0.00    -0.354 N 
ATOM     54  C   UNL A   1      46.701  31.892  27.886  1.00  0.00     0.074 A 
ATOM     55  C   UNL A   1      47.170  30.805  27.054  1.00  0.00     0.031 C 
ATOM     56  C   UNL A   1      40.813  29.941  29.573  1.00  0.00     0.029 A 
ATOM     57  C   UNL A   1      41.500  31.162  29.994  1.00  0.00     0.049 A 
ATOM     58  H   UNL A   1      43.379  31.821  29.386  1.00  0.00     0.167 HD
ATOM     59  C   UNL A   1      47.407  33.019  28.142  1.00  0.00     0.037 A 
ATOM     60  C   UNL A   1      41.021  32.082  30.854  1.00  0.00     0.037 A 
ATOM     61  C   UNL A   1      46.938  34.095  28.974  1.00  0.00     0.049 A 
ATOM     62  C   UNL A   1      41.863  33.288  31.192  1.00  0.00     0.074 A 
ATOM     63  C   UNL A   1      47.570  35.288  29.277  1.00  0.00     0.029 A 
ATOM     64  N   UNL A   1      45.726  34.101  29.648  1.00  0.00    -0.354 N 
ATOM     65  N   UNL A   1      43.048  33.627  30.742  1.00  0.00    -0.248 NA
ATOM     66  C   UNL A   1      41.299  34.242  32.158  1.00  0.00     0.031 C 
ATOM     67  C   UNL A   1      46.770  35.986  30.187  1.00  0.00     0.029 A 
ATOM     68  C   UNL A   1      45.607  35.262  30.396  1.00  0.00     0.049 A 
ATOM     69  H   UNL A   1      45.050  33.387  29.602  1.00  0.00     0.167 HD
ATOM     70  C   UNL A   1      43.355  34.841  31.344  1.00  0.00     0.074 A 
ATOM     71  C   UNL A   1      42.225  35.190  32.179  1.00  0.00     0.031 C 
ATOM     72  C   UNL A   1      44.473  35.599  31.218  1.00  0.00     0.037 A 
BRANCH  59  73
ATOM     73  C   UNL A   1      48.778  33.129  27.539  1.00  0.00     0.064 A 
ATOM     74  C   UNL A   1      49.907  32.566  28.154  1.00  0.00     0.173 A 
ATOM     75  C   UNL A   1      48.961  33.785  26.312  1.00  0.00     0.173 A 
ATOM     76  F   UNL A   1      49.792  31.941  29.335  1.00  0.00    -0.203 F 
ATOM     77  C   UNL A   1      51.170  32.680  27.577  1.00  0.00     0.198 A 
ATOM     78  C   UNL A   1      50.218  33.868  25.721  1.00  0.00     0.198 A 
ATOM     79  F   UNL A   1      47.915  34.339  25.679  1.00  0.00    -0.203 F 
ATOM     80  F   UNL A   1      52.241  32.181  28.209  1.00  0.00    -0.200 F 
ATOM     81  C   UNL A   1      51.323  33.324  26.358  1.00  0.00     0.200 A 
ATOM     82  F   UNL A   1      50.362  34.477  24.536  1.00  0.00    -0.200 F 
ATOM     83  F   UNL A   1      52.536  33.425  25.800  1.00  0.00    -0.200 F 
ENDBRANCH  59  73
BRANCH  60  84
ATOM     84  C   UNL A   1      39.682  31.898  31.478  1.00  0.00     0.064 A 
ATOM     85  C   UNL A   1      38.533  32.462  30.909  1.00  0.00     0.173 A 
ATOM     86  C   UNL A   1      39.530  31.180  32.675  1.00  0.00     0.173 A 
ATOM     87  F   UNL A   1      38.628  33.181  29.781  1.00  0.00    -0.203 F 
ATOM     88  C   UNL A   1      37.287  32.336  31.523  1.00  0.00     0.198 A 
ATOM     89  C   UNL A   1      38.279  31.027  33.270  1.00  0.00     0.198 A 
ATOM     90  F   UNL A   1      40.597  30.623  33.265  1.00  0.00    -0.203 F 
ATOM     91  F   UNL A   1      36.215  32.934  30.986  1.00  0.00    -0.200 F 
ATOM     92  C   UNL A   1      37.160  31.614  32.699  1.00  0.00     0.200 A 
ATOM     93  F   UNL A   1      38.160  30.316  34.400  1.00  0.00    -0.200 F 
ATOM     94  F   UNL A   1      35.963  31.491  33.288  1.00  0.00    -0.200 F 
ENDBRANCH  60  84
BRANCH  72  95
ATOM     95  C   UNL A   1      44.518  36.902  31.970  1.00  0.00     0.064 A 
ATOM     96  C   UNL A   1      45.027  36.986  33.274  1.00  0.00     0.173 A 
ATOM     97  C   UNL A   1      44.090  38.090  31.357  1.00  0.00     0.173 A 
ATOM     98  F   UNL A   1      45.439  35.880  33.912  1.00  0.00    -0.203 F 
ATOM     99  C   UNL A   1      45.078  38.205  33.947  1.00  0.00     0.198 A 
ATOM    100  C   UNL A   1      44.176  39.312  32.019  1.00  0.00     0.198 A 
ATOM    101  F   UNL A   1      43.603  38.070  30.107  1.00  0.00    -0.203 F 
ATOM    102  F   UNL A   1      45.518  38.252  35.212  1.00  0.00    -0.200 F 
ATOM    103  C   UNL A   1      44.661  39.367  33.315  1.00  0.00     0.200 A 
ATOM    104  F   UNL A   1      43.790  40.436  31.399  1.00  0.00    -0.200 F 
ATOM    105  F   UNL A   1      44.720  40.540  33.961  1.00  0.00    -0.200 F 
ENDBRANCH  72  95
ENDBRANCH  46  47
ENDBRANCH  39  41
ENDBRANCH  38  39
ENDBRANCH  37  38
ENDBRANCH  36  37
ENDBRANCH  35  36
ENDBRANCH  34  35
ENDBRANCH  33  34
ENDBRANCH   1  33
TORSDOF 24
ENDMDL
