MODEL 1
REMARK VINA RESULT:      -9.9      0.000      0.000
REMARK SMILES CCOc1ccc(NC(=O)[C@@H]2[C@@H](C(=O)OCCOCCOCCOCCOC(=O)c3ccc(-c4c5nc(c(-c6c(F)c(F)c(F)c(F)c6F)c6ccc([nH]6)c(-c6c(F)c(F)c(F)c(F)c6F)c6nc(c(-c7c(F)c(F)c(F)c(F)c7F)c7ccc4[nH]7)C=C6)C=C5)cc3)[C@H]3C=C[C@@H]2C3)cc1
REMARK SMILES IDX 20 1 19 2 18 3 17 4 16 5 15 6 13 7 14 8 12 9 11 10 96 11
REMARK SMILES IDX 93 12 95 13 97 14 94 15 9 16 8 17 10 19 7 20 4 21 5 22 99 23
REMARK SMILES IDX 6 24 98 25 3 26 2 27 1 28 21 29 22 30 23 31 24 32 25 33
REMARK SMILES IDX 26 34 27 35 28 36 29 37 30 38 31 39 92 40 32 41 91 42 33 43
REMARK SMILES IDX 34 44 35 45 85 46 36 47 90 48 84 49 86 50 37 51 89 52 83 53
REMARK SMILES IDX 82 54 38 56 70 57 50 58 69 59 51 60 54 61 68 62 87 63 52 64
REMARK SMILES IDX 53 65 67 67 88 68 55 69 39 70 40 71 48 72 41 73 42 74 46 75
REMARK SMILES IDX 49 76 43 77 44 78 47 79 45 80 71 81 72 82 80 83 73 84 74 85
REMARK SMILES IDX 78 86 81 87 75 88 76 89 79 90 77 91 56 92 57 93 65 94 58 95
REMARK SMILES IDX 59 96 63 97 66 98 60 99 61 100 64 101 62 102
REMARK H PARENT 8 18 86 55 54 66
REMARK Flexibility Score: inf
ROOT
ATOM      1  C   UNL A   1      34.782  30.430  27.787  1.00  0.00     0.188 C 
ENDROOT
BRANCH   1   2
ATOM      2  C   UNL A   1      34.285  29.190  27.027  1.00  0.00     0.188 C 
BRANCH   2   3
ATOM      3  O   UNL A   1      33.371  28.436  27.820  1.00  0.00    -0.376 OA
BRANCH   3   4
ATOM      4  C   UNL A   1      32.040  28.342  27.340  1.00  0.00     0.202 C 
BRANCH   4   5
ATOM      5  C   UNL A   1      31.907  27.393  26.143  1.00  0.00     0.261 C 
BRANCH   5   6
ATOM      6  O   UNL A   1      30.967  26.311  26.312  1.00  0.00    -0.463 OA
BRANCH   6   7
ATOM      7  C   UNL A   1      31.067  25.267  25.450  1.00  0.00     0.310 C 
ATOM      8  O   UNL A   1      30.113  24.793  24.849  1.00  0.00    -0.252 OA
BRANCH   7   9
ATOM      9  C   UNL A   1      32.519  24.831  25.289  1.00  0.00     0.119 C 
ATOM     10  C   UNL A   1      32.738  23.860  24.063  1.00  0.00     0.100 C 
ATOM     11  C   UNL A   1      33.328  22.607  24.761  1.00  0.00     0.025 C 
ATOM     12  C   UNL A   1      32.960  23.970  26.500  1.00  0.00     0.027 C 
ATOM     13  C   UNL A   1      32.233  21.980  25.590  1.00  0.00    -0.027 C 
ATOM     14  C   UNL A   1      34.152  23.223  25.909  1.00  0.00     0.017 C 
ATOM     15  C   UNL A   1      32.034  22.780  26.648  1.00  0.00    -0.027 C 
BRANCH  10  16
ATOM     16  C   UNL A   1      33.774  24.323  23.043  1.00  0.00     0.228 C 
ATOM     17  N   UNL A   1      33.634  25.398  22.212  1.00  0.00    -0.326 N 
ATOM     18  H   UNL A   1      34.246  25.360  21.442  1.00  0.00     0.169 HD
ATOM     19  O   UNL A   1      34.835  23.698  22.915  1.00  0.00    -0.274 OA
BRANCH  17  20
ATOM     20  C   UNL A   1      32.821  26.549  22.196  1.00  0.00     0.041 A 
ATOM     21  C   UNL A   1      31.338  28.812  22.944  1.00  0.00     0.119 A 
ATOM     22  C   UNL A   1      30.703  27.688  22.424  1.00  0.00     0.048 A 
ATOM     23  C   UNL A   1      32.725  28.881  22.929  1.00  0.00     0.048 A 
ATOM     24  C   UNL A   1      31.445  26.575  22.012  1.00  0.00     0.030 A 
ATOM     25  C   UNL A   1      33.462  27.752  22.550  1.00  0.00     0.030 A 
BRANCH  21  26
ATOM     26  O   UNL A   1      30.575  29.654  23.698  1.00  0.00    -0.494 OA
BRANCH  26  27
ATOM     27  C   UNL A   1      29.192  29.735  23.367  1.00  0.00     0.226 C 
ATOM     28  C   UNL A   1      28.719  31.176  23.289  1.00  0.00     0.049 C 
ENDBRANCH  26  27
ENDBRANCH  21  26
ENDBRANCH  17  20
ENDBRANCH  10  16
ENDBRANCH   7   9
ENDBRANCH   6   7
ENDBRANCH   5   6
ENDBRANCH   4   5
ENDBRANCH   3   4
ENDBRANCH   2   3
ENDBRANCH   1   2
BRANCH   1  29
ATOM     29  O   UNL A   1      34.002  31.609  27.646  1.00  0.00    -0.377 OA
BRANCH  29  30
ATOM     30  C   UNL A   1      34.369  32.684  28.491  1.00  0.00     0.188 C 
BRANCH  30  31
ATOM     31  C   UNL A   1      33.880  34.073  28.026  1.00  0.00     0.188 C 
BRANCH  31  32
ATOM     32  O   UNL A   1      32.957  34.873  28.765  1.00  0.00    -0.376 OA
BRANCH  32  33
ATOM     33  C   UNL A   1      33.251  36.215  29.103  1.00  0.00     0.202 C 
BRANCH  33  34
ATOM     34  C   UNL A   1      32.524  36.751  30.341  1.00  0.00     0.261 C 
BRANCH  34  35
ATOM     35  O   UNL A   1      33.244  36.560  31.559  1.00  0.00    -0.460 OA
BRANCH  35  36
ATOM     36  C   UNL A   1      32.922  35.436  32.239  1.00  0.00     0.338 C 
ATOM     37  O   UNL A   1      31.814  35.034  32.554  1.00  0.00    -0.246 OA
BRANCH  36  38
ATOM     38  C   UNL A   1      34.162  34.661  32.412  1.00  0.00     0.060 A 
ATOM     39  C   UNL A   1      34.113  33.501  33.196  1.00  0.00     0.016 A 
ATOM     40  C   UNL A   1      35.338  35.032  31.750  1.00  0.00     0.016 A 
ATOM     41  C   UNL A   1      35.242  32.703  33.317  1.00  0.00     0.010 A 
ATOM     42  C   UNL A   1      36.485  34.260  31.913  1.00  0.00     0.010 A 
ATOM     43  C   UNL A   1      36.441  33.112  32.722  1.00  0.00    -0.014 A 
BRANCH  43  44
ATOM     44  C   UNL A   1      37.697  32.505  33.197  1.00  0.00     0.031 A 
ATOM     45  C   UNL A   1      38.321  31.463  32.314  1.00  0.00     0.074 A 
ATOM     46  C   UNL A   1      38.275  32.900  34.342  1.00  0.00     0.049 A 
ATOM     47  N   UNL A   1      39.414  30.772  32.486  1.00  0.00    -0.248 NA
ATOM     48  C   UNL A   1      37.614  31.166  31.053  1.00  0.00     0.031 C 
ATOM     49  C   UNL A   1      37.767  33.940  35.235  1.00  0.00     0.029 A 
ATOM     50  N   UNL A   1      39.424  32.465  34.948  1.00  0.00    -0.354 N 
ATOM     51  C   UNL A   1      39.524  29.965  31.362  1.00  0.00     0.074 A 
ATOM     52  C   UNL A   1      38.381  30.231  30.521  1.00  0.00     0.031 C 
ATOM     53  C   UNL A   1      38.598  34.053  36.286  1.00  0.00     0.029 A 
ATOM     54  C   UNL A   1      39.675  33.075  36.151  1.00  0.00     0.049 A 
ATOM     55  H   UNL A   1      40.014  31.780  34.557  1.00  0.00     0.167 HD
ATOM     56  C   UNL A   1      40.500  29.081  31.061  1.00  0.00     0.037 A 
ATOM     57  C   UNL A   1      40.659  32.840  37.041  1.00  0.00     0.037 A 
ATOM     58  C   UNL A   1      41.623  28.820  31.917  1.00  0.00     0.049 A 
ATOM     59  C   UNL A   1      41.690  31.788  36.715  1.00  0.00     0.074 A 
ATOM     60  C   UNL A   1      42.675  27.947  31.717  1.00  0.00     0.029 A 
ATOM     61  N   UNL A   1      41.826  29.429  33.147  1.00  0.00    -0.354 N 
ATOM     62  N   UNL A   1      41.808  31.047  35.638  1.00  0.00    -0.248 NA
ATOM     63  C   UNL A   1      42.725  31.540  37.726  1.00  0.00     0.031 C 
ATOM     64  C   UNL A   1      43.490  27.989  32.853  1.00  0.00     0.029 A 
ATOM     65  C   UNL A   1      42.976  28.930  33.732  1.00  0.00     0.049 A 
ATOM     66  H   UNL A   1      41.240  30.113  33.543  1.00  0.00     0.167 HD
ATOM     67  C   UNL A   1      42.947  30.274  35.827  1.00  0.00     0.074 A 
ATOM     68  C   UNL A   1      43.490  30.645  37.116  1.00  0.00     0.031 C 
ATOM     69  C   UNL A   1      43.496  29.339  35.012  1.00  0.00     0.037 A 
BRANCH  56  70
ATOM     70  C   UNL A   1      40.371  28.311  29.782  1.00  0.00     0.064 A 
ATOM     71  C   UNL A   1      40.983  28.742  28.595  1.00  0.00     0.173 A 
ATOM     72  C   UNL A   1      39.645  27.113  29.751  1.00  0.00     0.173 A 
ATOM     73  F   UNL A   1      41.665  29.896  28.566  1.00  0.00    -0.203 F 
ATOM     74  C   UNL A   1      40.861  28.003  27.420  1.00  0.00     0.198 A 
ATOM     75  C   UNL A   1      39.549  26.363  28.583  1.00  0.00     0.198 A 
ATOM     76  F   UNL A   1      39.032  26.664  30.857  1.00  0.00    -0.203 F 
ATOM     77  F   UNL A   1      41.421  28.451  26.288  1.00  0.00    -0.200 F 
ATOM     78  C   UNL A   1      40.154  26.811  27.417  1.00  0.00     0.200 A 
ATOM     79  F   UNL A   1      38.871  25.207  28.584  1.00  0.00    -0.200 F 
ATOM     80  F   UNL A   1      40.050  26.094  26.290  1.00  0.00    -0.200 F 
ENDBRANCH  56  70
BRANCH  57  81
ATOM     81  C   UNL A   1      40.710  33.587  38.326  1.00  0.00     0.064 A 
ATOM     82  C   UNL A   1      39.858  33.264  39.392  1.00  0.00     0.173 A 
ATOM     83  C   UNL A   1      41.583  34.672  38.501  1.00  0.00     0.173 A 
ATOM     84  F   UNL A   1      38.988  32.250  39.267  1.00  0.00    -0.203 F 
ATOM     85  C   UNL A   1      39.853  34.013  40.566  1.00  0.00     0.198 A 
ATOM     86  C   UNL A   1      41.601  35.402  39.689  1.00  0.00     0.198 A 
ATOM     87  F   UNL A   1      42.420  35.028  37.516  1.00  0.00    -0.203 F 
ATOM     88  F   UNL A   1      38.984  33.719  41.544  1.00  0.00    -0.200 F 
ATOM     89  C   UNL A   1      40.727  35.079  40.716  1.00  0.00     0.200 A 
ATOM     90  F   UNL A   1      42.455  36.424  39.833  1.00  0.00    -0.200 F 
ATOM     91  F   UNL A   1      40.719  35.803  41.843  1.00  0.00    -0.200 F 
ENDBRANCH  57  81
BRANCH  69  92
ATOM     92  C   UNL A   1      44.772  28.695  35.468  1.00  0.00     0.064 A 
ATOM     93  C   UNL A   1      46.022  29.274  35.212  1.00  0.00     0.173 A 
ATOM     94  C   UNL A   1      44.735  27.510  36.220  1.00  0.00     0.173 A 
ATOM     95  F   UNL A   1      46.110  30.400  34.488  1.00  0.00    -0.203 F 
ATOM     96  C   UNL A   1      47.193  28.674  35.668  1.00  0.00     0.198 A 
ATOM     97  C   UNL A   1      45.904  26.932  36.703  1.00  0.00     0.198 A 
ATOM     98  F   UNL A   1      43.561  26.924  36.502  1.00  0.00    -0.203 F 
ATOM     99  F   UNL A   1      48.381  29.217  35.369  1.00  0.00    -0.200 F 
ATOM    100  C   UNL A   1      47.132  27.510  36.420  1.00  0.00     0.200 A 
ATOM    101  F   UNL A   1      45.841  25.818  37.445  1.00  0.00    -0.200 F 
ATOM    102  F   UNL A   1      48.259  26.940  36.868  1.00  0.00    -0.200 F 
ENDBRANCH  69  92
ENDBRANCH  43  44
ENDBRANCH  36  38
ENDBRANCH  35  36
ENDBRANCH  34  35
ENDBRANCH  33  34
ENDBRANCH  32  33
ENDBRANCH  31  32
ENDBRANCH  30  31
ENDBRANCH  29  30
ENDBRANCH   1  29
TORSDOF 24
ENDMDL
MODEL 2
REMARK VINA RESULT:      -9.4      1.308      2.371
REMARK SMILES CCOc1ccc(NC(=O)[C@@H]2[C@@H](C(=O)OCCOCCOCCOCCOC(=O)c3ccc(-c4c5nc(c(-c6c(F)c(F)c(F)c(F)c6F)c6ccc([nH]6)c(-c6c(F)c(F)c(F)c(F)c6F)c6nc(c(-c7c(F)c(F)c(F)c(F)c7F)c7ccc4[nH]7)C=C6)C=C5)cc3)[C@H]3C=C[C@@H]2C3)cc1
REMARK SMILES IDX 20 1 19 2 18 3 17 4 16 5 15 6 13 7 14 8 12 9 11 10 96 11
REMARK SMILES IDX 93 12 95 13 97 14 94 15 9 16 8 17 10 19 7 20 4 21 5 22 99 23
REMARK SMILES IDX 6 24 98 25 3 26 2 27 1 28 21 29 22 30 23 31 24 32 25 33
REMARK SMILES IDX 26 34 27 35 28 36 29 37 30 38 31 39 92 40 32 41 91 42 33 43
REMARK SMILES IDX 34 44 35 45 85 46 36 47 90 48 84 49 86 50 37 51 89 52 83 53
REMARK SMILES IDX 82 54 38 56 70 57 50 58 69 59 51 60 54 61 68 62 87 63 52 64
REMARK SMILES IDX 53 65 67 67 88 68 55 69 39 70 40 71 48 72 41 73 42 74 46 75
REMARK SMILES IDX 49 76 43 77 44 78 47 79 45 80 71 81 72 82 80 83 73 84 74 85
REMARK SMILES IDX 78 86 81 87 75 88 76 89 79 90 77 91 56 92 57 93 65 94 58 95
REMARK SMILES IDX 59 96 63 97 66 98 60 99 61 100 64 101 62 102
REMARK H PARENT 8 18 86 55 54 66
REMARK Flexibility Score: inf
ROOT
ATOM      1  C   UNL A   1      34.822  30.477  27.957  1.00  0.00     0.188 C 
ENDROOT
BRANCH   1   2
ATOM      2  C   UNL A   1      34.551  29.254  27.067  1.00  0.00     0.188 C 
BRANCH   2   3
ATOM      3  O   UNL A   1      33.582  28.394  27.660  1.00  0.00    -0.376 OA
BRANCH   3   4
ATOM      4  C   UNL A   1      32.808  27.601  26.775  1.00  0.00     0.202 C 
BRANCH   4   5
ATOM      5  C   UNL A   1      33.626  26.486  26.110  1.00  0.00     0.261 C 
BRANCH   5   6
ATOM      6  O   UNL A   1      32.929  25.236  25.921  1.00  0.00    -0.463 OA
BRANCH   6   7
ATOM      7  C   UNL A   1      33.599  24.101  26.245  1.00  0.00     0.310 C 
ATOM      8  O   UNL A   1      33.730  23.697  27.392  1.00  0.00    -0.252 OA
BRANCH   7   9
ATOM      9  C   UNL A   1      34.088  23.382  24.992  1.00  0.00     0.119 C 
ATOM     10  C   UNL A   1      34.223  21.821  25.192  1.00  0.00     0.100 C 
ATOM     11  C   UNL A   1      35.726  21.597  24.877  1.00  0.00     0.025 C 
ATOM     12  C   UNL A   1      35.537  23.817  24.653  1.00  0.00     0.027 C 
ATOM     13  C   UNL A   1      36.530  22.224  25.990  1.00  0.00    -0.027 C 
ATOM     14  C   UNL A   1      35.998  22.650  23.785  1.00  0.00     0.017 C 
ATOM     15  C   UNL A   1      36.443  23.554  25.838  1.00  0.00    -0.027 C 
BRANCH  10  16
ATOM     16  C   UNL A   1      33.435  20.968  24.203  1.00  0.00     0.228 C 
ATOM     17  N   UNL A   1      32.447  21.427  23.380  1.00  0.00    -0.326 N 
ATOM     18  H   UNL A   1      31.867  20.704  23.049  1.00  0.00     0.169 HD
ATOM     19  O   UNL A   1      33.668  19.755  24.114  1.00  0.00    -0.274 OA
BRANCH  17  20
ATOM     20  C   UNL A   1      32.061  22.692  22.893  1.00  0.00     0.041 A 
ATOM     21  C   UNL A   1      31.922  25.441  22.343  1.00  0.00     0.119 A 
ATOM     22  C   UNL A   1      30.926  24.816  23.087  1.00  0.00     0.048 A 
ATOM     23  C   UNL A   1      32.897  24.670  21.722  1.00  0.00     0.048 A 
ATOM     24  C   UNL A   1      30.973  23.438  23.327  1.00  0.00     0.030 A 
ATOM     25  C   UNL A   1      32.960  23.298  21.994  1.00  0.00     0.030 A 
BRANCH  21  26
ATOM     26  O   UNL A   1      32.052  26.790  22.503  1.00  0.00    -0.494 OA
BRANCH  26  27
ATOM     27  C   UNL A   1      33.298  27.258  23.009  1.00  0.00     0.226 C 
ATOM     28  C   UNL A   1      34.028  28.118  21.992  1.00  0.00     0.049 C 
ENDBRANCH  26  27
ENDBRANCH  21  26
ENDBRANCH  17  20
ENDBRANCH  10  16
ENDBRANCH   7   9
ENDBRANCH   6   7
ENDBRANCH   5   6
ENDBRANCH   4   5
ENDBRANCH   3   4
ENDBRANCH   2   3
ENDBRANCH   1   2
BRANCH   1  29
ATOM     29  O   UNL A   1      33.987  31.607  27.745  1.00  0.00    -0.377 OA
BRANCH  29  30
ATOM     30  C   UNL A   1      34.216  32.702  28.613  1.00  0.00     0.188 C 
BRANCH  30  31
ATOM     31  C   UNL A   1      33.767  34.073  28.064  1.00  0.00     0.188 C 
BRANCH  31  32
ATOM     32  O   UNL A   1      32.879  34.949  28.757  1.00  0.00    -0.376 OA
BRANCH  32  33
ATOM     33  C   UNL A   1      33.288  36.240  29.166  1.00  0.00     0.202 C 
BRANCH  33  34
ATOM     34  C   UNL A   1      32.529  36.815  30.367  1.00  0.00     0.261 C 
BRANCH  34  35
ATOM     35  O   UNL A   1      33.189  36.609  31.616  1.00  0.00    -0.460 OA
BRANCH  35  36
ATOM     36  C   UNL A   1      32.875  35.452  32.242  1.00  0.00     0.338 C 
ATOM     37  O   UNL A   1      31.768  35.008  32.501  1.00  0.00    -0.246 OA
BRANCH  36  38
ATOM     38  C   UNL A   1      34.129  34.703  32.430  1.00  0.00     0.060 A 
ATOM     39  C   UNL A   1      34.073  33.478  33.106  1.00  0.00     0.016 A 
ATOM     40  C   UNL A   1      35.330  35.167  31.882  1.00  0.00     0.016 A 
ATOM     41  C   UNL A   1      35.221  32.708  33.234  1.00  0.00     0.010 A 
ATOM     42  C   UNL A   1      36.492  34.420  32.054  1.00  0.00     0.010 A 
ATOM     43  C   UNL A   1      36.440  33.205  32.757  1.00  0.00    -0.014 A 
BRANCH  43  44
ATOM     44  C   UNL A   1      37.684  32.598  33.261  1.00  0.00     0.031 A 
ATOM     45  C   UNL A   1      38.312  31.535  32.406  1.00  0.00     0.074 A 
ATOM     46  C   UNL A   1      38.249  33.010  34.406  1.00  0.00     0.049 A 
ATOM     47  N   UNL A   1      39.398  30.839  32.607  1.00  0.00    -0.248 NA
ATOM     48  C   UNL A   1      37.620  31.220  31.141  1.00  0.00     0.031 C 
ATOM     49  C   UNL A   1      37.736  34.070  35.272  1.00  0.00     0.029 A 
ATOM     50  N   UNL A   1      39.386  32.579  35.037  1.00  0.00    -0.354 N 
ATOM     51  C   UNL A   1      39.517  30.011  31.500  1.00  0.00     0.074 A 
ATOM     52  C   UNL A   1      38.388  30.269  30.637  1.00  0.00     0.031 C 
ATOM     53  C   UNL A   1      38.553  34.197  36.333  1.00  0.00     0.029 A 
ATOM     54  C   UNL A   1      39.625  33.209  36.231  1.00  0.00     0.049 A 
ATOM     55  H   UNL A   1      39.976  31.882  34.667  1.00  0.00     0.167 HD
ATOM     56  C   UNL A   1      40.491  29.114  31.229  1.00  0.00     0.037 A 
ATOM     57  C   UNL A   1      40.594  32.984  37.140  1.00  0.00     0.037 A 
ATOM     58  C   UNL A   1      41.599  28.861  32.105  1.00  0.00     0.049 A 
ATOM     59  C   UNL A   1      41.622  31.918  36.848  1.00  0.00     0.074 A 
ATOM     60  C   UNL A   1      42.648  27.977  31.936  1.00  0.00     0.029 A 
ATOM     61  N   UNL A   1      41.790  29.491  33.327  1.00  0.00    -0.354 N 
ATOM     62  N   UNL A   1      41.750  31.156  35.786  1.00  0.00    -0.248 NA
ATOM     63  C   UNL A   1      42.641  31.682  37.878  1.00  0.00     0.031 C 
ATOM     64  C   UNL A   1      43.447  28.034  33.083  1.00  0.00     0.029 A 
ATOM     65  C   UNL A   1      42.928  28.995  33.937  1.00  0.00     0.049 A 
ATOM     66  H   UNL A   1      41.203  30.187  33.701  1.00  0.00     0.167 HD
ATOM     67  C   UNL A   1      42.880  30.378  36.006  1.00  0.00     0.074 A 
ATOM     68  C   UNL A   1      43.407  30.770  37.295  1.00  0.00     0.031 C 
ATOM     69  C   UNL A   1      43.433  29.425  35.216  1.00  0.00     0.037 A 
BRANCH  56  70
ATOM     70  C   UNL A   1      40.373  28.321  29.963  1.00  0.00     0.064 A 
ATOM     71  C   UNL A   1      39.562  27.179  29.879  1.00  0.00     0.173 A 
ATOM     72  C   UNL A   1      41.062  28.725  28.811  1.00  0.00     0.173 A 
ATOM     73  F   UNL A   1      38.904  26.736  30.960  1.00  0.00    -0.203 F 
ATOM     74  C   UNL A   1      39.456  26.465  28.687  1.00  0.00     0.198 A 
ATOM     75  C   UNL A   1      40.932  28.026  27.616  1.00  0.00     0.198 A 
ATOM     76  F   UNL A   1      41.859  29.805  28.843  1.00  0.00    -0.203 F 
ATOM     77  F   UNL A   1      38.707  25.355  28.639  1.00  0.00    -0.200 F 
ATOM     78  C   UNL A   1      40.132  26.893  27.556  1.00  0.00     0.200 A 
ATOM     79  F   UNL A   1      41.581  28.446  26.521  1.00  0.00    -0.200 F 
ATOM     80  F   UNL A   1      40.018  26.213  26.407  1.00  0.00    -0.200 F 
ENDBRANCH  56  70
BRANCH  57  81
ATOM     81  C   UNL A   1      40.634  33.754  38.411  1.00  0.00     0.064 A 
ATOM     82  C   UNL A   1      41.513  34.833  38.582  1.00  0.00     0.173 A 
ATOM     83  C   UNL A   1      39.824  33.399  39.501  1.00  0.00     0.173 A 
ATOM     84  F   UNL A   1      42.326  35.198  37.579  1.00  0.00    -0.203 F 
ATOM     85  C   UNL A   1      41.605  35.505  39.799  1.00  0.00     0.198 A 
ATOM     86  C   UNL A   1      39.893  34.092  40.709  1.00  0.00     0.198 A 
ATOM     87  F   UNL A   1      38.966  32.375  39.396  1.00  0.00    -0.203 F 
ATOM     88  F   UNL A   1      42.498  36.492  39.953  1.00  0.00    -0.200 F 
ATOM     89  C   UNL A   1      40.792  35.136  40.861  1.00  0.00     0.200 A 
ATOM     90  F   UNL A   1      39.098  33.740  41.728  1.00  0.00    -0.200 F 
ATOM     91  F   UNL A   1      40.884  35.779  42.033  1.00  0.00    -0.200 F 
ENDBRANCH  57  81
BRANCH  69  92
ATOM     92  C   UNL A   1      44.698  28.780  35.702  1.00  0.00     0.064 A 
ATOM     93  C   UNL A   1      45.958  29.326  35.422  1.00  0.00     0.173 A 
ATOM     94  C   UNL A   1      44.640  27.631  36.506  1.00  0.00     0.173 A 
ATOM     95  F   UNL A   1      46.065  30.417  34.648  1.00  0.00    -0.203 F 
ATOM     96  C   UNL A   1      47.118  28.727  35.906  1.00  0.00     0.198 A 
ATOM     97  C   UNL A   1      45.799  27.055  37.015  1.00  0.00     0.198 A 
ATOM     98  F   UNL A   1      43.457  27.078  36.812  1.00  0.00    -0.203 F 
ATOM     99  F   UNL A   1      48.315  29.236  35.584  1.00  0.00    -0.200 F 
ATOM    100  C   UNL A   1      47.037  27.599  36.709  1.00  0.00     0.200 A 
ATOM    101  F   UNL A   1      45.717  25.977  37.807  1.00  0.00    -0.200 F 
ATOM    102  F   UNL A   1      48.154  27.030  37.183  1.00  0.00    -0.200 F 
ENDBRANCH  69  92
ENDBRANCH  43  44
ENDBRANCH  36  38
ENDBRANCH  35  36
ENDBRANCH  34  35
ENDBRANCH  33  34
ENDBRANCH  32  33
ENDBRANCH  31  32
ENDBRANCH  30  31
ENDBRANCH  29  30
ENDBRANCH   1  29
TORSDOF 24
ENDMDL
MODEL 3
REMARK VINA RESULT:      -9.4      1.026      2.071
REMARK SMILES CCOc1ccc(NC(=O)[C@@H]2[C@@H](C(=O)OCCOCCOCCOCCOC(=O)c3ccc(-c4c5nc(c(-c6c(F)c(F)c(F)c(F)c6F)c6ccc([nH]6)c(-c6c(F)c(F)c(F)c(F)c6F)c6nc(c(-c7c(F)c(F)c(F)c(F)c7F)c7ccc4[nH]7)C=C6)C=C5)cc3)[C@H]3C=C[C@@H]2C3)cc1
REMARK SMILES IDX 20 1 19 2 18 3 17 4 16 5 15 6 13 7 14 8 12 9 11 10 96 11
REMARK SMILES IDX 93 12 95 13 97 14 94 15 9 16 8 17 10 19 7 20 4 21 5 22 99 23
REMARK SMILES IDX 6 24 98 25 3 26 2 27 1 28 21 29 22 30 23 31 24 32 25 33
REMARK SMILES IDX 26 34 27 35 28 36 29 37 30 38 31 39 92 40 32 41 91 42 33 43
REMARK SMILES IDX 34 44 35 45 85 46 36 47 90 48 84 49 86 50 37 51 89 52 83 53
REMARK SMILES IDX 82 54 38 56 70 57 50 58 69 59 51 60 54 61 68 62 87 63 52 64
REMARK SMILES IDX 53 65 67 67 88 68 55 69 39 70 40 71 48 72 41 73 42 74 46 75
REMARK SMILES IDX 49 76 43 77 44 78 47 79 45 80 71 81 72 82 80 83 73 84 74 85
REMARK SMILES IDX 78 86 81 87 75 88 76 89 79 90 77 91 56 92 57 93 65 94 58 95
REMARK SMILES IDX 59 96 63 97 66 98 60 99 61 100 64 101 62 102
REMARK H PARENT 8 18 86 55 54 66
REMARK Flexibility Score: inf
ROOT
ATOM      1  C   UNL A   1      31.806  30.273  26.784  1.00  0.00     0.188 C 
ENDROOT
BRANCH   1   2
ATOM      2  C   UNL A   1      32.228  28.809  26.982  1.00  0.00     0.188 C 
BRANCH   2   3
ATOM      3  O   UNL A   1      31.493  27.944  26.120  1.00  0.00    -0.376 OA
BRANCH   3   4
ATOM      4  C   UNL A   1      31.308  26.610  26.565  1.00  0.00     0.202 C 
BRANCH   4   5
ATOM      5  C   UNL A   1      30.278  25.843  25.726  1.00  0.00     0.261 C 
BRANCH   5   6
ATOM      6  O   UNL A   1      30.659  24.502  25.352  1.00  0.00    -0.463 OA
BRANCH   6   7
ATOM      7  C   UNL A   1      31.160  23.707  26.332  1.00  0.00     0.310 C 
ATOM      8  O   UNL A   1      30.494  23.282  27.265  1.00  0.00    -0.252 OA
BRANCH   7   9
ATOM      9  C   UNL A   1      32.623  23.369  26.063  1.00  0.00     0.119 C 
ATOM     10  C   UNL A   1      33.097  23.797  24.619  1.00  0.00     0.100 C 
ATOM     11  C   UNL A   1      33.557  22.437  24.027  1.00  0.00     0.025 C 
ATOM     12  C   UNL A   1      32.827  21.832  26.057  1.00  0.00     0.027 C 
ATOM     13  C   UNL A   1      32.328  21.585  23.819  1.00  0.00    -0.027 C 
ATOM     14  C   UNL A   1      34.124  21.712  25.263  1.00  0.00     0.017 C 
ATOM     15  C   UNL A   1      31.909  21.196  25.033  1.00  0.00    -0.027 C 
BRANCH  10  16
ATOM     16  C   UNL A   1      34.308  24.724  24.579  1.00  0.00     0.228 C 
ATOM     17  N   UNL A   1      34.400  25.868  23.839  1.00  0.00    -0.326 N 
ATOM     18  H   UNL A   1      35.332  26.157  23.708  1.00  0.00     0.169 HD
ATOM     19  O   UNL A   1      35.315  24.451  25.247  1.00  0.00    -0.274 OA
BRANCH  17  20
ATOM     20  C   UNL A   1      33.476  26.732  23.217  1.00  0.00     0.041 A 
ATOM     21  C   UNL A   1      31.475  28.639  22.731  1.00  0.00     0.119 A 
ATOM     22  C   UNL A   1      31.270  27.300  22.412  1.00  0.00     0.048 A 
ATOM     23  C   UNL A   1      32.738  29.061  23.128  1.00  0.00     0.048 A 
ATOM     24  C   UNL A   1      32.283  26.355  22.615  1.00  0.00     0.030 A 
ATOM     25  C   UNL A   1      33.735  28.107  23.365  1.00  0.00     0.030 A 
BRANCH  21  26
ATOM     26  O   UNL A   1      30.360  29.404  22.912  1.00  0.00    -0.494 OA
BRANCH  26  27
ATOM     27  C   UNL A   1      29.137  28.884  22.401  1.00  0.00     0.226 C 
ATOM     28  C   UNL A   1      27.935  29.465  23.127  1.00  0.00     0.049 C 
ENDBRANCH  26  27
ENDBRANCH  21  26
ENDBRANCH  17  20
ENDBRANCH  10  16
ENDBRANCH   7   9
ENDBRANCH   6   7
ENDBRANCH   5   6
ENDBRANCH   4   5
ENDBRANCH   3   4
ENDBRANCH   2   3
ENDBRANCH   1   2
BRANCH   1  29
ATOM     29  O   UNL A   1      32.820  31.251  26.972  1.00  0.00    -0.377 OA
BRANCH  29  30
ATOM     30  C   UNL A   1      34.002  30.787  27.601  1.00  0.00     0.188 C 
BRANCH  30  31
ATOM     31  C   UNL A   1      34.956  31.897  28.091  1.00  0.00     0.188 C 
BRANCH  31  32
ATOM     32  O   UNL A   1      34.904  33.245  27.627  1.00  0.00    -0.376 OA
BRANCH  32  33
ATOM     33  C   UNL A   1      33.862  34.119  28.018  1.00  0.00     0.202 C 
BRANCH  33  34
ATOM     34  C   UNL A   1      34.088  34.850  29.346  1.00  0.00     0.261 C 
BRANCH  34  35
ATOM     35  O   UNL A   1      33.093  34.574  30.332  1.00  0.00    -0.460 OA
BRANCH  35  36
ATOM     36  C   UNL A   1      33.220  35.276  31.481  1.00  0.00     0.338 C 
ATOM     37  O   UNL A   1      32.485  36.145  31.921  1.00  0.00    -0.246 OA
BRANCH  36  38
ATOM     38  C   UNL A   1      34.347  34.691  32.227  1.00  0.00     0.060 A 
ATOM     39  C   UNL A   1      35.528  35.437  32.333  1.00  0.00     0.016 A 
ATOM     40  C   UNL A   1      34.214  33.459  32.877  1.00  0.00     0.016 A 
ATOM     41  C   UNL A   1      36.583  34.953  33.094  1.00  0.00     0.010 A 
ATOM     42  C   UNL A   1      35.290  32.949  33.598  1.00  0.00     0.010 A 
ATOM     43  C   UNL A   1      36.484  33.685  33.679  1.00  0.00    -0.014 A 
BRANCH  43  44
ATOM     44  C   UNL A   1      37.726  33.018  34.109  1.00  0.00     0.031 A 
ATOM     45  C   UNL A   1      38.293  31.982  33.181  1.00  0.00     0.074 A 
ATOM     46  C   UNL A   1      38.341  33.356  35.253  1.00  0.00     0.049 A 
ATOM     47  N   UNL A   1      39.363  31.247  33.309  1.00  0.00    -0.248 NA
ATOM     48  C   UNL A   1      37.549  31.750  31.928  1.00  0.00     0.031 C 
ATOM     49  C   UNL A   1      37.890  34.386  36.187  1.00  0.00     0.029 A 
ATOM     50  N   UNL A   1      39.486  32.862  35.820  1.00  0.00    -0.354 N 
ATOM     51  C   UNL A   1      39.420  30.471  32.159  1.00  0.00     0.074 A 
ATOM     52  C   UNL A   1      38.271  30.804  31.351  1.00  0.00     0.031 C 
ATOM     53  C   UNL A   1      38.746  34.436  37.223  1.00  0.00     0.029 A 
ATOM     54  C   UNL A   1      39.784  33.425  37.035  1.00  0.00     0.049 A 
ATOM     55  H   UNL A   1      40.042  32.168  35.396  1.00  0.00     0.167 HD
ATOM     56  C   UNL A   1      40.357  29.563  31.810  1.00  0.00     0.037 A 
ATOM     57  C   UNL A   1      40.776  33.127  37.897  1.00  0.00     0.037 A 
ATOM     58  C   UNL A   1      41.486  29.235  32.633  1.00  0.00     0.049 A 
ATOM     59  C   UNL A   1      41.761  32.048  37.517  1.00  0.00     0.074 A 
ATOM     60  C   UNL A   1      42.501  28.331  32.385  1.00  0.00     0.029 A 
ATOM     61  N   UNL A   1      41.737  29.797  33.877  1.00  0.00    -0.354 N 
ATOM     62  N   UNL A   1      41.830  31.337  36.415  1.00  0.00    -0.248 NA
ATOM     63  C   UNL A   1      42.807  31.732  38.497  1.00  0.00     0.031 C 
ATOM     64  C   UNL A   1      43.340  28.308  33.504  1.00  0.00     0.029 A 
ATOM     65  C   UNL A   1      42.879  29.239  34.422  1.00  0.00     0.049 A 
ATOM     66  H   UNL A   1      41.184  30.490  34.306  1.00  0.00     0.167 HD
ATOM     67  C   UNL A   1      42.942  30.518  36.556  1.00  0.00     0.074 A 
ATOM     68  C   UNL A   1      43.525  30.829  37.844  1.00  0.00     0.031 C 
ATOM     69  C   UNL A   1      43.440  29.590  35.701  1.00  0.00     0.037 A 
BRANCH  56  70
ATOM     70  C   UNL A   1      40.173  28.838  30.512  1.00  0.00     0.064 A 
ATOM     71  C   UNL A   1      39.457  27.634  30.433  1.00  0.00     0.173 A 
ATOM     72  C   UNL A   1      40.699  29.370  29.327  1.00  0.00     0.173 A 
ATOM     73  F   UNL A   1      38.958  27.070  31.543  1.00  0.00    -0.203 F 
ATOM     74  C   UNL A   1      39.286  26.983  29.212  1.00  0.00     0.198 A 
ATOM     75  C   UNL A   1      40.502  28.733  28.105  1.00  0.00     0.198 A 
ATOM     76  F   UNL A   1      41.400  30.514  29.351  1.00  0.00    -0.203 F 
ATOM     77  F   UNL A   1      38.633  25.814  29.164  1.00  0.00    -0.200 F 
ATOM     78  C   UNL A   1      39.799  27.538  28.050  1.00  0.00     0.200 A 
ATOM     79  F   UNL A   1      40.992  29.274  26.982  1.00  0.00    -0.200 F 
ATOM     80  F   UNL A   1      39.621  26.918  26.875  1.00  0.00    -0.200 F 
ENDBRANCH  56  70
BRANCH  57  81
ATOM     81  C   UNL A   1      40.881  33.831  39.202  1.00  0.00     0.064 A 
ATOM     82  C   UNL A   1      40.146  33.409  40.319  1.00  0.00     0.173 A 
ATOM     83  C   UNL A   1      41.686  34.971  39.350  1.00  0.00     0.173 A 
ATOM     84  F   UNL A   1      39.344  32.338  40.225  1.00  0.00    -0.203 F 
ATOM     85  C   UNL A   1      40.186  34.115  41.520  1.00  0.00     0.198 A 
ATOM     86  C   UNL A   1      41.750  35.660  40.560  1.00  0.00     0.198 A 
ATOM     87  F   UNL A   1      42.409  35.423  38.314  1.00  0.00    -0.203 F 
ATOM     88  F   UNL A   1      39.425  33.724  42.552  1.00  0.00    -0.200 F 
ATOM     89  C   UNL A   1      40.991  35.238  41.640  1.00  0.00     0.200 A 
ATOM     90  F   UNL A   1      42.538  36.737  40.675  1.00  0.00    -0.200 F 
ATOM     91  F   UNL A   1      41.025  35.920  42.793  1.00  0.00    -0.200 F 
ENDBRANCH  57  81
BRANCH  69  92
ATOM     92  C   UNL A   1      44.700  28.886  36.110  1.00  0.00     0.064 A 
ATOM     93  C   UNL A   1      44.672  27.670  36.808  1.00  0.00     0.173 A 
ATOM     94  C   UNL A   1      45.951  29.410  35.748  1.00  0.00     0.173 A 
ATOM     95  F   UNL A   1      43.502  27.136  37.186  1.00  0.00    -0.203 F 
ATOM     96  C   UNL A   1      45.853  27.019  37.154  1.00  0.00     0.198 A 
ATOM     97  C   UNL A   1      47.127  28.739  36.065  1.00  0.00     0.198 A 
ATOM     98  F   UNL A   1      46.030  30.564  35.068  1.00  0.00    -0.203 F 
ATOM     99  F   UNL A   1      45.805  25.885  37.865  1.00  0.00    -0.200 F 
ATOM    100  C   UNL A   1      47.078  27.549  36.775  1.00  0.00     0.200 A 
ATOM    101  F   UNL A   1      48.308  29.243  35.681  1.00  0.00    -0.200 F 
ATOM    102  F   UNL A   1      48.213  26.915  37.099  1.00  0.00    -0.200 F 
ENDBRANCH  69  92
ENDBRANCH  43  44
ENDBRANCH  36  38
ENDBRANCH  35  36
ENDBRANCH  34  35
ENDBRANCH  33  34
ENDBRANCH  32  33
ENDBRANCH  31  32
ENDBRANCH  30  31
ENDBRANCH  29  30
ENDBRANCH   1  29
TORSDOF 24
ENDMDL
