MODEL 1
REMARK VINA RESULT:     -10.3      0.000      0.000
REMARK SMILES C[NH2+][C@@]1(C(=O)OCCOCCOCCOCCOC(=O)c2ccc(-c3c4nc(c(-c5c(F)c(F)c(F)c(F)c5F)c5ccc([nH]5)c(-c5c(F)c(F)c(F)c(F)c5F)c5nc(c(-c6c(F)c(F)c(F)c(F)c6F)c6ccc3[nH]6)C=C5)C=C4)cc2)CC[C@H](Sc2ccc(C)c(C)c2)C1
REMARK SMILES IDX 12 1 11 2 10 3 9 4 8 5 7 6 6 7 4 8 5 9 3 10 84 11 96 12
REMARK SMILES IDX 85 13 86 14 2 15 1 16 87 19 88 20 89 21 95 22 90 23 93 24
REMARK SMILES IDX 91 25 94 26 92 27 13 28 14 29 15 30 16 31 17 32 18 33 19 34
REMARK SMILES IDX 20 35 21 36 22 37 83 38 23 39 82 40 24 41 25 42 26 43 76 44
REMARK SMILES IDX 27 45 81 46 75 47 77 48 28 49 80 50 74 51 73 52 29 54 61 55
REMARK SMILES IDX 41 56 60 57 42 58 45 59 59 60 78 61 43 62 44 63 58 65 79 66
REMARK SMILES IDX 46 67 30 68 31 69 39 70 32 71 33 72 37 73 40 74 34 75 35 76
REMARK SMILES IDX 38 77 36 78 62 79 63 80 71 81 64 82 65 83 69 84 72 85 66 86
REMARK SMILES IDX 67 87 70 88 68 89 47 90 48 91 56 92 49 93 50 94 54 95 57 96
REMARK SMILES IDX 51 97 52 98 55 99 53 100
REMARK H PARENT 2 17 2 18 77 53 45 64
REMARK Flexibility Score: inf
ROOT
ATOM      1  O   UNL A   1      34.291  34.034  27.660  1.00  0.00    -0.377 OA
ENDROOT
BRANCH   1   2
ATOM      2  C   UNL A   1      33.734  32.864  28.225  1.00  0.00     0.188 C 
BRANCH   2   3
ATOM      3  C   UNL A   1      34.239  31.480  27.796  1.00  0.00     0.188 C 
BRANCH   3   4
ATOM      4  O   UNL A   1      33.187  30.554  27.581  1.00  0.00    -0.376 OA
BRANCH   4   5
ATOM      5  C   UNL A   1      32.787  30.181  26.276  1.00  0.00     0.202 C 
BRANCH   5   6
ATOM      6  C   UNL A   1      33.356  28.932  25.574  1.00  0.00     0.261 C 
BRANCH   6   7
ATOM      7  O   UNL A   1      32.438  27.867  25.300  1.00  0.00    -0.459 OA
BRANCH   7   8
ATOM      8  C   UNL A   1      31.472  28.090  24.387  1.00  0.00     0.368 C 
ATOM      9  O   UNL A   1      30.797  29.117  24.394  1.00  0.00    -0.245 OA
BRANCH   8  10
ATOM     10  C   UNL A   1      31.252  26.901  23.358  1.00  0.00     0.195 C 
ATOM     11  C   UNL A   1      29.725  26.771  23.254  1.00  0.00     0.082 C 
ATOM     12  C   UNL A   1      31.563  25.412  23.673  1.00  0.00     0.096 C 
ATOM     13  C   UNL A   1      29.373  25.939  24.505  1.00  0.00     0.022 C 
ATOM     14  C   UNL A   1      30.491  24.897  24.634  1.00  0.00     0.059 C 
BRANCH  10  15
ATOM     15  N   UNL A   1      32.038  27.190  22.129  1.00  0.00    -0.335 N 
ATOM     16  C   UNL A   1      33.449  26.844  22.176  1.00  0.00     0.331 C 
ATOM     17  H   UNL A   1      31.615  26.672  21.359  1.00  0.00     0.347 HD
ATOM     18  H   UNL A   1      32.009  28.205  22.017  1.00  0.00     0.347 HD
ENDBRANCH  10  15
BRANCH  14  19
ATOM     19  S   UNL A   1      31.278  24.672  26.270  1.00  0.00    -0.122 SA
BRANCH  19  20
ATOM     20  C   UNL A   1      32.597  23.515  26.030  1.00  0.00     0.008 A 
ATOM     21  C   UNL A   1      33.901  23.675  26.480  1.00  0.00     0.015 A 
ATOM     22  C   UNL A   1      32.281  22.370  25.289  1.00  0.00     0.018 A 
ATOM     23  C   UNL A   1      34.893  22.768  26.108  1.00  0.00     0.005 A 
ATOM     24  C   UNL A   1      33.258  21.420  24.951  1.00  0.00    -0.047 A 
ATOM     25  C   UNL A   1      34.592  21.650  25.320  1.00  0.00    -0.048 A 
ATOM     26  C   UNL A   1      32.843  20.221  24.156  1.00  0.00     0.044 C 
ATOM     27  C   UNL A   1      35.731  20.768  24.894  1.00  0.00     0.044 C 
ENDBRANCH  19  20
ENDBRANCH  14  19
ENDBRANCH   8  10
ENDBRANCH   7   8
ENDBRANCH   6   7
ENDBRANCH   5   6
ENDBRANCH   4   5
ENDBRANCH   3   4
ENDBRANCH   2   3
ENDBRANCH   1   2
BRANCH   1  28
ATOM     28  C   UNL A   1      34.310  35.164  28.514  1.00  0.00     0.188 C 
BRANCH  28  29
ATOM     29  C   UNL A   1      34.300  34.731  29.985  1.00  0.00     0.188 C 
BRANCH  29  30
ATOM     30  O   UNL A   1      33.907  35.675  30.966  1.00  0.00    -0.376 OA
BRANCH  30  31
ATOM     31  C   UNL A   1      34.669  35.911  32.141  1.00  0.00     0.202 C 
BRANCH  31  32
ATOM     32  C   UNL A   1      35.017  34.875  33.242  1.00  0.00     0.261 C 
BRANCH  32  33
ATOM     33  O   UNL A   1      35.854  33.758  32.934  1.00  0.00    -0.460 OA
BRANCH  33  34
ATOM     34  C   UNL A   1      35.261  32.647  32.462  1.00  0.00     0.338 C 
ATOM     35  O   UNL A   1      34.064  32.410  32.408  1.00  0.00    -0.246 OA
BRANCH  34  36
ATOM     36  C   UNL A   1      36.312  31.807  31.842  1.00  0.00     0.060 A 
ATOM     37  C   UNL A   1      37.294  31.238  32.665  1.00  0.00     0.016 A 
ATOM     38  C   UNL A   1      36.332  31.574  30.465  1.00  0.00     0.016 A 
ATOM     39  C   UNL A   1      38.317  30.468  32.116  1.00  0.00     0.010 A 
ATOM     40  C   UNL A   1      37.380  30.830  29.908  1.00  0.00     0.010 A 
ATOM     41  C   UNL A   1      38.399  30.305  30.729  1.00  0.00    -0.014 A 
BRANCH  41  42
ATOM     42  C   UNL A   1      39.664  29.811  30.130  1.00  0.00     0.031 A 
ATOM     43  C   UNL A   1      40.805  30.782  29.990  1.00  0.00     0.074 A 
ATOM     44  C   UNL A   1      39.836  28.525  29.773  1.00  0.00     0.049 A 
ATOM     45  N   UNL A   1      41.980  30.616  29.439  1.00  0.00    -0.248 NA
ATOM     46  C   UNL A   1      40.597  32.120  30.571  1.00  0.00     0.031 C 
ATOM     47  C   UNL A   1      38.867  27.449  29.964  1.00  0.00     0.029 A 
ATOM     48  N   UNL A   1      40.896  27.915  29.145  1.00  0.00    -0.354 N 
ATOM     49  C   UNL A   1      42.654  31.816  29.625  1.00  0.00     0.074 A 
ATOM     50  C   UNL A   1      41.741  32.721  30.288  1.00  0.00     0.031 C 
ATOM     51  C   UNL A   1      39.353  26.323  29.410  1.00  0.00     0.029 A 
ATOM     52  C   UNL A   1      40.645  26.612  28.792  1.00  0.00     0.049 A 
ATOM     53  H   UNL A   1      41.752  28.368  28.967  1.00  0.00     0.167 HD
ATOM     54  C   UNL A   1      43.932  32.127  29.298  1.00  0.00     0.037 A 
ATOM     55  C   UNL A   1      41.355  25.771  28.016  1.00  0.00     0.037 A 
ATOM     56  C   UNL A   1      44.836  31.229  28.632  1.00  0.00     0.049 A 
ATOM     57  C   UNL A   1      42.696  26.200  27.490  1.00  0.00     0.074 A 
ATOM     58  C   UNL A   1      46.156  31.440  28.275  1.00  0.00     0.029 A 
ATOM     59  N   UNL A   1      44.507  29.950  28.206  1.00  0.00    -0.354 N 
ATOM     60  N   UNL A   1      43.332  27.331  27.670  1.00  0.00    -0.248 NA
ATOM     61  C   UNL A   1      43.430  25.219  26.678  1.00  0.00     0.031 C 
ATOM     62  C   UNL A   1      46.604  30.317  27.572  1.00  0.00     0.029 A 
ATOM     63  C   UNL A   1      45.587  29.376  27.555  1.00  0.00     0.049 A 
ATOM     64  H   UNL A   1      43.635  29.514  28.346  1.00  0.00     0.167 HD
ATOM     65  C   UNL A   1      44.563  27.179  27.045  1.00  0.00     0.074 A 
ATOM     66  C   UNL A   1      44.575  25.851  26.467  1.00  0.00     0.031 C 
ATOM     67  C   UNL A   1      45.596  28.053  26.983  1.00  0.00     0.037 A 
BRANCH  54  68
ATOM     68  C   UNL A   1      44.417  33.507  29.635  1.00  0.00     0.064 A 
ATOM     69  C   UNL A   1      44.265  34.582  28.746  1.00  0.00     0.173 A 
ATOM     70  C   UNL A   1      45.012  33.763  30.879  1.00  0.00     0.173 A 
ATOM     71  F   UNL A   1      43.715  34.389  27.538  1.00  0.00    -0.203 F 
ATOM     72  C   UNL A   1      44.715  35.858  29.080  1.00  0.00     0.198 A 
ATOM     73  C   UNL A   1      45.431  35.046  31.224  1.00  0.00     0.198 A 
ATOM     74  F   UNL A   1      45.179  32.772  31.767  1.00  0.00    -0.203 F 
ATOM     75  F   UNL A   1      44.604  36.859  28.197  1.00  0.00    -0.200 F 
ATOM     76  C   UNL A   1      45.289  36.090  30.321  1.00  0.00     0.200 A 
ATOM     77  F   UNL A   1      45.971  35.271  32.429  1.00  0.00    -0.200 F 
ATOM     78  F   UNL A   1      45.713  37.319  30.646  1.00  0.00    -0.200 F 
ENDBRANCH  54  68
BRANCH  55  79
ATOM     79  C   UNL A   1      40.796  24.448  27.639  1.00  0.00     0.064 A 
ATOM     80  C   UNL A   1      41.322  23.256  28.150  1.00  0.00     0.173 A 
ATOM     81  C   UNL A   1      39.757  24.356  26.704  1.00  0.00     0.173 A 
ATOM     82  F   UNL A   1      42.361  23.292  28.996  1.00  0.00    -0.203 F 
ATOM     83  C   UNL A   1      40.819  22.020  27.745  1.00  0.00     0.198 A 
ATOM     84  C   UNL A   1      39.231  23.123  26.327  1.00  0.00     0.198 A 
ATOM     85  F   UNL A   1      39.273  25.468  26.132  1.00  0.00    -0.203 F 
ATOM     86  F   UNL A   1      41.373  20.891  28.208  1.00  0.00    -0.200 F 
ATOM     87  C   UNL A   1      39.765  21.955  26.845  1.00  0.00     0.200 A 
ATOM     88  F   UNL A   1      38.222  23.067  25.447  1.00  0.00    -0.200 F 
ATOM     89  F   UNL A   1      39.281  20.767  26.461  1.00  0.00    -0.200 F 
ENDBRANCH  55  79
BRANCH  67  90
ATOM     90  C   UNL A   1      46.860  27.582  26.322  1.00  0.00     0.064 A 
ATOM     91  C   UNL A   1      47.095  27.758  24.951  1.00  0.00     0.173 A 
ATOM     92  C   UNL A   1      47.865  26.968  27.085  1.00  0.00     0.173 A 
ATOM     93  F   UNL A   1      46.159  28.322  24.172  1.00  0.00    -0.203 F 
ATOM     94  C   UNL A   1      48.274  27.309  24.363  1.00  0.00     0.198 A 
ATOM     95  C   UNL A   1      49.058  26.554  26.503  1.00  0.00     0.198 A 
ATOM     96  F   UNL A   1      47.695  26.779  28.403  1.00  0.00    -0.203 F 
ATOM     97  F   UNL A   1      48.452  27.434  23.041  1.00  0.00    -0.200 F 
ATOM     98  C   UNL A   1      49.258  26.715  25.141  1.00  0.00     0.200 A 
ATOM     99  F   UNL A   1      50.014  25.996  27.259  1.00  0.00    -0.200 F 
ATOM    100  F   UNL A   1      50.396  26.291  24.575  1.00  0.00    -0.200 F 
ENDBRANCH  67  90
ENDBRANCH  41  42
ENDBRANCH  34  36
ENDBRANCH  33  34
ENDBRANCH  32  33
ENDBRANCH  31  32
ENDBRANCH  30  31
ENDBRANCH  29  30
ENDBRANCH  28  29
ENDBRANCH   1  28
TORSDOF 23
ENDMDL
MODEL 2
REMARK VINA RESULT:     -10.2      3.277      8.684
REMARK SMILES C[NH2+][C@@]1(C(=O)OCCOCCOCCOCCOC(=O)c2ccc(-c3c4nc(c(-c5c(F)c(F)c(F)c(F)c5F)c5ccc([nH]5)c(-c5c(F)c(F)c(F)c(F)c5F)c5nc(c(-c6c(F)c(F)c(F)c(F)c6F)c6ccc3[nH]6)C=C5)C=C4)cc2)CC[C@H](Sc2ccc(C)c(C)c2)C1
REMARK SMILES IDX 12 1 11 2 10 3 9 4 8 5 7 6 6 7 4 8 5 9 3 10 84 11 96 12
REMARK SMILES IDX 85 13 86 14 2 15 1 16 87 19 88 20 89 21 95 22 90 23 93 24
REMARK SMILES IDX 91 25 94 26 92 27 13 28 14 29 15 30 16 31 17 32 18 33 19 34
REMARK SMILES IDX 20 35 21 36 22 37 83 38 23 39 82 40 24 41 25 42 26 43 76 44
REMARK SMILES IDX 27 45 81 46 75 47 77 48 28 49 80 50 74 51 73 52 29 54 61 55
REMARK SMILES IDX 41 56 60 57 42 58 45 59 59 60 78 61 43 62 44 63 58 65 79 66
REMARK SMILES IDX 46 67 30 68 31 69 39 70 32 71 33 72 37 73 40 74 34 75 35 76
REMARK SMILES IDX 38 77 36 78 62 79 63 80 71 81 64 82 65 83 69 84 72 85 66 86
REMARK SMILES IDX 67 87 70 88 68 89 47 90 48 91 56 92 49 93 50 94 54 95 57 96
REMARK SMILES IDX 51 97 52 98 55 99 53 100
REMARK H PARENT 2 17 2 18 77 53 45 64
REMARK Flexibility Score: inf
ROOT
ATOM      1  O   UNL A   1      31.890  21.701  24.919  1.00  0.00    -0.377 OA
ENDROOT
BRANCH   1   2
ATOM      2  C   UNL A   1      32.605  22.586  25.759  1.00  0.00     0.188 C 
BRANCH   2   3
ATOM      3  C   UNL A   1      32.086  22.910  27.165  1.00  0.00     0.188 C 
BRANCH   3   4
ATOM      4  O   UNL A   1      31.258  24.061  27.194  1.00  0.00    -0.376 OA
BRANCH   4   5
ATOM      5  C   UNL A   1      30.221  24.247  26.249  1.00  0.00     0.202 C 
BRANCH   5   6
ATOM      6  C   UNL A   1      29.975  25.607  25.565  1.00  0.00     0.261 C 
BRANCH   6   7
ATOM      7  O   UNL A   1      30.802  25.925  24.439  1.00  0.00    -0.459 OA
BRANCH   7   8
ATOM      8  C   UNL A   1      31.184  27.208  24.284  1.00  0.00     0.368 C 
ATOM      9  O   UNL A   1      30.380  28.136  24.333  1.00  0.00    -0.245 OA
BRANCH   8  10
ATOM     10  C   UNL A   1      32.730  27.402  23.979  1.00  0.00     0.195 C 
ATOM     11  C   UNL A   1      33.390  26.142  24.557  1.00  0.00     0.082 C 
ATOM     12  C   UNL A   1      33.630  28.450  24.692  1.00  0.00     0.096 C 
ATOM     13  C   UNL A   1      33.501  26.480  26.059  1.00  0.00     0.022 C 
ATOM     14  C   UNL A   1      33.881  27.965  26.120  1.00  0.00     0.059 C 
BRANCH  10  15
ATOM     15  N   UNL A   1      32.891  27.703  22.532  1.00  0.00    -0.335 N 
ATOM     16  C   UNL A   1      34.030  28.531  22.173  1.00  0.00     0.331 C 
ATOM     17  H   UNL A   1      32.982  26.816  22.038  1.00  0.00     0.347 HD
ATOM     18  H   UNL A   1      32.066  28.245  22.271  1.00  0.00     0.347 HD
ENDBRANCH  10  15
BRANCH  14  19
ATOM     19  S   UNL A   1      32.938  29.053  27.248  1.00  0.00    -0.122 SA
BRANCH  19  20
ATOM     20  C   UNL A   1      33.945  30.486  27.510  1.00  0.00     0.008 A 
ATOM     21  C   UNL A   1      35.327  30.486  27.643  1.00  0.00     0.015 A 
ATOM     22  C   UNL A   1      33.262  31.703  27.627  1.00  0.00     0.018 A 
ATOM     23  C   UNL A   1      36.003  31.655  27.992  1.00  0.00     0.005 A 
ATOM     24  C   UNL A   1      33.935  32.898  27.926  1.00  0.00    -0.047 A 
ATOM     25  C   UNL A   1      35.317  32.864  28.165  1.00  0.00    -0.048 A 
ATOM     26  C   UNL A   1      33.135  34.160  28.035  1.00  0.00     0.044 C 
ATOM     27  C   UNL A   1      36.107  34.057  28.622  1.00  0.00     0.044 C 
ENDBRANCH  19  20
ENDBRANCH  14  19
ENDBRANCH   8  10
ENDBRANCH   7   8
ENDBRANCH   6   7
ENDBRANCH   5   6
ENDBRANCH   4   5
ENDBRANCH   3   4
ENDBRANCH   2   3
ENDBRANCH   1   2
BRANCH   1  28
ATOM     28  C   UNL A   1      32.272  20.340  25.014  1.00  0.00     0.188 C 
BRANCH  28  29
ATOM     29  C   UNL A   1      33.707  20.217  25.540  1.00  0.00     0.188 C 
BRANCH  29  30
ATOM     30  O   UNL A   1      34.767  20.140  24.603  1.00  0.00    -0.376 OA
BRANCH  30  31
ATOM     31  C   UNL A   1      36.129  20.076  25.001  1.00  0.00     0.202 C 
BRANCH  31  32
ATOM     32  C   UNL A   1      37.238  21.108  24.671  1.00  0.00     0.261 C 
BRANCH  32  33
ATOM     33  O   UNL A   1      37.831  21.881  25.718  1.00  0.00    -0.460 OA
BRANCH  33  34
ATOM     34  C   UNL A   1      39.065  21.536  26.126  1.00  0.00     0.338 C 
ATOM     35  O   UNL A   1      39.645  20.480  25.925  1.00  0.00    -0.246 OA
BRANCH  34  36
ATOM     36  C   UNL A   1      39.690  22.737  26.726  1.00  0.00     0.060 A 
ATOM     37  C   UNL A   1      39.209  24.002  26.359  1.00  0.00     0.016 A 
ATOM     38  C   UNL A   1      40.735  22.625  27.645  1.00  0.00     0.016 A 
ATOM     39  C   UNL A   1      39.792  25.156  26.878  1.00  0.00     0.010 A 
ATOM     40  C   UNL A   1      41.344  23.786  28.140  1.00  0.00     0.010 A 
ATOM     41  C   UNL A   1      40.899  25.058  27.727  1.00  0.00    -0.014 A 
BRANCH  41  42
ATOM     42  C   UNL A   1      41.731  26.261  27.977  1.00  0.00     0.031 A 
ATOM     43  C   UNL A   1      41.129  27.381  28.782  1.00  0.00     0.074 A 
ATOM     44  C   UNL A   1      43.010  26.349  27.566  1.00  0.00     0.049 A 
ATOM     45  N   UNL A   1      41.622  28.557  29.076  1.00  0.00    -0.248 NA
ATOM     46  C   UNL A   1      39.793  27.131  29.348  1.00  0.00     0.031 C 
ATOM     47  C   UNL A   1      43.763  25.296  26.889  1.00  0.00     0.029 A 
ATOM     48  N   UNL A   1      43.895  27.398  27.644  1.00  0.00    -0.354 N 
ATOM     49  C   UNL A   1      40.668  29.174  29.876  1.00  0.00     0.074 A 
ATOM     50  C   UNL A   1      39.544  28.270  29.975  1.00  0.00     0.031 C 
ATOM     51  C   UNL A   1      44.977  25.775  26.559  1.00  0.00     0.029 A 
ATOM     52  C   UNL A   1      45.067  27.174  26.966  1.00  0.00     0.049 A 
ATOM     53  H   UNL A   1      43.706  28.228  28.138  1.00  0.00     0.167 HD
ATOM     54  C   UNL A   1      40.736  30.376  30.496  1.00  0.00     0.037 A 
ATOM     55  C   UNL A   1      46.071  28.021  26.665  1.00  0.00     0.037 A 
ATOM     56  C   UNL A   1      41.852  31.278  30.390  1.00  0.00     0.049 A 
ATOM     57  C   UNL A   1      46.042  29.425  27.200  1.00  0.00     0.074 A 
ATOM     58  C   UNL A   1      42.026  32.510  30.995  1.00  0.00     0.029 A 
ATOM     59  N   UNL A   1      42.978  31.051  29.613  1.00  0.00    -0.354 N 
ATOM     60  N   UNL A   1      45.144  30.004  27.957  1.00  0.00    -0.248 NA
ATOM     61  C   UNL A   1      47.187  30.283  26.861  1.00  0.00     0.031 C 
ATOM     62  C   UNL A   1      43.225  33.059  30.530  1.00  0.00     0.029 A 
ATOM     63  C   UNL A   1      43.834  32.138  29.692  1.00  0.00     0.049 A 
ATOM     64  H   UNL A   1      43.146  30.239  29.083  1.00  0.00     0.167 HD
ATOM     65  C   UNL A   1      45.639  31.272  28.234  1.00  0.00     0.074 A 
ATOM     66  C   UNL A   1      46.910  31.382  27.548  1.00  0.00     0.031 C 
ATOM     67  C   UNL A   1      45.099  32.243  29.010  1.00  0.00     0.037 A 
BRANCH  54  68
ATOM     68  C   UNL A   1      39.557  30.796  31.325  1.00  0.00     0.064 A 
ATOM     69  C   UNL A   1      38.590  31.688  30.838  1.00  0.00     0.173 A 
ATOM     70  C   UNL A   1      39.375  30.270  32.613  1.00  0.00     0.173 A 
ATOM     71  F   UNL A   1      38.723  32.231  29.618  1.00  0.00    -0.203 F 
ATOM     72  C   UNL A   1      37.498  32.059  31.619  1.00  0.00     0.198 A 
ATOM     73  C   UNL A   1      38.265  30.617  33.379  1.00  0.00     0.198 A 
ATOM     74  F   UNL A   1      40.268  29.411  33.125  1.00  0.00    -0.203 F 
ATOM     75  F   UNL A   1      36.613  32.951  31.152  1.00  0.00    -0.200 F 
ATOM     76  C   UNL A   1      37.333  31.517  32.885  1.00  0.00     0.200 A 
ATOM     77  F   UNL A   1      38.099  30.080  34.595  1.00  0.00    -0.200 F 
ATOM     78  F   UNL A   1      36.276  31.867  33.632  1.00  0.00    -0.200 F 
ENDBRANCH  54  68
BRANCH  55  79
ATOM     79  C   UNL A   1      47.174  27.587  25.772  1.00  0.00     0.064 A 
ATOM     80  C   UNL A   1      48.342  27.004  26.275  1.00  0.00     0.173 A 
ATOM     81  C   UNL A   1      47.099  27.810  24.390  1.00  0.00     0.173 A 
ATOM     82  F   UNL A   1      48.487  26.832  27.597  1.00  0.00    -0.203 F 
ATOM     83  C   UNL A   1      49.390  26.650  25.427  1.00  0.00     0.198 A 
ATOM     84  C   UNL A   1      48.130  27.424  23.539  1.00  0.00     0.198 A 
ATOM     85  F   UNL A   1      46.031  28.435  23.873  1.00  0.00    -0.203 F 
ATOM     86  F   UNL A   1      50.520  26.141  25.937  1.00  0.00    -0.200 F 
ATOM     87  C   UNL A   1      49.278  26.848  24.058  1.00  0.00     0.200 A 
ATOM     88  F   UNL A   1      48.022  27.631  22.219  1.00  0.00    -0.200 F 
ATOM     89  F   UNL A   1      50.284  26.503  23.243  1.00  0.00    -0.200 F 
ENDBRANCH  55  79
BRANCH  67  90
ATOM     90  C   UNL A   1      45.909  33.490  29.218  1.00  0.00     0.064 A 
ATOM     91  C   UNL A   1      46.796  33.632  30.293  1.00  0.00     0.173 A 
ATOM     92  C   UNL A   1      45.811  34.552  28.304  1.00  0.00     0.173 A 
ATOM     93  F   UNL A   1      46.913  32.656  31.206  1.00  0.00    -0.203 F 
ATOM     94  C   UNL A   1      47.533  34.801  30.464  1.00  0.00     0.198 A 
ATOM     95  C   UNL A   1      46.577  35.703  28.456  1.00  0.00     0.198 A 
ATOM     96  F   UNL A   1      44.981  34.467  27.253  1.00  0.00    -0.203 F 
ATOM     97  F   UNL A   1      48.331  34.938  31.532  1.00  0.00    -0.200 F 
ATOM     98  C   UNL A   1      47.430  35.832  29.541  1.00  0.00     0.200 A 
ATOM     99  F   UNL A   1      46.486  36.691  27.554  1.00  0.00    -0.200 F 
ATOM    100  F   UNL A   1      48.145  36.953  29.702  1.00  0.00    -0.200 F 
ENDBRANCH  67  90
ENDBRANCH  41  42
ENDBRANCH  34  36
ENDBRANCH  33  34
ENDBRANCH  32  33
ENDBRANCH  31  32
ENDBRANCH  30  31
ENDBRANCH  29  30
ENDBRANCH  28  29
ENDBRANCH   1  28
TORSDOF 23
ENDMDL
MODEL 3
REMARK VINA RESULT:     -10.1      1.333      3.044
REMARK SMILES C[NH2+][C@@]1(C(=O)OCCOCCOCCOCCOC(=O)c2ccc(-c3c4nc(c(-c5c(F)c(F)c(F)c(F)c5F)c5ccc([nH]5)c(-c5c(F)c(F)c(F)c(F)c5F)c5nc(c(-c6c(F)c(F)c(F)c(F)c6F)c6ccc3[nH]6)C=C5)C=C4)cc2)CC[C@H](Sc2ccc(C)c(C)c2)C1
REMARK SMILES IDX 12 1 11 2 10 3 9 4 8 5 7 6 6 7 4 8 5 9 3 10 84 11 96 12
REMARK SMILES IDX 85 13 86 14 2 15 1 16 87 19 88 20 89 21 95 22 90 23 93 24
REMARK SMILES IDX 91 25 94 26 92 27 13 28 14 29 15 30 16 31 17 32 18 33 19 34
REMARK SMILES IDX 20 35 21 36 22 37 83 38 23 39 82 40 24 41 25 42 26 43 76 44
REMARK SMILES IDX 27 45 81 46 75 47 77 48 28 49 80 50 74 51 73 52 29 54 61 55
REMARK SMILES IDX 41 56 60 57 42 58 45 59 59 60 78 61 43 62 44 63 58 65 79 66
REMARK SMILES IDX 46 67 30 68 31 69 39 70 32 71 33 72 37 73 40 74 34 75 35 76
REMARK SMILES IDX 38 77 36 78 62 79 63 80 71 81 64 82 65 83 69 84 72 85 66 86
REMARK SMILES IDX 67 87 70 88 68 89 47 90 48 91 56 92 49 93 50 94 54 95 57 96
REMARK SMILES IDX 51 97 52 98 55 99 53 100
REMARK H PARENT 2 17 2 18 77 53 45 64
REMARK Flexibility Score: inf
ROOT
ATOM      1  O   UNL A   1      34.253  33.961  27.599  1.00  0.00    -0.377 OA
ENDROOT
BRANCH   1   2
ATOM      2  C   UNL A   1      33.560  32.826  28.080  1.00  0.00     0.188 C 
BRANCH   2   3
ATOM      3  C   UNL A   1      34.137  31.420  27.873  1.00  0.00     0.188 C 
BRANCH   3   4
ATOM      4  O   UNL A   1      33.218  30.534  27.255  1.00  0.00    -0.376 OA
BRANCH   4   5
ATOM      5  C   UNL A   1      33.459  30.002  25.967  1.00  0.00     0.202 C 
BRANCH   5   6
ATOM      6  C   UNL A   1      34.197  28.664  25.762  1.00  0.00     0.261 C 
BRANCH   6   7
ATOM      7  O   UNL A   1      33.508  27.651  25.018  1.00  0.00    -0.459 OA
BRANCH   7   8
ATOM      8  C   UNL A   1      33.416  26.423  25.565  1.00  0.00     0.368 C 
ATOM      9  O   UNL A   1      34.410  25.741  25.801  1.00  0.00    -0.245 OA
BRANCH   8  10
ATOM     10  C   UNL A   1      31.930  25.925  25.819  1.00  0.00     0.195 C 
ATOM     11  C   UNL A   1      31.972  24.428  25.484  1.00  0.00     0.082 C 
ATOM     12  C   UNL A   1      30.722  26.303  24.917  1.00  0.00     0.096 C 
ATOM     13  C   UNL A   1      31.859  24.424  23.945  1.00  0.00     0.022 C 
ATOM     14  C   UNL A   1      30.852  25.530  23.604  1.00  0.00     0.059 C 
BRANCH  10  15
ATOM     15  N   UNL A   1      31.518  26.349  27.184  1.00  0.00    -0.335 N 
ATOM     16  C   UNL A   1      31.183  27.754  27.343  1.00  0.00     0.331 C 
ATOM     17  H   UNL A   1      30.699  25.801  27.446  1.00  0.00     0.347 HD
ATOM     18  H   UNL A   1      32.334  26.194  27.777  1.00  0.00     0.347 HD
ENDBRANCH  10  15
BRANCH  14  19
ATOM     19  S   UNL A   1      31.296  26.731  22.298  1.00  0.00    -0.122 SA
BRANCH  19  20
ATOM     20  C   UNL A   1      30.207  28.112  22.504  1.00  0.00     0.008 A 
ATOM     21  C   UNL A   1      30.566  29.447  22.370  1.00  0.00     0.015 A 
ATOM     22  C   UNL A   1      28.891  27.806  22.868  1.00  0.00     0.018 A 
ATOM     23  C   UNL A   1      29.661  30.457  22.698  1.00  0.00     0.005 A 
ATOM     24  C   UNL A   1      27.953  28.812  23.151  1.00  0.00    -0.047 A 
ATOM     25  C   UNL A   1      28.359  30.154  23.118  1.00  0.00    -0.048 A 
ATOM     26  C   UNL A   1      26.564  28.406  23.535  1.00  0.00     0.044 C 
ATOM     27  C   UNL A   1      27.475  31.296  23.532  1.00  0.00     0.044 C 
ENDBRANCH  19  20
ENDBRANCH  14  19
ENDBRANCH   8  10
ENDBRANCH   7   8
ENDBRANCH   6   7
ENDBRANCH   5   6
ENDBRANCH   4   5
ENDBRANCH   3   4
ENDBRANCH   2   3
ENDBRANCH   1   2
BRANCH   1  28
ATOM     28  C   UNL A   1      34.257  35.078  28.470  1.00  0.00     0.188 C 
BRANCH  28  29
ATOM     29  C   UNL A   1      34.228  34.622  29.934  1.00  0.00     0.188 C 
BRANCH  29  30
ATOM     30  O   UNL A   1      33.854  35.560  30.928  1.00  0.00    -0.376 OA
BRANCH  30  31
ATOM     31  C   UNL A   1      34.650  35.805  32.079  1.00  0.00     0.202 C 
BRANCH  31  32
ATOM     32  C   UNL A   1      35.038  34.775  33.171  1.00  0.00     0.261 C 
BRANCH  32  33
ATOM     33  O   UNL A   1      35.894  33.677  32.846  1.00  0.00    -0.460 OA
BRANCH  33  34
ATOM     34  C   UNL A   1      35.314  32.542  32.414  1.00  0.00     0.338 C 
ATOM     35  O   UNL A   1      34.122  32.282  32.387  1.00  0.00    -0.246 OA
BRANCH  34  36
ATOM     36  C   UNL A   1      36.371  31.707  31.798  1.00  0.00     0.060 A 
ATOM     37  C   UNL A   1      37.367  31.163  32.621  1.00  0.00     0.016 A 
ATOM     38  C   UNL A   1      36.382  31.453  30.424  1.00  0.00     0.016 A 
ATOM     39  C   UNL A   1      38.395  30.397  32.074  1.00  0.00     0.010 A 
ATOM     40  C   UNL A   1      37.434  30.713  29.870  1.00  0.00     0.010 A 
ATOM     41  C   UNL A   1      38.467  30.214  30.690  1.00  0.00    -0.014 A 
BRANCH  41  42
ATOM     42  C   UNL A   1      39.733  29.727  30.087  1.00  0.00     0.031 A 
ATOM     43  C   UNL A   1      40.864  30.707  29.932  1.00  0.00     0.074 A 
ATOM     44  C   UNL A   1      39.915  28.439  29.740  1.00  0.00     0.049 A 
ATOM     45  N   UNL A   1      42.037  30.547  29.375  1.00  0.00    -0.248 NA
ATOM     46  C   UNL A   1      40.647  32.048  30.502  1.00  0.00     0.031 C 
ATOM     47  C   UNL A   1      38.958  27.356  29.946  1.00  0.00     0.029 A 
ATOM     48  N   UNL A   1      40.977  27.834  29.111  1.00  0.00    -0.354 N 
ATOM     49  C   UNL A   1      42.701  31.755  29.547  1.00  0.00     0.074 A 
ATOM     50  C   UNL A   1      41.784  32.657  30.207  1.00  0.00     0.031 C 
ATOM     51  C   UNL A   1      39.451  26.230  29.399  1.00  0.00     0.029 A 
ATOM     52  C   UNL A   1      40.736  26.526  28.771  1.00  0.00     0.049 A 
ATOM     53  H   UNL A   1      41.827  28.293  28.923  1.00  0.00     0.167 HD
ATOM     54  C   UNL A   1      43.973  32.075  29.209  1.00  0.00     0.037 A 
ATOM     55  C   UNL A   1      41.449  25.685  27.997  1.00  0.00     0.037 A 
ATOM     56  C   UNL A   1      44.882  31.180  28.545  1.00  0.00     0.049 A 
ATOM     57  C   UNL A   1      42.783  26.122  27.460  1.00  0.00     0.074 A 
ATOM     58  C   UNL A   1      46.198  31.401  28.178  1.00  0.00     0.029 A 
ATOM     59  N   UNL A   1      44.563  29.894  28.132  1.00  0.00    -0.354 N 
ATOM     60  N   UNL A   1      43.410  27.260  27.626  1.00  0.00    -0.248 NA
ATOM     61  C   UNL A   1      43.522  25.140  26.652  1.00  0.00     0.031 C 
ATOM     62  C   UNL A   1      46.652  30.276  27.482  1.00  0.00     0.029 A 
ATOM     63  C   UNL A   1      45.644  29.325  27.479  1.00  0.00     0.049 A 
ATOM     64  H   UNL A   1      43.696  29.451  28.281  1.00  0.00     0.167 HD
ATOM     65  C   UNL A   1      44.638  27.114  26.995  1.00  0.00     0.074 A 
ATOM     66  C   UNL A   1      44.659  25.782  26.428  1.00  0.00     0.031 C 
ATOM     67  C   UNL A   1      45.663  27.998  26.918  1.00  0.00     0.037 A 
BRANCH  54  68
ATOM     68  C   UNL A   1      44.448  33.462  29.531  1.00  0.00     0.064 A 
ATOM     69  C   UNL A   1      44.281  34.529  28.634  1.00  0.00     0.173 A 
ATOM     70  C   UNL A   1      45.048  33.735  30.769  1.00  0.00     0.173 A 
ATOM     71  F   UNL A   1      43.727  34.320  27.430  1.00  0.00    -0.203 F 
ATOM     72  C   UNL A   1      44.721  35.811  28.954  1.00  0.00     0.198 A 
ATOM     73  C   UNL A   1      45.456  35.025  31.100  1.00  0.00     0.198 A 
ATOM     74  F   UNL A   1      45.228  32.753  31.665  1.00  0.00    -0.203 F 
ATOM     75  F   UNL A   1      44.596  36.803  28.062  1.00  0.00    -0.200 F 
ATOM     76  C   UNL A   1      45.300  36.059  30.189  1.00  0.00     0.200 A 
ATOM     77  F   UNL A   1      46.001  35.265  32.300  1.00  0.00    -0.200 F 
ATOM     78  F   UNL A   1      45.713  37.295  30.502  1.00  0.00    -0.200 F 
ENDBRANCH  54  68
BRANCH  55  79
ATOM     79  C   UNL A   1      40.901  24.353  27.635  1.00  0.00     0.064 A 
ATOM     80  C   UNL A   1      41.435  23.171  28.160  1.00  0.00     0.173 A 
ATOM     81  C   UNL A   1      39.863  24.243  26.700  1.00  0.00     0.173 A 
ATOM     82  F   UNL A   1      42.474  23.225  29.006  1.00  0.00    -0.203 F 
ATOM     83  C   UNL A   1      40.942  21.927  27.769  1.00  0.00     0.198 A 
ATOM     84  C   UNL A   1      39.347  23.002  26.337  1.00  0.00     0.198 A 
ATOM     85  F   UNL A   1      39.371  25.344  26.116  1.00  0.00    -0.203 F 
ATOM     86  F   UNL A   1      41.504  20.807  28.245  1.00  0.00    -0.200 F 
ATOM     87  C   UNL A   1      39.889  21.843  26.869  1.00  0.00     0.200 A 
ATOM     88  F   UNL A   1      38.339  22.927  25.457  1.00  0.00    -0.200 F 
ATOM     89  F   UNL A   1      39.414  20.647  26.498  1.00  0.00    -0.200 F 
ENDBRANCH  55  79
BRANCH  67  90
ATOM     90  C   UNL A   1      46.927  27.533  26.254  1.00  0.00     0.064 A 
ATOM     91  C   UNL A   1      47.142  27.678  24.876  1.00  0.00     0.173 A 
ATOM     92  C   UNL A   1      47.952  26.956  27.020  1.00  0.00     0.173 A 
ATOM     93  F   UNL A   1      46.186  28.205  24.095  1.00  0.00    -0.203 F 
ATOM     94  C   UNL A   1      48.322  27.235  24.286  1.00  0.00     0.198 A 
ATOM     95  C   UNL A   1      49.145  26.549  26.433  1.00  0.00     0.198 A 
ATOM     96  F   UNL A   1      47.801  26.797  28.344  1.00  0.00    -0.203 F 
ATOM     97  F   UNL A   1      48.482  27.330  22.958  1.00  0.00    -0.200 F 
ATOM     98  C   UNL A   1      49.326  26.680  25.065  1.00  0.00     0.200 A 
ATOM     99  F   UNL A   1      50.120  26.027  27.191  1.00  0.00    -0.200 F 
ATOM    100  F   UNL A   1      50.465  26.261  24.497  1.00  0.00    -0.200 F 
ENDBRANCH  67  90
ENDBRANCH  41  42
ENDBRANCH  34  36
ENDBRANCH  33  34
ENDBRANCH  32  33
ENDBRANCH  31  32
ENDBRANCH  30  31
ENDBRANCH  29  30
ENDBRANCH  28  29
ENDBRANCH   1  28
TORSDOF 23
ENDMDL
