MODEL 1
REMARK VINA RESULT:     -10.2      0.000      0.000
REMARK SMILES O=C(OCCOCCOCCOCCOC(=O)[C@@H]1C[C@@H]2CC[C@H]1N2C(=O)C[C@H]1CCCCO1)c1ccc(-c2c3nc(c(-c4c(F)c(F)c(F)c(F)c4F)c4ccc([nH]4)c(-c4c(F)c(F)c(F)c(F)c4F)c4nc(c(-c5c(F)c(F)c(F)c(F)c5F)c5ccc2[nH]5)C=C4)C=C3)cc1
REMARK SMILES IDX 10 1 9 2 8 3 7 4 6 5 5 6 4 7 3 8 2 9 1 10 34 11 35 12 96 13
REMARK SMILES IDX 36 14 95 15 37 16 38 17 39 18 89 19 40 20 94 21 88 22 90 23
REMARK SMILES IDX 41 24 93 25 87 26 86 27 42 29 74 30 54 31 73 32 55 33 58 34
REMARK SMILES IDX 72 35 91 36 56 37 57 38 71 40 92 41 59 42 43 43 44 44 52 45
REMARK SMILES IDX 45 46 46 47 50 48 53 49 47 50 48 51 51 52 49 53 75 54 76 55
REMARK SMILES IDX 84 56 77 57 78 58 82 59 85 60 79 61 80 62 83 63 81 64 60 65
REMARK SMILES IDX 61 66 69 67 62 68 63 69 67 70 70 71 64 72 65 73 68 74 66 75
REMARK SMILES IDX 11 76 12 77 13 78 14 79 15 80 16 81 17 82 18 83 19 84 23 85
REMARK SMILES IDX 20 86 22 87 24 88 21 89 25 90 26 91 27 92 28 93 29 94 33 95
REMARK SMILES IDX 30 96 32 97 31 98
REMARK H PARENT 90 28 58 39
REMARK Flexibility Score: inf
ROOT
ATOM      1  C   UNL A   1      40.549  21.872  27.452  1.00  0.00     0.188 C 
ENDROOT
BRANCH   1   2
ATOM      2  O   UNL A   1      40.658  20.456  27.418  1.00  0.00    -0.377 OA
BRANCH   2   3
ATOM      3  C   UNL A   1      41.988  19.954  27.364  1.00  0.00     0.188 C 
BRANCH   3   4
ATOM      4  C   UNL A   1      42.237  19.128  26.107  1.00  0.00     0.188 C 
BRANCH   4   5
ATOM      5  O   UNL A   1      42.967  19.932  25.193  1.00  0.00    -0.376 OA
BRANCH   5   6
ATOM      6  C   UNL A   1      43.625  21.084  25.703  1.00  0.00     0.202 C 
BRANCH   6   7
ATOM      7  C   UNL A   1      43.267  22.361  24.970  1.00  0.00     0.261 C 
BRANCH   7   8
ATOM      8  O   UNL A   1      44.236  23.422  25.064  1.00  0.00    -0.460 OA
BRANCH   8   9
ATOM      9  C   UNL A   1      44.868  24.015  26.097  1.00  0.00     0.338 C 
ATOM     10  O   UNL A   1      46.049  23.717  26.288  1.00  0.00    -0.246 OA
BRANCH   9  11
ATOM     11  C   UNL A   1      44.288  25.042  27.012  1.00  0.00     0.060 A 
ATOM     12  C   UNL A   1      44.519  26.415  26.966  1.00  0.00     0.016 A 
ATOM     13  C   UNL A   1      43.316  24.584  27.918  1.00  0.00     0.016 A 
ATOM     14  C   UNL A   1      43.837  27.310  27.763  1.00  0.00     0.010 A 
ATOM     15  C   UNL A   1      42.618  25.474  28.738  1.00  0.00     0.010 A 
ATOM     16  C   UNL A   1      42.892  26.841  28.657  1.00  0.00    -0.014 A 
BRANCH  16  17
ATOM     17  C   UNL A   1      42.381  27.810  29.629  1.00  0.00     0.031 A 
ATOM     18  C   UNL A   1      43.224  28.054  30.835  1.00  0.00     0.074 A 
ATOM     19  C   UNL A   1      41.305  28.556  29.330  1.00  0.00     0.049 A 
ATOM     20  N   UNL A   1      42.945  28.722  31.916  1.00  0.00    -0.248 NA
ATOM     21  C   UNL A   1      44.581  27.474  30.815  1.00  0.00     0.031 C 
ATOM     22  C   UNL A   1      40.571  28.515  28.061  1.00  0.00     0.029 A 
ATOM     23  N   UNL A   1      40.653  29.509  30.061  1.00  0.00    -0.354 N 
ATOM     24  C   UNL A   1      44.057  28.577  32.732  1.00  0.00     0.074 A 
ATOM     25  C   UNL A   1      45.036  27.799  32.013  1.00  0.00     0.031 C 
ATOM     26  C   UNL A   1      39.559  29.397  28.111  1.00  0.00     0.029 A 
ATOM     27  C   UNL A   1      39.518  29.977  29.446  1.00  0.00     0.049 A 
ATOM     28  H   UNL A   1      40.966  29.827  30.939  1.00  0.00     0.167 HD
ATOM     29  C   UNL A   1      44.203  29.036  33.993  1.00  0.00     0.037 A 
ATOM     30  C   UNL A   1      38.522  30.719  29.961  1.00  0.00     0.037 A 
ATOM     31  C   UNL A   1      43.193  29.824  34.640  1.00  0.00     0.049 A 
ATOM     32  C   UNL A   1      38.653  31.120  31.408  1.00  0.00     0.074 A 
ATOM     33  C   UNL A   1      43.172  30.324  35.925  1.00  0.00     0.029 A 
ATOM     34  N   UNL A   1      42.011  30.222  34.025  1.00  0.00    -0.354 N 
ATOM     35  N   UNL A   1      39.654  30.915  32.233  1.00  0.00    -0.248 NA
ATOM     36  C   UNL A   1      37.512  31.819  32.008  1.00  0.00     0.031 C 
ATOM     37  C   UNL A   1      41.947  30.974  36.105  1.00  0.00     0.029 A 
ATOM     38  C   UNL A   1      41.232  30.931  34.916  1.00  0.00     0.049 A 
ATOM     39  H   UNL A   1      41.766  30.027  33.091  1.00  0.00     0.167 HD
ATOM     40  C   UNL A   1      39.271  31.463  33.447  1.00  0.00     0.074 A 
ATOM     41  C   UNL A   1      37.954  32.036  33.240  1.00  0.00     0.031 C 
ATOM     42  C   UNL A   1      39.930  31.488  34.633  1.00  0.00     0.037 A 
BRANCH  29  43
ATOM     43  C   UNL A   1      45.412  28.591  34.753  1.00  0.00     0.064 A 
ATOM     44  C   UNL A   1      45.423  27.442  35.556  1.00  0.00     0.173 A 
ATOM     45  C   UNL A   1      46.582  29.366  34.700  1.00  0.00     0.173 A 
ATOM     46  F   UNL A   1      44.318  26.691  35.674  1.00  0.00    -0.203 F 
ATOM     47  C   UNL A   1      46.555  27.094  36.292  1.00  0.00     0.198 A 
ATOM     48  C   UNL A   1      47.719  29.002  35.416  1.00  0.00     0.198 A 
ATOM     49  F   UNL A   1      46.617  30.487  33.966  1.00  0.00    -0.203 F 
ATOM     50  F   UNL A   1      46.526  26.023  37.096  1.00  0.00    -0.200 F 
ATOM     51  C   UNL A   1      47.703  27.869  36.214  1.00  0.00     0.200 A 
ATOM     52  F   UNL A   1      48.825  29.755  35.342  1.00  0.00    -0.200 F 
ATOM     53  F   UNL A   1      48.789  27.534  36.926  1.00  0.00    -0.200 F 
ENDBRANCH  29  43
BRANCH  30  54
ATOM     54  C   UNL A   1      37.295  31.009  29.169  1.00  0.00     0.064 A 
ATOM     55  C   UNL A   1      37.039  32.288  28.658  1.00  0.00     0.173 A 
ATOM     56  C   UNL A   1      36.326  30.017  28.937  1.00  0.00     0.173 A 
ATOM     57  F   UNL A   1      37.918  33.280  28.864  1.00  0.00    -0.203 F 
ATOM     58  C   UNL A   1      35.855  32.570  27.975  1.00  0.00     0.198 A 
ATOM     59  C   UNL A   1      35.161  30.291  28.223  1.00  0.00     0.198 A 
ATOM     60  F   UNL A   1      36.509  28.773  29.406  1.00  0.00    -0.203 F 
ATOM     61  F   UNL A   1      35.610  33.818  27.553  1.00  0.00    -0.200 F 
ATOM     62  C   UNL A   1      34.919  31.571  27.755  1.00  0.00     0.200 A 
ATOM     63  F   UNL A   1      34.269  29.315  28.000  1.00  0.00    -0.200 F 
ATOM     64  F   UNL A   1      33.780  31.845  27.104  1.00  0.00    -0.200 F 
ENDBRANCH  30  54
BRANCH  42  65
ATOM     65  C   UNL A   1      39.242  32.174  35.769  1.00  0.00     0.064 A 
ATOM     66  C   UNL A   1      38.399  31.472  36.640  1.00  0.00     0.173 A 
ATOM     67  C   UNL A   1      39.505  33.525  36.037  1.00  0.00     0.173 A 
ATOM     68  F   UNL A   1      38.109  30.183  36.409  1.00  0.00    -0.203 F 
ATOM     69  C   UNL A   1      37.834  32.106  37.741  1.00  0.00     0.198 A 
ATOM     70  C   UNL A   1      38.967  34.144  37.157  1.00  0.00     0.198 A 
ATOM     71  F   UNL A   1      40.316  34.229  35.231  1.00  0.00    -0.203 F 
ATOM     72  F   UNL A   1      37.002  31.430  38.545  1.00  0.00    -0.200 F 
ATOM     73  C   UNL A   1      38.128  33.435  38.005  1.00  0.00     0.200 A 
ATOM     74  F   UNL A   1      39.268  35.423  37.422  1.00  0.00    -0.200 F 
ATOM     75  F   UNL A   1      37.602  34.037  39.081  1.00  0.00    -0.200 F 
ENDBRANCH  42  65
ENDBRANCH  16  17
ENDBRANCH   9  11
ENDBRANCH   8   9
ENDBRANCH   7   8
ENDBRANCH   6   7
ENDBRANCH   5   6
ENDBRANCH   4   5
ENDBRANCH   3   4
ENDBRANCH   2   3
ENDBRANCH   1   2
BRANCH   1  76
ATOM     76  C   UNL A   1      39.561  22.572  26.536  1.00  0.00     0.188 C 
BRANCH  76  77
ATOM     77  O   UNL A   1      38.844  21.667  25.717  1.00  0.00    -0.376 OA
BRANCH  77  78
ATOM     78  C   UNL A   1      37.513  22.075  25.419  1.00  0.00     0.202 C 
BRANCH  78  79
ATOM     79  C   UNL A   1      36.447  20.964  25.311  1.00  0.00     0.261 C 
BRANCH  79  80
ATOM     80  O   UNL A   1      35.184  21.105  26.010  1.00  0.00    -0.463 OA
BRANCH  80  81
ATOM     81  C   UNL A   1      34.012  20.912  25.359  1.00  0.00     0.311 C 
ATOM     82  O   UNL A   1      33.816  19.996  24.564  1.00  0.00    -0.252 OA
BRANCH  81  83
ATOM     83  C   UNL A   1      32.973  21.984  25.697  1.00  0.00     0.124 C 
ATOM     84  C   UNL A   1      31.435  21.873  25.429  1.00  0.00     0.042 C 
ATOM     85  C   UNL A   1      33.287  23.366  25.093  1.00  0.00     0.099 C 
ATOM     86  C   UNL A   1      31.075  23.263  24.832  1.00  0.00     0.086 C 
ATOM     87  C   UNL A   1      33.094  23.401  23.556  1.00  0.00     0.028 C 
ATOM     88  N   UNL A   1      32.077  24.077  25.467  1.00  0.00    -0.336 N 
ATOM     89  C   UNL A   1      31.553  23.382  23.389  1.00  0.00     0.027 C 
BRANCH  88  90
ATOM     90  C   UNL A   1      31.869  25.244  26.130  1.00  0.00     0.225 C 
ATOM     91  O   UNL A   1      30.903  25.412  26.872  1.00  0.00    -0.275 OA
BRANCH  90  92
ATOM     92  C   UNL A   1      32.964  26.278  26.022  1.00  0.00     0.132 C 
BRANCH  92  93
ATOM     93  C   UNL A   1      32.550  27.471  25.134  1.00  0.00     0.127 C 
ATOM     94  C   UNL A   1      31.441  27.155  24.115  1.00  0.00     0.033 C 
ATOM     95  O   UNL A   1      32.160  28.554  25.989  1.00  0.00    -0.378 OA
ATOM     96  C   UNL A   1      30.948  28.392  23.374  1.00  0.00     0.005 C 
ATOM     97  C   UNL A   1      31.865  29.755  25.279  1.00  0.00     0.160 C 
ATOM     98  C   UNL A   1      30.704  29.568  24.311  1.00  0.00     0.029 C 
ENDBRANCH  92  93
ENDBRANCH  90  92
ENDBRANCH  88  90
ENDBRANCH  81  83
ENDBRANCH  80  81
ENDBRANCH  79  80
ENDBRANCH  78  79
ENDBRANCH  77  78
ENDBRANCH  76  77
ENDBRANCH   1  76
TORSDOF 23
ENDMDL
MODEL 2
REMARK VINA RESULT:      -9.6     11.516     16.286
REMARK SMILES O=C(OCCOCCOCCOCCOC(=O)[C@@H]1C[C@@H]2CC[C@H]1N2C(=O)C[C@H]1CCCCO1)c1ccc(-c2c3nc(c(-c4c(F)c(F)c(F)c(F)c4F)c4ccc([nH]4)c(-c4c(F)c(F)c(F)c(F)c4F)c4nc(c(-c5c(F)c(F)c(F)c(F)c5F)c5ccc2[nH]5)C=C4)C=C3)cc1
REMARK SMILES IDX 10 1 9 2 8 3 7 4 6 5 5 6 4 7 3 8 2 9 1 10 34 11 35 12 96 13
REMARK SMILES IDX 36 14 95 15 37 16 38 17 39 18 89 19 40 20 94 21 88 22 90 23
REMARK SMILES IDX 41 24 93 25 87 26 86 27 42 29 74 30 54 31 73 32 55 33 58 34
REMARK SMILES IDX 72 35 91 36 56 37 57 38 71 40 92 41 59 42 43 43 44 44 52 45
REMARK SMILES IDX 45 46 46 47 50 48 53 49 47 50 48 51 51 52 49 53 75 54 76 55
REMARK SMILES IDX 84 56 77 57 78 58 82 59 85 60 79 61 80 62 83 63 81 64 60 65
REMARK SMILES IDX 61 66 69 67 62 68 63 69 67 70 70 71 64 72 65 73 68 74 66 75
REMARK SMILES IDX 11 76 12 77 13 78 14 79 15 80 16 81 17 82 18 83 19 84 23 85
REMARK SMILES IDX 20 86 22 87 24 88 21 89 25 90 26 91 27 92 28 93 29 94 33 95
REMARK SMILES IDX 30 96 32 97 31 98
REMARK H PARENT 90 28 58 39
REMARK Flexibility Score: inf
ROOT
ATOM      1  C   UNL A   1      43.037  42.376  22.102  1.00  0.00     0.188 C 
ENDROOT
BRANCH   1   2
ATOM      2  O   UNL A   1      43.663  42.120  23.351  1.00  0.00    -0.377 OA
BRANCH   2   3
ATOM      3  C   UNL A   1      42.838  42.318  24.493  1.00  0.00     0.188 C 
BRANCH   3   4
ATOM      4  C   UNL A   1      42.897  41.135  25.453  1.00  0.00     0.188 C 
BRANCH   4   5
ATOM      5  O   UNL A   1      44.217  40.613  25.421  1.00  0.00    -0.376 OA
BRANCH   5   6
ATOM      6  C   UNL A   1      44.797  40.202  26.653  1.00  0.00     0.202 C 
BRANCH   6   7
ATOM      7  C   UNL A   1      45.937  39.218  26.487  1.00  0.00     0.261 C 
BRANCH   7   8
ATOM      8  O   UNL A   1      45.656  37.869  26.903  1.00  0.00    -0.460 OA
BRANCH   8   9
ATOM      9  C   UNL A   1      46.410  36.757  27.027  1.00  0.00     0.338 C 
ATOM     10  O   UNL A   1      47.634  36.893  26.988  1.00  0.00    -0.246 OA
BRANCH   9  11
ATOM     11  C   UNL A   1      45.904  35.372  27.257  1.00  0.00     0.060 A 
ATOM     12  C   UNL A   1      46.176  34.565  28.359  1.00  0.00     0.016 A 
ATOM     13  C   UNL A   1      44.959  34.897  26.331  1.00  0.00     0.016 A 
ATOM     14  C   UNL A   1      45.559  33.348  28.559  1.00  0.00     0.010 A 
ATOM     15  C   UNL A   1      44.328  33.664  26.512  1.00  0.00     0.010 A 
ATOM     16  C   UNL A   1      44.641  32.890  27.632  1.00  0.00    -0.014 A 
BRANCH  16  17
ATOM     17  C   UNL A   1      44.205  31.500  27.781  1.00  0.00     0.031 A 
ATOM     18  C   UNL A   1      45.100  30.454  27.206  1.00  0.00     0.074 A 
ATOM     19  C   UNL A   1      43.151  31.208  28.560  1.00  0.00     0.049 A 
ATOM     20  N   UNL A   1      44.887  29.181  27.049  1.00  0.00    -0.248 NA
ATOM     21  C   UNL A   1      46.430  30.907  26.754  1.00  0.00     0.031 C 
ATOM     22  C   UNL A   1      42.371  32.181  29.332  1.00  0.00     0.029 A 
ATOM     23  N   UNL A   1      42.566  30.008  28.849  1.00  0.00    -0.354 N 
ATOM     24  C   UNL A   1      46.021  28.697  26.413  1.00  0.00     0.074 A 
ATOM     25  C   UNL A   1      46.941  29.795  26.250  1.00  0.00     0.031 C 
ATOM     26  C   UNL A   1      41.399  31.536  29.997  1.00  0.00     0.029 A 
ATOM     27  C   UNL A   1      41.430  30.132  29.610  1.00  0.00     0.049 A 
ATOM     28  H   UNL A   1      42.922  29.143  28.542  1.00  0.00     0.167 HD
ATOM     29  C   UNL A   1      46.230  27.436  25.978  1.00  0.00     0.037 A 
ATOM     30  C   UNL A   1      40.484  29.213  29.875  1.00  0.00     0.037 A 
ATOM     31  C   UNL A   1      45.278  26.385  26.195  1.00  0.00     0.049 A 
ATOM     32  C   UNL A   1      40.683  27.843  29.277  1.00  0.00     0.074 A 
ATOM     33  C   UNL A   1      45.323  25.072  25.778  1.00  0.00     0.029 A 
ATOM     34  N   UNL A   1      44.092  26.551  26.903  1.00  0.00    -0.354 N 
ATOM     35  N   UNL A   1      41.703  27.384  28.589  1.00  0.00    -0.248 NA
ATOM     36  C   UNL A   1      39.594  26.878  29.456  1.00  0.00     0.031 C 
ATOM     37  C   UNL A   1      44.133  24.459  26.183  1.00  0.00     0.029 A 
ATOM     38  C   UNL A   1      43.374  25.372  26.903  1.00  0.00     0.049 A 
ATOM     39  H   UNL A   1      43.806  27.386  27.340  1.00  0.00     0.167 HD
ATOM     40  C   UNL A   1      41.387  26.076  28.258  1.00  0.00     0.074 A 
ATOM     41  C   UNL A   1      40.088  25.808  28.847  1.00  0.00     0.031 C 
ATOM     42  C   UNL A   1      42.088  25.174  27.527  1.00  0.00     0.037 A 
BRANCH  29  43
ATOM     43  C   UNL A   1      47.447  27.189  25.143  1.00  0.00     0.064 A 
ATOM     44  C   UNL A   1      48.602  26.577  25.649  1.00  0.00     0.173 A 
ATOM     45  C   UNL A   1      47.463  27.616  23.806  1.00  0.00     0.173 A 
ATOM     46  F   UNL A   1      48.654  26.189  26.932  1.00  0.00    -0.203 F 
ATOM     47  C   UNL A   1      49.734  26.416  24.851  1.00  0.00     0.198 A 
ATOM     48  C   UNL A   1      48.585  27.431  23.005  1.00  0.00     0.198 A 
ATOM     49  F   UNL A   1      46.392  28.229  23.280  1.00  0.00    -0.203 F 
ATOM     50  F   UNL A   1      50.846  25.878  25.370  1.00  0.00    -0.200 F 
ATOM     51  C   UNL A   1      49.721  26.835  23.529  1.00  0.00     0.200 A 
ATOM     52  F   UNL A   1      48.571  27.841  21.729  1.00  0.00    -0.200 F 
ATOM     53  F   UNL A   1      50.812  26.682  22.765  1.00  0.00    -0.200 F 
ENDBRANCH  29  43
BRANCH  30  54
ATOM     54  C   UNL A   1      39.242  29.582  30.610  1.00  0.00     0.064 A 
ATOM     55  C   UNL A   1      38.113  30.069  29.939  1.00  0.00     0.173 A 
ATOM     56  C   UNL A   1      39.171  29.492  32.011  1.00  0.00     0.173 A 
ATOM     57  F   UNL A   1      38.129  30.195  28.604  1.00  0.00    -0.203 F 
ATOM     58  C   UNL A   1      36.977  30.477  30.638  1.00  0.00     0.198 A 
ATOM     59  C   UNL A   1      38.022  29.866  32.706  1.00  0.00     0.198 A 
ATOM     60  F   UNL A   1      40.222  29.041  32.713  1.00  0.00    -0.203 F 
ATOM     61  F   UNL A   1      35.935  30.997  29.974  1.00  0.00    -0.200 F 
ATOM     62  C   UNL A   1      36.931  30.371  32.021  1.00  0.00     0.200 A 
ATOM     63  F   UNL A   1      37.980  29.746  34.040  1.00  0.00    -0.200 F 
ATOM     64  F   UNL A   1      35.841  30.770  32.691  1.00  0.00    -0.200 F 
ENDBRANCH  30  54
BRANCH  42  65
ATOM     65  C   UNL A   1      41.470  23.824  27.354  1.00  0.00     0.064 A 
ATOM     66  C   UNL A   1      40.366  23.630  26.513  1.00  0.00     0.173 A 
ATOM     67  C   UNL A   1      42.048  22.703  27.967  1.00  0.00     0.173 A 
ATOM     68  F   UNL A   1      39.774  24.679  25.922  1.00  0.00    -0.203 F 
ATOM     69  C   UNL A   1      39.856  22.355  26.298  1.00  0.00     0.198 A 
ATOM     70  C   UNL A   1      41.556  21.428  27.722  1.00  0.00     0.198 A 
ATOM     71  F   UNL A   1      43.112  22.846  28.772  1.00  0.00    -0.203 F 
ATOM     72  F   UNL A   1      38.779  22.191  25.518  1.00  0.00    -0.200 F 
ATOM     73  C   UNL A   1      40.458  21.255  26.891  1.00  0.00     0.200 A 
ATOM     74  F   UNL A   1      42.152  20.365  28.279  1.00  0.00    -0.200 F 
ATOM     75  F   UNL A   1      39.980  20.025  26.662  1.00  0.00    -0.200 F 
ENDBRANCH  42  65
ENDBRANCH  16  17
ENDBRANCH   9  11
ENDBRANCH   8   9
ENDBRANCH   7   8
ENDBRANCH   6   7
ENDBRANCH   5   6
ENDBRANCH   4   5
ENDBRANCH   3   4
ENDBRANCH   2   3
ENDBRANCH   1   2
BRANCH   1  76
ATOM     76  C   UNL A   1      41.577  42.791  22.065  1.00  0.00     0.188 C 
BRANCH  76  77
ATOM     77  O   UNL A   1      41.272  43.606  20.948  1.00  0.00    -0.376 OA
BRANCH  77  78
ATOM     78  C   UNL A   1      42.005  43.284  19.771  1.00  0.00     0.202 C 
BRANCH  78  79
ATOM     79  C   UNL A   1      41.519  43.915  18.449  1.00  0.00     0.261 C 
BRANCH  79  80
ATOM     80  O   UNL A   1      42.469  44.559  17.563  1.00  0.00    -0.463 OA
BRANCH  80  81
ATOM     81  C   UNL A   1      42.130  45.683  16.887  1.00  0.00     0.311 C 
ATOM     82  O   UNL A   1      41.467  45.682  15.853  1.00  0.00    -0.252 OA
BRANCH  81  83
ATOM     83  C   UNL A   1      42.695  46.948  17.535  1.00  0.00     0.124 C 
ATOM     84  C   UNL A   1      42.868  48.332  16.824  1.00  0.00     0.042 C 
ATOM     85  C   UNL A   1      44.089  46.755  18.165  1.00  0.00     0.099 C 
ATOM     86  C   UNL A   1      44.289  48.785  17.265  1.00  0.00     0.086 C 
ATOM     87  C   UNL A   1      45.202  46.579  17.102  1.00  0.00     0.028 C 
ATOM     88  N   UNL A   1      44.379  48.127  18.541  1.00  0.00    -0.336 N 
ATOM     89  C   UNL A   1      45.369  48.006  16.520  1.00  0.00     0.027 C 
BRANCH  88  90
ATOM     90  C   UNL A   1      44.750  48.694  19.718  1.00  0.00     0.225 C 
ATOM     91  O   UNL A   1      44.541  49.881  19.967  1.00  0.00    -0.275 OA
BRANCH  90  92
ATOM     92  C   UNL A   1      45.305  47.760  20.766  1.00  0.00     0.132 C 
BRANCH  92  93
ATOM     93  C   UNL A   1      46.752  47.328  20.451  1.00  0.00     0.127 C 
ATOM     94  C   UNL A   1      47.803  48.441  20.617  1.00  0.00     0.033 C 
ATOM     95  O   UNL A   1      47.075  46.199  21.274  1.00  0.00    -0.378 OA
ATOM     96  C   UNL A   1      49.231  47.937  20.456  1.00  0.00     0.005 C 
ATOM     97  C   UNL A   1      48.355  45.639  20.987  1.00  0.00     0.160 C 
ATOM     98  C   UNL A   1      49.475  46.643  21.222  1.00  0.00     0.029 C 
ENDBRANCH  92  93
ENDBRANCH  90  92
ENDBRANCH  88  90
ENDBRANCH  81  83
ENDBRANCH  80  81
ENDBRANCH  79  80
ENDBRANCH  78  79
ENDBRANCH  77  78
ENDBRANCH  76  77
ENDBRANCH   1  76
TORSDOF 23
ENDMDL
MODEL 3
REMARK VINA RESULT:      -9.5      5.143     10.904
REMARK SMILES O=C(OCCOCCOCCOCCOC(=O)[C@@H]1C[C@@H]2CC[C@H]1N2C(=O)C[C@H]1CCCCO1)c1ccc(-c2c3nc(c(-c4c(F)c(F)c(F)c(F)c4F)c4ccc([nH]4)c(-c4c(F)c(F)c(F)c(F)c4F)c4nc(c(-c5c(F)c(F)c(F)c(F)c5F)c5ccc2[nH]5)C=C4)C=C3)cc1
REMARK SMILES IDX 10 1 9 2 8 3 7 4 6 5 5 6 4 7 3 8 2 9 1 10 34 11 35 12 96 13
REMARK SMILES IDX 36 14 95 15 37 16 38 17 39 18 89 19 40 20 94 21 88 22 90 23
REMARK SMILES IDX 41 24 93 25 87 26 86 27 42 29 74 30 54 31 73 32 55 33 58 34
REMARK SMILES IDX 72 35 91 36 56 37 57 38 71 40 92 41 59 42 43 43 44 44 52 45
REMARK SMILES IDX 45 46 46 47 50 48 53 49 47 50 48 51 51 52 49 53 75 54 76 55
REMARK SMILES IDX 84 56 77 57 78 58 82 59 85 60 79 61 80 62 83 63 81 64 60 65
REMARK SMILES IDX 61 66 69 67 62 68 63 69 67 70 70 71 64 72 65 73 68 74 66 75
REMARK SMILES IDX 11 76 12 77 13 78 14 79 15 80 16 81 17 82 18 83 19 84 23 85
REMARK SMILES IDX 20 86 22 87 24 88 21 89 25 90 26 91 27 92 28 93 29 94 33 95
REMARK SMILES IDX 30 96 32 97 31 98
REMARK H PARENT 90 28 58 39
REMARK Flexibility Score: inf
ROOT
ATOM      1  C   UNL A   1      33.467  35.917  28.887  1.00  0.00     0.188 C 
ENDROOT
BRANCH   1   2
ATOM      2  O   UNL A   1      33.246  36.700  30.052  1.00  0.00    -0.377 OA
BRANCH   2   3
ATOM      3  C   UNL A   1      32.388  36.111  31.022  1.00  0.00     0.188 C 
BRANCH   3   4
ATOM      4  C   UNL A   1      33.156  35.632  32.249  1.00  0.00     0.188 C 
BRANCH   4   5
ATOM      5  O   UNL A   1      33.358  34.232  32.120  1.00  0.00    -0.376 OA
BRANCH   5   6
ATOM      6  C   UNL A   1      33.431  33.461  33.312  1.00  0.00     0.202 C 
BRANCH   6   7
ATOM      7  C   UNL A   1      34.845  33.074  33.697  1.00  0.00     0.261 C 
BRANCH   7   8
ATOM      8  O   UNL A   1      35.695  32.671  32.607  1.00  0.00    -0.460 OA
BRANCH   8   9
ATOM      9  C   UNL A   1      36.649  33.299  31.890  1.00  0.00     0.338 C 
ATOM     10  O   UNL A   1      36.547  34.520  31.754  1.00  0.00    -0.246 OA
BRANCH   9  11
ATOM     11  C   UNL A   1      37.853  32.661  31.278  1.00  0.00     0.060 A 
ATOM     12  C   UNL A   1      38.250  32.755  29.947  1.00  0.00     0.016 A 
ATOM     13  C   UNL A   1      38.730  32.017  32.168  1.00  0.00     0.016 A 
ATOM     14  C   UNL A   1      39.450  32.247  29.493  1.00  0.00     0.010 A 
ATOM     15  C   UNL A   1      39.946  31.491  31.726  1.00  0.00     0.010 A 
ATOM     16  C   UNL A   1      40.296  31.605  30.379  1.00  0.00    -0.014 A 
BRANCH  16  17
ATOM     17  C   UNL A   1      41.430  30.890  29.791  1.00  0.00     0.031 A 
ATOM     18  C   UNL A   1      42.727  31.625  29.737  1.00  0.00     0.074 A 
ATOM     19  C   UNL A   1      41.321  29.584  29.498  1.00  0.00     0.049 A 
ATOM     20  N   UNL A   1      43.834  31.304  29.133  1.00  0.00    -0.248 NA
ATOM     21  C   UNL A   1      42.791  32.897  30.483  1.00  0.00     0.031 C 
ATOM     22  C   UNL A   1      40.135  28.757  29.742  1.00  0.00     0.029 A 
ATOM     23  N   UNL A   1      42.225  28.717  28.953  1.00  0.00    -0.354 N 
ATOM     24  C   UNL A   1      44.695  32.367  29.360  1.00  0.00     0.074 A 
ATOM     25  C   UNL A   1      44.009  33.324  30.193  1.00  0.00     0.031 C 
ATOM     26  C   UNL A   1      40.384  27.502  29.333  1.00  0.00     0.029 A 
ATOM     27  C   UNL A   1      41.699  27.473  28.708  1.00  0.00     0.049 A 
ATOM     28  H   UNL A   1      43.159  28.960  28.756  1.00  0.00     0.167 HD
ATOM     29  C   UNL A   1      45.942  32.520  28.866  1.00  0.00     0.037 A 
ATOM     30  C   UNL A   1      42.209  26.468  27.975  1.00  0.00     0.037 A 
ATOM     31  C   UNL A   1      46.572  31.515  28.059  1.00  0.00     0.049 A 
ATOM     32  C   UNL A   1      43.552  26.709  27.334  1.00  0.00     0.074 A 
ATOM     33  C   UNL A   1      47.808  31.539  27.449  1.00  0.00     0.029 A 
ATOM     34  N   UNL A   1      45.989  30.289  27.755  1.00  0.00    -0.354 N 
ATOM     35  N   UNL A   1      44.349  27.747  27.455  1.00  0.00    -0.248 NA
ATOM     36  C   UNL A   1      44.053  25.668  26.432  1.00  0.00     0.031 C 
ATOM     37  C   UNL A   1      47.946  30.351  26.725  1.00  0.00     0.029 A 
ATOM     38  C   UNL A   1      46.822  29.561  26.932  1.00  0.00     0.049 A 
ATOM     39  H   UNL A   1      45.109  29.986  28.080  1.00  0.00     0.167 HD
ATOM     40  C   UNL A   1      45.448  27.483  26.653  1.00  0.00     0.074 A 
ATOM     41  C   UNL A   1      45.225  26.173  26.072  1.00  0.00     0.031 C 
ATOM     42  C   UNL A   1      46.539  28.249  26.401  1.00  0.00     0.037 A 
BRANCH  29  43
ATOM     43  C   UNL A   1      46.612  33.840  29.084  1.00  0.00     0.064 A 
ATOM     44  C   UNL A   1      47.374  34.124  30.226  1.00  0.00     0.173 A 
ATOM     45  C   UNL A   1      46.450  34.860  28.133  1.00  0.00     0.173 A 
ATOM     46  F   UNL A   1      47.523  33.199  31.185  1.00  0.00    -0.203 F 
ATOM     47  C   UNL A   1      47.935  35.386  30.415  1.00  0.00     0.198 A 
ATOM     48  C   UNL A   1      47.033  36.110  28.312  1.00  0.00     0.198 A 
ATOM     49  F   UNL A   1      45.711  34.648  27.034  1.00  0.00    -0.203 F 
ATOM     50  F   UNL A   1      48.614  35.654  31.539  1.00  0.00    -0.200 F 
ATOM     51  C   UNL A   1      47.771  36.374  29.455  1.00  0.00     0.200 A 
ATOM     52  F   UNL A   1      46.870  37.064  27.385  1.00  0.00    -0.200 F 
ATOM     53  F   UNL A   1      48.310  37.588  29.641  1.00  0.00    -0.200 F 
ENDBRANCH  29  43
BRANCH  30  54
ATOM     54  C   UNL A   1      41.416  25.237  27.706  1.00  0.00     0.064 A 
ATOM     55  C   UNL A   1      41.730  24.016  28.318  1.00  0.00     0.173 A 
ATOM     56  C   UNL A   1      40.344  25.244  26.796  1.00  0.00     0.173 A 
ATOM     57  F   UNL A   1      42.754  23.943  29.180  1.00  0.00    -0.203 F 
ATOM     58  C   UNL A   1      41.026  22.851  28.011  1.00  0.00     0.198 A 
ATOM     59  C   UNL A   1      39.618  24.087  26.518  1.00  0.00     0.198 A 
ATOM     60  F   UNL A   1      39.998  26.380  26.171  1.00  0.00    -0.203 F 
ATOM     61  F   UNL A   1      41.389  21.687  28.566  1.00  0.00    -0.200 F 
ATOM     62  C   UNL A   1      39.968  22.888  27.115  1.00  0.00     0.200 A 
ATOM     63  F   UNL A   1      38.587  24.135  25.662  1.00  0.00    -0.200 F 
ATOM     64  F   UNL A   1      39.297  21.767  26.816  1.00  0.00    -0.200 F 
ENDBRANCH  30  54
BRANCH  42  65
ATOM     65  C   UNL A   1      47.568  27.670  25.484  1.00  0.00     0.064 A 
ATOM     66  C   UNL A   1      47.477  27.828  24.095  1.00  0.00     0.173 A 
ATOM     67  C   UNL A   1      48.700  27.032  26.011  1.00  0.00     0.173 A 
ATOM     68  F   UNL A   1      46.401  28.417  23.551  1.00  0.00    -0.203 F 
ATOM     69  C   UNL A   1      48.485  27.356  23.262  1.00  0.00     0.198 A 
ATOM     70  C   UNL A   1      49.721  26.594  25.178  1.00  0.00     0.198 A 
ATOM     71  F   UNL A   1      48.830  26.871  27.338  1.00  0.00    -0.203 F 
ATOM     72  F   UNL A   1      48.366  27.484  21.934  1.00  0.00    -0.200 F 
ATOM     73  C   UNL A   1      49.610  26.753  23.804  1.00  0.00     0.200 A 
ATOM     74  F   UNL A   1      50.816  26.030  25.704  1.00  0.00    -0.200 F 
ATOM     75  F   UNL A   1      50.592  26.322  23.000  1.00  0.00    -0.200 F 
ENDBRANCH  42  65
ENDBRANCH  16  17
ENDBRANCH   9  11
ENDBRANCH   8   9
ENDBRANCH   7   8
ENDBRANCH   6   7
ENDBRANCH   5   6
ENDBRANCH   4   5
ENDBRANCH   3   4
ENDBRANCH   2   3
ENDBRANCH   1   2
BRANCH   1  76
ATOM     76  C   UNL A   1      34.344  34.681  28.968  1.00  0.00     0.188 C 
BRANCH  76  77
ATOM     77  O   UNL A   1      33.660  33.502  28.584  1.00  0.00    -0.376 OA
BRANCH  77  78
ATOM     78  C   UNL A   1      34.413  32.306  28.753  1.00  0.00     0.202 C 
BRANCH  78  79
ATOM     79  C   UNL A   1      34.522  31.369  27.532  1.00  0.00     0.261 C 
BRANCH  79  80
ATOM     80  O   UNL A   1      33.764  30.133  27.499  1.00  0.00    -0.463 OA
BRANCH  80  81
ATOM     81  C   UNL A   1      32.676  30.013  26.702  1.00  0.00     0.311 C 
ATOM     82  O   UNL A   1      31.638  30.651  26.865  1.00  0.00    -0.252 OA
BRANCH  81  83
ATOM     83  C   UNL A   1      32.870  28.968  25.602  1.00  0.00     0.124 C 
ATOM     84  C   UNL A   1      32.014  28.857  24.296  1.00  0.00     0.042 C 
ATOM     85  C   UNL A   1      32.836  27.514  26.111  1.00  0.00     0.099 C 
ATOM     86  C   UNL A   1      31.731  27.332  24.183  1.00  0.00     0.086 C 
ATOM     87  C   UNL A   1      31.415  27.068  26.540  1.00  0.00     0.028 C 
ATOM     88  N   UNL A   1      32.897  26.810  24.843  1.00  0.00    -0.336 N 
ATOM     89  C   UNL A   1      30.673  26.894  25.191  1.00  0.00     0.027 C 
BRANCH  88  90
ATOM     90  C   UNL A   1      33.722  25.837  24.376  1.00  0.00     0.225 C 
ATOM     91  O   UNL A   1      33.989  25.723  23.180  1.00  0.00    -0.275 OA
BRANCH  90  92
ATOM     92  C   UNL A   1      34.413  24.989  25.417  1.00  0.00     0.132 C 
BRANCH  92  93
ATOM     93  C   UNL A   1      33.545  23.792  25.858  1.00  0.00     0.127 C 
ATOM     94  C   UNL A   1      32.332  23.512  24.953  1.00  0.00     0.033 C 
ATOM     95  O   UNL A   1      34.387  22.634  25.949  1.00  0.00    -0.378 OA
ATOM     96  C   UNL A   1      31.598  22.230  25.326  1.00  0.00     0.005 C 
ATOM     97  C   UNL A   1      33.715  21.486  26.462  1.00  0.00     0.160 C 
ATOM     98  C   UNL A   1      32.553  21.069  25.572  1.00  0.00     0.029 C 
ENDBRANCH  92  93
ENDBRANCH  90  92
ENDBRANCH  88  90
ENDBRANCH  81  83
ENDBRANCH  80  81
ENDBRANCH  79  80
ENDBRANCH  78  79
ENDBRANCH  77  78
ENDBRANCH  76  77
ENDBRANCH   1  76
TORSDOF 23
ENDMDL
