MODEL 1
REMARK VINA RESULT:      -9.3      0.000      0.000
REMARK SMILES O=C(OCCOCCOCCOCCOC(=O)[C@H]1CSCN1C(=O)CSc1cccs1)c1ccc(-c2c3nc(c(-c4c(F)c(F)c(F)c(F)c4F)c4ccc([nH]4)c(-c4c(F)c(F)c(F)c(F)c4F)c4nc(c(-c5c(F)c(F)c(F)c(F)c5F)c5ccc2[nH]5)C=C4)C=C3)cc1
REMARK SMILES IDX 10 1 9 2 8 3 7 4 6 5 5 6 4 7 3 8 2 9 1 10 32 11 33 12 94 13
REMARK SMILES IDX 34 14 93 15 35 16 36 17 37 18 87 19 38 20 92 21 86 22 88 23
REMARK SMILES IDX 39 24 91 25 85 26 84 27 40 29 72 30 52 31 71 32 53 33 56 34
REMARK SMILES IDX 70 35 89 36 54 37 55 38 69 40 90 41 57 42 41 43 42 44 50 45
REMARK SMILES IDX 43 46 44 47 48 48 51 49 45 50 46 51 49 52 47 53 73 54 74 55
REMARK SMILES IDX 82 56 75 57 76 58 80 59 83 60 77 61 78 62 81 63 79 64 58 65
REMARK SMILES IDX 59 66 67 67 60 68 61 69 65 70 68 71 62 72 63 73 66 74 64 75
REMARK SMILES IDX 11 76 12 77 13 78 14 79 15 80 16 81 17 82 18 83 19 84 22 85
REMARK SMILES IDX 20 86 21 87 23 88 24 89 25 90 26 91 27 92 28 93 31 94 29 95
REMARK SMILES IDX 30 96
REMARK H PARENT 88 28 56 39
REMARK Flexibility Score: inf
ROOT
ATOM      1  C   UNL A   1      32.089  22.919  23.036  1.00  0.00     0.188 C 
ENDROOT
BRANCH   1   2
ATOM      2  O   UNL A   1      32.310  21.979  24.082  1.00  0.00    -0.377 OA
BRANCH   2   3
ATOM      3  C   UNL A   1      33.646  21.510  24.242  1.00  0.00     0.188 C 
BRANCH   3   4
ATOM      4  C   UNL A   1      33.960  21.044  25.660  1.00  0.00     0.188 C 
BRANCH   4   5
ATOM      5  O   UNL A   1      35.276  21.473  26.025  1.00  0.00    -0.376 OA
BRANCH   5   6
ATOM      6  C   UNL A   1      36.020  22.092  24.978  1.00  0.00     0.202 C 
BRANCH   6   7
ATOM      7  C   UNL A   1      37.317  21.355  24.648  1.00  0.00     0.261 C 
BRANCH   7   8
ATOM      8  O   UNL A   1      37.996  20.920  25.834  1.00  0.00    -0.460 OA
BRANCH   8   9
ATOM      9  C   UNL A   1      39.262  21.195  26.233  1.00  0.00     0.338 C 
ATOM     10  O   UNL A   1      40.077  20.271  26.215  1.00  0.00    -0.246 OA
BRANCH   9  11
ATOM     11  C   UNL A   1      39.762  22.546  26.666  1.00  0.00     0.060 A 
ATOM     12  C   UNL A   1      39.235  23.788  26.302  1.00  0.00     0.016 A 
ATOM     13  C   UNL A   1      40.857  22.545  27.553  1.00  0.00     0.016 A 
ATOM     14  C   UNL A   1      39.816  24.982  26.723  1.00  0.00     0.010 A 
ATOM     15  C   UNL A   1      41.440  23.737  27.997  1.00  0.00     0.010 A 
ATOM     16  C   UNL A   1      40.940  24.960  27.543  1.00  0.00    -0.014 A 
BRANCH  16  17
ATOM     17  C   UNL A   1      41.685  26.216  27.740  1.00  0.00     0.031 A 
ATOM     18  C   UNL A   1      41.059  27.266  28.610  1.00  0.00     0.074 A 
ATOM     19  C   UNL A   1      42.934  26.349  27.262  1.00  0.00     0.049 A 
ATOM     20  N   UNL A   1      41.492  28.459  28.916  1.00  0.00    -0.248 NA
ATOM     21  C   UNL A   1      39.774  26.911  29.238  1.00  0.00     0.031 C 
ATOM     22  C   UNL A   1      43.664  25.325  26.517  1.00  0.00     0.029 A 
ATOM     23  N   UNL A   1      43.815  27.394  27.355  1.00  0.00    -0.354 N 
ATOM     24  C   UNL A   1      40.525  29.001  29.752  1.00  0.00     0.074 A 
ATOM     25  C   UNL A   1      39.485  28.013  29.912  1.00  0.00     0.031 C 
ATOM     26  C   UNL A   1      44.889  25.792  26.222  1.00  0.00     0.029 A 
ATOM     27  C   UNL A   1      45.006  27.163  26.711  1.00  0.00     0.049 A 
ATOM     28  H   UNL A   1      43.615  28.228  27.836  1.00  0.00     0.167 HD
ATOM     29  C   UNL A   1      40.511  30.226  30.327  1.00  0.00     0.037 A 
ATOM     30  C   UNL A   1      46.051  27.991  26.519  1.00  0.00     0.037 A 
ATOM     31  C   UNL A   1      41.555  31.194  30.145  1.00  0.00     0.049 A 
ATOM     32  C   UNL A   1      45.966  29.385  27.089  1.00  0.00     0.074 A 
ATOM     33  C   UNL A   1      41.625  32.493  30.608  1.00  0.00     0.029 A 
ATOM     34  N   UNL A   1      42.723  30.955  29.431  1.00  0.00    -0.354 N 
ATOM     35  N   UNL A   1      45.022  29.921  27.828  1.00  0.00    -0.248 NA
ATOM     36  C   UNL A   1      47.078  30.293  26.787  1.00  0.00     0.031 C 
ATOM     37  C   UNL A   1      42.821  33.053  30.142  1.00  0.00     0.029 A 
ATOM     38  C   UNL A   1      43.514  32.088  29.426  1.00  0.00     0.049 A 
ATOM     39  H   UNL A   1      42.952  30.102  28.992  1.00  0.00     0.167 HD
ATOM     40  C   UNL A   1      45.432  31.221  28.089  1.00  0.00     0.074 A 
ATOM     41  C   UNL A   1      46.722  31.384  27.450  1.00  0.00     0.031 C 
ATOM     42  C   UNL A   1      44.799  32.198  28.785  1.00  0.00     0.037 A 
BRANCH  29  43
ATOM     43  C   UNL A   1      39.302  30.590  31.132  1.00  0.00     0.064 A 
ATOM     44  C   UNL A   1      38.245  31.336  30.588  1.00  0.00     0.173 A 
ATOM     45  C   UNL A   1      39.214  30.211  32.480  1.00  0.00     0.173 A 
ATOM     46  F   UNL A   1      38.297  31.749  29.313  1.00  0.00    -0.203 F 
ATOM     47  C   UNL A   1      37.154  31.707  31.372  1.00  0.00     0.198 A 
ATOM     48  C   UNL A   1      38.113  30.565  33.254  1.00  0.00     0.198 A 
ATOM     49  F   UNL A   1      40.204  29.508  33.050  1.00  0.00    -0.203 F 
ATOM     50  F   UNL A   1      36.180  32.462  30.846  1.00  0.00    -0.200 F 
ATOM     51  C   UNL A   1      37.086  31.318  32.702  1.00  0.00     0.200 A 
ATOM     52  F   UNL A   1      38.050  30.189  34.539  1.00  0.00    -0.200 F 
ATOM     53  F   UNL A   1      36.041  31.681  33.456  1.00  0.00    -0.200 F 
ENDBRANCH  29  43
BRANCH  30  54
ATOM     54  C   UNL A   1      47.225  27.554  25.716  1.00  0.00     0.064 A 
ATOM     55  C   UNL A   1      48.372  27.026  26.327  1.00  0.00     0.173 A 
ATOM     56  C   UNL A   1      47.240  27.688  24.319  1.00  0.00     0.173 A 
ATOM     57  F   UNL A   1      48.422  26.901  27.661  1.00  0.00    -0.203 F 
ATOM     58  C   UNL A   1      49.490  26.670  25.574  1.00  0.00     0.198 A 
ATOM     59  C   UNL A   1      48.346  27.301  23.565  1.00  0.00     0.198 A 
ATOM     60  F   UNL A   1      46.175  28.195  23.681  1.00  0.00    -0.203 F 
ATOM     61  F   UNL A   1      50.593  26.219  26.190  1.00  0.00    -0.200 F 
ATOM     62  C   UNL A   1      49.475  26.802  24.195  1.00  0.00     0.200 A 
ATOM     63  F   UNL A   1      48.321  27.423  22.231  1.00  0.00    -0.200 F 
ATOM     64  F   UNL A   1      50.552  26.462  23.473  1.00  0.00    -0.200 F 
ENDBRANCH  30  54
BRANCH  42  65
ATOM     65  C   UNL A   1      45.508  33.512  28.906  1.00  0.00     0.064 A 
ATOM     66  C   UNL A   1      45.258  34.561  28.013  1.00  0.00     0.173 A 
ATOM     67  C   UNL A   1      46.401  33.739  29.964  1.00  0.00     0.173 A 
ATOM     68  F   UNL A   1      44.421  34.383  26.979  1.00  0.00    -0.203 F 
ATOM     69  C   UNL A   1      45.892  35.790  28.163  1.00  0.00     0.198 A 
ATOM     70  C   UNL A   1      47.013  34.976  30.126  1.00  0.00     0.198 A 
ATOM     71  F   UNL A   1      46.663  32.764  30.848  1.00  0.00    -0.203 F 
ATOM     72  F   UNL A   1      45.670  36.770  27.276  1.00  0.00    -0.200 F 
ATOM     73  C   UNL A   1      46.763  35.998  29.223  1.00  0.00     0.200 A 
ATOM     74  F   UNL A   1      47.843  35.182  31.158  1.00  0.00    -0.200 F 
ATOM     75  F   UNL A   1      47.365  37.187  29.372  1.00  0.00    -0.200 F 
ENDBRANCH  42  65
ENDBRANCH  16  17
ENDBRANCH   9  11
ENDBRANCH   8   9
ENDBRANCH   7   8
ENDBRANCH   6   7
ENDBRANCH   5   6
ENDBRANCH   4   5
ENDBRANCH   3   4
ENDBRANCH   2   3
ENDBRANCH   1   2
BRANCH   1  76
ATOM     76  C   UNL A   1      33.287  23.297  22.138  1.00  0.00     0.188 C 
BRANCH  76  77
ATOM     77  O   UNL A   1      33.224  24.605  21.581  1.00  0.00    -0.376 OA
BRANCH  77  78
ATOM     78  C   UNL A   1      33.473  25.672  22.491  1.00  0.00     0.202 C 
BRANCH  78  79
ATOM     79  C   UNL A   1      32.484  26.832  22.372  1.00  0.00     0.261 C 
BRANCH  79  80
ATOM     80  O   UNL A   1      31.249  26.624  23.076  1.00  0.00    -0.462 OA
BRANCH  80  81
ATOM     81  C   UNL A   1      30.884  27.513  24.026  1.00  0.00     0.329 C 
ATOM     82  O   UNL A   1      30.457  28.641  23.790  1.00  0.00    -0.250 OA
BRANCH  81  83
ATOM     83  C   UNL A   1      30.937  26.928  25.451  1.00  0.00     0.205 C 
ATOM     84  C   UNL A   1      29.841  25.858  25.564  1.00  0.00     0.108 C 
ATOM     85  N   UNL A   1      32.206  26.391  25.976  1.00  0.00    -0.318 N 
ATOM     86  S   UNL A   1      30.615  24.318  26.118  1.00  0.00    -0.138 SA
ATOM     87  C   UNL A   1      32.117  25.128  26.672  1.00  0.00     0.190 C 
BRANCH  85  88
ATOM     88  C   UNL A   1      33.290  27.248  26.048  1.00  0.00     0.234 C 
ATOM     89  O   UNL A   1      34.385  26.922  25.582  1.00  0.00    -0.274 OA
BRANCH  88  90
ATOM     90  C   UNL A   1      33.133  28.616  26.684  1.00  0.00     0.176 C 
BRANCH  90  91
ATOM     91  S   UNL A   1      34.669  29.281  27.389  1.00  0.00    -0.105 SA
BRANCH  91  92
ATOM     92  C   UNL A   1      34.475  31.020  27.601  1.00  0.00     0.060 A 
ATOM     93  C   UNL A   1      35.549  31.880  27.752  1.00  0.00     0.027 A 
ATOM     94  S   UNL A   1      33.013  31.904  27.596  1.00  0.00    -0.137 S 
ATOM     95  C   UNL A   1      35.155  33.229  27.996  1.00  0.00     0.013 A 
ATOM     96  C   UNL A   1      33.788  33.365  28.008  1.00  0.00     0.066 A 
ENDBRANCH  91  92
ENDBRANCH  90  91
ENDBRANCH  88  90
ENDBRANCH  85  88
ENDBRANCH  81  83
ENDBRANCH  80  81
ENDBRANCH  79  80
ENDBRANCH  78  79
ENDBRANCH  77  78
ENDBRANCH  76  77
ENDBRANCH   1  76
TORSDOF 24
ENDMDL
MODEL 2
REMARK VINA RESULT:      -9.2      1.133      7.318
REMARK SMILES O=C(OCCOCCOCCOCCOC(=O)[C@H]1CSCN1C(=O)CSc1cccs1)c1ccc(-c2c3nc(c(-c4c(F)c(F)c(F)c(F)c4F)c4ccc([nH]4)c(-c4c(F)c(F)c(F)c(F)c4F)c4nc(c(-c5c(F)c(F)c(F)c(F)c5F)c5ccc2[nH]5)C=C4)C=C3)cc1
REMARK SMILES IDX 10 1 9 2 8 3 7 4 6 5 5 6 4 7 3 8 2 9 1 10 32 11 33 12 94 13
REMARK SMILES IDX 34 14 93 15 35 16 36 17 37 18 87 19 38 20 92 21 86 22 88 23
REMARK SMILES IDX 39 24 91 25 85 26 84 27 40 29 72 30 52 31 71 32 53 33 56 34
REMARK SMILES IDX 70 35 89 36 54 37 55 38 69 40 90 41 57 42 41 43 42 44 50 45
REMARK SMILES IDX 43 46 44 47 48 48 51 49 45 50 46 51 49 52 47 53 73 54 74 55
REMARK SMILES IDX 82 56 75 57 76 58 80 59 83 60 77 61 78 62 81 63 79 64 58 65
REMARK SMILES IDX 59 66 67 67 60 68 61 69 65 70 68 71 62 72 63 73 66 74 64 75
REMARK SMILES IDX 11 76 12 77 13 78 14 79 15 80 16 81 17 82 18 83 19 84 22 85
REMARK SMILES IDX 20 86 21 87 23 88 24 89 25 90 26 91 27 92 28 93 31 94 29 95
REMARK SMILES IDX 30 96
REMARK H PARENT 88 28 56 39
REMARK Flexibility Score: inf
ROOT
ATOM      1  C   UNL A   1      31.910  22.524  23.162  1.00  0.00     0.188 C 
ENDROOT
BRANCH   1   2
ATOM      2  O   UNL A   1      32.343  21.825  24.325  1.00  0.00    -0.377 OA
BRANCH   2   3
ATOM      3  C   UNL A   1      33.751  21.741  24.527  1.00  0.00     0.188 C 
BRANCH   3   4
ATOM      4  C   UNL A   1      34.136  21.145  25.878  1.00  0.00     0.188 C 
BRANCH   4   5
ATOM      5  O   UNL A   1      35.502  21.458  26.167  1.00  0.00    -0.376 OA
BRANCH   5   6
ATOM      6  C   UNL A   1      36.157  22.261  25.187  1.00  0.00     0.202 C 
BRANCH   6   7
ATOM      7  C   UNL A   1      37.561  21.766  24.847  1.00  0.00     0.261 C 
BRANCH   7   8
ATOM      8  O   UNL A   1      38.300  21.414  26.025  1.00  0.00    -0.460 OA
BRANCH   8   9
ATOM      9  C   UNL A   1      39.557  21.780  26.376  1.00  0.00     0.338 C 
ATOM     10  O   UNL A   1      40.450  20.940  26.249  1.00  0.00    -0.246 OA
BRANCH   9  11
ATOM     11  C   UNL A   1      39.958  23.140  26.878  1.00  0.00     0.060 A 
ATOM     12  C   UNL A   1      39.412  24.368  26.493  1.00  0.00     0.016 A 
ATOM     13  C   UNL A   1      40.970  23.164  27.858  1.00  0.00     0.016 A 
ATOM     14  C   UNL A   1      39.901  25.574  26.987  1.00  0.00     0.010 A 
ATOM     15  C   UNL A   1      41.459  24.369  28.376  1.00  0.00     0.010 A 
ATOM     16  C   UNL A   1      40.948  25.580  27.904  1.00  0.00    -0.014 A 
BRANCH  16  17
ATOM     17  C   UNL A   1      41.618  26.861  28.190  1.00  0.00     0.031 A 
ATOM     18  C   UNL A   1      42.995  27.066  27.632  1.00  0.00     0.074 A 
ATOM     19  C   UNL A   1      40.957  27.850  28.815  1.00  0.00     0.049 A 
ATOM     20  N   UNL A   1      43.804  28.083  27.763  1.00  0.00    -0.248 NA
ATOM     21  C   UNL A   1      43.526  25.978  26.792  1.00  0.00     0.031 C 
ATOM     22  C   UNL A   1      39.570  27.777  29.275  1.00  0.00     0.029 A 
ATOM     23  N   UNL A   1      41.358  29.116  29.149  1.00  0.00    -0.354 N 
ATOM     24  C   UNL A   1      44.941  27.748  27.042  1.00  0.00     0.074 A 
ATOM     25  C   UNL A   1      44.725  26.439  26.471  1.00  0.00     0.031 C 
ATOM     26  C   UNL A   1      39.233  28.953  29.830  1.00  0.00     0.029 A 
ATOM     27  C   UNL A   1      40.394  29.839  29.810  1.00  0.00     0.049 A 
ATOM     28  H   UNL A   1      42.249  29.475  28.935  1.00  0.00     0.167 HD
ATOM     29  C   UNL A   1      46.071  28.475  26.882  1.00  0.00     0.037 A 
ATOM     30  C   UNL A   1      40.470  31.065  30.362  1.00  0.00     0.037 A 
ATOM     31  C   UNL A   1      46.265  29.771  27.468  1.00  0.00     0.049 A 
ATOM     32  C   UNL A   1      41.776  31.812  30.251  1.00  0.00     0.074 A 
ATOM     33  C   UNL A   1      47.387  30.575  27.445  1.00  0.00     0.029 A 
ATOM     34  N   UNL A   1      45.292  30.451  28.191  1.00  0.00    -0.354 N 
ATOM     35  N   UNL A   1      42.876  31.469  29.622  1.00  0.00    -0.248 NA
ATOM     36  C   UNL A   1      41.858  33.107  30.940  1.00  0.00     0.031 C 
ATOM     37  C   UNL A   1      47.105  31.729  28.187  1.00  0.00     0.029 A 
ATOM     38  C   UNL A   1      45.794  31.660  28.634  1.00  0.00     0.049 A 
ATOM     39  H   UNL A   1      44.380  30.120  28.361  1.00  0.00     0.167 HD
ATOM     40  C   UNL A   1      43.774  32.507  29.827  1.00  0.00     0.074 A 
ATOM     41  C   UNL A   1      43.081  33.504  30.618  1.00  0.00     0.031 C 
ATOM     42  C   UNL A   1      45.059  32.627  29.409  1.00  0.00     0.037 A 
BRANCH  29  43
ATOM     43  C   UNL A   1      47.187  27.843  26.109  1.00  0.00     0.064 A 
ATOM     44  C   UNL A   1      47.300  27.985  24.718  1.00  0.00     0.173 A 
ATOM     45  C   UNL A   1      48.143  27.056  26.769  1.00  0.00     0.173 A 
ATOM     46  F   UNL A   1      46.392  28.699  24.037  1.00  0.00    -0.203 F 
ATOM     47  C   UNL A   1      48.318  27.344  24.013  1.00  0.00     0.198 A 
ATOM     48  C   UNL A   1      49.171  26.436  26.066  1.00  0.00     0.198 A 
ATOM     49  F   UNL A   1      48.072  26.880  28.097  1.00  0.00    -0.203 F 
ATOM     50  F   UNL A   1      48.377  27.452  22.679  1.00  0.00    -0.200 F 
ATOM     51  C   UNL A   1      49.254  26.574  24.688  1.00  0.00     0.200 A 
ATOM     52  F   UNL A   1      50.074  25.691  26.719  1.00  0.00    -0.200 F 
ATOM     53  F   UNL A   1      50.228  25.953  24.009  1.00  0.00    -0.200 F 
ENDBRANCH  29  43
BRANCH  30  54
ATOM     54  C   UNL A   1      39.315  31.633  31.107  1.00  0.00     0.064 A 
ATOM     55  C   UNL A   1      38.509  32.637  30.550  1.00  0.00     0.173 A 
ATOM     56  C   UNL A   1      39.010  31.207  32.409  1.00  0.00     0.173 A 
ATOM     57  F   UNL A   1      38.771  33.100  29.320  1.00  0.00    -0.203 F 
ATOM     58  C   UNL A   1      37.461  33.205  31.274  1.00  0.00     0.198 A 
ATOM     59  C   UNL A   1      37.942  31.752  33.119  1.00  0.00     0.198 A 
ATOM     60  F   UNL A   1      39.751  30.256  32.995  1.00  0.00    -0.203 F 
ATOM     61  F   UNL A   1      36.742  34.202  30.737  1.00  0.00    -0.200 F 
ATOM     62  C   UNL A   1      37.174  32.759  32.555  1.00  0.00     0.200 A 
ATOM     63  F   UNL A   1      37.665  31.310  34.353  1.00  0.00    -0.200 F 
ATOM     64  F   UNL A   1      36.168  33.307  33.250  1.00  0.00    -0.200 F 
ENDBRANCH  30  54
BRANCH  42  65
ATOM     65  C   UNL A   1      45.778  33.887  29.782  1.00  0.00     0.064 A 
ATOM     66  C   UNL A   1      46.599  33.951  30.915  1.00  0.00     0.173 A 
ATOM     67  C   UNL A   1      45.690  35.021  28.962  1.00  0.00     0.173 A 
ATOM     68  F   UNL A   1      46.702  32.893  31.735  1.00  0.00    -0.203 F 
ATOM     69  C   UNL A   1      47.295  35.114  31.226  1.00  0.00     0.198 A 
ATOM     70  C   UNL A   1      46.407  36.174  29.260  1.00  0.00     0.198 A 
ATOM     71  F   UNL A   1      44.922  35.001  27.861  1.00  0.00    -0.203 F 
ATOM     72  F   UNL A   1      48.046  35.169  32.334  1.00  0.00    -0.200 F 
ATOM     73  C   UNL A   1      47.204  36.221  30.394  1.00  0.00     0.200 A 
ATOM     74  F   UNL A   1      46.331  37.238  28.450  1.00  0.00    -0.200 F 
ATOM     75  F   UNL A   1      47.884  37.338  30.689  1.00  0.00    -0.200 F 
ENDBRANCH  42  65
ENDBRANCH  16  17
ENDBRANCH   9  11
ENDBRANCH   8   9
ENDBRANCH   7   8
ENDBRANCH   6   7
ENDBRANCH   5   6
ENDBRANCH   4   5
ENDBRANCH   3   4
ENDBRANCH   2   3
ENDBRANCH   1   2
BRANCH   1  76
ATOM     76  C   UNL A   1      32.940  23.403  22.422  1.00  0.00     0.188 C 
BRANCH  76  77
ATOM     77  O   UNL A   1      32.437  24.656  21.970  1.00  0.00    -0.376 OA
BRANCH  77  78
ATOM     78  C   UNL A   1      33.242  25.789  22.285  1.00  0.00     0.202 C 
BRANCH  78  79
ATOM     79  C   UNL A   1      32.563  27.129  22.000  1.00  0.00     0.261 C 
BRANCH  79  80
ATOM     80  O   UNL A   1      31.139  27.041  21.830  1.00  0.00    -0.462 OA
BRANCH  80  81
ATOM     81  C   UNL A   1      30.360  28.012  22.355  1.00  0.00     0.329 C 
ATOM     82  O   UNL A   1      29.902  28.955  21.714  1.00  0.00    -0.250 OA
BRANCH  81  83
ATOM     83  C   UNL A   1      29.993  27.757  23.831  1.00  0.00     0.205 C 
ATOM     84  C   UNL A   1      29.327  26.376  23.920  1.00  0.00     0.108 C 
ATOM     85  N   UNL A   1      31.028  27.875  24.875  1.00  0.00    -0.318 N 
ATOM     86  S   UNL A   1      30.228  25.397  25.149  1.00  0.00    -0.138 SA
ATOM     87  C   UNL A   1      31.044  26.825  25.867  1.00  0.00     0.190 C 
BRANCH  85  88
ATOM     88  C   UNL A   1      31.670  29.091  25.014  1.00  0.00     0.234 C 
ATOM     89  O   UNL A   1      31.029  30.123  25.236  1.00  0.00    -0.274 OA
BRANCH  88  90
ATOM     90  C   UNL A   1      33.182  29.166  24.921  1.00  0.00     0.176 C 
BRANCH  90  91
ATOM     91  S   UNL A   1      34.044  28.478  26.364  1.00  0.00    -0.105 SA
BRANCH  91  92
ATOM     92  C   UNL A   1      34.784  29.808  27.254  1.00  0.00     0.060 A 
ATOM     93  C   UNL A   1      36.087  29.765  27.717  1.00  0.00     0.027 A 
ATOM     94  S   UNL A   1      34.079  31.318  27.626  1.00  0.00    -0.137 S 
ATOM     95  C   UNL A   1      36.446  30.912  28.484  1.00  0.00     0.013 A 
ATOM     96  C   UNL A   1      35.409  31.810  28.572  1.00  0.00     0.066 A 
ENDBRANCH  91  92
ENDBRANCH  90  91
ENDBRANCH  88  90
ENDBRANCH  85  88
ENDBRANCH  81  83
ENDBRANCH  80  81
ENDBRANCH  79  80
ENDBRANCH  78  79
ENDBRANCH  77  78
ENDBRANCH  76  77
ENDBRANCH   1  76
TORSDOF 24
ENDMDL
MODEL 3
REMARK VINA RESULT:      -8.9      0.530      7.175
REMARK SMILES O=C(OCCOCCOCCOCCOC(=O)[C@H]1CSCN1C(=O)CSc1cccs1)c1ccc(-c2c3nc(c(-c4c(F)c(F)c(F)c(F)c4F)c4ccc([nH]4)c(-c4c(F)c(F)c(F)c(F)c4F)c4nc(c(-c5c(F)c(F)c(F)c(F)c5F)c5ccc2[nH]5)C=C4)C=C3)cc1
REMARK SMILES IDX 10 1 9 2 8 3 7 4 6 5 5 6 4 7 3 8 2 9 1 10 32 11 33 12 94 13
REMARK SMILES IDX 34 14 93 15 35 16 36 17 37 18 87 19 38 20 92 21 86 22 88 23
REMARK SMILES IDX 39 24 91 25 85 26 84 27 40 29 72 30 52 31 71 32 53 33 56 34
REMARK SMILES IDX 70 35 89 36 54 37 55 38 69 40 90 41 57 42 41 43 42 44 50 45
REMARK SMILES IDX 43 46 44 47 48 48 51 49 45 50 46 51 49 52 47 53 73 54 74 55
REMARK SMILES IDX 82 56 75 57 76 58 80 59 83 60 77 61 78 62 81 63 79 64 58 65
REMARK SMILES IDX 59 66 67 67 60 68 61 69 65 70 68 71 62 72 63 73 66 74 64 75
REMARK SMILES IDX 11 76 12 77 13 78 14 79 15 80 16 81 17 82 18 83 19 84 22 85
REMARK SMILES IDX 20 86 21 87 23 88 24 89 25 90 26 91 27 92 28 93 31 94 29 95
REMARK SMILES IDX 30 96
REMARK H PARENT 88 28 56 39
REMARK Flexibility Score: inf
ROOT
ATOM      1  C   UNL A   1      32.097  22.523  23.128  1.00  0.00     0.188 C 
ENDROOT
BRANCH   1   2
ATOM      2  O   UNL A   1      32.740  21.463  23.829  1.00  0.00    -0.377 OA
BRANCH   2   3
ATOM      3  C   UNL A   1      34.123  21.646  24.123  1.00  0.00     0.188 C 
BRANCH   3   4
ATOM      4  C   UNL A   1      34.701  20.557  25.021  1.00  0.00     0.188 C 
BRANCH   4   5
ATOM      5  O   UNL A   1      35.515  21.155  26.036  1.00  0.00    -0.376 OA
BRANCH   5   6
ATOM      6  C   UNL A   1      36.612  21.926  25.552  1.00  0.00     0.202 C 
BRANCH   6   7
ATOM      7  C   UNL A   1      37.747  21.070  24.995  1.00  0.00     0.261 C 
BRANCH   7   8
ATOM      8  O   UNL A   1      38.618  20.602  26.034  1.00  0.00    -0.460 OA
BRANCH   8   9
ATOM      9  C   UNL A   1      39.862  21.037  26.354  1.00  0.00     0.338 C 
ATOM     10  O   UNL A   1      40.797  20.249  26.200  1.00  0.00    -0.246 OA
BRANCH   9  11
ATOM     11  C   UNL A   1      40.199  22.416  26.851  1.00  0.00     0.060 A 
ATOM     12  C   UNL A   1      39.536  23.605  26.532  1.00  0.00     0.016 A 
ATOM     13  C   UNL A   1      41.278  22.502  27.752  1.00  0.00     0.016 A 
ATOM     14  C   UNL A   1      39.971  24.838  27.012  1.00  0.00     0.010 A 
ATOM     15  C   UNL A   1      41.715  23.733  28.255  1.00  0.00     0.010 A 
ATOM     16  C   UNL A   1      41.082  24.909  27.847  1.00  0.00    -0.014 A 
BRANCH  16  17
ATOM     17  C   UNL A   1      41.675  26.233  28.108  1.00  0.00     0.031 A 
ATOM     18  C   UNL A   1      42.996  26.541  27.466  1.00  0.00     0.074 A 
ATOM     19  C   UNL A   1      40.986  27.166  28.786  1.00  0.00     0.049 A 
ATOM     20  N   UNL A   1      43.736  27.613  27.559  1.00  0.00    -0.248 NA
ATOM     21  C   UNL A   1      43.549  25.501  26.580  1.00  0.00     0.031 C 
ATOM     22  C   UNL A   1      39.641  26.989  29.331  1.00  0.00     0.029 A 
ATOM     23  N   UNL A   1      41.317  28.455  29.110  1.00  0.00    -0.354 N 
ATOM     24  C   UNL A   1      44.847  27.367  26.763  1.00  0.00     0.074 A 
ATOM     25  C   UNL A   1      44.688  26.051  26.190  1.00  0.00     0.031 C 
ATOM     26  C   UNL A   1      39.257  28.133  29.922  1.00  0.00     0.029 A 
ATOM     27  C   UNL A   1      40.348  29.100  29.840  1.00  0.00     0.049 A 
ATOM     28  H   UNL A   1      42.164  28.878  28.845  1.00  0.00     0.167 HD
ATOM     29  C   UNL A   1      45.909  28.174  26.542  1.00  0.00     0.037 A 
ATOM     30  C   UNL A   1      40.372  30.324  30.402  1.00  0.00     0.037 A 
ATOM     31  C   UNL A   1      46.047  29.476  27.131  1.00  0.00     0.049 A 
ATOM     32  C   UNL A   1      41.611  31.164  30.219  1.00  0.00     0.074 A 
ATOM     33  C   UNL A   1      47.105  30.359  27.048  1.00  0.00     0.029 A 
ATOM     34  N   UNL A   1      45.076  30.078  27.923  1.00  0.00    -0.354 N 
ATOM     35  N   UNL A   1      42.690  30.907  29.517  1.00  0.00    -0.248 NA
ATOM     36  C   UNL A   1      41.644  32.455  30.918  1.00  0.00     0.031 C 
ATOM     37  C   UNL A   1      46.790  31.483  27.822  1.00  0.00     0.029 A 
ATOM     38  C   UNL A   1      45.518  31.316  28.349  1.00  0.00     0.049 A 
ATOM     39  H   UNL A   1      44.203  29.680  28.147  1.00  0.00     0.167 HD
ATOM     40  C   UNL A   1      43.523  32.005  29.678  1.00  0.00     0.074 A 
ATOM     41  C   UNL A   1      42.813  32.943  30.525  1.00  0.00     0.031 C 
ATOM     42  C   UNL A   1      44.767  32.221  29.182  1.00  0.00     0.037 A 
BRANCH  29  43
ATOM     43  C   UNL A   1      47.016  27.631  25.691  1.00  0.00     0.064 A 
ATOM     44  C   UNL A   1      48.085  26.907  26.239  1.00  0.00     0.173 A 
ATOM     45  C   UNL A   1      47.020  27.866  24.308  1.00  0.00     0.173 A 
ATOM     46  F   UNL A   1      48.144  26.684  27.559  1.00  0.00    -0.203 F 
ATOM     47  C   UNL A   1      49.130  26.456  25.433  1.00  0.00     0.198 A 
ATOM     48  C   UNL A   1      48.053  27.396  23.504  1.00  0.00     0.198 A 
ATOM     49  F   UNL A   1      46.025  28.564  23.739  1.00  0.00    -0.203 F 
ATOM     50  F   UNL A   1      50.167  25.811  25.984  1.00  0.00    -0.200 F 
ATOM     51  C   UNL A   1      49.112  26.697  24.067  1.00  0.00     0.200 A 
ATOM     52  F   UNL A   1      48.034  27.630  22.184  1.00  0.00    -0.200 F 
ATOM     53  F   UNL A   1      50.120  26.270  23.296  1.00  0.00    -0.200 F 
ENDBRANCH  29  43
BRANCH  30  54
ATOM     54  C   UNL A   1      39.228  30.801  31.226  1.00  0.00     0.064 A 
ATOM     55  C   UNL A   1      39.073  30.403  32.561  1.00  0.00     0.173 A 
ATOM     56  C   UNL A   1      38.244  31.642  30.683  1.00  0.00     0.173 A 
ATOM     57  F   UNL A   1      39.970  29.578  33.122  1.00  0.00    -0.203 F 
ATOM     58  C   UNL A   1      37.970  30.808  33.312  1.00  0.00     0.198 A 
ATOM     59  C   UNL A   1      37.159  32.073  31.444  1.00  0.00     0.198 A 
ATOM     60  F   UNL A   1      38.335  32.049  29.409  1.00  0.00    -0.203 F 
ATOM     61  F   UNL A   1      37.819  30.366  34.569  1.00  0.00    -0.200 F 
ATOM     62  C   UNL A   1      37.017  31.647  32.755  1.00  0.00     0.200 A 
ATOM     63  F   UNL A   1      36.246  32.892  30.903  1.00  0.00    -0.200 F 
ATOM     64  F   UNL A   1      35.956  32.034  33.477  1.00  0.00    -0.200 F 
ENDBRANCH  30  54
BRANCH  42  65
ATOM     65  C   UNL A   1      45.417  33.526  29.525  1.00  0.00     0.064 A 
ATOM     66  C   UNL A   1      45.304  34.641  28.685  1.00  0.00     0.173 A 
ATOM     67  C   UNL A   1      46.107  33.675  30.737  1.00  0.00     0.173 A 
ATOM     68  F   UNL A   1      44.663  34.540  27.511  1.00  0.00    -0.203 F 
ATOM     69  C   UNL A   1      45.877  35.859  29.037  1.00  0.00     0.198 A 
ATOM     70  C   UNL A   1      46.657  34.899  31.098  1.00  0.00     0.198 A 
ATOM     71  F   UNL A   1      46.232  32.635  31.576  1.00  0.00    -0.203 F 
ATOM     72  F   UNL A   1      45.792  36.904  28.203  1.00  0.00    -0.200 F 
ATOM     73  C   UNL A   1      46.546  35.988  30.246  1.00  0.00     0.200 A 
ATOM     74  F   UNL A   1      47.290  35.029  32.272  1.00  0.00    -0.200 F 
ATOM     75  F   UNL A   1      47.088  37.166  30.589  1.00  0.00    -0.200 F 
ENDBRANCH  42  65
ENDBRANCH  16  17
ENDBRANCH   9  11
ENDBRANCH   8   9
ENDBRANCH   7   8
ENDBRANCH   6   7
ENDBRANCH   5   6
ENDBRANCH   4   5
ENDBRANCH   3   4
ENDBRANCH   2   3
ENDBRANCH   1   2
BRANCH   1  76
ATOM     76  C   UNL A   1      32.980  23.495  22.318  1.00  0.00     0.188 C 
BRANCH  76  77
ATOM     77  O   UNL A   1      32.831  24.867  22.669  1.00  0.00    -0.376 OA
BRANCH  77  78
ATOM     78  C   UNL A   1      32.495  25.741  21.596  1.00  0.00     0.202 C 
BRANCH  78  79
ATOM     79  C   UNL A   1      31.618  26.923  22.012  1.00  0.00     0.261 C 
BRANCH  79  80
ATOM     80  O   UNL A   1      30.722  26.635  23.098  1.00  0.00    -0.462 OA
BRANCH  80  81
ATOM     81  C   UNL A   1      30.628  27.519  24.115  1.00  0.00     0.329 C 
ATOM     82  O   UNL A   1      30.291  28.693  23.983  1.00  0.00    -0.250 OA
BRANCH  81  83
ATOM     83  C   UNL A   1      30.869  26.877  25.496  1.00  0.00     0.205 C 
ATOM     84  C   UNL A   1      29.920  25.677  25.630  1.00  0.00     0.108 C 
ATOM     85  N   UNL A   1      32.232  26.475  25.889  1.00  0.00    -0.318 N 
ATOM     86  S   UNL A   1      30.914  24.218  26.032  1.00  0.00    -0.138 SA
ATOM     87  C   UNL A   1      32.350  25.178  26.515  1.00  0.00     0.190 C 
BRANCH  85  88
ATOM     88  C   UNL A   1      33.209  27.452  25.928  1.00  0.00     0.234 C 
ATOM     89  O   UNL A   1      34.027  27.565  25.010  1.00  0.00    -0.274 OA
BRANCH  88  90
ATOM     90  C   UNL A   1      33.269  28.420  27.095  1.00  0.00     0.176 C 
BRANCH  90  91
ATOM     91  S   UNL A   1      34.849  29.301  27.241  1.00  0.00    -0.105 SA
BRANCH  91  92
ATOM     92  C   UNL A   1      34.510  31.006  27.533  1.00  0.00     0.060 A 
ATOM     93  C   UNL A   1      35.499  31.925  27.835  1.00  0.00     0.027 A 
ATOM     94  S   UNL A   1      32.994  31.787  27.436  1.00  0.00    -0.137 S 
ATOM     95  C   UNL A   1      34.987  33.226  28.117  1.00  0.00     0.013 A 
ATOM     96  C   UNL A   1      33.617  33.269  28.003  1.00  0.00     0.066 A 
ENDBRANCH  91  92
ENDBRANCH  90  91
ENDBRANCH  88  90
ENDBRANCH  85  88
ENDBRANCH  81  83
ENDBRANCH  80  81
ENDBRANCH  79  80
ENDBRANCH  78  79
ENDBRANCH  77  78
ENDBRANCH  76  77
ENDBRANCH   1  76
TORSDOF 24
ENDMDL
