MODEL 1
REMARK VINA RESULT:      -9.0      0.000      0.000
REMARK SMILES C[NH2+][C@]1(C(=O)OCCOCCOCCOCCOC(=O)c2ccc(-c3c4nc(c(-c5c(F)c(F)c(F)c(F)c5F)c5ccc([nH]5)c(-c5c(F)c(F)c(F)c(F)c5F)c5nc(c(-c6c(F)c(F)c(F)c(F)c6F)c6ccc3[nH]6)C=C5)C=C4)cc2)CCC[C@@H]1CCSc1cccc(Cl)c1
REMARK SMILES IDX 11 1 10 2 9 3 8 4 7 5 6 6 4 7 5 8 3 9 84 10 87 11 85 12
REMARK SMILES IDX 86 13 2 14 1 15 88 18 89 19 90 20 91 21 92 22 97 23 93 24
REMARK SMILES IDX 95 25 94 26 96 27 12 28 13 29 14 30 15 31 16 32 17 33 18 34
REMARK SMILES IDX 19 35 20 36 21 37 22 38 83 39 23 40 82 41 24 42 25 43 26 44
REMARK SMILES IDX 76 45 27 46 81 47 75 48 77 49 28 50 80 51 74 52 73 53 29 55
REMARK SMILES IDX 61 56 41 57 60 58 42 59 45 60 59 61 78 62 43 63 44 64 58 66
REMARK SMILES IDX 79 67 46 68 30 69 31 70 39 71 32 72 33 73 37 74 40 75 34 76
REMARK SMILES IDX 35 77 38 78 36 79 62 80 63 81 71 82 64 83 65 84 69 85 72 86
REMARK SMILES IDX 66 87 67 88 70 89 68 90 47 91 48 92 56 93 49 94 50 95 54 96
REMARK SMILES IDX 57 97 51 98 52 99 55 100 53 101
REMARK H PARENT 2 16 2 17 77 54 45 65
REMARK Flexibility Score: inf
ROOT
ATOM      1  C   UNL A   1      42.001  20.461  26.128  1.00  0.00     0.188 C 
ENDROOT
BRANCH   1   2
ATOM      2  C   UNL A   1      40.568  20.257  26.629  1.00  0.00     0.188 C 
BRANCH   2   3
ATOM      3  O   UNL A   1      39.724  21.382  26.766  1.00  0.00    -0.376 OA
BRANCH   3   4
ATOM      4  C   UNL A   1      38.853  21.786  25.724  1.00  0.00     0.202 C 
BRANCH   4   5
ATOM      5  C   UNL A   1      37.344  21.468  25.613  1.00  0.00     0.261 C 
BRANCH   5   6
ATOM      6  O   UNL A   1      36.375  22.513  25.781  1.00  0.00    -0.459 OA
BRANCH   6   7
ATOM      7  C   UNL A   1      35.467  22.642  24.781  1.00  0.00     0.368 C 
ATOM      8  O   UNL A   1      35.771  22.626  23.591  1.00  0.00    -0.245 OA
BRANCH   7   9
ATOM      9  C   UNL A   1      34.000  22.875  25.283  1.00  0.00     0.197 C 
ATOM     10  C   UNL A   1      33.514  22.237  26.612  1.00  0.00     0.081 C 
ATOM     11  C   UNL A   1      33.951  24.353  25.733  1.00  0.00     0.063 C 
ATOM     12  C   UNL A   1      32.422  23.157  27.167  1.00  0.00     0.008 C 
ATOM     13  C   UNL A   1      32.618  24.498  26.471  1.00  0.00     0.011 C 
BRANCH   9  14
ATOM     14  N   UNL A   1      33.012  22.600  24.198  1.00  0.00    -0.334 N 
ATOM     15  C   UNL A   1      32.910  21.186  23.836  1.00  0.00     0.331 C 
ATOM     16  H   UNL A   1      32.095  22.919  24.511  1.00  0.00     0.347 HD
ATOM     17  H   UNL A   1      33.337  23.095  23.368  1.00  0.00     0.347 HD
ENDBRANCH   9  14
BRANCH  11  18
ATOM     18  C   UNL A   1      34.199  25.423  24.670  1.00  0.00     0.022 C 
BRANCH  18  19
ATOM     19  C   UNL A   1      33.496  26.753  24.968  1.00  0.00     0.075 C 
BRANCH  19  20
ATOM     20  S   UNL A   1      33.496  27.979  23.585  1.00  0.00    -0.126 SA
BRANCH  20  21
ATOM     21  C   UNL A   1      31.772  28.323  23.243  1.00  0.00     0.009 A 
ATOM     22  C   UNL A   1      31.328  29.428  22.509  1.00  0.00     0.015 A 
ATOM     23  C   UNL A   1      30.822  27.412  23.721  1.00  0.00     0.035 A 
ATOM     24  C   UNL A   1      29.977  29.565  22.169  1.00  0.00     0.003 A 
ATOM     25  C   UNL A   1      29.470  27.567  23.406  1.00  0.00     0.042 A 
ATOM     26  C   UNL A   1      29.047  28.629  22.612  1.00  0.00     0.020 A 
ATOM     27  Cl  UNL A   1      28.317  26.430  23.991  1.00  0.00    -0.084 Cl
ENDBRANCH  20  21
ENDBRANCH  19  20
ENDBRANCH  18  19
ENDBRANCH  11  18
ENDBRANCH   7   9
ENDBRANCH   6   7
ENDBRANCH   5   6
ENDBRANCH   4   5
ENDBRANCH   3   4
ENDBRANCH   2   3
ENDBRANCH   1   2
BRANCH   1  28
ATOM     28  O   UNL A   1      42.434  19.537  25.152  1.00  0.00    -0.377 OA
BRANCH  28  29
ATOM     29  C   UNL A   1      43.680  18.898  25.377  1.00  0.00     0.188 C 
BRANCH  29  30
ATOM     30  C   UNL A   1      44.903  19.330  24.542  1.00  0.00     0.188 C 
BRANCH  30  31
ATOM     31  O   UNL A   1      45.843  20.134  25.241  1.00  0.00    -0.376 OA
BRANCH  31  32
ATOM     32  C   UNL A   1      45.554  21.495  25.518  1.00  0.00     0.202 C 
BRANCH  32  33
ATOM     33  C   UNL A   1      44.816  22.331  24.459  1.00  0.00     0.261 C 
BRANCH  33  34
ATOM     34  O   UNL A   1      44.609  23.719  24.757  1.00  0.00    -0.460 OA
BRANCH  34  35
ATOM     35  C   UNL A   1      45.690  24.508  24.911  1.00  0.00     0.338 C 
ATOM     36  O   UNL A   1      46.777  24.388  24.371  1.00  0.00    -0.246 OA
BRANCH  35  37
ATOM     37  C   UNL A   1      45.269  25.686  25.698  1.00  0.00     0.060 A 
ATOM     38  C   UNL A   1      44.461  26.656  25.088  1.00  0.00     0.016 A 
ATOM     39  C   UNL A   1      45.645  25.819  27.036  1.00  0.00     0.016 A 
ATOM     40  C   UNL A   1      44.057  27.781  25.805  1.00  0.00     0.010 A 
ATOM     41  C   UNL A   1      45.268  26.963  27.745  1.00  0.00     0.010 A 
ATOM     42  C   UNL A   1      44.504  27.964  27.119  1.00  0.00    -0.014 A 
BRANCH  42  43
ATOM     43  C   UNL A   1      44.375  29.299  27.749  1.00  0.00     0.031 A 
ATOM     44  C   UNL A   1      45.526  30.257  27.609  1.00  0.00     0.074 A 
ATOM     45  C   UNL A   1      43.262  29.667  28.404  1.00  0.00     0.049 A 
ATOM     46  N   UNL A   1      45.684  31.452  28.115  1.00  0.00    -0.248 NA
ATOM     47  C   UNL A   1      46.655  29.798  26.782  1.00  0.00     0.031 C 
ATOM     48  C   UNL A   1      42.062  28.849  28.556  1.00  0.00     0.029 A 
ATOM     49  N   UNL A   1      42.967  30.829  29.072  1.00  0.00    -0.354 N 
ATOM     50  C   UNL A   1      46.929  31.882  27.676  1.00  0.00     0.074 A 
ATOM     51  C   UNL A   1      47.501  30.810  26.892  1.00  0.00     0.031 C 
ATOM     52  C   UNL A   1      41.163  29.529  29.289  1.00  0.00     0.029 A 
ATOM     53  C   UNL A   1      41.740  30.812  29.687  1.00  0.00     0.049 A 
ATOM     54  H   UNL A   1      43.578  31.600  29.107  1.00  0.00     0.167 HD
ATOM     55  C   UNL A   1      47.538  33.071  27.901  1.00  0.00     0.037 A 
ATOM     56  C   UNL A   1      41.166  31.720  30.500  1.00  0.00     0.037 A 
ATOM     57  C   UNL A   1      46.965  34.131  28.687  1.00  0.00     0.049 A 
ATOM     58  C   UNL A   1      41.902  33.000  30.811  1.00  0.00     0.074 A 
ATOM     59  C   UNL A   1      47.495  35.377  28.967  1.00  0.00     0.029 A 
ATOM     60  N   UNL A   1      45.736  34.063  29.326  1.00  0.00    -0.354 N 
ATOM     61  N   UNL A   1      43.071  33.412  30.381  1.00  0.00    -0.248 NA
ATOM     62  C   UNL A   1      41.237  33.945  31.720  1.00  0.00     0.031 C 
ATOM     63  C   UNL A   1      46.615  36.038  29.831  1.00  0.00     0.029 A 
ATOM     64  C   UNL A   1      45.504  35.235  30.029  1.00  0.00     0.049 A 
ATOM     65  H   UNL A   1      45.120  33.296  29.287  1.00  0.00     0.167 HD
ATOM     66  C   UNL A   1      43.264  34.672  30.935  1.00  0.00     0.074 A 
ATOM     67  C   UNL A   1      42.085  34.963  31.724  1.00  0.00     0.031 C 
ATOM     68  C   UNL A   1      44.319  35.514  30.801  1.00  0.00     0.037 A 
BRANCH  55  69
ATOM     69  C   UNL A   1      48.908  33.267  27.322  1.00  0.00     0.064 A 
ATOM     70  C   UNL A   1      49.116  33.970  26.126  1.00  0.00     0.173 A 
ATOM     71  C   UNL A   1      50.035  32.761  27.987  1.00  0.00     0.173 A 
ATOM     72  F   UNL A   1      48.070  34.459  25.440  1.00  0.00    -0.203 F 
ATOM     73  C   UNL A   1      50.396  34.135  25.604  1.00  0.00     0.198 A 
ATOM     74  C   UNL A   1      51.316  32.957  27.481  1.00  0.00     0.198 A 
ATOM     75  F   UNL A   1      49.895  32.079  29.135  1.00  0.00    -0.203 F 
ATOM     76  F   UNL A   1      50.564  34.763  24.431  1.00  0.00    -0.200 F 
ATOM     77  C   UNL A   1      51.496  33.636  26.285  1.00  0.00     0.200 A 
ATOM     78  F   UNL A   1      52.379  32.486  28.149  1.00  0.00    -0.200 F 
ATOM     79  F   UNL A   1      52.728  33.803  25.787  1.00  0.00    -0.200 F 
ENDBRANCH  55  69
BRANCH  56  80
ATOM     80  C   UNL A   1      39.830  31.449  31.097  1.00  0.00     0.064 A 
ATOM     81  C   UNL A   1      39.703  30.755  32.309  1.00  0.00     0.173 A 
ATOM     82  C   UNL A   1      38.651  31.852  30.453  1.00  0.00     0.173 A 
ATOM     83  F   UNL A   1      40.799  30.323  32.950  1.00  0.00    -0.203 F 
ATOM     84  C   UNL A   1      38.451  30.455  32.840  1.00  0.00     0.198 A 
ATOM     85  C   UNL A   1      37.399  31.581  31.002  1.00  0.00     0.198 A 
ATOM     86  F   UNL A   1      38.713  32.513  29.287  1.00  0.00    -0.203 F 
ATOM     87  F   UNL A   1      38.359  29.739  33.969  1.00  0.00    -0.200 F 
ATOM     88  C   UNL A   1      37.300  30.873  32.190  1.00  0.00     0.200 A 
ATOM     89  F   UNL A   1      36.290  31.993  30.373  1.00  0.00    -0.200 F 
ATOM     90  F   UNL A   1      36.095  30.581  32.700  1.00  0.00    -0.200 F 
ENDBRANCH  56  80
BRANCH  68  91
ATOM     91  C   UNL A   1      44.232  36.852  31.481  1.00  0.00     0.064 A 
ATOM     92  C   UNL A   1      44.559  37.020  32.835  1.00  0.00     0.173 A 
ATOM     93  C   UNL A   1      43.859  37.992  30.751  1.00  0.00     0.173 A 
ATOM     94  F   UNL A   1      44.911  35.962  33.581  1.00  0.00    -0.203 F 
ATOM     95  C   UNL A   1      44.487  38.273  33.439  1.00  0.00     0.198 A 
ATOM     96  C   UNL A   1      43.824  39.248  31.349  1.00  0.00     0.198 A 
ATOM     97  F   UNL A   1      43.546  37.891  29.451  1.00  0.00    -0.203 F 
ATOM     98  F   UNL A   1      44.752  38.400  34.746  1.00  0.00    -0.200 F 
ATOM     99  C   UNL A   1      44.128  39.386  32.694  1.00  0.00     0.200 A 
ATOM    100  F   UNL A   1      43.497  40.326  30.622  1.00  0.00    -0.200 F 
ATOM    101  F   UNL A   1      44.070  40.593  33.275  1.00  0.00    -0.200 F 
ENDBRANCH  68  91
ENDBRANCH  42  43
ENDBRANCH  35  37
ENDBRANCH  34  35
ENDBRANCH  33  34
ENDBRANCH  32  33
ENDBRANCH  31  32
ENDBRANCH  30  31
ENDBRANCH  29  30
ENDBRANCH  28  29
ENDBRANCH   1  28
TORSDOF 25
ENDMDL
MODEL 2
REMARK VINA RESULT:      -9.0      6.095     11.960
REMARK SMILES C[NH2+][C@]1(C(=O)OCCOCCOCCOCCOC(=O)c2ccc(-c3c4nc(c(-c5c(F)c(F)c(F)c(F)c5F)c5ccc([nH]5)c(-c5c(F)c(F)c(F)c(F)c5F)c5nc(c(-c6c(F)c(F)c(F)c(F)c6F)c6ccc3[nH]6)C=C5)C=C4)cc2)CCC[C@@H]1CCSc1cccc(Cl)c1
REMARK SMILES IDX 11 1 10 2 9 3 8 4 7 5 6 6 4 7 5 8 3 9 84 10 87 11 85 12
REMARK SMILES IDX 86 13 2 14 1 15 88 18 89 19 90 20 91 21 92 22 97 23 93 24
REMARK SMILES IDX 95 25 94 26 96 27 12 28 13 29 14 30 15 31 16 32 17 33 18 34
REMARK SMILES IDX 19 35 20 36 21 37 22 38 83 39 23 40 82 41 24 42 25 43 26 44
REMARK SMILES IDX 76 45 27 46 81 47 75 48 77 49 28 50 80 51 74 52 73 53 29 55
REMARK SMILES IDX 61 56 41 57 60 58 42 59 45 60 59 61 78 62 43 63 44 64 58 66
REMARK SMILES IDX 79 67 46 68 30 69 31 70 39 71 32 72 33 73 37 74 40 75 34 76
REMARK SMILES IDX 35 77 38 78 36 79 62 80 63 81 71 82 64 83 65 84 69 85 72 86
REMARK SMILES IDX 66 87 67 88 70 89 68 90 47 91 48 92 56 93 49 94 50 95 54 96
REMARK SMILES IDX 57 97 51 98 52 99 55 100 53 101
REMARK H PARENT 2 16 2 17 77 54 45 65
REMARK Flexibility Score: inf
ROOT
ATOM      1  C   UNL A   1      38.381  32.262  38.457  1.00  0.00     0.188 C 
ENDROOT
BRANCH   1   2
ATOM      2  C   UNL A   1      37.634  33.062  37.386  1.00  0.00     0.188 C 
BRANCH   2   3
ATOM      3  O   UNL A   1      37.206  32.403  36.212  1.00  0.00    -0.376 OA
BRANCH   3   4
ATOM      4  C   UNL A   1      38.092  32.159  35.133  1.00  0.00     0.202 C 
BRANCH   4   5
ATOM      5  C   UNL A   1      38.271  30.824  34.376  1.00  0.00     0.261 C 
BRANCH   5   6
ATOM      6  O   UNL A   1      37.628  30.624  33.109  1.00  0.00    -0.459 OA
BRANCH   6   7
ATOM      7  C   UNL A   1      37.797  29.401  32.548  1.00  0.00     0.368 C 
ATOM      8  O   UNL A   1      37.387  28.362  33.061  1.00  0.00    -0.245 OA
BRANCH   7   9
ATOM      9  C   UNL A   1      38.616  29.424  31.211  1.00  0.00     0.197 C 
ATOM     10  C   UNL A   1      39.793  28.434  30.994  1.00  0.00     0.081 C 
ATOM     11  C   UNL A   1      37.665  28.852  30.137  1.00  0.00     0.063 C 
ATOM     12  C   UNL A   1      39.893  28.197  29.484  1.00  0.00     0.008 C 
ATOM     13  C   UNL A   1      38.547  28.620  28.908  1.00  0.00     0.011 C 
BRANCH   9  14
ATOM     14  N   UNL A   1      39.053  30.811  30.874  1.00  0.00    -0.334 N 
ATOM     15  C   UNL A   1      40.412  31.127  31.316  1.00  0.00     0.331 C 
ATOM     16  H   UNL A   1      39.010  30.924  29.861  1.00  0.00     0.347 HD
ATOM     17  H   UNL A   1      38.426  31.448  31.365  1.00  0.00     0.347 HD
ENDBRANCH   9  14
BRANCH  11  18
ATOM     18  C   UNL A   1      36.380  29.629  29.848  1.00  0.00     0.022 C 
BRANCH  18  19
ATOM     19  C   UNL A   1      36.355  30.269  28.454  1.00  0.00     0.075 C 
BRANCH  19  20
ATOM     20  S   UNL A   1      34.735  30.996  27.942  1.00  0.00    -0.126 SA
BRANCH  20  21
ATOM     21  C   UNL A   1      33.949  29.754  26.919  1.00  0.00     0.009 A 
ATOM     22  C   UNL A   1      34.359  28.418  26.860  1.00  0.00     0.015 A 
ATOM     23  C   UNL A   1      32.842  30.148  26.156  1.00  0.00     0.035 A 
ATOM     24  C   UNL A   1      33.619  27.473  26.140  1.00  0.00     0.003 A 
ATOM     25  C   UNL A   1      32.123  29.209  25.414  1.00  0.00     0.042 A 
ATOM     26  C   UNL A   1      32.494  27.868  25.421  1.00  0.00     0.020 A 
ATOM     27  Cl  UNL A   1      30.757  29.709  24.492  1.00  0.00    -0.084 Cl
ENDBRANCH  20  21
ENDBRANCH  19  20
ENDBRANCH  18  19
ENDBRANCH  11  18
ENDBRANCH   7   9
ENDBRANCH   6   7
ENDBRANCH   5   6
ENDBRANCH   4   5
ENDBRANCH   3   4
ENDBRANCH   2   3
ENDBRANCH   1   2
BRANCH   1  28
ATOM     28  O   UNL A   1      39.550  32.876  38.959  1.00  0.00    -0.377 OA
BRANCH  28  29
ATOM     29  C   UNL A   1      39.726  32.870  40.366  1.00  0.00     0.188 C 
BRANCH  29  30
ATOM     30  C   UNL A   1      38.976  33.915  41.218  1.00  0.00     0.188 C 
BRANCH  30  31
ATOM     31  O   UNL A   1      39.476  35.240  41.107  1.00  0.00    -0.376 OA
BRANCH  31  32
ATOM     32  C   UNL A   1      38.671  36.263  40.544  1.00  0.00     0.202 C 
BRANCH  32  33
ATOM     33  C   UNL A   1      39.343  37.555  40.050  1.00  0.00     0.261 C 
BRANCH  33  34
ATOM     34  O   UNL A   1      40.012  37.495  38.783  1.00  0.00    -0.460 OA
BRANCH  34  35
ATOM     35  C   UNL A   1      41.338  37.251  38.771  1.00  0.00     0.338 C 
ATOM     36  O   UNL A   1      42.174  37.668  39.555  1.00  0.00    -0.246 OA
BRANCH  35  37
ATOM     37  C   UNL A   1      41.586  36.208  37.754  1.00  0.00     0.060 A 
ATOM     38  C   UNL A   1      42.902  35.783  37.525  1.00  0.00     0.016 A 
ATOM     39  C   UNL A   1      40.525  35.634  37.051  1.00  0.00     0.016 A 
ATOM     40  C   UNL A   1      43.164  34.806  36.565  1.00  0.00     0.010 A 
ATOM     41  C   UNL A   1      40.790  34.680  36.066  1.00  0.00     0.010 A 
ATOM     42  C   UNL A   1      42.115  34.291  35.795  1.00  0.00    -0.014 A 
BRANCH  42  43
ATOM     43  C   UNL A   1      42.426  33.535  34.559  1.00  0.00     0.031 A 
ATOM     44  C   UNL A   1      42.526  32.038  34.657  1.00  0.00     0.074 A 
ATOM     45  C   UNL A   1      42.587  34.150  33.376  1.00  0.00     0.049 A 
ATOM     46  N   UNL A   1      42.844  31.161  33.740  1.00  0.00    -0.248 NA
ATOM     47  C   UNL A   1      42.228  31.451  35.974  1.00  0.00     0.031 C 
ATOM     48  C   UNL A   1      42.456  35.586  33.147  1.00  0.00     0.029 A 
ATOM     49  N   UNL A   1      42.905  33.637  32.144  1.00  0.00    -0.354 N 
ATOM     50  C   UNL A   1      42.792  29.925  34.372  1.00  0.00     0.074 A 
ATOM     51  C   UNL A   1      42.446  30.165  35.755  1.00  0.00     0.031 C 
ATOM     52  C   UNL A   1      42.710  35.844  31.852  1.00  0.00     0.029 A 
ATOM     53  C   UNL A   1      43.057  34.596  31.173  1.00  0.00     0.049 A 
ATOM     54  H   UNL A   1      43.015  32.674  31.973  1.00  0.00     0.167 HD
ATOM     55  C   UNL A   1      43.006  28.698  33.841  1.00  0.00     0.037 A 
ATOM     56  C   UNL A   1      43.456  34.476  29.892  1.00  0.00     0.037 A 
ATOM     57  C   UNL A   1      43.355  28.467  32.464  1.00  0.00     0.049 A 
ATOM     58  C   UNL A   1      43.778  33.106  29.346  1.00  0.00     0.074 A 
ATOM     59  C   UNL A   1      43.583  27.263  31.824  1.00  0.00     0.029 A 
ATOM     60  N   UNL A   1      43.536  29.465  31.519  1.00  0.00    -0.354 N 
ATOM     61  N   UNL A   1      43.710  31.938  29.939  1.00  0.00    -0.248 NA
ATOM     62  C   UNL A   1      44.229  33.038  27.948  1.00  0.00     0.031 C 
ATOM     63  C   UNL A   1      43.967  27.537  30.508  1.00  0.00     0.029 A 
ATOM     64  C   UNL A   1      43.906  28.906  30.306  1.00  0.00     0.049 A 
ATOM     65  H   UNL A   1      43.419  30.429  31.685  1.00  0.00     0.167 HD
ATOM     66  C   UNL A   1      44.073  30.998  28.982  1.00  0.00     0.074 A 
ATOM     67  C   UNL A   1      44.348  31.731  27.764  1.00  0.00     0.031 C 
ATOM     68  C   UNL A   1      44.167  29.650  29.099  1.00  0.00     0.037 A 
BRANCH  55  69
ATOM     69  C   UNL A   1      42.906  27.518  34.763  1.00  0.00     0.064 A 
ATOM     70  C   UNL A   1      43.961  27.143  35.608  1.00  0.00     0.173 A 
ATOM     71  C   UNL A   1      41.724  26.763  34.817  1.00  0.00     0.173 A 
ATOM     72  F   UNL A   1      45.120  27.821  35.581  1.00  0.00    -0.203 F 
ATOM     73  C   UNL A   1      43.848  26.042  36.451  1.00  0.00     0.198 A 
ATOM     74  C   UNL A   1      41.602  25.683  35.687  1.00  0.00     0.198 A 
ATOM     75  F   UNL A   1      40.683  27.076  34.031  1.00  0.00    -0.203 F 
ATOM     76  F   UNL A   1      44.890  25.670  37.209  1.00  0.00    -0.200 F 
ATOM     77  C   UNL A   1      42.667  25.317  36.496  1.00  0.00     0.200 A 
ATOM     78  F   UNL A   1      40.454  24.993  35.739  1.00  0.00    -0.200 F 
ATOM     79  F   UNL A   1      42.556  24.262  37.314  1.00  0.00    -0.200 F 
ENDBRANCH  55  69
BRANCH  56  80
ATOM     80  C   UNL A   1      43.597  35.686  29.037  1.00  0.00     0.064 A 
ATOM     81  C   UNL A   1      42.518  36.176  28.289  1.00  0.00     0.173 A 
ATOM     82  C   UNL A   1      44.823  36.360  28.929  1.00  0.00     0.173 A 
ATOM     83  F   UNL A   1      41.332  35.550  28.335  1.00  0.00    -0.203 F 
ATOM     84  C   UNL A   1      42.665  37.276  27.446  1.00  0.00     0.198 A 
ATOM     85  C   UNL A   1      44.961  37.481  28.113  1.00  0.00     0.198 A 
ATOM     86  F   UNL A   1      45.891  35.930  29.618  1.00  0.00    -0.203 F 
ATOM     87  F   UNL A   1      41.633  37.686  26.697  1.00  0.00    -0.200 F 
ATOM     88  C   UNL A   1      43.884  37.932  27.364  1.00  0.00     0.200 A 
ATOM     89  F   UNL A   1      46.139  38.115  28.042  1.00  0.00    -0.200 F 
ATOM     90  F   UNL A   1      44.026  38.989  26.552  1.00  0.00    -0.200 F 
ENDBRANCH  56  80
BRANCH  68  91
ATOM     91  C   UNL A   1      44.537  28.869  27.868  1.00  0.00     0.064 A 
ATOM     92  C   UNL A   1      45.846  28.417  27.641  1.00  0.00     0.173 A 
ATOM     93  C   UNL A   1      43.554  28.530  26.925  1.00  0.00     0.173 A 
ATOM     94  F   UNL A   1      46.826  28.723  28.505  1.00  0.00    -0.203 F 
ATOM     95  C   UNL A   1      46.161  27.681  26.502  1.00  0.00     0.198 A 
ATOM     96  C   UNL A   1      43.865  27.762  25.807  1.00  0.00     0.198 A 
ATOM     97  F   UNL A   1      42.284  28.926  27.098  1.00  0.00    -0.203 F 
ATOM     98  F   UNL A   1      47.428  27.306  26.279  1.00  0.00    -0.200 F 
ATOM     99  C   UNL A   1      45.170  27.347  25.591  1.00  0.00     0.200 A 
ATOM    100  F   UNL A   1      42.902  27.423  24.939  1.00  0.00    -0.200 F 
ATOM    101  F   UNL A   1      45.475  26.629  24.501  1.00  0.00    -0.200 F 
ENDBRANCH  68  91
ENDBRANCH  42  43
ENDBRANCH  35  37
ENDBRANCH  34  35
ENDBRANCH  33  34
ENDBRANCH  32  33
ENDBRANCH  31  32
ENDBRANCH  30  31
ENDBRANCH  29  30
ENDBRANCH  28  29
ENDBRANCH   1  28
TORSDOF 25
ENDMDL
MODEL 3
REMARK VINA RESULT:      -8.5      2.497      3.931
REMARK SMILES C[NH2+][C@]1(C(=O)OCCOCCOCCOCCOC(=O)c2ccc(-c3c4nc(c(-c5c(F)c(F)c(F)c(F)c5F)c5ccc([nH]5)c(-c5c(F)c(F)c(F)c(F)c5F)c5nc(c(-c6c(F)c(F)c(F)c(F)c6F)c6ccc3[nH]6)C=C5)C=C4)cc2)CCC[C@@H]1CCSc1cccc(Cl)c1
REMARK SMILES IDX 11 1 10 2 9 3 8 4 7 5 6 6 4 7 5 8 3 9 84 10 87 11 85 12
REMARK SMILES IDX 86 13 2 14 1 15 88 18 89 19 90 20 91 21 92 22 97 23 93 24
REMARK SMILES IDX 95 25 94 26 96 27 12 28 13 29 14 30 15 31 16 32 17 33 18 34
REMARK SMILES IDX 19 35 20 36 21 37 22 38 83 39 23 40 82 41 24 42 25 43 26 44
REMARK SMILES IDX 76 45 27 46 81 47 75 48 77 49 28 50 80 51 74 52 73 53 29 55
REMARK SMILES IDX 61 56 41 57 60 58 42 59 45 60 59 61 78 62 43 63 44 64 58 66
REMARK SMILES IDX 79 67 46 68 30 69 31 70 39 71 32 72 33 73 37 74 40 75 34 76
REMARK SMILES IDX 35 77 38 78 36 79 62 80 63 81 71 82 64 83 65 84 69 85 72 86
REMARK SMILES IDX 66 87 67 88 70 89 68 90 47 91 48 92 56 93 49 94 50 95 54 96
REMARK SMILES IDX 57 97 51 98 52 99 55 100 53 101
REMARK H PARENT 2 16 2 17 77 54 45 65
REMARK Flexibility Score: inf
ROOT
ATOM      1  C   UNL A   1      42.258  22.549  26.253  1.00  0.00     0.188 C 
ENDROOT
BRANCH   1   2
ATOM      2  C   UNL A   1      41.474  21.466  27.001  1.00  0.00     0.188 C 
BRANCH   2   3
ATOM      3  O   UNL A   1      40.128  21.712  27.350  1.00  0.00    -0.376 OA
BRANCH   3   4
ATOM      4  C   UNL A   1      39.255  22.418  26.487  1.00  0.00     0.202 C 
BRANCH   4   5
ATOM      5  C   UNL A   1      38.120  21.812  25.630  1.00  0.00     0.261 C 
BRANCH   5   6
ATOM      6  O   UNL A   1      36.759  21.899  26.073  1.00  0.00    -0.459 OA
BRANCH   6   7
ATOM      7  C   UNL A   1      35.878  21.084  25.442  1.00  0.00     0.368 C 
ATOM      8  O   UNL A   1      36.223  20.160  24.707  1.00  0.00    -0.245 OA
BRANCH   7   9
ATOM      9  C   UNL A   1      34.376  21.461  25.686  1.00  0.00     0.197 C 
ATOM     10  C   UNL A   1      33.815  21.556  27.131  1.00  0.00     0.081 C 
ATOM     11  C   UNL A   1      34.266  22.959  25.323  1.00  0.00     0.063 C 
ATOM     12  C   UNL A   1      32.670  22.573  27.091  1.00  0.00     0.008 C 
ATOM     13  C   UNL A   1      32.884  23.388  25.821  1.00  0.00     0.011 C 
BRANCH   9  14
ATOM     14  N   UNL A   1      33.469  20.626  24.845  1.00  0.00    -0.334 N 
ATOM     15  C   UNL A   1      32.970  19.429  25.522  1.00  0.00     0.331 C 
ATOM     16  H   UNL A   1      32.670  21.197  24.570  1.00  0.00     0.347 HD
ATOM     17  H   UNL A   1      34.015  20.307  24.045  1.00  0.00     0.347 HD
ENDBRANCH   9  14
BRANCH  11  18
ATOM     18  C   UNL A   1      34.563  23.358  23.877  1.00  0.00     0.022 C 
BRANCH  18  19
ATOM     19  C   UNL A   1      33.322  23.825  23.107  1.00  0.00     0.075 C 
BRANCH  19  20
ATOM     20  S   UNL A   1      33.284  25.622  22.674  1.00  0.00    -0.126 SA
BRANCH  20  21
ATOM     21  C   UNL A   1      32.709  26.462  24.148  1.00  0.00     0.009 A 
ATOM     22  C   UNL A   1      31.385  26.428  24.599  1.00  0.00     0.015 A 
ATOM     23  C   UNL A   1      33.653  27.171  24.901  1.00  0.00     0.035 A 
ATOM     24  C   UNL A   1      31.033  26.998  25.827  1.00  0.00     0.003 A 
ATOM     25  C   UNL A   1      33.292  27.765  26.112  1.00  0.00     0.042 A 
ATOM     26  C   UNL A   1      31.989  27.662  26.589  1.00  0.00     0.020 A 
ATOM     27  Cl  UNL A   1      34.470  28.622  27.031  1.00  0.00    -0.084 Cl
ENDBRANCH  20  21
ENDBRANCH  19  20
ENDBRANCH  18  19
ENDBRANCH  11  18
ENDBRANCH   7   9
ENDBRANCH   6   7
ENDBRANCH   5   6
ENDBRANCH   4   5
ENDBRANCH   3   4
ENDBRANCH   2   3
ENDBRANCH   1   2
BRANCH   1  28
ATOM     28  O   UNL A   1      42.819  22.143  25.023  1.00  0.00    -0.377 OA
BRANCH  28  29
ATOM     29  C   UNL A   1      44.204  21.838  25.017  1.00  0.00     0.188 C 
BRANCH  29  30
ATOM     30  C   UNL A   1      45.213  22.932  25.425  1.00  0.00     0.188 C 
BRANCH  30  31
ATOM     31  O   UNL A   1      44.969  24.207  24.848  1.00  0.00    -0.376 OA
BRANCH  31  32
ATOM     32  C   UNL A   1      45.869  25.279  25.077  1.00  0.00     0.202 C 
BRANCH  32  33
ATOM     33  C   UNL A   1      45.392  26.492  25.893  1.00  0.00     0.261 C 
BRANCH  33  34
ATOM     34  O   UNL A   1      44.793  26.222  27.168  1.00  0.00    -0.460 OA
BRANCH  34  35
ATOM     35  C   UNL A   1      43.588  26.764  27.437  1.00  0.00     0.338 C 
ATOM     36  O   UNL A   1      42.514  26.190  27.489  1.00  0.00    -0.246 OA
BRANCH  35  37
ATOM     37  C   UNL A   1      43.819  28.158  27.870  1.00  0.00     0.060 A 
ATOM     38  C   UNL A   1      44.712  28.402  28.924  1.00  0.00     0.016 A 
ATOM     39  C   UNL A   1      43.179  29.218  27.226  1.00  0.00     0.016 A 
ATOM     40  C   UNL A   1      44.940  29.707  29.357  1.00  0.00     0.010 A 
ATOM     41  C   UNL A   1      43.382  30.522  27.683  1.00  0.00     0.010 A 
ATOM     42  C   UNL A   1      44.235  30.766  28.774  1.00  0.00    -0.014 A 
BRANCH  42  43
ATOM     43  C   UNL A   1      44.207  32.081  29.457  1.00  0.00     0.031 A 
ATOM     44  C   UNL A   1      45.194  33.125  29.013  1.00  0.00     0.074 A 
ATOM     45  C   UNL A   1      43.315  32.357  30.423  1.00  0.00     0.049 A 
ATOM     46  N   UNL A   1      45.411  34.324  29.487  1.00  0.00    -0.248 NA
ATOM     47  C   UNL A   1      46.056  32.762  27.876  1.00  0.00     0.031 C 
ATOM     48  C   UNL A   1      42.275  31.448  30.896  1.00  0.00     0.029 A 
ATOM     49  N   UNL A   1      43.151  33.487  31.184  1.00  0.00    -0.354 N 
ATOM     50  C   UNL A   1      46.437  34.852  28.714  1.00  0.00     0.074 A 
ATOM     51  C   UNL A   1      46.823  33.834  27.763  1.00  0.00     0.031 C 
ATOM     52  C   UNL A   1      41.589  32.051  31.883  1.00  0.00     0.029 A 
ATOM     53  C   UNL A   1      42.167  33.371  32.134  1.00  0.00     0.049 A 
ATOM     54  H   UNL A   1      43.690  34.302  31.062  1.00  0.00     0.167 HD
ATOM     55  C   UNL A   1      47.000  36.081  28.787  1.00  0.00     0.037 A 
ATOM     56  C   UNL A   1      41.798  34.224  33.108  1.00  0.00     0.037 A 
ATOM     57  C   UNL A   1      46.613  37.087  29.740  1.00  0.00     0.049 A 
ATOM     58  C   UNL A   1      42.502  35.554  33.228  1.00  0.00     0.074 A 
ATOM     59  C   UNL A   1      47.114  38.367  29.891  1.00  0.00     0.029 A 
ATOM     60  N   UNL A   1      45.638  36.920  30.711  1.00  0.00    -0.354 N 
ATOM     61  N   UNL A   1      43.459  36.058  32.485  1.00  0.00    -0.248 NA
ATOM     62  C   UNL A   1      42.072  36.436  34.323  1.00  0.00     0.031 C 
ATOM     63  C   UNL A   1      46.487  38.951  30.996  1.00  0.00     0.029 A 
ATOM     64  C   UNL A   1      45.544  38.064  31.488  1.00  0.00     0.049 A 
ATOM     65  H   UNL A   1      45.093  36.109  30.831  1.00  0.00     0.167 HD
ATOM     66  C   UNL A   1      43.719  37.323  32.997  1.00  0.00     0.074 A 
ATOM     67  C   UNL A   1      42.809  37.516  34.108  1.00  0.00     0.031 C 
ATOM     68  C   UNL A   1      44.625  38.244  32.585  1.00  0.00     0.037 A 
BRANCH  55  69
ATOM     69  C   UNL A   1      48.119  36.387  27.835  1.00  0.00     0.064 A 
ATOM     70  C   UNL A   1      49.456  36.089  28.139  1.00  0.00     0.173 A 
ATOM     71  C   UNL A   1      47.846  36.968  26.587  1.00  0.00     0.173 A 
ATOM     72  F   UNL A   1      49.774  35.549  29.327  1.00  0.00    -0.203 F 
ATOM     73  C   UNL A   1      50.479  36.386  27.243  1.00  0.00     0.198 A 
ATOM     74  C   UNL A   1      48.866  37.232  25.679  1.00  0.00     0.198 A 
ATOM     75  F   UNL A   1      46.585  37.275  26.245  1.00  0.00    -0.203 F 
ATOM     76  F   UNL A   1      51.754  36.143  27.578  1.00  0.00    -0.200 F 
ATOM     77  C   UNL A   1      50.183  36.950  26.011  1.00  0.00     0.200 A 
ATOM     78  F   UNL A   1      48.577  37.765  24.484  1.00  0.00    -0.200 F 
ATOM     79  F   UNL A   1      51.167  37.228  25.145  1.00  0.00    -0.200 F 
ENDBRANCH  55  69
BRANCH  56  80
ATOM     80  C   UNL A   1      40.722  33.846  34.065  1.00  0.00     0.064 A 
ATOM     81  C   UNL A   1      39.382  34.176  33.818  1.00  0.00     0.173 A 
ATOM     82  C   UNL A   1      41.016  33.173  35.260  1.00  0.00     0.173 A 
ATOM     83  F   UNL A   1      39.052  34.846  32.703  1.00  0.00    -0.203 F 
ATOM     84  C   UNL A   1      38.383  33.870  34.739  1.00  0.00     0.198 A 
ATOM     85  C   UNL A   1      40.012  32.837  36.165  1.00  0.00     0.198 A 
ATOM     86  F   UNL A   1      42.283  32.839  35.550  1.00  0.00    -0.203 F 
ATOM     87  F   UNL A   1      37.120  34.250  34.505  1.00  0.00    -0.200 F 
ATOM     88  C   UNL A   1      38.697  33.195  35.909  1.00  0.00     0.200 A 
ATOM     89  F   UNL A   1      40.320  32.178  37.291  1.00  0.00    -0.200 F 
ATOM     90  F   UNL A   1      37.736  32.903  36.796  1.00  0.00    -0.200 F 
ENDBRANCH  56  80
BRANCH  68  91
ATOM     91  C   UNL A   1      44.650  39.565  33.302  1.00  0.00     0.064 A 
ATOM     92  C   UNL A   1      43.779  40.611  32.964  1.00  0.00     0.173 A 
ATOM     93  C   UNL A   1      45.531  39.768  34.378  1.00  0.00     0.173 A 
ATOM     94  F   UNL A   1      42.926  40.474  31.937  1.00  0.00    -0.203 F 
ATOM     95  C   UNL A   1      43.809  41.820  33.655  1.00  0.00     0.198 A 
ATOM     96  C   UNL A   1      45.532  40.964  35.089  1.00  0.00     0.198 A 
ATOM     97  F   UNL A   1      46.378  38.797  34.751  1.00  0.00    -0.203 F 
ATOM     98  F   UNL A   1      43.005  42.823  33.279  1.00  0.00    -0.200 F 
ATOM     99  C   UNL A   1      44.679  41.992  34.721  1.00  0.00     0.200 A 
ATOM    100  F   UNL A   1      46.359  41.120  36.133  1.00  0.00    -0.200 F 
ATOM    101  F   UNL A   1      44.698  43.153  35.391  1.00  0.00    -0.200 F 
ENDBRANCH  68  91
ENDBRANCH  42  43
ENDBRANCH  35  37
ENDBRANCH  34  35
ENDBRANCH  33  34
ENDBRANCH  32  33
ENDBRANCH  31  32
ENDBRANCH  30  31
ENDBRANCH  29  30
ENDBRANCH  28  29
ENDBRANCH   1  28
TORSDOF 25
ENDMDL
