MODEL 1
REMARK VINA RESULT:     -11.0      0.000      0.000
REMARK SMILES CCc1ncc(C[N@H+]2CCC[C@@H](c3cccc(C(=O)OCCOCCOCCOCCOC(=O)c4ccc(-c5c6nc(c(-c7c(F)c(F)c(F)c(F)c7F)c7ccc([nH]7)c(-c7c(F)c(F)c(F)c(F)c7F)c7nc(c(-c8c(F)c(F)c(F)c(F)c8F)c8ccc5[nH]8)C=C7)C=C6)cc4)c3)C2)cn1
REMARK SMILES IDX 25 1 24 2 23 3 22 4 21 5 20 6 18 7 19 8 17 9 13 10 14 11
REMARK SMILES IDX 98 12 15 13 16 14 12 15 8 16 9 17 99 18 10 20 11 21 7 22
REMARK SMILES IDX 6 23 3 24 4 25 101 26 5 27 100 28 2 29 1 30 26 31 27 32
REMARK SMILES IDX 28 33 29 34 30 35 31 36 32 37 33 38 34 39 35 40 36 41 97 42
REMARK SMILES IDX 37 43 96 44 38 45 39 46 40 47 90 48 41 49 95 50 89 51 91 52
REMARK SMILES IDX 42 53 94 54 88 55 87 56 43 58 75 59 55 60 74 61 56 62 59 63
REMARK SMILES IDX 73 64 92 65 57 66 58 67 72 69 93 70 60 71 44 72 45 73 53 74
REMARK SMILES IDX 46 75 47 76 51 77 54 78 48 79 49 80 52 81 50 82 76 83 77 84
REMARK SMILES IDX 85 85 78 86 79 87 83 88 86 89 80 90 81 91 84 92 82 93 61 94
REMARK SMILES IDX 62 95 70 96 63 97 64 98 68 99 71 100 65 101 66 102 69 103
REMARK SMILES IDX 67 104
REMARK H PARENT 8 19 91 57 59 68
REMARK Flexibility Score: inf
ROOT
ATOM      1  C   UNL A   1      32.967  35.836  29.330  1.00  0.00     0.188 C 
ENDROOT
BRANCH   1   2
ATOM      2  C   UNL A   1      34.204  36.089  28.442  1.00  0.00     0.188 C 
BRANCH   2   3
ATOM      3  O   UNL A   1      34.615  34.945  27.713  1.00  0.00    -0.376 OA
BRANCH   3   4
ATOM      4  C   UNL A   1      34.051  33.686  28.025  1.00  0.00     0.202 C 
BRANCH   4   5
ATOM      5  C   UNL A   1      34.890  32.412  27.843  1.00  0.00     0.261 C 
BRANCH   5   6
ATOM      6  O   UNL A   1      34.160  31.198  27.648  1.00  0.00    -0.460 OA
BRANCH   6   7
ATOM      7  C   UNL A   1      34.864  30.045  27.610  1.00  0.00     0.338 C 
ATOM      8  O   UNL A   1      35.981  29.856  28.061  1.00  0.00    -0.246 OA
BRANCH   7   9
ATOM      9  C   UNL A   1      33.936  28.981  27.152  1.00  0.00     0.060 A 
ATOM     10  C   UNL A   1      33.438  27.042  25.761  1.00  0.00    -0.038 A 
ATOM     11  C   UNL A   1      32.086  27.167  26.125  1.00  0.00     0.004 A 
ATOM     12  C   UNL A   1      34.358  27.972  26.275  1.00  0.00     0.020 A 
ATOM     13  C   UNL A   1      31.664  28.176  26.994  1.00  0.00     0.001 A 
ATOM     14  C   UNL A   1      32.590  29.073  27.523  1.00  0.00     0.016 A 
BRANCH  10  15
ATOM     15  C   UNL A   1      33.960  25.828  25.000  1.00  0.00     0.074 C 
ATOM     16  N   UNL A   1      33.967  23.308  25.286  1.00  0.00    -0.331 N 
ATOM     17  C   UNL A   1      33.393  23.143  23.946  1.00  0.00     0.262 C 
ATOM     18  C   UNL A   1      33.607  24.605  25.867  1.00  0.00     0.270 C 
ATOM     19  H   UNL A   1      34.980  23.289  25.162  1.00  0.00     0.348 HD
ATOM     20  C   UNL A   1      33.818  24.286  23.014  1.00  0.00     0.062 C 
ATOM     21  C   UNL A   1      33.412  25.650  23.576  1.00  0.00     0.020 C 
BRANCH  16  22
ATOM     22  C   UNL A   1      33.654  22.191  26.205  1.00  0.00     0.302 C 
BRANCH  22  23
ATOM     23  C   UNL A   1      33.953  20.805  25.704  1.00  0.00     0.043 A 
ATOM     24  C   UNL A   1      34.433  18.378  24.573  1.00  0.00     0.127 A 
ATOM     25  N   UNL A   1      35.454  19.255  24.639  1.00  0.00    -0.241 NA
ATOM     26  N   UNL A   1      33.210  18.594  25.088  1.00  0.00    -0.241 NA
ATOM     27  C   UNL A   1      35.186  20.449  25.204  1.00  0.00     0.124 A 
ATOM     28  C   UNL A   1      33.009  19.796  25.661  1.00  0.00     0.124 A 
BRANCH  24  29
ATOM     29  C   UNL A   1      34.652  17.096  23.819  1.00  0.00     0.074 C 
ATOM     30  C   UNL A   1      33.342  16.351  23.602  1.00  0.00     0.012 C 
ENDBRANCH  24  29
ENDBRANCH  22  23
ENDBRANCH  16  22
ENDBRANCH  10  15
ENDBRANCH   7   9
ENDBRANCH   6   7
ENDBRANCH   5   6
ENDBRANCH   4   5
ENDBRANCH   3   4
ENDBRANCH   2   3
ENDBRANCH   1   2
BRANCH   1  31
ATOM     31  O   UNL A   1      32.603  36.835  30.272  1.00  0.00    -0.377 OA
BRANCH  31  32
ATOM     32  C   UNL A   1      32.823  36.609  31.663  1.00  0.00     0.188 C 
BRANCH  32  33
ATOM     33  C   UNL A   1      33.851  37.428  32.485  1.00  0.00     0.188 C 
BRANCH  33  34
ATOM     34  O   UNL A   1      34.756  36.660  33.258  1.00  0.00    -0.376 OA
BRANCH  34  35
ATOM     35  C   UNL A   1      34.570  35.258  33.304  1.00  0.00     0.202 C 
BRANCH  35  36
ATOM     36  C   UNL A   1      35.840  34.397  33.374  1.00  0.00     0.261 C 
BRANCH  36  37
ATOM     37  O   UNL A   1      35.633  32.976  33.357  1.00  0.00    -0.460 OA
BRANCH  37  38
ATOM     38  C   UNL A   1      35.552  32.390  32.146  1.00  0.00     0.338 C 
ATOM     39  O   UNL A   1      34.555  32.271  31.448  1.00  0.00    -0.246 OA
BRANCH  38  40
ATOM     40  C   UNL A   1      36.919  32.069  31.695  1.00  0.00     0.060 A 
ATOM     41  C   UNL A   1      37.310  32.446  30.405  1.00  0.00     0.016 A 
ATOM     42  C   UNL A   1      37.805  31.387  32.534  1.00  0.00     0.016 A 
ATOM     43  C   UNL A   1      38.570  32.094  29.929  1.00  0.00     0.010 A 
ATOM     44  C   UNL A   1      39.064  31.019  32.050  1.00  0.00     0.010 A 
ATOM     45  C   UNL A   1      39.434  31.333  30.730  1.00  0.00    -0.014 A 
BRANCH  45  46
ATOM     46  C   UNL A   1      40.623  30.705  30.104  1.00  0.00     0.031 A 
ATOM     47  C   UNL A   1      41.917  31.474  30.094  1.00  0.00     0.074 A 
ATOM     48  C   UNL A   1      40.576  29.453  29.619  1.00  0.00     0.049 A 
ATOM     49  N   UNL A   1      43.094  31.119  29.642  1.00  0.00    -0.248 NA
ATOM     50  C   UNL A   1      41.879  32.825  30.676  1.00  0.00     0.031 C 
ATOM     51  C   UNL A   1      39.393  28.597  29.606  1.00  0.00     0.029 A 
ATOM     52  N   UNL A   1      41.558  28.682  29.049  1.00  0.00    -0.354 N 
ATOM     53  C   UNL A   1      43.931  32.202  29.885  1.00  0.00     0.074 A 
ATOM     54  C   UNL A   1      43.121  33.240  30.485  1.00  0.00     0.031 C 
ATOM     55  C   UNL A   1      39.717  27.414  29.055  1.00  0.00     0.029 A 
ATOM     56  C   UNL A   1      41.122  27.443  28.651  1.00  0.00     0.049 A 
ATOM     57  H   UNL A   1      42.487  28.989  28.936  1.00  0.00     0.167 HD
ATOM     58  C   UNL A   1      45.259  32.314  29.644  1.00  0.00     0.037 A 
ATOM     59  C   UNL A   1      41.783  26.451  28.021  1.00  0.00     0.037 A 
ATOM     60  C   UNL A   1      46.061  31.280  29.044  1.00  0.00     0.049 A 
ATOM     61  C   UNL A   1      43.247  26.629  27.700  1.00  0.00     0.074 A 
ATOM     62  C   UNL A   1      47.417  31.290  28.770  1.00  0.00     0.029 A 
ATOM     63  N   UNL A   1      45.575  30.053  28.614  1.00  0.00    -0.354 N 
ATOM     64  N   UNL A   1      44.039  27.641  27.961  1.00  0.00    -0.248 NA
ATOM     65  C   UNL A   1      43.909  25.517  27.003  1.00  0.00     0.031 C 
ATOM     66  C   UNL A   1      47.740  30.096  28.115  1.00  0.00     0.029 A 
ATOM     67  C   UNL A   1      46.600  29.310  28.048  1.00  0.00     0.049 A 
ATOM     68  H   UNL A   1      44.641  29.754  28.698  1.00  0.00     0.167 HD
ATOM     69  C   UNL A   1      45.296  27.275  27.493  1.00  0.00     0.074 A 
ATOM     70  C   UNL A   1      45.164  25.940  26.951  1.00  0.00     0.031 C 
ATOM     71  C   UNL A   1      46.455  27.980  27.511  1.00  0.00     0.037 A 
BRANCH  58  72
ATOM     72  C   UNL A   1      45.922  33.615  29.999  1.00  0.00     0.064 A 
ATOM     73  C   UNL A   1      46.453  33.853  31.277  1.00  0.00     0.173 A 
ATOM     74  C   UNL A   1      46.054  34.628  29.038  1.00  0.00     0.173 A 
ATOM     75  F   UNL A   1      46.341  32.924  32.238  1.00  0.00    -0.203 F 
ATOM     76  C   UNL A   1      47.065  35.065  31.584  1.00  0.00     0.198 A 
ATOM     77  C   UNL A   1      46.697  35.826  29.338  1.00  0.00     0.198 A 
ATOM     78  F   UNL A   1      45.567  34.453  27.800  1.00  0.00    -0.203 F 
ATOM     79  F   UNL A   1      47.518  35.289  32.826  1.00  0.00    -0.200 F 
ATOM     80  C   UNL A   1      47.194  36.046  30.613  1.00  0.00     0.200 A 
ATOM     81  F   UNL A   1      46.833  36.766  28.394  1.00  0.00    -0.200 F 
ATOM     82  F   UNL A   1      47.792  37.209  30.908  1.00  0.00    -0.200 F 
ENDBRANCH  58  72
BRANCH  59  83
ATOM     83  C   UNL A   1      41.071  25.201  27.645  1.00  0.00     0.064 A 
ATOM     84  C   UNL A   1      40.016  25.212  26.722  1.00  0.00     0.173 A 
ATOM     85  C   UNL A   1      41.412  23.970  28.228  1.00  0.00     0.173 A 
ATOM     86  F   UNL A   1      39.634  26.366  26.156  1.00  0.00    -0.203 F 
ATOM     87  C   UNL A   1      39.315  24.047  26.414  1.00  0.00     0.198 A 
ATOM     88  C   UNL A   1      40.732  22.800  27.893  1.00  0.00     0.198 A 
ATOM     89  F   UNL A   1      42.410  23.902  29.120  1.00  0.00    -0.203 F 
ATOM     90  F   UNL A   1      38.274  24.097  25.571  1.00  0.00    -0.200 F 
ATOM     91  C   UNL A   1      39.678  22.842  26.995  1.00  0.00     0.200 A 
ATOM     92  F   UNL A   1      41.096  21.635  28.448  1.00  0.00    -0.200 F 
ATOM     93  F   UNL A   1      39.004  21.722  26.697  1.00  0.00    -0.200 F 
ENDBRANCH  59  83
BRANCH  71  94
ATOM     94  C   UNL A   1      47.683  27.303  26.966  1.00  0.00     0.064 A 
ATOM     95  C   UNL A   1      47.952  27.246  25.591  1.00  0.00     0.173 A 
ATOM     96  C   UNL A   1      48.613  26.713  27.837  1.00  0.00     0.173 A 
ATOM     97  F   UNL A   1      47.091  27.784  24.712  1.00  0.00    -0.203 F 
ATOM     98  C   UNL A   1      49.079  26.588  25.105  1.00  0.00     0.198 A 
ATOM     99  C   UNL A   1      49.760  26.091  27.352  1.00  0.00     0.198 A 
ATOM    100  F   UNL A   1      48.415  26.748  29.164  1.00  0.00    -0.203 F 
ATOM    101  F   UNL A   1      49.277  26.487  23.784  1.00  0.00    -0.200 F 
ATOM    102  C   UNL A   1      49.984  26.016  25.986  1.00  0.00     0.200 A 
ATOM    103  F   UNL A   1      50.644  25.556  28.206  1.00  0.00    -0.200 F 
ATOM    104  F   UNL A   1      51.069  25.383  25.517  1.00  0.00    -0.200 F 
ENDBRANCH  71  94
ENDBRANCH  45  46
ENDBRANCH  38  40
ENDBRANCH  37  38
ENDBRANCH  36  37
ENDBRANCH  35  36
ENDBRANCH  34  35
ENDBRANCH  33  34
ENDBRANCH  32  33
ENDBRANCH  31  32
ENDBRANCH   1  31
TORSDOF 24
ENDMDL
MODEL 2
REMARK VINA RESULT:     -10.6      1.047      7.057
REMARK SMILES CCc1ncc(C[N@H+]2CCC[C@@H](c3cccc(C(=O)OCCOCCOCCOCCOC(=O)c4ccc(-c5c6nc(c(-c7c(F)c(F)c(F)c(F)c7F)c7ccc([nH]7)c(-c7c(F)c(F)c(F)c(F)c7F)c7nc(c(-c8c(F)c(F)c(F)c(F)c8F)c8ccc5[nH]8)C=C7)C=C6)cc4)c3)C2)cn1
REMARK SMILES IDX 25 1 24 2 23 3 22 4 21 5 20 6 18 7 19 8 17 9 13 10 14 11
REMARK SMILES IDX 98 12 15 13 16 14 12 15 8 16 9 17 99 18 10 20 11 21 7 22
REMARK SMILES IDX 6 23 3 24 4 25 101 26 5 27 100 28 2 29 1 30 26 31 27 32
REMARK SMILES IDX 28 33 29 34 30 35 31 36 32 37 33 38 34 39 35 40 36 41 97 42
REMARK SMILES IDX 37 43 96 44 38 45 39 46 40 47 90 48 41 49 95 50 89 51 91 52
REMARK SMILES IDX 42 53 94 54 88 55 87 56 43 58 75 59 55 60 74 61 56 62 59 63
REMARK SMILES IDX 73 64 92 65 57 66 58 67 72 69 93 70 60 71 44 72 45 73 53 74
REMARK SMILES IDX 46 75 47 76 51 77 54 78 48 79 49 80 52 81 50 82 76 83 77 84
REMARK SMILES IDX 85 85 78 86 79 87 83 88 86 89 80 90 81 91 84 92 82 93 61 94
REMARK SMILES IDX 62 95 70 96 63 97 64 98 68 99 71 100 65 101 66 102 69 103
REMARK SMILES IDX 67 104
REMARK H PARENT 8 19 91 57 59 68
REMARK Flexibility Score: inf
ROOT
ATOM      1  C   UNL A   1      32.951  35.746  29.148  1.00  0.00     0.188 C 
ENDROOT
BRANCH   1   2
ATOM      2  C   UNL A   1      34.293  35.899  28.401  1.00  0.00     0.188 C 
BRANCH   2   3
ATOM      3  O   UNL A   1      34.764  34.685  27.839  1.00  0.00    -0.376 OA
BRANCH   3   4
ATOM      4  C   UNL A   1      33.967  33.522  27.937  1.00  0.00     0.202 C 
BRANCH   4   5
ATOM      5  C   UNL A   1      34.622  32.138  27.807  1.00  0.00     0.261 C 
BRANCH   5   6
ATOM      6  O   UNL A   1      33.744  31.049  27.511  1.00  0.00    -0.460 OA
BRANCH   6   7
ATOM      7  C   UNL A   1      34.302  29.839  27.287  1.00  0.00     0.338 C 
ATOM      8  O   UNL A   1      35.220  29.332  27.909  1.00  0.00    -0.246 OA
BRANCH   7   9
ATOM      9  C   UNL A   1      33.432  29.129  26.316  1.00  0.00     0.060 A 
ATOM     10  C   UNL A   1      33.097  27.421  24.609  1.00  0.00    -0.038 A 
ATOM     11  C   UNL A   1      31.849  27.999  24.321  1.00  0.00     0.004 A 
ATOM     12  C   UNL A   1      33.892  28.009  25.608  1.00  0.00     0.020 A 
ATOM     13  C   UNL A   1      31.394  29.118  25.022  1.00  0.00     0.001 A 
ATOM     14  C   UNL A   1      32.176  29.674  26.031  1.00  0.00     0.016 A 
BRANCH  10  15
ATOM     15  C   UNL A   1      33.520  26.079  24.021  1.00  0.00     0.074 C 
ATOM     16  N   UNL A   1      32.707  23.678  24.080  1.00  0.00    -0.331 N 
ATOM     17  C   UNL A   1      32.702  23.631  22.614  1.00  0.00     0.262 C 
ATOM     18  C   UNL A   1      32.521  25.045  24.574  1.00  0.00     0.270 C 
ATOM     19  H   UNL A   1      33.634  23.362  24.367  1.00  0.00     0.348 HD
ATOM     20  C   UNL A   1      33.767  24.565  22.024  1.00  0.00     0.062 C 
ATOM     21  C   UNL A   1      33.568  26.010  22.488  1.00  0.00     0.020 C 
BRANCH  16  22
ATOM     22  C   UNL A   1      31.752  22.736  24.704  1.00  0.00     0.302 C 
BRANCH  22  23
ATOM     23  C   UNL A   1      32.121  21.278  24.664  1.00  0.00     0.043 A 
ATOM     24  C   UNL A   1      33.021  18.714  24.549  1.00  0.00     0.127 A 
ATOM     25  N   UNL A   1      33.026  19.330  25.747  1.00  0.00    -0.241 NA
ATOM     26  N   UNL A   1      32.539  19.255  23.417  1.00  0.00    -0.241 NA
ATOM     27  C   UNL A   1      32.575  20.599  25.773  1.00  0.00     0.124 A 
ATOM     28  C   UNL A   1      32.081  20.519  23.510  1.00  0.00     0.124 A 
BRANCH  24  29
ATOM     29  C   UNL A   1      33.653  17.353  24.453  1.00  0.00     0.074 C 
ATOM     30  C   UNL A   1      35.159  17.455  24.255  1.00  0.00     0.012 C 
ENDBRANCH  24  29
ENDBRANCH  22  23
ENDBRANCH  16  22
ENDBRANCH  10  15
ENDBRANCH   7   9
ENDBRANCH   6   7
ENDBRANCH   5   6
ENDBRANCH   4   5
ENDBRANCH   3   4
ENDBRANCH   2   3
ENDBRANCH   1   2
BRANCH   1  31
ATOM     31  O   UNL A   1      32.666  36.650  30.206  1.00  0.00    -0.377 OA
BRANCH  31  32
ATOM     32  C   UNL A   1      32.945  36.272  31.553  1.00  0.00     0.188 C 
BRANCH  32  33
ATOM     33  C   UNL A   1      33.794  37.152  32.503  1.00  0.00     0.188 C 
BRANCH  33  34
ATOM     34  O   UNL A   1      34.779  36.460  33.250  1.00  0.00    -0.376 OA
BRANCH  34  35
ATOM     35  C   UNL A   1      34.782  35.045  33.199  1.00  0.00     0.202 C 
BRANCH  35  36
ATOM     36  C   UNL A   1      36.156  34.361  33.138  1.00  0.00     0.261 C 
BRANCH  36  37
ATOM     37  O   UNL A   1      36.144  32.929  33.237  1.00  0.00    -0.460 OA
BRANCH  37  38
ATOM     38  C   UNL A   1      35.652  32.251  32.181  1.00  0.00     0.338 C 
ATOM     39  O   UNL A   1      34.525  32.328  31.714  1.00  0.00    -0.246 OA
BRANCH  38  40
ATOM     40  C   UNL A   1      36.763  31.519  31.543  1.00  0.00     0.060 A 
ATOM     41  C   UNL A   1      37.745  30.944  32.357  1.00  0.00     0.016 A 
ATOM     42  C   UNL A   1      36.842  31.414  30.153  1.00  0.00     0.016 A 
ATOM     43  C   UNL A   1      38.842  30.308  31.780  1.00  0.00     0.010 A 
ATOM     44  C   UNL A   1      37.952  30.791  29.573  1.00  0.00     0.010 A 
ATOM     45  C   UNL A   1      38.978  30.275  30.385  1.00  0.00    -0.014 A 
BRANCH  45  46
ATOM     46  C   UNL A   1      40.284  29.883  29.802  1.00  0.00     0.031 A 
ATOM     47  C   UNL A   1      40.417  28.508  29.203  1.00  0.00     0.074 A 
ATOM     48  C   UNL A   1      41.307  30.751  29.739  1.00  0.00     0.049 A 
ATOM     49  N   UNL A   1      41.442  27.956  28.604  1.00  0.00    -0.248 NA
ATOM     50  C   UNL A   1      39.233  27.639  29.291  1.00  0.00     0.031 C 
ATOM     51  C   UNL A   1      41.287  32.119  30.251  1.00  0.00     0.029 A 
ATOM     52  N   UNL A   1      42.566  30.606  29.210  1.00  0.00    -0.354 N 
ATOM     53  C   UNL A   1      41.025  26.680  28.245  1.00  0.00     0.074 A 
ATOM     54  C   UNL A   1      39.671  26.523  28.730  1.00  0.00     0.031 C 
ATOM     55  C   UNL A   1      42.479  32.692  30.008  1.00  0.00     0.029 A 
ATOM     56  C   UNL A   1      43.353  31.721  29.352  1.00  0.00     0.049 A 
ATOM     57  H   UNL A   1      42.873  29.781  28.770  1.00  0.00     0.167 HD
ATOM     58  C   UNL A   1      41.705  25.730  27.560  1.00  0.00     0.037 A 
ATOM     59  C   UNL A   1      44.638  31.926  29.002  1.00  0.00     0.037 A 
ATOM     60  C   UNL A   1      43.053  25.888  27.082  1.00  0.00     0.049 A 
ATOM     61  C   UNL A   1      45.396  30.825  28.302  1.00  0.00     0.074 A 
ATOM     62  C   UNL A   1      43.825  24.990  26.366  1.00  0.00     0.029 A 
ATOM     63  N   UNL A   1      43.835  27.016  27.284  1.00  0.00    -0.354 N 
ATOM     64  N   UNL A   1      44.986  29.634  27.937  1.00  0.00    -0.248 NA
ATOM     65  C   UNL A   1      46.798  31.105  27.956  1.00  0.00     0.031 C 
ATOM     66  C   UNL A   1      45.096  25.550  26.190  1.00  0.00     0.029 A 
ATOM     67  C   UNL A   1      45.092  26.826  26.731  1.00  0.00     0.049 A 
ATOM     68  H   UNL A   1      43.541  27.832  27.749  1.00  0.00     0.167 HD
ATOM     69  C   UNL A   1      46.063  29.038  27.291  1.00  0.00     0.074 A 
ATOM     70  C   UNL A   1      47.138  30.008  27.297  1.00  0.00     0.031 C 
ATOM     71  C   UNL A   1      46.154  27.800  26.743  1.00  0.00     0.037 A 
BRANCH  58  72
ATOM     72  C   UNL A   1      41.010  24.420  27.316  1.00  0.00     0.064 A 
ATOM     73  C   UNL A   1      41.429  23.231  27.933  1.00  0.00     0.173 A 
ATOM     74  C   UNL A   1      39.890  24.359  26.473  1.00  0.00     0.173 A 
ATOM     75  F   UNL A   1      42.504  23.229  28.736  1.00  0.00    -0.203 F 
ATOM     76  C   UNL A   1      40.769  22.028  27.694  1.00  0.00     0.198 A 
ATOM     77  C   UNL A   1      39.211  23.161  26.264  1.00  0.00     0.198 A 
ATOM     78  F   UNL A   1      39.444  25.465  25.859  1.00  0.00    -0.203 F 
ATOM     79  F   UNL A   1      41.220  20.896  28.254  1.00  0.00    -0.200 F 
ATOM     80  C   UNL A   1      39.657  21.995  26.868  1.00  0.00     0.200 A 
ATOM     81  F   UNL A   1      38.128  23.135  25.476  1.00  0.00    -0.200 F 
ATOM     82  F   UNL A   1      39.018  20.838  26.646  1.00  0.00    -0.200 F 
ENDBRANCH  58  72
BRANCH  59  83
ATOM     83  C   UNL A   1      45.298  33.223  29.310  1.00  0.00     0.064 A 
ATOM     84  C   UNL A   1      45.999  33.418  30.509  1.00  0.00     0.173 A 
ATOM     85  C   UNL A   1      45.214  34.307  28.423  1.00  0.00     0.173 A 
ATOM     86  F   UNL A   1      46.087  32.422  31.403  1.00  0.00    -0.203 F 
ATOM     87  C   UNL A   1      46.568  34.652  30.819  1.00  0.00     0.198 A 
ATOM     88  C   UNL A   1      45.813  35.530  28.719  1.00  0.00     0.198 A 
ATOM     89  F   UNL A   1      44.553  34.178  27.264  1.00  0.00    -0.203 F 
ATOM     90  F   UNL A   1      47.182  34.827  31.997  1.00  0.00    -0.200 F 
ATOM     91  C   UNL A   1      46.480  35.705  29.921  1.00  0.00     0.200 A 
ATOM     92  F   UNL A   1      45.736  36.541  27.841  1.00  0.00    -0.200 F 
ATOM     93  F   UNL A   1      47.029  36.891  30.219  1.00  0.00    -0.200 F 
ENDBRANCH  59  83
BRANCH  71  94
ATOM     94  C   UNL A   1      47.448  27.441  26.064  1.00  0.00     0.064 A 
ATOM     95  C   UNL A   1      48.504  26.828  26.754  1.00  0.00     0.173 A 
ATOM     96  C   UNL A   1      47.627  27.701  24.696  1.00  0.00     0.173 A 
ATOM     97  F   UNL A   1      48.392  26.565  28.066  1.00  0.00    -0.203 F 
ATOM     98  C   UNL A   1      49.705  26.531  26.113  1.00  0.00     0.198 A 
ATOM     99  C   UNL A   1      48.812  27.367  24.048  1.00  0.00     0.198 A 
ATOM    100  F   UNL A   1      46.646  28.274  23.982  1.00  0.00    -0.203 F 
ATOM    101  F   UNL A   1      50.724  26.010  26.811  1.00  0.00    -0.200 F 
ATOM    102  C   UNL A   1      49.856  26.796  24.760  1.00  0.00     0.200 A 
ATOM    103  F   UNL A   1      48.949  27.605  22.737  1.00  0.00    -0.200 F 
ATOM    104  F   UNL A   1      51.012  26.509  24.145  1.00  0.00    -0.200 F 
ENDBRANCH  71  94
ENDBRANCH  45  46
ENDBRANCH  38  40
ENDBRANCH  37  38
ENDBRANCH  36  37
ENDBRANCH  35  36
ENDBRANCH  34  35
ENDBRANCH  33  34
ENDBRANCH  32  33
ENDBRANCH  31  32
ENDBRANCH   1  31
TORSDOF 24
ENDMDL
MODEL 3
REMARK VINA RESULT:     -10.4      4.640      9.728
REMARK SMILES CCc1ncc(C[N@H+]2CCC[C@@H](c3cccc(C(=O)OCCOCCOCCOCCOC(=O)c4ccc(-c5c6nc(c(-c7c(F)c(F)c(F)c(F)c7F)c7ccc([nH]7)c(-c7c(F)c(F)c(F)c(F)c7F)c7nc(c(-c8c(F)c(F)c(F)c(F)c8F)c8ccc5[nH]8)C=C7)C=C6)cc4)c3)C2)cn1
REMARK SMILES IDX 25 1 24 2 23 3 22 4 21 5 20 6 18 7 19 8 17 9 13 10 14 11
REMARK SMILES IDX 98 12 15 13 16 14 12 15 8 16 9 17 99 18 10 20 11 21 7 22
REMARK SMILES IDX 6 23 3 24 4 25 101 26 5 27 100 28 2 29 1 30 26 31 27 32
REMARK SMILES IDX 28 33 29 34 30 35 31 36 32 37 33 38 34 39 35 40 36 41 97 42
REMARK SMILES IDX 37 43 96 44 38 45 39 46 40 47 90 48 41 49 95 50 89 51 91 52
REMARK SMILES IDX 42 53 94 54 88 55 87 56 43 58 75 59 55 60 74 61 56 62 59 63
REMARK SMILES IDX 73 64 92 65 57 66 58 67 72 69 93 70 60 71 44 72 45 73 53 74
REMARK SMILES IDX 46 75 47 76 51 77 54 78 48 79 49 80 52 81 50 82 76 83 77 84
REMARK SMILES IDX 85 85 78 86 79 87 83 88 86 89 80 90 81 91 84 92 82 93 61 94
REMARK SMILES IDX 62 95 70 96 63 97 64 98 68 99 71 100 65 101 66 102 69 103
REMARK SMILES IDX 67 104
REMARK H PARENT 8 19 91 57 59 68
REMARK Flexibility Score: inf
ROOT
ATOM      1  C   UNL A   1      33.229  27.536  23.238  1.00  0.00     0.188 C 
ENDROOT
BRANCH   1   2
ATOM      2  C   UNL A   1      33.171  26.237  22.407  1.00  0.00     0.188 C 
BRANCH   2   3
ATOM      3  O   UNL A   1      32.095  25.388  22.767  1.00  0.00    -0.376 OA
BRANCH   3   4
ATOM      4  C   UNL A   1      32.034  24.082  22.229  1.00  0.00     0.202 C 
BRANCH   4   5
ATOM      5  C   UNL A   1      31.331  22.966  23.019  1.00  0.00     0.261 C 
BRANCH   5   6
ATOM      6  O   UNL A   1      31.291  23.128  24.439  1.00  0.00    -0.460 OA
BRANCH   6   7
ATOM      7  C   UNL A   1      32.062  22.305  25.184  1.00  0.00     0.338 C 
ATOM      8  O   UNL A   1      31.775  21.182  25.564  1.00  0.00    -0.246 OA
BRANCH   7   9
ATOM      9  C   UNL A   1      33.418  22.905  25.240  1.00  0.00     0.060 A 
ATOM     10  C   UNL A   1      35.845  22.684  25.284  1.00  0.00    -0.038 A 
ATOM     11  C   UNL A   1      35.932  24.048  25.614  1.00  0.00     0.004 A 
ATOM     12  C   UNL A   1      34.571  22.117  25.112  1.00  0.00     0.020 A 
ATOM     13  C   UNL A   1      34.783  24.831  25.747  1.00  0.00     0.001 A 
ATOM     14  C   UNL A   1      33.527  24.267  25.543  1.00  0.00     0.016 A 
BRANCH  10  15
ATOM     15  C   UNL A   1      37.076  21.864  24.915  1.00  0.00     0.074 C 
ATOM     16  N   UNL A   1      39.462  21.607  25.737  1.00  0.00    -0.331 N 
ATOM     17  C   UNL A   1      39.278  20.156  25.853  1.00  0.00     0.262 C 
ATOM     18  C   UNL A   1      38.189  22.321  25.876  1.00  0.00     0.270 C 
ATOM     19  H   UNL A   1      39.813  21.771  24.793  1.00  0.00     0.348 HD
ATOM     20  C   UNL A   1      38.258  19.642  24.829  1.00  0.00     0.062 C 
ATOM     21  C   UNL A   1      36.905  20.339  24.983  1.00  0.00     0.020 C 
BRANCH  16  22
ATOM     22  C   UNL A   1      40.494  22.147  26.649  1.00  0.00     0.302 C 
BRANCH  22  23
ATOM     23  C   UNL A   1      41.912  22.125  26.148  1.00  0.00     0.043 A 
ATOM     24  C   UNL A   1      44.384  22.042  25.015  1.00  0.00     0.127 A 
ATOM     25  N   UNL A   1      43.757  23.234  25.072  1.00  0.00    -0.241 NA
ATOM     26  N   UNL A   1      43.902  20.903  25.541  1.00  0.00    -0.241 NA
ATOM     27  C   UNL A   1      42.534  23.243  25.638  1.00  0.00     0.124 A 
ATOM     28  C   UNL A   1      42.685  20.980  26.113  1.00  0.00     0.124 A 
BRANCH  24  29
ATOM     29  C   UNL A   1      45.682  21.964  24.261  1.00  0.00     0.074 C 
ATOM     30  C   UNL A   1      46.400  23.308  24.255  1.00  0.00     0.012 C 
ENDBRANCH  24  29
ENDBRANCH  22  23
ENDBRANCH  16  22
ENDBRANCH  10  15
ENDBRANCH   7   9
ENDBRANCH   6   7
ENDBRANCH   5   6
ENDBRANCH   4   5
ENDBRANCH   3   4
ENDBRANCH   2   3
ENDBRANCH   1   2
BRANCH   1  31
ATOM     31  O   UNL A   1      32.005  28.179  23.564  1.00  0.00    -0.377 OA
BRANCH  31  32
ATOM     32  C   UNL A   1      31.774  28.624  24.900  1.00  0.00     0.188 C 
BRANCH  32  33
ATOM     33  C   UNL A   1      32.816  29.457  25.689  1.00  0.00     0.188 C 
BRANCH  33  34
ATOM     34  O   UNL A   1      32.278  30.312  26.682  1.00  0.00    -0.376 OA
BRANCH  34  35
ATOM     35  C   UNL A   1      33.137  31.269  27.275  1.00  0.00     0.202 C 
BRANCH  35  36
ATOM     36  C   UNL A   1      32.509  32.618  27.651  1.00  0.00     0.261 C 
BRANCH  36  37
ATOM     37  O   UNL A   1      33.367  33.763  27.521  1.00  0.00    -0.460 OA
BRANCH  37  38
ATOM     38  C   UNL A   1      33.396  34.619  28.562  1.00  0.00     0.338 C 
ATOM     39  O   UNL A   1      32.561  35.466  28.846  1.00  0.00    -0.246 OA
BRANCH  38  40
ATOM     40  C   UNL A   1      34.527  34.248  29.433  1.00  0.00     0.060 A 
ATOM     41  C   UNL A   1      35.829  34.358  28.931  1.00  0.00     0.016 A 
ATOM     42  C   UNL A   1      34.304  33.781  30.731  1.00  0.00     0.016 A 
ATOM     43  C   UNL A   1      36.911  33.949  29.706  1.00  0.00     0.010 A 
ATOM     44  C   UNL A   1      35.389  33.354  31.503  1.00  0.00     0.010 A 
ATOM     45  C   UNL A   1      36.693  33.395  30.975  1.00  0.00    -0.014 A 
BRANCH  45  46
ATOM     46  C   UNL A   1      37.807  32.683  31.647  1.00  0.00     0.031 A 
ATOM     47  C   UNL A   1      38.405  31.482  30.965  1.00  0.00     0.074 A 
ATOM     48  C   UNL A   1      38.326  33.135  32.801  1.00  0.00     0.049 A 
ATOM     49  N   UNL A   1      39.406  30.725  31.337  1.00  0.00    -0.248 NA
ATOM     50  C   UNL A   1      37.789  31.081  29.690  1.00  0.00     0.031 C 
ATOM     51  C   UNL A   1      37.858  34.307  33.537  1.00  0.00     0.029 A 
ATOM     52  N   UNL A   1      39.371  32.658  33.554  1.00  0.00    -0.354 N 
ATOM     53  C   UNL A   1      39.539  29.762  30.343  1.00  0.00     0.074 A 
ATOM     54  C   UNL A   1      38.492  30.004  29.375  1.00  0.00     0.031 C 
ATOM     55  C   UNL A   1      38.615  34.461  34.637  1.00  0.00     0.029 A 
ATOM     56  C   UNL A   1      39.600  33.382  34.697  1.00  0.00     0.049 A 
ATOM     57  H   UNL A   1      39.905  31.872  33.297  1.00  0.00     0.167 HD
ATOM     58  C   UNL A   1      40.461  28.776  30.240  1.00  0.00     0.037 A 
ATOM     59  C   UNL A   1      40.495  33.184  35.684  1.00  0.00     0.037 A 
ATOM     60  C   UNL A   1      41.499  28.536  31.207  1.00  0.00     0.049 A 
ATOM     61  C   UNL A   1      41.467  32.034  35.579  1.00  0.00     0.074 A 
ATOM     62  C   UNL A   1      42.491  27.571  31.187  1.00  0.00     0.029 A 
ATOM     63  N   UNL A   1      41.673  29.264  32.376  1.00  0.00    -0.354 N 
ATOM     64  N   UNL A   1      41.608  31.149  34.622  1.00  0.00    -0.248 NA
ATOM     65  C   UNL A   1      42.412  31.865  36.693  1.00  0.00     0.031 C 
ATOM     66  C   UNL A   1      43.224  27.673  32.375  1.00  0.00     0.029 A 
ATOM     67  C   UNL A   1      42.737  28.749  33.100  1.00  0.00     0.049 A 
ATOM     68  H   UNL A   1      41.122  30.032  32.650  1.00  0.00     0.167 HD
ATOM     69  C   UNL A   1      42.675  30.342  35.000  1.00  0.00     0.074 A 
ATOM     70  C   UNL A   1      43.156  30.856  36.264  1.00  0.00     0.031 C 
ATOM     71  C   UNL A   1      43.207  29.271  34.359  1.00  0.00     0.037 A 
BRANCH  58  72
ATOM     72  C   UNL A   1      40.366  27.859  29.053  1.00  0.00     0.064 A 
ATOM     73  C   UNL A   1      39.567  26.704  29.069  1.00  0.00     0.173 A 
ATOM     74  C   UNL A   1      41.061  28.155  27.872  1.00  0.00     0.173 A 
ATOM     75  F   UNL A   1      38.893  26.365  30.178  1.00  0.00    -0.203 F 
ATOM     76  C   UNL A   1      39.491  25.869  27.957  1.00  0.00     0.198 A 
ATOM     77  C   UNL A   1      40.956  27.337  26.750  1.00  0.00     0.198 A 
ATOM     78  F   UNL A   1      41.838  29.247  27.800  1.00  0.00    -0.203 F 
ATOM     79  F   UNL A   1      38.763  24.745  28.014  1.00  0.00    -0.200 F 
ATOM     80  C   UNL A   1      40.179  26.191  26.796  1.00  0.00     0.200 A 
ATOM     81  F   UNL A   1      41.610  27.658  25.625  1.00  0.00    -0.200 F 
ATOM     82  F   UNL A   1      40.098  25.391  25.724  1.00  0.00    -0.200 F 
ENDBRANCH  58  72
BRANCH  59  83
ATOM     83  C   UNL A   1      40.518  34.090  36.864  1.00  0.00     0.064 A 
ATOM     84  C   UNL A   1      39.742  33.826  38.001  1.00  0.00     0.173 A 
ATOM     85  C   UNL A   1      41.295  35.258  36.865  1.00  0.00     0.173 A 
ATOM     86  F   UNL A   1      38.961  32.735  38.041  1.00  0.00    -0.203 F 
ATOM     87  C   UNL A   1      39.723  34.705  39.082  1.00  0.00     0.198 A 
ATOM     88  C   UNL A   1      41.302  36.120  37.961  1.00  0.00     0.198 A 
ATOM     89  F   UNL A   1      42.054  35.562  35.802  1.00  0.00    -0.203 F 
ATOM     90  F   UNL A   1      38.927  34.457  40.132  1.00  0.00    -0.200 F 
ATOM     91  C   UNL A   1      40.508  35.848  39.063  1.00  0.00     0.200 A 
ATOM     92  F   UNL A   1      42.073  37.216  37.943  1.00  0.00    -0.200 F 
ATOM     93  F   UNL A   1      40.490  36.693  40.104  1.00  0.00    -0.200 F 
ENDBRANCH  59  83
BRANCH  71  94
ATOM     94  C   UNL A   1      44.402  28.612  34.993  1.00  0.00     0.064 A 
ATOM     95  C   UNL A   1      45.714  29.016  34.706  1.00  0.00     0.173 A 
ATOM     96  C   UNL A   1      44.228  27.567  35.915  1.00  0.00     0.173 A 
ATOM     97  F   UNL A   1      45.938  30.003  33.825  1.00  0.00    -0.203 F 
ATOM     98  C   UNL A   1      46.807  28.372  35.282  1.00  0.00     0.198 A 
ATOM     99  C   UNL A   1      45.320  26.951  36.520  1.00  0.00     0.198 A 
ATOM    100  F   UNL A   1      42.996  27.146  36.238  1.00  0.00    -0.203 F 
ATOM    101  F   UNL A   1      48.051  28.731  34.938  1.00  0.00    -0.200 F 
ATOM    102  C   UNL A   1      46.609  27.345  36.192  1.00  0.00     0.200 A 
ATOM    103  F   UNL A   1      45.127  25.972  37.414  1.00  0.00    -0.200 F 
ATOM    104  F   UNL A   1      47.661  26.726  36.745  1.00  0.00    -0.200 F 
ENDBRANCH  71  94
ENDBRANCH  45  46
ENDBRANCH  38  40
ENDBRANCH  37  38
ENDBRANCH  36  37
ENDBRANCH  35  36
ENDBRANCH  34  35
ENDBRANCH  33  34
ENDBRANCH  32  33
ENDBRANCH  31  32
ENDBRANCH   1  31
TORSDOF 24
ENDMDL
