MODEL 1
REMARK VINA RESULT:      -9.0      0.000      0.000
REMARK SMILES C[C@@H](OCC(F)(F)F)C(=O)OCCOCCOCCOCCOC(=O)c1ccc(-c2c3nc(c(-c4c(F)c(F)c(F)c(F)c4F)c4ccc([nH]4)c(-c4c(F)c(F)c(F)c(F)c4F)c4nc(c(-c5c(F)c(F)c(F)c(F)c5F)c5ccc2[nH]5)C=C4)C=C3)cc1
REMARK SMILES IDX 16 1 15 2 14 3 13 4 12 5 11 6 9 7 10 8 2 9 1 10 3 11 4 12
REMARK SMILES IDX 5 13 6 14 7 15 8 16 17 17 18 18 19 19 20 20 21 21 22 22
REMARK SMILES IDX 23 23 24 24 25 25 26 26 27 27 88 28 28 29 87 30 29 31 30 32
REMARK SMILES IDX 31 33 81 34 32 35 86 36 80 37 82 38 33 39 85 40 79 41 78 42
REMARK SMILES IDX 34 44 66 45 46 46 65 47 47 48 50 49 64 50 83 51 48 52 49 53
REMARK SMILES IDX 63 55 84 56 51 57 35 58 36 59 44 60 37 61 38 62 42 63 45 64
REMARK SMILES IDX 39 65 40 66 43 67 41 68 67 69 68 70 76 71 69 72 70 73 74 74
REMARK SMILES IDX 77 75 71 76 72 77 75 78 73 79 52 80 53 81 61 82 54 83 55 84
REMARK SMILES IDX 59 85 62 86 56 87 57 88 60 89 58 90
REMARK H PARENT 82 43 50 54
REMARK Flexibility Score: inf
ROOT
ATOM      1  C   UNL A   1      31.397  27.687  24.913  1.00  0.00     0.188 C 
ENDROOT
BRANCH   1   2
ATOM      2  C   UNL A   1      31.700  27.921  23.424  1.00  0.00     0.188 C 
BRANCH   2   3
ATOM      3  O   UNL A   1      31.609  26.850  22.502  1.00  0.00    -0.376 OA
BRANCH   3   4
ATOM      4  C   UNL A   1      31.797  25.500  22.906  1.00  0.00     0.202 C 
BRANCH   4   5
ATOM      5  C   UNL A   1      30.646  24.517  23.172  1.00  0.00     0.261 C 
BRANCH   5   6
ATOM      6  O   UNL A   1      31.021  23.265  23.759  1.00  0.00    -0.461 OA
BRANCH   6   7
ATOM      7  C   UNL A   1      31.624  23.325  24.971  1.00  0.00     0.335 C 
ATOM      8  O   UNL A   1      31.134  23.886  25.948  1.00  0.00    -0.249 OA
BRANCH   7   9
ATOM      9  C   UNL A   1      32.934  22.518  25.053  1.00  0.00     0.225 C 
ATOM     10  C   UNL A   1      33.028  21.210  24.267  1.00  0.00     0.051 C 
BRANCH   9  11
ATOM     11  O   UNL A   1      33.969  23.422  24.646  1.00  0.00    -0.357 OA
BRANCH  11  12
ATOM     12  C   UNL A   1      34.709  23.059  23.475  1.00  0.00     0.276 C 
BRANCH  12  13
ATOM     13  C   UNL A   1      36.196  22.754  23.650  1.00  0.00     0.411 C 
ATOM     14  F   UNL A   1      36.385  21.582  24.301  1.00  0.00    -0.168 F 
ATOM     15  F   UNL A   1      36.795  22.634  22.442  1.00  0.00    -0.168 F 
ATOM     16  F   UNL A   1      36.841  23.719  24.334  1.00  0.00    -0.168 F 
ENDBRANCH  12  13
ENDBRANCH  11  12
ENDBRANCH   9  11
ENDBRANCH   7   9
ENDBRANCH   6   7
ENDBRANCH   5   6
ENDBRANCH   4   5
ENDBRANCH   3   4
ENDBRANCH   2   3
ENDBRANCH   1   2
BRANCH   1  17
ATOM     17  O   UNL A   1      31.656  28.784  25.765  1.00  0.00    -0.377 OA
BRANCH  17  18
ATOM     18  C   UNL A   1      32.836  29.552  25.559  1.00  0.00     0.188 C 
BRANCH  18  19
ATOM     19  C   UNL A   1      33.650  30.079  26.760  1.00  0.00     0.188 C 
BRANCH  19  20
ATOM     20  O   UNL A   1      32.940  30.964  27.610  1.00  0.00    -0.376 OA
BRANCH  20  21
ATOM     21  C   UNL A   1      32.093  31.939  27.017  1.00  0.00     0.202 C 
BRANCH  21  22
ATOM     22  C   UNL A   1      32.494  33.415  27.181  1.00  0.00     0.261 C 
BRANCH  22  23
ATOM     23  O   UNL A   1      32.234  34.009  28.465  1.00  0.00    -0.460 OA
BRANCH  23  24
ATOM     24  C   UNL A   1      32.981  35.065  28.840  1.00  0.00     0.338 C 
ATOM     25  O   UNL A   1      32.691  36.248  28.746  1.00  0.00    -0.246 OA
BRANCH  24  26
ATOM     26  C   UNL A   1      34.155  34.554  29.577  1.00  0.00     0.060 A 
ATOM     27  C   UNL A   1      35.405  34.552  28.945  1.00  0.00     0.016 A 
ATOM     28  C   UNL A   1      34.020  34.069  30.880  1.00  0.00     0.016 A 
ATOM     29  C   UNL A   1      36.517  34.022  29.598  1.00  0.00     0.010 A 
ATOM     30  C   UNL A   1      35.132  33.520  31.525  1.00  0.00     0.010 A 
ATOM     31  C   UNL A   1      36.377  33.459  30.873  1.00  0.00    -0.014 A 
BRANCH  31  32
ATOM     32  C   UNL A   1      37.472  32.630  31.436  1.00  0.00     0.031 A 
ATOM     33  C   UNL A   1      37.987  32.965  32.809  1.00  0.00     0.074 A 
ATOM     34  C   UNL A   1      37.987  31.590  30.757  1.00  0.00     0.049 A 
ATOM     35  N   UNL A   1      38.971  32.429  33.486  1.00  0.00    -0.248 NA
ATOM     36  C   UNL A   1      37.298  34.059  33.514  1.00  0.00     0.031 C 
ATOM     37  C   UNL A   1      37.544  31.137  29.442  1.00  0.00     0.029 A 
ATOM     38  N   UNL A   1      39.008  30.733  31.085  1.00  0.00    -0.354 N 
ATOM     39  C   UNL A   1      39.026  33.126  34.685  1.00  0.00     0.074 A 
ATOM     40  C   UNL A   1      37.999  34.143  34.634  1.00  0.00     0.031 C 
ATOM     41  C   UNL A   1      38.300  30.091  29.065  1.00  0.00     0.029 A 
ATOM     42  C   UNL A   1      39.304  29.827  30.096  1.00  0.00     0.049 A 
ATOM     43  H   UNL A   1      39.483  30.763  31.947  1.00  0.00     0.167 HD
ATOM     44  C   UNL A   1      39.856  32.932  35.738  1.00  0.00     0.037 A 
ATOM     45  C   UNL A   1      40.291  28.911  30.023  1.00  0.00     0.037 A 
ATOM     46  C   UNL A   1      40.876  31.918  35.785  1.00  0.00     0.049 A 
ATOM     47  C   UNL A   1      41.251  28.764  31.177  1.00  0.00     0.074 A 
ATOM     48  C   UNL A   1      41.751  31.624  36.816  1.00  0.00     0.029 A 
ATOM     49  N   UNL A   1      41.165  31.040  34.752  1.00  0.00    -0.354 N 
ATOM     50  N   UNL A   1      41.282  29.408  32.319  1.00  0.00    -0.248 NA
ATOM     51  C   UNL A   1      42.312  27.756  31.033  1.00  0.00     0.031 C 
ATOM     52  C   UNL A   1      42.616  30.615  36.380  1.00  0.00     0.029 A 
ATOM     53  C   UNL A   1      42.230  30.227  35.107  1.00  0.00     0.049 A 
ATOM     54  H   UNL A   1      40.686  31.000  33.893  1.00  0.00     0.167 HD
ATOM     55  C   UNL A   1      42.341  28.864  33.039  1.00  0.00     0.074 A 
ATOM     56  C   UNL A   1      42.917  27.827  32.210  1.00  0.00     0.031 C 
ATOM     57  C   UNL A   1      42.791  29.192  34.275  1.00  0.00     0.037 A 
BRANCH  44  58
ATOM     58  C   UNL A   1      39.720  33.860  36.912  1.00  0.00     0.064 A 
ATOM     59  C   UNL A   1      40.340  35.117  36.940  1.00  0.00     0.173 A 
ATOM     60  C   UNL A   1      38.927  33.496  38.011  1.00  0.00     0.173 A 
ATOM     61  F   UNL A   1      41.122  35.509  35.922  1.00  0.00    -0.203 F 
ATOM     62  C   UNL A   1      40.193  35.964  38.037  1.00  0.00     0.198 A 
ATOM     63  C   UNL A   1      38.755  34.358  39.090  1.00  0.00     0.198 A 
ATOM     64  F   UNL A   1      38.310  32.304  38.035  1.00  0.00    -0.203 F 
ATOM     65  F   UNL A   1      40.838  37.140  38.065  1.00  0.00    -0.200 F 
ATOM     66  C   UNL A   1      39.395  35.588  39.105  1.00  0.00     0.200 A 
ATOM     67  F   UNL A   1      37.970  33.997  40.115  1.00  0.00    -0.200 F 
ATOM     68  F   UNL A   1      39.247  36.408  40.156  1.00  0.00    -0.200 F 
ENDBRANCH  44  58
BRANCH  45  69
ATOM     69  C   UNL A   1      40.437  28.073  28.802  1.00  0.00     0.064 A 
ATOM     70  C   UNL A   1      41.216  28.499  27.717  1.00  0.00     0.173 A 
ATOM     71  C   UNL A   1      39.781  26.838  28.686  1.00  0.00     0.173 A 
ATOM     72  F   UNL A   1      41.841  29.684  27.765  1.00  0.00    -0.203 F 
ATOM     73  C   UNL A   1      41.317  27.732  26.557  1.00  0.00     0.198 A 
ATOM     74  C   UNL A   1      39.909  26.057  27.539  1.00  0.00     0.198 A 
ATOM     75  F   UNL A   1      39.019  26.384  29.692  1.00  0.00    -0.203 F 
ATOM     76  F   UNL A   1      42.026  28.188  25.515  1.00  0.00    -0.200 F 
ATOM     77  C   UNL A   1      40.669  26.509  26.472  1.00  0.00     0.200 A 
ATOM     78  F   UNL A   1      39.291  24.870  27.467  1.00  0.00    -0.200 F 
ATOM     79  F   UNL A   1      40.770  25.770  25.358  1.00  0.00    -0.200 F 
ENDBRANCH  45  69
BRANCH  57  80
ATOM     80  C   UNL A   1      43.937  28.394  34.834  1.00  0.00     0.064 A 
ATOM     81  C   UNL A   1      43.735  27.210  35.558  1.00  0.00     0.173 A 
ATOM     82  C   UNL A   1      45.262  28.799  34.599  1.00  0.00     0.173 A 
ATOM     83  F   UNL A   1      42.490  26.784  35.821  1.00  0.00    -0.203 F 
ATOM     84  C   UNL A   1      44.813  26.478  36.051  1.00  0.00     0.198 A 
ATOM     85  C   UNL A   1      46.337  28.045  35.061  1.00  0.00     0.198 A 
ATOM     86  F   UNL A   1      45.514  29.917  33.903  1.00  0.00    -0.203 F 
ATOM     87  F   UNL A   1      44.593  25.379  36.786  1.00  0.00    -0.200 F 
ATOM     88  C   UNL A   1      46.112  26.890  35.795  1.00  0.00     0.200 A 
ATOM     89  F   UNL A   1      47.591  28.435  34.795  1.00  0.00    -0.200 F 
ATOM     90  F   UNL A   1      47.147  26.178  36.261  1.00  0.00    -0.200 F 
ENDBRANCH  57  80
ENDBRANCH  31  32
ENDBRANCH  24  26
ENDBRANCH  23  24
ENDBRANCH  22  23
ENDBRANCH  21  22
ENDBRANCH  20  21
ENDBRANCH  19  20
ENDBRANCH  18  19
ENDBRANCH  17  18
ENDBRANCH   1  17
TORSDOF 23
ENDMDL
MODEL 2
REMARK VINA RESULT:      -8.9      4.809     10.501
REMARK SMILES C[C@@H](OCC(F)(F)F)C(=O)OCCOCCOCCOCCOC(=O)c1ccc(-c2c3nc(c(-c4c(F)c(F)c(F)c(F)c4F)c4ccc([nH]4)c(-c4c(F)c(F)c(F)c(F)c4F)c4nc(c(-c5c(F)c(F)c(F)c(F)c5F)c5ccc2[nH]5)C=C4)C=C3)cc1
REMARK SMILES IDX 16 1 15 2 14 3 13 4 12 5 11 6 9 7 10 8 2 9 1 10 3 11 4 12
REMARK SMILES IDX 5 13 6 14 7 15 8 16 17 17 18 18 19 19 20 20 21 21 22 22
REMARK SMILES IDX 23 23 24 24 25 25 26 26 27 27 88 28 28 29 87 30 29 31 30 32
REMARK SMILES IDX 31 33 81 34 32 35 86 36 80 37 82 38 33 39 85 40 79 41 78 42
REMARK SMILES IDX 34 44 66 45 46 46 65 47 47 48 50 49 64 50 83 51 48 52 49 53
REMARK SMILES IDX 63 55 84 56 51 57 35 58 36 59 44 60 37 61 38 62 42 63 45 64
REMARK SMILES IDX 39 65 40 66 43 67 41 68 67 69 68 70 76 71 69 72 70 73 74 74
REMARK SMILES IDX 77 75 71 76 72 77 75 78 73 79 52 80 53 81 61 82 54 83 55 84
REMARK SMILES IDX 59 85 62 86 56 87 57 88 60 89 58 90
REMARK H PARENT 82 43 50 54
REMARK Flexibility Score: inf
ROOT
ATOM      1  C   UNL A   1      34.407  25.341  25.766  1.00  0.00     0.188 C 
ENDROOT
BRANCH   1   2
ATOM      2  C   UNL A   1      33.760  26.464  24.940  1.00  0.00     0.188 C 
BRANCH   2   3
ATOM      3  O   UNL A   1      32.618  26.198  24.146  1.00  0.00    -0.376 OA
BRANCH   3   4
ATOM      4  C   UNL A   1      32.651  26.313  22.729  1.00  0.00     0.202 C 
BRANCH   4   5
ATOM      5  C   UNL A   1      31.400  26.281  21.838  1.00  0.00     0.261 C 
BRANCH   5   6
ATOM      6  O   UNL A   1      30.743  27.540  21.645  1.00  0.00    -0.461 OA
BRANCH   6   7
ATOM      7  C   UNL A   1      30.061  28.031  22.708  1.00  0.00     0.335 C 
ATOM      8  O   UNL A   1      29.503  27.326  23.545  1.00  0.00    -0.249 OA
BRANCH   7   9
ATOM      9  C   UNL A   1      30.148  29.564  22.847  1.00  0.00     0.225 C 
ATOM     10  C   UNL A   1      29.211  30.421  21.996  1.00  0.00     0.051 C 
BRANCH   9  11
ATOM     11  O   UNL A   1      29.948  29.836  24.240  1.00  0.00    -0.357 OA
BRANCH  11  12
ATOM     12  C   UNL A   1      31.040  30.454  24.932  1.00  0.00     0.276 C 
BRANCH  12  13
ATOM     13  C   UNL A   1      31.781  29.611  25.969  1.00  0.00     0.411 C 
ATOM     14  F   UNL A   1      33.114  29.597  25.731  1.00  0.00    -0.168 F 
ATOM     15  F   UNL A   1      31.607  30.131  27.206  1.00  0.00    -0.168 F 
ATOM     16  F   UNL A   1      31.350  28.334  25.995  1.00  0.00    -0.168 F 
ENDBRANCH  12  13
ENDBRANCH  11  12
ENDBRANCH   9  11
ENDBRANCH   7   9
ENDBRANCH   6   7
ENDBRANCH   5   6
ENDBRANCH   4   5
ENDBRANCH   3   4
ENDBRANCH   2   3
ENDBRANCH   1   2
BRANCH   1  17
ATOM     17  O   UNL A   1      34.689  24.152  25.056  1.00  0.00    -0.377 OA
BRANCH  17  18
ATOM     18  C   UNL A   1      33.820  23.036  25.208  1.00  0.00     0.188 C 
BRANCH  18  19
ATOM     19  C   UNL A   1      34.054  21.742  24.400  1.00  0.00     0.188 C 
BRANCH  19  20
ATOM     20  O   UNL A   1      35.416  21.375  24.258  1.00  0.00    -0.376 OA
BRANCH  20  21
ATOM     21  C   UNL A   1      36.085  20.807  25.375  1.00  0.00     0.202 C 
BRANCH  21  22
ATOM     22  C   UNL A   1      37.493  20.235  25.140  1.00  0.00     0.261 C 
BRANCH  22  23
ATOM     23  O   UNL A   1      38.581  21.175  25.187  1.00  0.00    -0.460 OA
BRANCH  23  24
ATOM     24  C   UNL A   1      39.534  20.999  26.122  1.00  0.00     0.338 C 
ATOM     25  O   UNL A   1      40.134  19.967  26.383  1.00  0.00    -0.246 OA
BRANCH  24  26
ATOM     26  C   UNL A   1      39.887  22.326  26.668  1.00  0.00     0.060 A 
ATOM     27  C   UNL A   1      39.210  23.457  26.194  1.00  0.00     0.016 A 
ATOM     28  C   UNL A   1      40.889  22.454  27.632  1.00  0.00     0.016 A 
ATOM     29  C   UNL A   1      39.564  24.726  26.650  1.00  0.00     0.010 A 
ATOM     30  C   UNL A   1      41.256  23.729  28.074  1.00  0.00     0.010 A 
ATOM     31  C   UNL A   1      40.622  24.873  27.557  1.00  0.00    -0.014 A 
BRANCH  31  32
ATOM     32  C   UNL A   1      41.197  26.219  27.804  1.00  0.00     0.031 A 
ATOM     33  C   UNL A   1      42.596  26.496  27.324  1.00  0.00     0.074 A 
ATOM     34  C   UNL A   1      40.493  27.182  28.422  1.00  0.00     0.049 A 
ATOM     35  N   UNL A   1      43.333  27.567  27.474  1.00  0.00    -0.248 NA
ATOM     36  C   UNL A   1      43.254  25.413  26.576  1.00  0.00     0.031 C 
ATOM     37  C   UNL A   1      39.115  27.053  28.891  1.00  0.00     0.029 A 
ATOM     38  N   UNL A   1      40.850  28.462  28.768  1.00  0.00    -0.354 N 
ATOM     39  C   UNL A   1      44.541  27.282  26.851  1.00  0.00     0.074 A 
ATOM     40  C   UNL A   1      44.452  25.929  26.348  1.00  0.00     0.031 C 
ATOM     41  C   UNL A   1      38.747  28.204  29.480  1.00  0.00     0.029 A 
ATOM     42  C   UNL A   1      39.874  29.136  29.461  1.00  0.00     0.049 A 
ATOM     43  H   UNL A   1      41.721  28.859  28.540  1.00  0.00     0.167 HD
ATOM     44  C   UNL A   1      45.626  28.080  26.706  1.00  0.00     0.037 A 
ATOM     45  C   UNL A   1      39.903  30.355  30.038  1.00  0.00     0.037 A 
ATOM     46  C   UNL A   1      45.710  29.426  27.209  1.00  0.00     0.049 A 
ATOM     47  C   UNL A   1      41.150  31.196  29.929  1.00  0.00     0.074 A 
ATOM     48  C   UNL A   1      46.756  30.325  27.092  1.00  0.00     0.029 A 
ATOM     49  N   UNL A   1      44.714  30.063  27.932  1.00  0.00    -0.354 N 
ATOM     50  N   UNL A   1      42.280  30.932  29.317  1.00  0.00    -0.248 NA
ATOM     51  C   UNL A   1      41.124  32.510  30.588  1.00  0.00     0.031 C 
ATOM     52  C   UNL A   1      46.420  31.480  27.804  1.00  0.00     0.029 A 
ATOM     53  C   UNL A   1      45.135  31.332  28.300  1.00  0.00     0.049 A 
ATOM     54  H   UNL A   1      43.838  29.673  28.153  1.00  0.00     0.167 HD
ATOM     55  C   UNL A   1      43.083  32.055  29.490  1.00  0.00     0.074 A 
ATOM     56  C   UNL A   1      42.305  33.008  30.252  1.00  0.00     0.031 C 
ATOM     57  C   UNL A   1      44.348  32.276  29.054  1.00  0.00     0.037 A 
BRANCH  44  58
ATOM     58  C   UNL A   1      46.826  27.504  26.010  1.00  0.00     0.064 A 
ATOM     59  C   UNL A   1      47.012  27.628  24.625  1.00  0.00     0.173 A 
ATOM     60  C   UNL A   1      47.822  26.846  26.748  1.00  0.00     0.173 A 
ATOM     61  F   UNL A   1      46.083  28.234  23.870  1.00  0.00    -0.203 F 
ATOM     62  C   UNL A   1      48.137  27.092  24.002  1.00  0.00     0.198 A 
ATOM     63  C   UNL A   1      48.961  26.342  26.128  1.00  0.00     0.198 A 
ATOM     64  F   UNL A   1      47.695  26.701  28.076  1.00  0.00    -0.203 F 
ATOM     65  F   UNL A   1      48.269  27.178  22.671  1.00  0.00    -0.200 F 
ATOM     66  C   UNL A   1      49.114  26.458  24.755  1.00  0.00     0.200 A 
ATOM     67  F   UNL A   1      49.910  25.742  26.859  1.00  0.00    -0.200 F 
ATOM     68  F   UNL A   1      50.200  25.951  24.155  1.00  0.00    -0.200 F 
ENDBRANCH  44  58
BRANCH  45  69
ATOM     69  C   UNL A   1      38.719  30.848  30.792  1.00  0.00     0.064 A 
ATOM     70  C   UNL A   1      38.622  30.683  32.181  1.00  0.00     0.173 A 
ATOM     71  C   UNL A   1      37.648  31.472  30.135  1.00  0.00     0.173 A 
ATOM     72  F   UNL A   1      39.605  30.067  32.853  1.00  0.00    -0.203 F 
ATOM     73  C   UNL A   1      37.491  31.106  32.879  1.00  0.00     0.198 A 
ATOM     74  C   UNL A   1      36.534  31.924  30.839  1.00  0.00     0.198 A 
ATOM     75  F   UNL A   1      37.686  31.650  28.806  1.00  0.00    -0.203 F 
ATOM     76  F   UNL A   1      37.402  30.889  34.199  1.00  0.00    -0.200 F 
ATOM     77  C   UNL A   1      36.452  31.733  32.209  1.00  0.00     0.200 A 
ATOM     78  F   UNL A   1      35.537  32.540  30.187  1.00  0.00    -0.200 F 
ATOM     79  F   UNL A   1      35.368  32.143  32.882  1.00  0.00    -0.200 F 
ENDBRANCH  45  69
BRANCH  57  80
ATOM     80  C   UNL A   1      44.962  33.617  29.347  1.00  0.00     0.064 A 
ATOM     81  C   UNL A   1      44.795  34.714  28.489  1.00  0.00     0.173 A 
ATOM     82  C   UNL A   1      45.690  33.818  30.531  1.00  0.00     0.173 A 
ATOM     83  F   UNL A   1      44.118  34.575  27.339  1.00  0.00    -0.203 F 
ATOM     84  C   UNL A   1      45.358  35.952  28.790  1.00  0.00     0.198 A 
ATOM     85  C   UNL A   1      46.220  35.066  30.846  1.00  0.00     0.198 A 
ATOM     86  F   UNL A   1      45.872  32.807  31.394  1.00  0.00    -0.203 F 
ATOM     87  F   UNL A   1      45.230  36.971  27.929  1.00  0.00    -0.200 F 
ATOM     88  C   UNL A   1      46.062  36.129  29.972  1.00  0.00     0.200 A 
ATOM     89  F   UNL A   1      46.883  35.239  31.999  1.00  0.00    -0.200 F 
ATOM     90  F   UNL A   1      46.594  37.324  30.264  1.00  0.00    -0.200 F 
ENDBRANCH  57  80
ENDBRANCH  31  32
ENDBRANCH  24  26
ENDBRANCH  23  24
ENDBRANCH  22  23
ENDBRANCH  21  22
ENDBRANCH  20  21
ENDBRANCH  19  20
ENDBRANCH  18  19
ENDBRANCH  17  18
ENDBRANCH   1  17
TORSDOF 23
ENDMDL
MODEL 3
REMARK VINA RESULT:      -8.8      3.688      5.561
REMARK SMILES C[C@@H](OCC(F)(F)F)C(=O)OCCOCCOCCOCCOC(=O)c1ccc(-c2c3nc(c(-c4c(F)c(F)c(F)c(F)c4F)c4ccc([nH]4)c(-c4c(F)c(F)c(F)c(F)c4F)c4nc(c(-c5c(F)c(F)c(F)c(F)c5F)c5ccc2[nH]5)C=C4)C=C3)cc1
REMARK SMILES IDX 16 1 15 2 14 3 13 4 12 5 11 6 9 7 10 8 2 9 1 10 3 11 4 12
REMARK SMILES IDX 5 13 6 14 7 15 8 16 17 17 18 18 19 19 20 20 21 21 22 22
REMARK SMILES IDX 23 23 24 24 25 25 26 26 27 27 88 28 28 29 87 30 29 31 30 32
REMARK SMILES IDX 31 33 81 34 32 35 86 36 80 37 82 38 33 39 85 40 79 41 78 42
REMARK SMILES IDX 34 44 66 45 46 46 65 47 47 48 50 49 64 50 83 51 48 52 49 53
REMARK SMILES IDX 63 55 84 56 51 57 35 58 36 59 44 60 37 61 38 62 42 63 45 64
REMARK SMILES IDX 39 65 40 66 43 67 41 68 67 69 68 70 76 71 69 72 70 73 74 74
REMARK SMILES IDX 77 75 71 76 72 77 75 78 73 79 52 80 53 81 61 82 54 83 55 84
REMARK SMILES IDX 59 85 62 86 56 87 57 88 60 89 58 90
REMARK H PARENT 82 43 50 54
REMARK Flexibility Score: inf
ROOT
ATOM      1  C   UNL A   1      30.706  27.089  22.930  1.00  0.00     0.188 C 
ENDROOT
BRANCH   1   2
ATOM      2  C   UNL A   1      31.781  26.324  22.141  1.00  0.00     0.188 C 
BRANCH   2   3
ATOM      3  O   UNL A   1      31.836  24.910  22.199  1.00  0.00    -0.376 OA
BRANCH   3   4
ATOM      4  C   UNL A   1      31.225  24.182  23.257  1.00  0.00     0.202 C 
BRANCH   4   5
ATOM      5  C   UNL A   1      32.007  23.380  24.308  1.00  0.00     0.261 C 
BRANCH   5   6
ATOM      6  O   UNL A   1      31.620  22.008  24.456  1.00  0.00    -0.461 OA
BRANCH   6   7
ATOM      7  C   UNL A   1      32.378  21.257  25.292  1.00  0.00     0.335 C 
ATOM      8  O   UNL A   1      32.293  20.034  25.375  1.00  0.00    -0.249 OA
BRANCH   7   9
ATOM      9  C   UNL A   1      33.451  22.062  26.049  1.00  0.00     0.225 C 
ATOM     10  C   UNL A   1      33.549  21.890  27.565  1.00  0.00     0.051 C 
BRANCH   9  11
ATOM     11  O   UNL A   1      34.698  21.724  25.426  1.00  0.00    -0.357 OA
BRANCH  11  12
ATOM     12  C   UNL A   1      35.845  22.472  25.846  1.00  0.00     0.276 C 
BRANCH  12  13
ATOM     13  C   UNL A   1      36.147  23.772  25.102  1.00  0.00     0.411 C 
ATOM     14  F   UNL A   1      37.385  24.232  25.398  1.00  0.00    -0.168 F 
ATOM     15  F   UNL A   1      36.111  23.566  23.765  1.00  0.00    -0.168 F 
ATOM     16  F   UNL A   1      35.261  24.746  25.392  1.00  0.00    -0.168 F 
ENDBRANCH  12  13
ENDBRANCH  11  12
ENDBRANCH   9  11
ENDBRANCH   7   9
ENDBRANCH   6   7
ENDBRANCH   5   6
ENDBRANCH   4   5
ENDBRANCH   3   4
ENDBRANCH   2   3
ENDBRANCH   1   2
BRANCH   1  17
ATOM     17  O   UNL A   1      30.894  28.486  23.014  1.00  0.00    -0.377 OA
BRANCH  17  18
ATOM     18  C   UNL A   1      32.076  28.988  23.627  1.00  0.00     0.188 C 
BRANCH  18  19
ATOM     19  C   UNL A   1      32.456  28.568  25.062  1.00  0.00     0.188 C 
BRANCH  19  20
ATOM     20  O   UNL A   1      31.578  29.048  26.067  1.00  0.00    -0.376 OA
BRANCH  20  21
ATOM     21  C   UNL A   1      31.778  30.361  26.571  1.00  0.00     0.202 C 
BRANCH  21  22
ATOM     22  C   UNL A   1      33.230  30.829  26.767  1.00  0.00     0.261 C 
BRANCH  22  23
ATOM     23  O   UNL A   1      33.966  30.200  27.831  1.00  0.00    -0.460 OA
BRANCH  23  24
ATOM     24  C   UNL A   1      34.810  30.958  28.556  1.00  0.00     0.338 C 
ATOM     25  O   UNL A   1      34.546  31.981  29.169  1.00  0.00    -0.246 OA
BRANCH  24  26
ATOM     26  C   UNL A   1      36.097  30.239  28.657  1.00  0.00     0.060 A 
ATOM     27  C   UNL A   1      36.421  29.594  29.857  1.00  0.00     0.016 A 
ATOM     28  C   UNL A   1      36.983  30.211  27.578  1.00  0.00     0.016 A 
ATOM     29  C   UNL A   1      37.654  28.957  29.998  1.00  0.00     0.010 A 
ATOM     30  C   UNL A   1      38.226  29.589  27.727  1.00  0.00     0.010 A 
ATOM     31  C   UNL A   1      38.583  28.993  28.950  1.00  0.00    -0.014 A 
BRANCH  31  32
ATOM     32  C   UNL A   1      39.990  28.592  29.200  1.00  0.00     0.031 A 
ATOM     33  C   UNL A   1      40.885  29.551  29.937  1.00  0.00     0.074 A 
ATOM     34  C   UNL A   1      40.463  27.398  28.803  1.00  0.00     0.049 A 
ATOM     35  N   UNL A   1      42.159  29.454  30.221  1.00  0.00    -0.248 NA
ATOM     36  C   UNL A   1      40.254  30.792  30.416  1.00  0.00     0.031 C 
ATOM     37  C   UNL A   1      39.685  26.365  28.123  1.00  0.00     0.029 A 
ATOM     38  N   UNL A   1      41.721  26.860  28.910  1.00  0.00    -0.354 N 
ATOM     39  C   UNL A   1      42.482  30.623  30.898  1.00  0.00     0.074 A 
ATOM     40  C   UNL A   1      41.282  31.427  30.957  1.00  0.00     0.031 C 
ATOM     41  C   UNL A   1      40.489  25.321  27.858  1.00  0.00     0.029 A 
ATOM     42  C   UNL A   1      41.844  25.628  28.315  1.00  0.00     0.049 A 
ATOM     43  H   UNL A   1      42.465  27.313  29.368  1.00  0.00     0.167 HD
ATOM     44  C   UNL A   1      43.674  30.989  31.429  1.00  0.00     0.037 A 
ATOM     45  C   UNL A   1      42.933  24.853  28.138  1.00  0.00     0.037 A 
ATOM     46  C   UNL A   1      44.865  30.184  31.369  1.00  0.00     0.049 A 
ATOM     47  C   UNL A   1      44.266  25.317  28.672  1.00  0.00     0.074 A 
ATOM     48  C   UNL A   1      46.115  30.456  31.897  1.00  0.00     0.029 A 
ATOM     49  N   UNL A   1      44.958  28.956  30.732  1.00  0.00    -0.354 N 
ATOM     50  N   UNL A   1      44.562  26.410  29.334  1.00  0.00    -0.248 NA
ATOM     51  C   UNL A   1      45.419  24.434  28.437  1.00  0.00     0.031 C 
ATOM     52  C   UNL A   1      46.981  29.425  31.521  1.00  0.00     0.029 A 
ATOM     53  C   UNL A   1      46.254  28.473  30.824  1.00  0.00     0.049 A 
ATOM     54  H   UNL A   1      44.214  28.496  30.282  1.00  0.00     0.167 HD
ATOM     55  C   UNL A   1      45.920  26.331  29.621  1.00  0.00     0.074 A 
ATOM     56  C   UNL A   1      46.388  25.076  29.074  1.00  0.00     0.031 C 
ATOM     57  C   UNL A   1      46.707  27.217  30.280  1.00  0.00     0.037 A 
BRANCH  44  58
ATOM     58  C   UNL A   1      43.757  32.336  32.088  1.00  0.00     0.064 A 
ATOM     59  C   UNL A   1      43.539  32.506  33.463  1.00  0.00     0.173 A 
ATOM     60  C   UNL A   1      44.095  33.471  31.334  1.00  0.00     0.173 A 
ATOM     61  F   UNL A   1      43.198  31.458  34.228  1.00  0.00    -0.203 F 
ATOM     62  C   UNL A   1      43.630  33.765  34.053  1.00  0.00     0.198 A 
ATOM     63  C   UNL A   1      44.218  34.721  31.932  1.00  0.00     0.198 A 
ATOM     64  F   UNL A   1      44.316  33.364  30.014  1.00  0.00    -0.203 F 
ATOM     65  F   UNL A   1      43.366  33.912  35.360  1.00  0.00    -0.200 F 
ATOM     66  C   UNL A   1      43.978  34.868  33.290  1.00  0.00     0.200 A 
ATOM     67  F   UNL A   1      44.569  35.783  31.194  1.00  0.00    -0.200 F 
ATOM     68  F   UNL A   1      44.074  36.078  33.860  1.00  0.00    -0.200 F 
ENDBRANCH  44  58
BRANCH  45  69
ATOM     69  C   UNL A   1      42.817  23.565  27.403  1.00  0.00     0.064 A 
ATOM     70  C   UNL A   1      42.340  22.408  28.034  1.00  0.00     0.173 A 
ATOM     71  C   UNL A   1      43.205  23.459  26.059  1.00  0.00     0.173 A 
ATOM     72  F   UNL A   1      41.983  22.449  29.326  1.00  0.00    -0.203 F 
ATOM     73  C   UNL A   1      42.274  21.192  27.356  1.00  0.00     0.198 A 
ATOM     74  C   UNL A   1      43.108  22.250  25.373  1.00  0.00     0.198 A 
ATOM     75  F   UNL A   1      43.675  24.533  25.407  1.00  0.00    -0.203 F 
ATOM     76  F   UNL A   1      41.862  20.090  28.000  1.00  0.00    -0.200 F 
ATOM     77  C   UNL A   1      42.650  21.115  26.024  1.00  0.00     0.200 A 
ATOM     78  F   UNL A   1      43.462  22.184  24.081  1.00  0.00    -0.200 F 
ATOM     79  F   UNL A   1      42.582  19.947  25.372  1.00  0.00    -0.200 F 
ENDBRANCH  45  69
BRANCH  57  80
ATOM     80  C   UNL A   1      48.149  26.846  30.492  1.00  0.00     0.064 A 
ATOM     81  C   UNL A   1      48.570  26.109  31.608  1.00  0.00     0.173 A 
ATOM     82  C   UNL A   1      49.117  27.195  29.535  1.00  0.00     0.173 A 
ATOM     83  F   UNL A   1      47.689  25.759  32.558  1.00  0.00    -0.203 F 
ATOM     84  C   UNL A   1      49.909  25.761  31.774  1.00  0.00     0.198 A 
ATOM     85  C   UNL A   1      50.447  26.814  29.686  1.00  0.00     0.198 A 
ATOM     86  F   UNL A   1      48.768  27.890  28.442  1.00  0.00    -0.203 F 
ATOM     87  F   UNL A   1      50.296  25.103  32.876  1.00  0.00    -0.200 F 
ATOM     88  C   UNL A   1      50.844  26.106  30.810  1.00  0.00     0.200 A 
ATOM     89  F   UNL A   1      51.345  27.131  28.743  1.00  0.00    -0.200 F 
ATOM     90  F   UNL A   1      52.129  25.761  30.966  1.00  0.00    -0.200 F 
ENDBRANCH  57  80
ENDBRANCH  31  32
ENDBRANCH  24  26
ENDBRANCH  23  24
ENDBRANCH  22  23
ENDBRANCH  21  22
ENDBRANCH  20  21
ENDBRANCH  19  20
ENDBRANCH  18  19
ENDBRANCH  17  18
ENDBRANCH   1  17
TORSDOF 23
ENDMDL
