MODEL 1
REMARK VINA RESULT:     -10.5      0.000      0.000
REMARK SMILES CC[C@H]1CCC[C@H](O[C@@H]2CC[C@]([NH2+]C(C)C)(C(=O)OCCOCCOCCOCCOC(=O)c3ccc(-c4c5nc(c(-c6c(F)c(F)c(F)c(F)c6F)c6ccc([nH]6)c(-c6c(F)c(F)c(F)c(F)c6F)c6nc(c(-c7c(F)c(F)c(F)c(F)c7F)c7ccc4[nH]7)C=C6)C=C5)cc3)C2)C1
REMARK SMILES IDX 24 1 23 2 22 3 21 4 20 5 19 6 17 7 18 8 12 9 9 10 10 11
REMARK SMILES IDX 97 12 11 13 8 14 7 15 3 16 4 17 98 18 5 19 6 20 2 21 1 22
REMARK SMILES IDX 13 23 14 26 15 27 16 28 25 29 26 30 27 31 28 32 29 33 30 34
REMARK SMILES IDX 31 35 32 36 33 37 34 38 35 39 96 40 36 41 95 42 37 43 38 44
REMARK SMILES IDX 39 45 89 46 40 47 94 48 88 49 90 50 41 51 93 52 87 53 86 54
REMARK SMILES IDX 42 56 74 57 54 58 73 59 55 60 58 61 72 62 91 63 56 64 57 65
REMARK SMILES IDX 71 67 92 68 59 69 43 70 44 71 52 72 45 73 46 74 50 75 53 76
REMARK SMILES IDX 47 77 48 78 51 79 49 80 75 81 76 82 84 83 77 84 78 85 82 86
REMARK SMILES IDX 85 87 79 88 80 89 83 90 81 91 60 92 61 93 69 94 62 95 63 96
REMARK SMILES IDX 67 97 70 98 64 99 65 100 68 101 66 102
REMARK H PARENT 13 24 13 25 90 55 58 66
REMARK Flexibility Score: inf
ROOT
ATOM      1  C   UNL A   1      32.892  34.102  28.139  1.00  0.00     0.188 C 
ENDROOT
BRANCH   1   2
ATOM      2  C   UNL A   1      34.083  33.154  28.394  1.00  0.00     0.188 C 
BRANCH   2   3
ATOM      3  O   UNL A   1      34.086  31.812  27.913  1.00  0.00    -0.376 OA
BRANCH   3   4
ATOM      4  C   UNL A   1      32.947  31.300  27.244  1.00  0.00     0.202 C 
BRANCH   4   5
ATOM      5  C   UNL A   1      32.961  29.830  26.765  1.00  0.00     0.261 C 
BRANCH   5   6
ATOM      6  O   UNL A   1      33.370  29.602  25.391  1.00  0.00    -0.459 OA
BRANCH   6   7
ATOM      7  C   UNL A   1      33.157  28.357  24.928  1.00  0.00     0.368 C 
ATOM      8  O   UNL A   1      33.548  27.372  25.563  1.00  0.00    -0.245 OA
BRANCH   7   9
ATOM      9  C   UNL A   1      32.412  28.176  23.542  1.00  0.00     0.197 C 
ATOM     10  C   UNL A   1      31.682  26.071  22.548  1.00  0.00     0.125 C 
ATOM     11  C   UNL A   1      33.120  26.278  22.085  1.00  0.00     0.039 C 
ATOM     12  C   UNL A   1      31.546  26.955  23.758  1.00  0.00     0.113 C 
ATOM     13  C   UNL A   1      33.526  27.673  22.579  1.00  0.00     0.084 C 
BRANCH  10  14
ATOM     14  O   UNL A   1      31.258  24.725  22.735  1.00  0.00    -0.375 OA
BRANCH  14  15
ATOM     15  C   UNL A   1      31.889  23.852  23.690  1.00  0.00     0.118 C 
ATOM     16  C   UNL A   1      33.342  21.735  24.076  1.00  0.00    -0.009 C 
ATOM     17  C   UNL A   1      32.266  21.283  25.082  1.00  0.00     0.004 C 
ATOM     18  C   UNL A   1      32.755  22.728  23.067  1.00  0.00     0.035 C 
ATOM     19  C   UNL A   1      31.580  22.450  25.787  1.00  0.00     0.003 C 
ATOM     20  C   UNL A   1      30.929  23.398  24.793  1.00  0.00     0.032 C 
BRANCH  16  21
ATOM     21  C   UNL A   1      34.613  22.244  24.768  1.00  0.00     0.000 C 
ATOM     22  C   UNL A   1      35.751  21.231  24.760  1.00  0.00     0.004 C 
ENDBRANCH  16  21
ENDBRANCH  14  15
ENDBRANCH  10  14
BRANCH   9  23
ATOM     23  N   UNL A   1      31.656  29.309  22.906  1.00  0.00    -0.330 N 
ATOM     24  H   UNL A   1      31.780  29.204  21.899  1.00  0.00     0.347 HD
ATOM     25  H   UNL A   1      32.057  30.120  23.377  1.00  0.00     0.347 HD
BRANCH  23  26
ATOM     26  C   UNL A   1      30.195  29.517  23.127  1.00  0.00     0.176 C 
ATOM     27  C   UNL A   1      30.019  30.656  24.148  1.00  0.00     0.075 C 
ATOM     28  C   UNL A   1      29.312  29.919  21.928  1.00  0.00     0.075 C 
ENDBRANCH  23  26
ENDBRANCH   9  23
ENDBRANCH   7   9
ENDBRANCH   6   7
ENDBRANCH   5   6
ENDBRANCH   4   5
ENDBRANCH   3   4
ENDBRANCH   2   3
ENDBRANCH   1   2
BRANCH   1  29
ATOM     29  O   UNL A   1      32.505  34.861  29.267  1.00  0.00    -0.377 OA
BRANCH  29  30
ATOM     30  C   UNL A   1      33.538  35.225  30.148  1.00  0.00     0.188 C 
BRANCH  30  31
ATOM     31  C   UNL A   1      33.345  36.540  30.913  1.00  0.00     0.188 C 
BRANCH  31  32
ATOM     32  O   UNL A   1      33.885  36.512  32.230  1.00  0.00    -0.376 OA
BRANCH  32  33
ATOM     33  C   UNL A   1      34.235  35.262  32.800  1.00  0.00     0.202 C 
BRANCH  33  34
ATOM     34  C   UNL A   1      35.710  34.819  32.763  1.00  0.00     0.261 C 
BRANCH  34  35
ATOM     35  O   UNL A   1      36.004  33.470  33.149  1.00  0.00    -0.460 OA
BRANCH  35  36
ATOM     36  C   UNL A   1      35.430  32.471  32.445  1.00  0.00     0.338 C 
ATOM     37  O   UNL A   1      34.238  32.308  32.249  1.00  0.00    -0.246 OA
BRANCH  36  38
ATOM     38  C   UNL A   1      36.507  31.716  31.760  1.00  0.00     0.060 A 
ATOM     39  C   UNL A   1      37.450  31.037  32.547  1.00  0.00     0.016 A 
ATOM     40  C   UNL A   1      36.559  31.619  30.366  1.00  0.00     0.016 A 
ATOM     41  C   UNL A   1      38.460  30.286  31.944  1.00  0.00     0.010 A 
ATOM     42  C   UNL A   1      37.595  30.899  29.761  1.00  0.00     0.010 A 
ATOM     43  C   UNL A   1      38.569  30.257  30.547  1.00  0.00    -0.014 A 
BRANCH  43  44
ATOM     44  C   UNL A   1      39.831  29.775  29.932  1.00  0.00     0.031 A 
ATOM     45  C   UNL A   1      40.971  30.750  29.825  1.00  0.00     0.074 A 
ATOM     46  C   UNL A   1      39.984  28.504  29.519  1.00  0.00     0.049 A 
ATOM     47  N   UNL A   1      42.163  30.591  29.309  1.00  0.00    -0.248 NA
ATOM     48  C   UNL A   1      40.729  32.094  30.377  1.00  0.00     0.031 C 
ATOM     49  C   UNL A   1      38.977  27.453  29.619  1.00  0.00     0.029 A 
ATOM     50  N   UNL A   1      41.060  27.888  28.926  1.00  0.00    -0.354 N 
ATOM     51  C   UNL A   1      42.808  31.810  29.474  1.00  0.00     0.074 A 
ATOM     52  C   UNL A   1      41.868  32.710  30.105  1.00  0.00     0.031 C 
ATOM     53  C   UNL A   1      39.476  26.321  29.090  1.00  0.00     0.029 A 
ATOM     54  C   UNL A   1      40.825  26.578  28.587  1.00  0.00     0.049 A 
ATOM     55  H   UNL A   1      41.917  28.342  28.758  1.00  0.00     0.167 HD
ATOM     56  C   UNL A   1      44.074  32.148  29.136  1.00  0.00     0.037 A 
ATOM     57  C   UNL A   1      41.607  25.700  27.926  1.00  0.00     0.037 A 
ATOM     58  C   UNL A   1      45.003  31.254  28.498  1.00  0.00     0.049 A 
ATOM     59  C   UNL A   1      42.984  26.129  27.478  1.00  0.00     0.074 A 
ATOM     60  C   UNL A   1      46.311  31.497  28.120  1.00  0.00     0.029 A 
ATOM     61  N   UNL A   1      44.714  29.948  28.133  1.00  0.00    -0.354 N 
ATOM     62  N   UNL A   1      43.597  27.273  27.657  1.00  0.00    -0.248 NA
ATOM     63  C   UNL A   1      43.779  25.138  26.736  1.00  0.00     0.031 C 
ATOM     64  C   UNL A   1      46.794  30.358  27.469  1.00  0.00     0.029 A 
ATOM     65  C   UNL A   1      45.811  29.381  27.504  1.00  0.00     0.049 A 
ATOM     66  H   UNL A   1      43.858  29.492  28.295  1.00  0.00     0.167 HD
ATOM     67  C   UNL A   1      44.856  27.130  27.085  1.00  0.00     0.074 A 
ATOM     68  C   UNL A   1      44.924  25.781  26.564  1.00  0.00     0.031 C 
ATOM     69  C   UNL A   1      45.866  28.032  27.001  1.00  0.00     0.037 A 
BRANCH  56  70
ATOM     70  C   UNL A   1      44.512  33.556  29.417  1.00  0.00     0.064 A 
ATOM     71  C   UNL A   1      45.029  33.937  30.665  1.00  0.00     0.173 A 
ATOM     72  C   UNL A   1      44.434  34.535  28.413  1.00  0.00     0.173 A 
ATOM     73  F   UNL A   1      45.106  33.045  31.664  1.00  0.00    -0.203 F 
ATOM     74  C   UNL A   1      45.425  35.250  30.906  1.00  0.00     0.198 A 
ATOM     75  C   UNL A   1      44.863  35.838  28.649  1.00  0.00     0.198 A 
ATOM     76  F   UNL A   1      43.948  34.225  27.203  1.00  0.00    -0.203 F 
ATOM     77  F   UNL A   1      45.864  35.603  32.121  1.00  0.00    -0.200 F 
ATOM     78  C   UNL A   1      45.350  36.197  29.896  1.00  0.00     0.200 A 
ATOM     79  F   UNL A   1      44.801  36.748  27.667  1.00  0.00    -0.200 F 
ATOM     80  F   UNL A   1      45.739  37.458  30.127  1.00  0.00    -0.200 F 
ENDBRANCH  56  70
BRANCH  57  81
ATOM     81  C   UNL A   1      41.109  24.329  27.628  1.00  0.00     0.064 A 
ATOM     82  C   UNL A   1      41.673  23.200  28.241  1.00  0.00     0.173 A 
ATOM     83  C   UNL A   1      40.082  24.116  26.695  1.00  0.00     0.173 A 
ATOM     84  F   UNL A   1      42.677  23.347  29.118  1.00  0.00    -0.203 F 
ATOM     85  C   UNL A   1      41.245  21.914  27.917  1.00  0.00     0.198 A 
ATOM     86  C   UNL A   1      39.634  22.831  26.396  1.00  0.00     0.198 A 
ATOM     87  F   UNL A   1      39.512  25.159  26.072  1.00  0.00    -0.203 F 
ATOM     88  F   UNL A   1      41.841  20.852  28.476  1.00  0.00    -0.200 F 
ATOM     89  C   UNL A   1      40.222  21.731  26.999  1.00  0.00     0.200 A 
ATOM     90  F   UNL A   1      38.639  22.659  25.515  1.00  0.00    -0.200 F 
ATOM     91  F   UNL A   1      39.813  20.494  26.687  1.00  0.00    -0.200 F 
ENDBRANCH  57  81
BRANCH  69  92
ATOM     92  C   UNL A   1      47.152  27.579  26.365  1.00  0.00     0.064 A 
ATOM     93  C   UNL A   1      48.207  27.048  27.119  1.00  0.00     0.173 A 
ATOM     94  C   UNL A   1      47.306  27.635  24.969  1.00  0.00     0.173 A 
ATOM     95  F   UNL A   1      48.116  26.983  28.456  1.00  0.00    -0.203 F 
ATOM     96  C   UNL A   1      49.381  26.618  26.505  1.00  0.00     0.198 A 
ATOM     97  C   UNL A   1      48.466  27.169  24.357  1.00  0.00     0.198 A 
ATOM     98  F   UNL A   1      46.323  28.123  24.198  1.00  0.00    -0.203 F 
ATOM     99  F   UNL A   1      50.398  26.163  27.251  1.00  0.00    -0.200 F 
ATOM    100  C   UNL A   1      49.506  26.671  25.125  1.00  0.00     0.200 A 
ATOM    101  F   UNL A   1      48.576  27.203  23.021  1.00  0.00    -0.200 F 
ATOM    102  F   UNL A   1      50.631  26.246  24.535  1.00  0.00    -0.200 F 
ENDBRANCH  69  92
ENDBRANCH  43  44
ENDBRANCH  36  38
ENDBRANCH  35  36
ENDBRANCH  34  35
ENDBRANCH  33  34
ENDBRANCH  32  33
ENDBRANCH  31  32
ENDBRANCH  30  31
ENDBRANCH  29  30
ENDBRANCH   1  29
TORSDOF 25
ENDMDL
MODEL 2
REMARK VINA RESULT:     -10.2      4.686      9.403
REMARK SMILES CC[C@H]1CCC[C@H](O[C@@H]2CC[C@]([NH2+]C(C)C)(C(=O)OCCOCCOCCOCCOC(=O)c3ccc(-c4c5nc(c(-c6c(F)c(F)c(F)c(F)c6F)c6ccc([nH]6)c(-c6c(F)c(F)c(F)c(F)c6F)c6nc(c(-c7c(F)c(F)c(F)c(F)c7F)c7ccc4[nH]7)C=C6)C=C5)cc3)C2)C1
REMARK SMILES IDX 24 1 23 2 22 3 21 4 20 5 19 6 17 7 18 8 12 9 9 10 10 11
REMARK SMILES IDX 97 12 11 13 8 14 7 15 3 16 4 17 98 18 5 19 6 20 2 21 1 22
REMARK SMILES IDX 13 23 14 26 15 27 16 28 25 29 26 30 27 31 28 32 29 33 30 34
REMARK SMILES IDX 31 35 32 36 33 37 34 38 35 39 96 40 36 41 95 42 37 43 38 44
REMARK SMILES IDX 39 45 89 46 40 47 94 48 88 49 90 50 41 51 93 52 87 53 86 54
REMARK SMILES IDX 42 56 74 57 54 58 73 59 55 60 58 61 72 62 91 63 56 64 57 65
REMARK SMILES IDX 71 67 92 68 59 69 43 70 44 71 52 72 45 73 46 74 50 75 53 76
REMARK SMILES IDX 47 77 48 78 51 79 49 80 75 81 76 82 84 83 77 84 78 85 82 86
REMARK SMILES IDX 85 87 79 88 80 89 83 90 81 91 60 92 61 93 69 94 62 95 63 96
REMARK SMILES IDX 67 97 70 98 64 99 65 100 68 101 66 102
REMARK H PARENT 13 24 13 25 90 55 58 66
REMARK Flexibility Score: inf
ROOT
ATOM      1  C   UNL A   1      33.435  27.441  25.940  1.00  0.00     0.188 C 
ENDROOT
BRANCH   1   2
ATOM      2  C   UNL A   1      33.720  28.349  24.725  1.00  0.00     0.188 C 
BRANCH   2   3
ATOM      3  O   UNL A   1      33.696  27.844  23.392  1.00  0.00    -0.376 OA
BRANCH   3   4
ATOM      4  C   UNL A   1      33.684  26.444  23.169  1.00  0.00     0.202 C 
BRANCH   4   5
ATOM      5  C   UNL A   1      33.243  25.914  21.785  1.00  0.00     0.261 C 
BRANCH   5   6
ATOM      6  O   UNL A   1      32.956  24.493  21.700  1.00  0.00    -0.459 OA
BRANCH   6   7
ATOM      7  C   UNL A   1      32.457  23.941  22.822  1.00  0.00     0.368 C 
ATOM      8  O   UNL A   1      31.333  24.247  23.229  1.00  0.00    -0.245 OA
BRANCH   7   9
ATOM      9  C   UNL A   1      33.348  22.904  23.623  1.00  0.00     0.197 C 
ATOM     10  C   UNL A   1      32.669  20.688  24.383  1.00  0.00     0.125 C 
ATOM     11  C   UNL A   1      32.270  21.654  25.494  1.00  0.00     0.039 C 
ATOM     12  C   UNL A   1      32.827  21.559  23.166  1.00  0.00     0.113 C 
ATOM     13  C   UNL A   1      32.836  23.022  25.088  1.00  0.00     0.084 C 
BRANCH  10  14
ATOM     14  O   UNL A   1      31.839  19.546  24.201  1.00  0.00    -0.375 OA
BRANCH  14  15
ATOM     15  C   UNL A   1      32.365  18.206  24.246  1.00  0.00     0.118 C 
ATOM     16  C   UNL A   1      33.333  16.295  25.714  1.00  0.00    -0.009 C 
ATOM     17  C   UNL A   1      34.484  16.209  24.694  1.00  0.00     0.004 C 
ATOM     18  C   UNL A   1      32.676  17.680  25.670  1.00  0.00     0.035 C 
ATOM     19  C   UNL A   1      34.055  16.573  23.276  1.00  0.00     0.003 C 
ATOM     20  C   UNL A   1      33.471  17.976  23.212  1.00  0.00     0.032 C 
BRANCH  16  21
ATOM     21  C   UNL A   1      32.336  15.138  25.570  1.00  0.00     0.000 C 
ATOM     22  C   UNL A   1      32.974  13.767  25.752  1.00  0.00     0.004 C 
ENDBRANCH  16  21
ENDBRANCH  14  15
ENDBRANCH  10  14
BRANCH   9  23
ATOM     23  N   UNL A   1      34.849  22.977  23.595  1.00  0.00    -0.330 N 
ATOM     24  H   UNL A   1      35.081  23.908  23.248  1.00  0.00     0.347 HD
ATOM     25  H   UNL A   1      35.090  22.161  23.034  1.00  0.00     0.347 HD
BRANCH  23  26
ATOM     26  C   UNL A   1      35.681  22.769  24.815  1.00  0.00     0.176 C 
ATOM     27  C   UNL A   1      36.288  21.354  24.750  1.00  0.00     0.075 C 
ATOM     28  C   UNL A   1      36.882  23.704  25.066  1.00  0.00     0.075 C 
ENDBRANCH  23  26
ENDBRANCH   9  23
ENDBRANCH   7   9
ENDBRANCH   6   7
ENDBRANCH   5   6
ENDBRANCH   4   5
ENDBRANCH   3   4
ENDBRANCH   2   3
ENDBRANCH   1   2
BRANCH   1  29
ATOM     29  O   UNL A   1      33.058  28.142  27.108  1.00  0.00    -0.377 OA
BRANCH  29  30
ATOM     30  C   UNL A   1      33.929  29.165  27.521  1.00  0.00     0.188 C 
BRANCH  30  31
ATOM     31  C   UNL A   1      33.348  30.585  27.537  1.00  0.00     0.188 C 
BRANCH  31  32
ATOM     32  O   UNL A   1      32.424  30.829  26.483  1.00  0.00    -0.376 OA
BRANCH  32  33
ATOM     33  C   UNL A   1      31.418  31.810  26.667  1.00  0.00     0.202 C 
BRANCH  33  34
ATOM     34  C   UNL A   1      31.845  33.259  26.970  1.00  0.00     0.261 C 
BRANCH  34  35
ATOM     35  O   UNL A   1      33.145  33.459  27.542  1.00  0.00    -0.460 OA
BRANCH  35  36
ATOM     36  C   UNL A   1      33.281  34.419  28.483  1.00  0.00     0.338 C 
ATOM     37  O   UNL A   1      32.519  35.347  28.694  1.00  0.00    -0.246 OA
BRANCH  36  38
ATOM     38  C   UNL A   1      34.407  34.035  29.369  1.00  0.00     0.060 A 
ATOM     39  C   UNL A   1      35.716  34.268  28.921  1.00  0.00     0.016 A 
ATOM     40  C   UNL A   1      34.186  33.513  30.647  1.00  0.00     0.016 A 
ATOM     41  C   UNL A   1      36.805  33.955  29.737  1.00  0.00     0.010 A 
ATOM     42  C   UNL A   1      35.279  33.161  31.448  1.00  0.00     0.010 A 
ATOM     43  C   UNL A   1      36.592  33.350  30.983  1.00  0.00    -0.014 A 
BRANCH  43  44
ATOM     44  C   UNL A   1      37.732  32.695  31.670  1.00  0.00     0.031 A 
ATOM     45  C   UNL A   1      38.399  31.541  30.970  1.00  0.00     0.074 A 
ATOM     46  C   UNL A   1      38.197  33.127  32.856  1.00  0.00     0.049 A 
ATOM     47  N   UNL A   1      39.392  30.786  31.363  1.00  0.00    -0.248 NA
ATOM     48  C   UNL A   1      37.867  31.195  29.641  1.00  0.00     0.031 C 
ATOM     49  C   UNL A   1      37.674  34.265  33.606  1.00  0.00     0.029 A 
ATOM     50  N   UNL A   1      39.221  32.648  33.637  1.00  0.00    -0.354 N 
ATOM     51  C   UNL A   1      39.600  29.877  30.333  1.00  0.00     0.074 A 
ATOM     52  C   UNL A   1      38.612  30.151  29.314  1.00  0.00     0.031 C 
ATOM     53  C   UNL A   1      38.371  34.389  34.750  1.00  0.00     0.029 A 
ATOM     54  C   UNL A   1      39.368  33.320  34.825  1.00  0.00     0.049 A 
ATOM     55  H   UNL A   1      39.793  31.893  33.371  1.00  0.00     0.167 HD
ATOM     56  C   UNL A   1      40.537  28.905  30.240  1.00  0.00     0.037 A 
ATOM     57  C   UNL A   1      40.198  33.080  35.861  1.00  0.00     0.037 A 
ATOM     58  C   UNL A   1      41.512  28.627  31.261  1.00  0.00     0.049 A 
ATOM     59  C   UNL A   1      41.174  31.932  35.772  1.00  0.00     0.074 A 
ATOM     60  C   UNL A   1      42.509  27.668  31.262  1.00  0.00     0.029 A 
ATOM     61  N   UNL A   1      41.602  29.302  32.469  1.00  0.00    -0.354 N 
ATOM     62  N   UNL A   1      41.384  31.091  34.788  1.00  0.00    -0.248 NA
ATOM     63  C   UNL A   1      42.034  31.701  36.943  1.00  0.00     0.031 C 
ATOM     64  C   UNL A   1      43.162  27.722  32.497  1.00  0.00     0.029 A 
ATOM     65  C   UNL A   1      42.619  28.759  33.238  1.00  0.00     0.049 A 
ATOM     66  H   UNL A   1      41.028  30.055  32.740  1.00  0.00     0.167 HD
ATOM     67  C   UNL A   1      42.417  30.260  35.204  1.00  0.00     0.074 A 
ATOM     68  C   UNL A   1      42.802  30.704  36.526  1.00  0.00     0.031 C 
ATOM     69  C   UNL A   1      42.998  29.223  34.549  1.00  0.00     0.037 A 
BRANCH  56  70
ATOM     70  C   UNL A   1      40.525  28.047  29.008  1.00  0.00     0.064 A 
ATOM     71  C   UNL A   1      41.278  28.374  27.871  1.00  0.00     0.173 A 
ATOM     72  C   UNL A   1      39.764  26.868  28.975  1.00  0.00     0.173 A 
ATOM     73  F   UNL A   1      42.007  29.499  27.843  1.00  0.00    -0.203 F 
ATOM     74  C   UNL A   1      41.249  27.566  26.736  1.00  0.00     0.198 A 
ATOM     75  C   UNL A   1      39.764  26.047  27.851  1.00  0.00     0.198 A 
ATOM     76  F   UNL A   1      39.025  26.509  30.035  1.00  0.00    -0.203 F 
ATOM     77  F   UNL A   1      41.933  27.926  25.642  1.00  0.00    -0.200 F 
ATOM     78  C   UNL A   1      40.499  26.400  26.731  1.00  0.00     0.200 A 
ATOM     79  F   UNL A   1      39.048  24.913  27.853  1.00  0.00    -0.200 F 
ATOM     80  F   UNL A   1      40.478  25.620  25.641  1.00  0.00    -0.200 F 
ENDBRANCH  56  70
BRANCH  57  81
ATOM     81  C   UNL A   1      40.139  33.929  37.082  1.00  0.00     0.064 A 
ATOM     82  C   UNL A   1      39.230  33.657  38.115  1.00  0.00     0.173 A 
ATOM     83  C   UNL A   1      40.966  35.054  37.224  1.00  0.00     0.173 A 
ATOM     84  F   UNL A   1      38.396  32.612  38.014  1.00  0.00    -0.203 F 
ATOM     85  C   UNL A   1      39.136  34.488  39.229  1.00  0.00     0.198 A 
ATOM     86  C   UNL A   1      40.892  35.866  38.355  1.00  0.00     0.198 A 
ATOM     87  F   UNL A   1      41.849  35.367  36.263  1.00  0.00    -0.203 F 
ATOM     88  F   UNL A   1      38.219  34.236  40.174  1.00  0.00    -0.200 F 
ATOM     89  C   UNL A   1      39.971  35.588  39.352  1.00  0.00     0.200 A 
ATOM     90  F   UNL A   1      41.708  36.922  38.472  1.00  0.00    -0.200 F 
ATOM     91  F   UNL A   1      39.879  36.387  40.424  1.00  0.00    -0.200 F 
ENDBRANCH  57  81
BRANCH  69  92
ATOM     92  C   UNL A   1      44.143  28.525  35.228  1.00  0.00     0.064 A 
ATOM     93  C   UNL A   1      45.467  28.964  35.091  1.00  0.00     0.173 A 
ATOM     94  C   UNL A   1      43.901  27.426  36.071  1.00  0.00     0.173 A 
ATOM     95  F   UNL A   1      45.755  30.001  34.291  1.00  0.00    -0.203 F 
ATOM     96  C   UNL A   1      46.510  28.313  35.746  1.00  0.00     0.198 A 
ATOM     97  C   UNL A   1      44.941  26.802  36.752  1.00  0.00     0.198 A 
ATOM     98  F   UNL A   1      42.651  26.972  36.247  1.00  0.00    -0.203 F 
ATOM     99  F   UNL A   1      47.774  28.718  35.557  1.00  0.00    -0.200 F 
ATOM    100  C   UNL A   1      46.245  27.238  36.582  1.00  0.00     0.200 A 
ATOM    101  F   UNL A   1      44.680  25.776  37.575  1.00  0.00    -0.200 F 
ATOM    102  F   UNL A   1      47.248  26.620  37.220  1.00  0.00    -0.200 F 
ENDBRANCH  69  92
ENDBRANCH  43  44
ENDBRANCH  36  38
ENDBRANCH  35  36
ENDBRANCH  34  35
ENDBRANCH  33  34
ENDBRANCH  32  33
ENDBRANCH  31  32
ENDBRANCH  30  31
ENDBRANCH  29  30
ENDBRANCH   1  29
TORSDOF 25
ENDMDL
MODEL 3
REMARK VINA RESULT:      -9.9      4.478      7.357
REMARK SMILES CC[C@H]1CCC[C@H](O[C@@H]2CC[C@]([NH2+]C(C)C)(C(=O)OCCOCCOCCOCCOC(=O)c3ccc(-c4c5nc(c(-c6c(F)c(F)c(F)c(F)c6F)c6ccc([nH]6)c(-c6c(F)c(F)c(F)c(F)c6F)c6nc(c(-c7c(F)c(F)c(F)c(F)c7F)c7ccc4[nH]7)C=C6)C=C5)cc3)C2)C1
REMARK SMILES IDX 24 1 23 2 22 3 21 4 20 5 19 6 17 7 18 8 12 9 9 10 10 11
REMARK SMILES IDX 97 12 11 13 8 14 7 15 3 16 4 17 98 18 5 19 6 20 2 21 1 22
REMARK SMILES IDX 13 23 14 26 15 27 16 28 25 29 26 30 27 31 28 32 29 33 30 34
REMARK SMILES IDX 31 35 32 36 33 37 34 38 35 39 96 40 36 41 95 42 37 43 38 44
REMARK SMILES IDX 39 45 89 46 40 47 94 48 88 49 90 50 41 51 93 52 87 53 86 54
REMARK SMILES IDX 42 56 74 57 54 58 73 59 55 60 58 61 72 62 91 63 56 64 57 65
REMARK SMILES IDX 71 67 92 68 59 69 43 70 44 71 52 72 45 73 46 74 50 75 53 76
REMARK SMILES IDX 47 77 48 78 51 79 49 80 75 81 76 82 84 83 77 84 78 85 82 86
REMARK SMILES IDX 85 87 79 88 80 89 83 90 81 91 60 92 61 93 69 94 62 95 63 96
REMARK SMILES IDX 67 97 70 98 64 99 65 100 68 101 66 102
REMARK H PARENT 13 24 13 25 90 55 58 66
REMARK Flexibility Score: inf
ROOT
ATOM      1  C   UNL A   1      31.458  27.424  25.218  1.00  0.00     0.188 C 
ENDROOT
BRANCH   1   2
ATOM      2  C   UNL A   1      31.897  28.024  23.865  1.00  0.00     0.188 C 
BRANCH   2   3
ATOM      3  O   UNL A   1      31.668  27.340  22.635  1.00  0.00    -0.376 OA
BRANCH   3   4
ATOM      4  C   UNL A   1      32.221  26.052  22.431  1.00  0.00     0.202 C 
BRANCH   4   5
ATOM      5  C   UNL A   1      33.665  25.777  22.910  1.00  0.00     0.261 C 
BRANCH   5   6
ATOM      6  O   UNL A   1      34.203  24.461  22.615  1.00  0.00    -0.459 OA
BRANCH   6   7
ATOM      7  C   UNL A   1      33.386  23.431  22.900  1.00  0.00     0.368 C 
ATOM      8  O   UNL A   1      32.439  23.153  22.159  1.00  0.00    -0.245 OA
BRANCH   7   9
ATOM      9  C   UNL A   1      33.649  22.591  24.218  1.00  0.00     0.197 C 
ATOM     10  C   UNL A   1      32.493  20.553  24.898  1.00  0.00     0.125 C 
ATOM     11  C   UNL A   1      31.664  21.710  25.446  1.00  0.00     0.039 C 
ATOM     12  C   UNL A   1      33.326  21.172  23.807  1.00  0.00     0.113 C 
ATOM     13  C   UNL A   1      32.471  22.983  25.155  1.00  0.00     0.084 C 
BRANCH  10  14
ATOM     14  O   UNL A   1      31.782  19.380  24.519  1.00  0.00    -0.375 OA
BRANCH  14  15
ATOM     15  C   UNL A   1      32.436  18.105  24.375  1.00  0.00     0.118 C 
ATOM     16  C   UNL A   1      33.763  16.195  25.529  1.00  0.00    -0.009 C 
ATOM     17  C   UNL A   1      34.777  16.317  24.377  1.00  0.00     0.004 C 
ATOM     18  C   UNL A   1      32.975  17.500  25.696  1.00  0.00     0.035 C 
ATOM     19  C   UNL A   1      34.137  16.748  23.060  1.00  0.00     0.003 C 
ATOM     20  C   UNL A   1      33.418  18.081  23.200  1.00  0.00     0.032 C 
BRANCH  16  21
ATOM     21  C   UNL A   1      32.872  14.953  25.397  1.00  0.00     0.000 C 
ATOM     22  C   UNL A   1      31.795  14.867  26.471  1.00  0.00     0.004 C 
ENDBRANCH  16  21
ENDBRANCH  14  15
ENDBRANCH  10  14
BRANCH   9  23
ATOM     23  N   UNL A   1      34.953  22.690  24.961  1.00  0.00    -0.330 N 
ATOM     24  H   UNL A   1      34.774  22.324  25.896  1.00  0.00     0.347 HD
ATOM     25  H   UNL A   1      35.186  23.675  24.846  1.00  0.00     0.347 HD
BRANCH  23  26
ATOM     26  C   UNL A   1      36.197  22.020  24.482  1.00  0.00     0.176 C 
ATOM     27  C   UNL A   1      37.397  22.911  24.853  1.00  0.00     0.075 C 
ATOM     28  C   UNL A   1      36.552  20.626  25.037  1.00  0.00     0.075 C 
ENDBRANCH  23  26
ENDBRANCH   9  23
ENDBRANCH   7   9
ENDBRANCH   6   7
ENDBRANCH   5   6
ENDBRANCH   4   5
ENDBRANCH   3   4
ENDBRANCH   2   3
ENDBRANCH   1   2
BRANCH   1  29
ATOM     29  O   UNL A   1      31.427  28.355  26.280  1.00  0.00    -0.377 OA
BRANCH  29  30
ATOM     30  C   UNL A   1      32.599  28.449  27.051  1.00  0.00     0.188 C 
BRANCH  30  31
ATOM     31  C   UNL A   1      33.141  29.864  27.292  1.00  0.00     0.188 C 
BRANCH  31  32
ATOM     32  O   UNL A   1      32.766  30.792  26.280  1.00  0.00    -0.376 OA
BRANCH  32  33
ATOM     33  C   UNL A   1      31.582  31.551  26.452  1.00  0.00     0.202 C 
BRANCH  33  34
ATOM     34  C   UNL A   1      31.679  32.930  27.133  1.00  0.00     0.261 C 
BRANCH  34  35
ATOM     35  O   UNL A   1      32.982  33.515  27.256  1.00  0.00    -0.460 OA
BRANCH  35  36
ATOM     36  C   UNL A   1      33.210  34.338  28.302  1.00  0.00     0.338 C 
ATOM     37  O   UNL A   1      32.530  35.292  28.642  1.00  0.00    -0.246 OA
BRANCH  36  38
ATOM     38  C   UNL A   1      34.313  33.761  29.108  1.00  0.00     0.060 A 
ATOM     39  C   UNL A   1      35.622  34.199  28.856  1.00  0.00     0.016 A 
ATOM     40  C   UNL A   1      34.066  32.850  30.138  1.00  0.00     0.016 A 
ATOM     41  C   UNL A   1      36.687  33.708  29.614  1.00  0.00     0.010 A 
ATOM     42  C   UNL A   1      35.138  32.327  30.871  1.00  0.00     0.010 A 
ATOM     43  C   UNL A   1      36.456  32.730  30.589  1.00  0.00    -0.014 A 
BRANCH  43  44
ATOM     44  C   UNL A   1      37.606  31.958  31.123  1.00  0.00     0.031 A 
ATOM     45  C   UNL A   1      38.060  32.263  32.525  1.00  0.00     0.074 A 
ATOM     46  C   UNL A   1      38.207  30.988  30.413  1.00  0.00     0.049 A 
ATOM     47  N   UNL A   1      39.048  31.755  33.214  1.00  0.00    -0.248 NA
ATOM     48  C   UNL A   1      37.286  33.288  33.248  1.00  0.00     0.031 C 
ATOM     49  C   UNL A   1      37.827  30.561  29.070  1.00  0.00     0.029 A 
ATOM     50  N   UNL A   1      39.276  30.185  30.733  1.00  0.00    -0.354 N 
ATOM     51  C   UNL A   1      39.016  32.397  34.445  1.00  0.00     0.074 A 
ATOM     52  C   UNL A   1      37.934  33.355  34.400  1.00  0.00     0.031 C 
ATOM     53  C   UNL A   1      38.660  29.583  28.672  1.00  0.00     0.029 A 
ATOM     54  C   UNL A   1      39.650  29.337  29.720  1.00  0.00     0.049 A 
ATOM     55  H   UNL A   1      39.731  30.217  31.606  1.00  0.00     0.167 HD
ATOM     56  C   UNL A   1      39.812  32.201  35.522  1.00  0.00     0.037 A 
ATOM     57  C   UNL A   1      40.690  28.481  29.646  1.00  0.00     0.037 A 
ATOM     58  C   UNL A   1      40.895  31.255  35.560  1.00  0.00     0.049 A 
ATOM     59  C   UNL A   1      41.620  28.345  30.828  1.00  0.00     0.074 A 
ATOM     60  C   UNL A   1      41.758  30.974  36.604  1.00  0.00     0.029 A 
ATOM     61  N   UNL A   1      41.270  30.444  34.500  1.00  0.00    -0.354 N 
ATOM     62  N   UNL A   1      41.571  28.936  31.997  1.00  0.00    -0.248 NA
ATOM     63  C   UNL A   1      42.751  27.416  30.678  1.00  0.00     0.031 C 
ATOM     64  C   UNL A   1      42.695  30.039  36.155  1.00  0.00     0.029 A 
ATOM     65  C   UNL A   1      42.374  29.684  34.854  1.00  0.00     0.049 A 
ATOM     66  H   UNL A   1      40.820  30.413  33.625  1.00  0.00     0.167 HD
ATOM     67  C   UNL A   1      42.637  28.428  32.731  1.00  0.00     0.074 A 
ATOM     68  C   UNL A   1      43.308  27.470  31.879  1.00  0.00     0.031 C 
ATOM     69  C   UNL A   1      43.023  28.725  33.997  1.00  0.00     0.037 A 
BRANCH  56  70
ATOM     70  C   UNL A   1      39.563  33.054  36.732  1.00  0.00     0.064 A 
ATOM     71  C   UNL A   1      40.199  34.292  36.910  1.00  0.00     0.173 A 
ATOM     72  C   UNL A   1      38.655  32.635  37.717  1.00  0.00     0.173 A 
ATOM     73  F   UNL A   1      41.090  34.730  36.008  1.00  0.00    -0.203 F 
ATOM     74  C   UNL A   1      39.957  35.065  38.043  1.00  0.00     0.198 A 
ATOM     75  C   UNL A   1      38.391  33.426  38.831  1.00  0.00     0.198 A 
ATOM     76  F   UNL A   1      38.020  31.460  37.596  1.00  0.00    -0.203 F 
ATOM     77  F   UNL A   1      40.617  36.217  38.219  1.00  0.00    -0.200 F 
ATOM     78  C   UNL A   1      39.047  34.636  38.997  1.00  0.00     0.200 A 
ATOM     79  F   UNL A   1      37.502  33.015  39.746  1.00  0.00    -0.200 F 
ATOM     80  F   UNL A   1      38.809  35.385  40.083  1.00  0.00    -0.200 F 
ENDBRANCH  56  70
BRANCH  57  81
ATOM     81  C   UNL A   1      40.923  27.691  28.406  1.00  0.00     0.064 A 
ATOM     82  C   UNL A   1      40.291  26.456  28.199  1.00  0.00     0.173 A 
ATOM     83  C   UNL A   1      41.814  28.139  27.418  1.00  0.00     0.173 A 
ATOM     84  F   UNL A   1      39.455  25.969  29.127  1.00  0.00    -0.203 F 
ATOM     85  C   UNL A   1      40.557  25.691  27.065  1.00  0.00     0.198 A 
ATOM     86  C   UNL A   1      42.054  27.387  26.269  1.00  0.00     0.198 A 
ATOM     87  F   UNL A   1      42.452  29.309  27.567  1.00  0.00    -0.203 F 
ATOM     88  F   UNL A   1      39.983  24.489  26.921  1.00  0.00    -0.200 F 
ATOM     89  C   UNL A   1      41.434  26.160  26.098  1.00  0.00     0.200 A 
ATOM     90  F   UNL A   1      42.894  27.849  25.333  1.00  0.00    -0.200 F 
ATOM     91  F   UNL A   1      41.689  25.423  25.009  1.00  0.00    -0.200 F 
ENDBRANCH  57  81
BRANCH  69  92
ATOM     92  C   UNL A   1      44.198  27.975  34.560  1.00  0.00     0.064 A 
ATOM     93  C   UNL A   1      44.056  26.719  35.167  1.00  0.00     0.173 A 
ATOM     94  C   UNL A   1      45.495  28.503  34.443  1.00  0.00     0.173 A 
ATOM     95  F   UNL A   1      42.839  26.174  35.314  1.00  0.00    -0.203 F 
ATOM     96  C   UNL A   1      45.162  26.034  35.664  1.00  0.00     0.198 A 
ATOM     97  C   UNL A   1      46.602  27.798  34.908  1.00  0.00     0.198 A 
ATOM     98  F   UNL A   1      45.690  29.695  33.860  1.00  0.00    -0.203 F 
ATOM     99  F   UNL A   1      44.996  24.859  36.289  1.00  0.00    -0.200 F 
ATOM    100  C   UNL A   1      46.434  26.570  35.527  1.00  0.00     0.200 A 
ATOM    101  F   UNL A   1      47.832  28.309  34.756  1.00  0.00    -0.200 F 
ATOM    102  F   UNL A   1      47.498  25.904  35.995  1.00  0.00    -0.200 F 
ENDBRANCH  69  92
ENDBRANCH  43  44
ENDBRANCH  36  38
ENDBRANCH  35  36
ENDBRANCH  34  35
ENDBRANCH  33  34
ENDBRANCH  32  33
ENDBRANCH  31  32
ENDBRANCH  30  31
ENDBRANCH  29  30
ENDBRANCH   1  29
TORSDOF 25
ENDMDL
