MODEL 1
REMARK VINA RESULT:      -9.1      0.000      0.000
REMARK SMILES CC(C)[C@@H]([NH3+])C(=O)N[C@@H](Cc1ccccc1)C(=O)OCCOCCOCCOCCOC(=O)c1ccc(-c2c3nc(c(-c4c(F)c(F)c(F)c(F)c4F)c4ccc([nH]4)c(-c4c(F)c(F)c(F)c(F)c4F)c4nc(c(-c5c(F)c(F)c(F)c(F)c5F)c5ccc2[nH]5)C=C4)C=C3)cc1
REMARK SMILES IDX 24 1 23 2 22 3 21 4 20 5 19 6 17 7 18 8 9 9 8 10 6 11 7 12
REMARK SMILES IDX 4 14 2 15 1 16 3 17 5 18 10 22 11 23 12 24 16 25 13 26 15 27
REMARK SMILES IDX 14 28 25 29 26 30 27 31 28 32 29 33 30 34 31 35 32 36 33 37
REMARK SMILES IDX 34 38 35 39 96 40 36 41 95 42 37 43 38 44 39 45 89 46 40 47
REMARK SMILES IDX 94 48 88 49 90 50 41 51 93 52 87 53 86 54 42 56 74 57 54 58
REMARK SMILES IDX 73 59 55 60 58 61 72 62 91 63 56 64 57 65 71 67 92 68 59 69
REMARK SMILES IDX 43 70 44 71 52 72 45 73 46 74 50 75 53 76 47 77 48 78 51 79
REMARK SMILES IDX 49 80 75 81 76 82 84 83 77 84 78 85 82 86 85 87 79 88 80 89
REMARK SMILES IDX 83 90 81 91 60 92 61 93 69 94 62 95 63 96 67 97 70 98 64 99
REMARK SMILES IDX 65 100 68 101 66 102
REMARK H PARENT 8 13 5 19 5 20 5 21 90 55 58 66
REMARK Flexibility Score: inf
ROOT
ATOM      1  C   UNL A   1      37.830  21.982  25.649  1.00  0.00     0.188 C 
ENDROOT
BRANCH   1   2
ATOM      2  C   UNL A   1      36.506  21.222  25.423  1.00  0.00     0.188 C 
BRANCH   2   3
ATOM      3  O   UNL A   1      35.505  21.762  24.567  1.00  0.00    -0.376 OA
BRANCH   3   4
ATOM      4  C   UNL A   1      34.158  21.331  24.705  1.00  0.00     0.202 C 
BRANCH   4   5
ATOM      5  C   UNL A   1      33.110  22.267  25.322  1.00  0.00     0.261 C 
BRANCH   5   6
ATOM      6  O   UNL A   1      32.207  22.879  24.383  1.00  0.00    -0.462 OA
BRANCH   6   7
ATOM      7  C   UNL A   1      32.593  24.053  23.832  1.00  0.00     0.329 C 
ATOM      8  O   UNL A   1      33.534  24.166  23.052  1.00  0.00    -0.250 OA
BRANCH   7   9
ATOM      9  C   UNL A   1      31.844  25.284  24.389  1.00  0.00     0.196 C 
BRANCH   9  10
ATOM     10  N   UNL A   1      30.380  25.444  24.306  1.00  0.00    -0.337 N 
ATOM     11  C   UNL A   1      29.591  26.409  23.744  1.00  0.00     0.279 C 
ATOM     12  O   UNL A   1      28.366  26.281  23.860  1.00  0.00    -0.268 OA
ATOM     13  H   UNL A   1      29.874  24.717  24.735  1.00  0.00     0.164 HD
BRANCH  11  14
ATOM     14  C   UNL A   1      30.152  27.588  22.899  1.00  0.00     0.273 C 
BRANCH  14  15
ATOM     15  C   UNL A   1      30.716  28.772  23.715  1.00  0.00     0.051 C 
ATOM     16  C   UNL A   1      32.165  29.116  23.343  1.00  0.00     0.014 C 
ATOM     17  C   UNL A   1      29.838  30.014  23.527  1.00  0.00     0.014 C 
ENDBRANCH  14  15
BRANCH  14  18
ATOM     18  N   UNL A   1      31.088  27.033  21.895  1.00  0.00    -0.347 N 
ATOM     19  H   UNL A   1      30.573  26.447  21.237  1.00  0.00     0.345 HD
ATOM     20  H   UNL A   1      31.798  26.471  22.366  1.00  0.00     0.345 HD
ATOM     21  H   UNL A   1      31.538  27.796  21.389  1.00  0.00     0.345 HD
ENDBRANCH  14  18
ENDBRANCH  11  14
ENDBRANCH   9  10
BRANCH   9  22
ATOM     22  C   UNL A   1      32.283  25.443  25.866  1.00  0.00     0.072 C 
BRANCH  22  23
ATOM     23  C   UNL A   1      32.596  26.861  26.330  1.00  0.00    -0.045 A 
ATOM     24  C   UNL A   1      33.842  27.472  26.130  1.00  0.00     0.004 A 
ATOM     25  C   UNL A   1      31.597  27.612  26.965  1.00  0.00     0.004 A 
ATOM     26  C   UNL A   1      34.114  28.752  26.617  1.00  0.00     0.000 A 
ATOM     27  C   UNL A   1      31.855  28.908  27.423  1.00  0.00     0.000 A 
ATOM     28  C   UNL A   1      33.119  29.471  27.266  1.00  0.00     0.000 A 
ENDBRANCH  22  23
ENDBRANCH   9  22
ENDBRANCH   7   9
ENDBRANCH   6   7
ENDBRANCH   5   6
ENDBRANCH   4   5
ENDBRANCH   3   4
ENDBRANCH   2   3
ENDBRANCH   1   2
BRANCH   1  29
ATOM     29  O   UNL A   1      38.987  21.172  25.741  1.00  0.00    -0.377 OA
BRANCH  29  30
ATOM     30  C   UNL A   1      40.052  21.710  26.507  1.00  0.00     0.188 C 
BRANCH  30  31
ATOM     31  C   UNL A   1      41.476  21.315  26.070  1.00  0.00     0.188 C 
BRANCH  31  32
ATOM     32  O   UNL A   1      42.031  20.250  26.834  1.00  0.00    -0.376 OA
BRANCH  32  33
ATOM     33  C   UNL A   1      42.061  18.945  26.281  1.00  0.00     0.202 C 
BRANCH  33  34
ATOM     34  C   UNL A   1      43.206  18.586  25.319  1.00  0.00     0.261 C 
BRANCH  34  35
ATOM     35  O   UNL A   1      44.428  19.324  25.457  1.00  0.00    -0.460 OA
BRANCH  35  36
ATOM     36  C   UNL A   1      44.780  20.180  24.478  1.00  0.00     0.338 C 
ATOM     37  O   UNL A   1      44.925  19.936  23.293  1.00  0.00    -0.246 OA
BRANCH  36  38
ATOM     38  C   UNL A   1      44.777  21.537  25.064  1.00  0.00     0.060 A 
ATOM     39  C   UNL A   1      44.513  22.643  24.244  1.00  0.00     0.016 A 
ATOM     40  C   UNL A   1      45.026  21.707  26.427  1.00  0.00     0.016 A 
ATOM     41  C   UNL A   1      44.540  23.932  24.779  1.00  0.00     0.010 A 
ATOM     42  C   UNL A   1      45.082  22.996  26.955  1.00  0.00     0.010 A 
ATOM     43  C   UNL A   1      44.880  24.114  26.124  1.00  0.00    -0.014 A 
BRANCH  43  44
ATOM     44  C   UNL A   1      45.286  25.448  26.619  1.00  0.00     0.031 A 
ATOM     45  C   UNL A   1      44.211  26.328  27.196  1.00  0.00     0.074 A 
ATOM     46  C   UNL A   1      46.553  25.884  26.534  1.00  0.00     0.049 A 
ATOM     47  N   UNL A   1      44.258  27.587  27.544  1.00  0.00    -0.248 NA
ATOM     48  C   UNL A   1      42.894  25.697  27.392  1.00  0.00     0.031 C 
ATOM     49  C   UNL A   1      47.687  25.104  26.050  1.00  0.00     0.029 A 
ATOM     50  N   UNL A   1      47.088  27.112  26.834  1.00  0.00    -0.354 N 
ATOM     51  C   UNL A   1      42.977  27.902  27.977  1.00  0.00     0.074 A 
ATOM     52  C   UNL A   1      42.168  26.714  27.828  1.00  0.00     0.031 C 
ATOM     53  C   UNL A   1      48.783  25.882  26.058  1.00  0.00     0.029 A 
ATOM     54  C   UNL A   1      48.415  27.226  26.504  1.00  0.00     0.049 A 
ATOM     55  H   UNL A   1      46.569  27.841  27.246  1.00  0.00     0.167 HD
ATOM     56  C   UNL A   1      42.517  29.081  28.459  1.00  0.00     0.037 A 
ATOM     57  C   UNL A   1      49.222  28.306  26.524  1.00  0.00     0.037 A 
ATOM     58  C   UNL A   1      43.329  30.260  28.597  1.00  0.00     0.049 A 
ATOM     59  C   UNL A   1      48.667  29.633  26.984  1.00  0.00     0.074 A 
ATOM     60  C   UNL A   1      42.967  31.504  29.080  1.00  0.00     0.029 A 
ATOM     61  N   UNL A   1      44.668  30.340  28.241  1.00  0.00    -0.354 N 
ATOM     62  N   UNL A   1      47.458  29.929  27.401  1.00  0.00    -0.248 NA
ATOM     63  C   UNL A   1      49.589  30.778  26.973  1.00  0.00     0.031 C 
ATOM     64  C   UNL A   1      44.070  32.354  28.959  1.00  0.00     0.029 A 
ATOM     65  C   UNL A   1      45.141  31.620  28.472  1.00  0.00     0.049 A 
ATOM     66  H   UNL A   1      45.201  29.596  27.879  1.00  0.00     0.167 HD
ATOM     67  C   UNL A   1      47.488  31.276  27.743  1.00  0.00     0.074 A 
ATOM     68  C   UNL A   1      48.835  31.740  27.485  1.00  0.00     0.031 C 
ATOM     69  C   UNL A   1      46.494  32.057  28.233  1.00  0.00     0.037 A 
BRANCH  56  70
ATOM     70  C   UNL A   1      41.066  29.161  28.828  1.00  0.00     0.064 A 
ATOM     71  C   UNL A   1      40.060  29.304  27.860  1.00  0.00     0.173 A 
ATOM     72  C   UNL A   1      40.671  29.074  30.173  1.00  0.00     0.173 A 
ATOM     73  F   UNL A   1      40.382  29.411  26.561  1.00  0.00    -0.203 F 
ATOM     74  C   UNL A   1      38.719  29.386  28.226  1.00  0.00     0.198 A 
ATOM     75  C   UNL A   1      39.327  29.121  30.532  1.00  0.00     0.198 A 
ATOM     76  F   UNL A   1      41.591  28.937  31.140  1.00  0.00    -0.203 F 
ATOM     77  F   UNL A   1      37.781  29.579  27.288  1.00  0.00    -0.200 F 
ATOM     78  C   UNL A   1      38.353  29.286  29.560  1.00  0.00     0.200 A 
ATOM     79  F   UNL A   1      38.976  29.009  31.820  1.00  0.00    -0.200 F 
ATOM     80  F   UNL A   1      37.062  29.356  29.909  1.00  0.00    -0.200 F 
ENDBRANCH  56  70
BRANCH  57  81
ATOM     81  C   UNL A   1      50.636  28.190  26.076  1.00  0.00     0.064 A 
ATOM     82  C   UNL A   1      50.962  28.166  24.713  1.00  0.00     0.173 A 
ATOM     83  C   UNL A   1      51.687  28.073  26.997  1.00  0.00     0.173 A 
ATOM     84  F   UNL A   1      49.991  28.247  23.791  1.00  0.00    -0.203 F 
ATOM     85  C   UNL A   1      52.280  28.006  24.288  1.00  0.00     0.198 A 
ATOM     86  C   UNL A   1      53.008  27.947  26.573  1.00  0.00     0.198 A 
ATOM     87  F   UNL A   1      51.432  28.088  28.314  1.00  0.00    -0.203 F 
ATOM     88  F   UNL A   1      52.556  27.930  22.979  1.00  0.00    -0.200 F 
ATOM     89  C   UNL A   1      53.303  27.903  25.219  1.00  0.00     0.200 A 
ATOM     90  F   UNL A   1      53.995  27.863  27.476  1.00  0.00    -0.200 F 
ATOM     91  F   UNL A   1      54.570  27.751  24.811  1.00  0.00    -0.200 F 
ENDBRANCH  57  81
BRANCH  69  92
ATOM     92  C   UNL A   1      46.832  33.476  28.597  1.00  0.00     0.064 A 
ATOM     93  C   UNL A   1      46.674  34.535  27.693  1.00  0.00     0.173 A 
ATOM     94  C   UNL A   1      47.259  33.782  29.899  1.00  0.00     0.173 A 
ATOM     95  F   UNL A   1      46.280  34.295  26.434  1.00  0.00    -0.203 F 
ATOM     96  C   UNL A   1      46.953  35.846  28.072  1.00  0.00     0.198 A 
ATOM     97  C   UNL A   1      47.502  35.097  30.285  1.00  0.00     0.198 A 
ATOM     98  F   UNL A   1      47.417  32.806  30.807  1.00  0.00    -0.203 F 
ATOM     99  F   UNL A   1      46.839  36.838  27.179  1.00  0.00    -0.200 F 
ATOM    100  C   UNL A   1      47.357  36.126  29.370  1.00  0.00     0.200 A 
ATOM    101  F   UNL A   1      47.872  35.366  31.545  1.00  0.00    -0.200 F 
ATOM    102  F   UNL A   1      47.608  37.390  29.736  1.00  0.00    -0.200 F 
ENDBRANCH  69  92
ENDBRANCH  43  44
ENDBRANCH  36  38
ENDBRANCH  35  36
ENDBRANCH  34  35
ENDBRANCH  33  34
ENDBRANCH  32  33
ENDBRANCH  31  32
ENDBRANCH  30  31
ENDBRANCH  29  30
ENDBRANCH   1  29
TORSDOF 26
ENDMDL
MODEL 2
REMARK VINA RESULT:      -9.0      1.468      7.398
REMARK SMILES CC(C)[C@@H]([NH3+])C(=O)N[C@@H](Cc1ccccc1)C(=O)OCCOCCOCCOCCOC(=O)c1ccc(-c2c3nc(c(-c4c(F)c(F)c(F)c(F)c4F)c4ccc([nH]4)c(-c4c(F)c(F)c(F)c(F)c4F)c4nc(c(-c5c(F)c(F)c(F)c(F)c5F)c5ccc2[nH]5)C=C4)C=C3)cc1
REMARK SMILES IDX 24 1 23 2 22 3 21 4 20 5 19 6 17 7 18 8 9 9 8 10 6 11 7 12
REMARK SMILES IDX 4 14 2 15 1 16 3 17 5 18 10 22 11 23 12 24 16 25 13 26 15 27
REMARK SMILES IDX 14 28 25 29 26 30 27 31 28 32 29 33 30 34 31 35 32 36 33 37
REMARK SMILES IDX 34 38 35 39 96 40 36 41 95 42 37 43 38 44 39 45 89 46 40 47
REMARK SMILES IDX 94 48 88 49 90 50 41 51 93 52 87 53 86 54 42 56 74 57 54 58
REMARK SMILES IDX 73 59 55 60 58 61 72 62 91 63 56 64 57 65 71 67 92 68 59 69
REMARK SMILES IDX 43 70 44 71 52 72 45 73 46 74 50 75 53 76 47 77 48 78 51 79
REMARK SMILES IDX 49 80 75 81 76 82 84 83 77 84 78 85 82 86 85 87 79 88 80 89
REMARK SMILES IDX 83 90 81 91 60 92 61 93 69 94 62 95 63 96 67 97 70 98 64 99
REMARK SMILES IDX 65 100 68 101 66 102
REMARK H PARENT 8 13 5 19 5 20 5 21 90 55 58 66
REMARK Flexibility Score: inf
ROOT
ATOM      1  C   UNL A   1      37.758  22.534  25.401  1.00  0.00     0.188 C 
ENDROOT
BRANCH   1   2
ATOM      2  C   UNL A   1      36.681  21.479  25.733  1.00  0.00     0.188 C 
BRANCH   2   3
ATOM      3  O   UNL A   1      35.659  21.175  24.790  1.00  0.00    -0.376 OA
BRANCH   3   4
ATOM      4  C   UNL A   1      35.147  19.851  24.714  1.00  0.00     0.202 C 
BRANCH   4   5
ATOM      5  C   UNL A   1      33.645  19.596  24.893  1.00  0.00     0.261 C 
BRANCH   5   6
ATOM      6  O   UNL A   1      32.839  20.776  25.070  1.00  0.00    -0.462 OA
BRANCH   6   7
ATOM      7  C   UNL A   1      32.492  21.459  23.955  1.00  0.00     0.329 C 
ATOM      8  O   UNL A   1      32.115  20.925  22.916  1.00  0.00    -0.250 OA
BRANCH   7   9
ATOM      9  C   UNL A   1      32.761  22.977  24.040  1.00  0.00     0.196 C 
BRANCH   9  10
ATOM     10  N   UNL A   1      33.977  23.549  24.648  1.00  0.00    -0.337 N 
ATOM     11  C   UNL A   1      34.163  24.485  25.627  1.00  0.00     0.279 C 
ATOM     12  O   UNL A   1      35.329  24.786  25.913  1.00  0.00    -0.268 OA
ATOM     13  H   UNL A   1      34.815  23.188  24.279  1.00  0.00     0.164 HD
BRANCH  11  14
ATOM     14  C   UNL A   1      32.998  25.105  26.451  1.00  0.00     0.273 C 
BRANCH  14  15
ATOM     15  C   UNL A   1      32.377  26.384  25.850  1.00  0.00     0.051 C 
ATOM     16  C   UNL A   1      30.879  26.520  26.154  1.00  0.00     0.014 C 
ATOM     17  C   UNL A   1      33.111  27.626  26.367  1.00  0.00     0.014 C 
ENDBRANCH  14  15
BRANCH  14  18
ATOM     18  N   UNL A   1      32.023  24.032  26.753  1.00  0.00    -0.347 N 
ATOM     19  H   UNL A   1      31.083  24.350  26.515  1.00  0.00     0.345 HD
ATOM     20  H   UNL A   1      32.064  23.806  27.747  1.00  0.00     0.345 HD
ATOM     21  H   UNL A   1      32.250  23.202  26.205  1.00  0.00     0.345 HD
ENDBRANCH  14  18
ENDBRANCH  11  14
ENDBRANCH   9  10
BRANCH   9  22
ATOM     22  C   UNL A   1      32.604  23.540  22.606  1.00  0.00     0.072 C 
BRANCH  22  23
ATOM     23  C   UNL A   1      32.471  25.054  22.484  1.00  0.00    -0.045 A 
ATOM     24  C   UNL A   1      33.573  25.905  22.313  1.00  0.00     0.004 A 
ATOM     25  C   UNL A   1      31.197  25.637  22.514  1.00  0.00     0.004 A 
ATOM     26  C   UNL A   1      33.421  27.292  22.261  1.00  0.00     0.000 A 
ATOM     27  C   UNL A   1      31.039  27.023  22.426  1.00  0.00     0.000 A 
ATOM     28  C   UNL A   1      32.153  27.853  22.319  1.00  0.00     0.000 A 
ENDBRANCH  22  23
ENDBRANCH   9  22
ENDBRANCH   7   9
ENDBRANCH   6   7
ENDBRANCH   5   6
ENDBRANCH   4   5
ENDBRANCH   3   4
ENDBRANCH   2   3
ENDBRANCH   1   2
BRANCH   1  29
ATOM     29  O   UNL A   1      38.667  22.824  26.446  1.00  0.00    -0.377 OA
BRANCH  29  30
ATOM     30  C   UNL A   1      39.972  22.293  26.287  1.00  0.00     0.188 C 
BRANCH  30  31
ATOM     31  C   UNL A   1      40.505  21.429  27.446  1.00  0.00     0.188 C 
BRANCH  31  32
ATOM     32  O   UNL A   1      41.764  20.824  27.173  1.00  0.00    -0.376 OA
BRANCH  32  33
ATOM     33  C   UNL A   1      41.940  20.109  25.961  1.00  0.00     0.202 C 
BRANCH  33  34
ATOM     34  C   UNL A   1      42.871  18.884  25.966  1.00  0.00     0.261 C 
BRANCH  34  35
ATOM     35  O   UNL A   1      44.239  19.105  25.601  1.00  0.00    -0.460 OA
BRANCH  35  36
ATOM     36  C   UNL A   1      44.506  19.716  24.430  1.00  0.00     0.338 C 
ATOM     37  O   UNL A   1      44.293  19.297  23.307  1.00  0.00    -0.246 OA
BRANCH  36  38
ATOM     38  C   UNL A   1      44.935  21.095  24.748  1.00  0.00     0.060 A 
ATOM     39  C   UNL A   1      45.407  21.392  26.034  1.00  0.00     0.016 A 
ATOM     40  C   UNL A   1      44.879  22.085  23.766  1.00  0.00     0.016 A 
ATOM     41  C   UNL A   1      45.784  22.697  26.356  1.00  0.00     0.010 A 
ATOM     42  C   UNL A   1      45.227  23.394  24.095  1.00  0.00     0.010 A 
ATOM     43  C   UNL A   1      45.642  23.712  25.403  1.00  0.00    -0.014 A 
BRANCH  43  44
ATOM     44  C   UNL A   1      45.665  25.133  25.814  1.00  0.00     0.031 A 
ATOM     45  C   UNL A   1      46.989  25.845  25.769  1.00  0.00     0.074 A 
ATOM     46  C   UNL A   1      44.562  25.768  26.244  1.00  0.00     0.049 A 
ATOM     47  N   UNL A   1      47.320  27.024  26.224  1.00  0.00    -0.248 NA
ATOM     48  C   UNL A   1      48.096  25.112  25.131  1.00  0.00     0.031 C 
ATOM     49  C   UNL A   1      43.217  25.202  26.276  1.00  0.00     0.029 A 
ATOM     50  N   UNL A   1      44.413  27.030  26.762  1.00  0.00    -0.354 N 
ATOM     51  C   UNL A   1      48.674  27.163  25.949  1.00  0.00     0.074 A 
ATOM     52  C   UNL A   1      49.110  25.943  25.310  1.00  0.00     0.031 C 
ATOM     53  C   UNL A   1      42.380  26.106  26.816  1.00  0.00     0.029 A 
ATOM     54  C   UNL A   1      43.142  27.292  27.208  1.00  0.00     0.049 A 
ATOM     55  H   UNL A   1      45.148  27.685  26.809  1.00  0.00     0.167 HD
ATOM     56  C   UNL A   1      49.482  28.219  26.208  1.00  0.00     0.037 A 
ATOM     57  C   UNL A   1      42.666  28.354  27.889  1.00  0.00     0.037 A 
ATOM     58  C   UNL A   1      49.039  29.426  26.851  1.00  0.00     0.049 A 
ATOM     59  C   UNL A   1      43.604  29.484  28.242  1.00  0.00     0.074 A 
ATOM     60  C   UNL A   1      49.771  30.559  27.155  1.00  0.00     0.029 A 
ATOM     61  N   UNL A   1      47.745  29.650  27.299  1.00  0.00    -0.354 N 
ATOM     62  N   UNL A   1      44.881  29.619  27.975  1.00  0.00    -0.248 NA
ATOM     63  C   UNL A   1      43.032  30.609  28.996  1.00  0.00     0.031 C 
ATOM     64  C   UNL A   1      48.935  31.444  27.841  1.00  0.00     0.029 A 
ATOM     65  C   UNL A   1      47.664  30.896  27.898  1.00  0.00     0.049 A 
ATOM     66  H   UNL A   1      46.997  29.018  27.204  1.00  0.00     0.167 HD
ATOM     67  C   UNL A   1      45.252  30.857  28.485  1.00  0.00     0.074 A 
ATOM     68  C   UNL A   1      44.065  31.435  29.079  1.00  0.00     0.031 C 
ATOM     69  C   UNL A   1      46.464  31.465  28.459  1.00  0.00     0.037 A 
BRANCH  56  70
ATOM     70  C   UNL A   1      50.929  28.093  25.832  1.00  0.00     0.064 A 
ATOM     71  C   UNL A   1      51.915  27.766  26.776  1.00  0.00     0.173 A 
ATOM     72  C   UNL A   1      51.334  28.284  24.502  1.00  0.00     0.173 A 
ATOM     73  F   UNL A   1      51.585  27.592  28.065  1.00  0.00    -0.203 F 
ATOM     74  C   UNL A   1      53.254  27.665  26.408  1.00  0.00     0.198 A 
ATOM     75  C   UNL A   1      52.669  28.147  24.131  1.00  0.00     0.198 A 
ATOM     76  F   UNL A   1      50.434  28.598  23.559  1.00  0.00    -0.203 F 
ATOM     77  F   UNL A   1      54.184  27.407  27.337  1.00  0.00    -0.200 F 
ATOM     78  C   UNL A   1      53.628  27.846  25.085  1.00  0.00     0.200 A 
ATOM     79  F   UNL A   1      53.025  28.308  22.850  1.00  0.00    -0.200 F 
ATOM     80  F   UNL A   1      54.916  27.739  24.731  1.00  0.00    -0.200 F 
ENDBRANCH  56  70
BRANCH  57  81
ATOM     81  C   UNL A   1      41.237  28.396  28.302  1.00  0.00     0.064 A 
ATOM     82  C   UNL A   1      40.262  28.964  27.470  1.00  0.00     0.173 A 
ATOM     83  C   UNL A   1      40.821  27.898  29.545  1.00  0.00     0.173 A 
ATOM     84  F   UNL A   1      40.613  29.480  26.283  1.00  0.00    -0.203 F 
ATOM     85  C   UNL A   1      38.931  29.053  27.875  1.00  0.00     0.198 A 
ATOM     86  C   UNL A   1      39.484  27.956  29.935  1.00  0.00     0.198 A 
ATOM     87  F   UNL A   1      41.712  27.346  30.382  1.00  0.00    -0.203 F 
ATOM     88  F   UNL A   1      38.030  29.650  27.083  1.00  0.00    -0.200 F 
ATOM     89  C   UNL A   1      38.542  28.542  29.104  1.00  0.00     0.200 A 
ATOM     90  F   UNL A   1      39.110  27.448  31.117  1.00  0.00    -0.200 F 
ATOM     91  F   UNL A   1      37.263  28.625  29.492  1.00  0.00    -0.200 F 
ENDBRANCH  57  81
BRANCH  69  92
ATOM     92  C   UNL A   1      46.562  32.856  29.021  1.00  0.00     0.064 A 
ATOM     93  C   UNL A   1      46.308  33.994  28.243  1.00  0.00     0.173 A 
ATOM     94  C   UNL A   1      46.853  33.043  30.382  1.00  0.00     0.173 A 
ATOM     95  F   UNL A   1      46.037  33.872  26.935  1.00  0.00    -0.203 F 
ATOM     96  C   UNL A   1      46.364  35.269  28.802  1.00  0.00     0.198 A 
ATOM     97  C   UNL A   1      46.872  34.316  30.945  1.00  0.00     0.198 A 
ATOM     98  F   UNL A   1      47.095  31.987  31.174  1.00  0.00    -0.203 F 
ATOM     99  F   UNL A   1      46.161  36.345  28.031  1.00  0.00    -0.200 F 
ATOM    100  C   UNL A   1      46.635  35.428  30.153  1.00  0.00     0.200 A 
ATOM    101  F   UNL A   1      47.115  34.464  32.255  1.00  0.00    -0.200 F 
ATOM    102  F   UNL A   1      46.671  36.654  30.692  1.00  0.00    -0.200 F 
ENDBRANCH  69  92
ENDBRANCH  43  44
ENDBRANCH  36  38
ENDBRANCH  35  36
ENDBRANCH  34  35
ENDBRANCH  33  34
ENDBRANCH  32  33
ENDBRANCH  31  32
ENDBRANCH  30  31
ENDBRANCH  29  30
ENDBRANCH   1  29
TORSDOF 26
ENDMDL
MODEL 3
REMARK VINA RESULT:      -8.8      6.680     12.031
REMARK SMILES CC(C)[C@@H]([NH3+])C(=O)N[C@@H](Cc1ccccc1)C(=O)OCCOCCOCCOCCOC(=O)c1ccc(-c2c3nc(c(-c4c(F)c(F)c(F)c(F)c4F)c4ccc([nH]4)c(-c4c(F)c(F)c(F)c(F)c4F)c4nc(c(-c5c(F)c(F)c(F)c(F)c5F)c5ccc2[nH]5)C=C4)C=C3)cc1
REMARK SMILES IDX 24 1 23 2 22 3 21 4 20 5 19 6 17 7 18 8 9 9 8 10 6 11 7 12
REMARK SMILES IDX 4 14 2 15 1 16 3 17 5 18 10 22 11 23 12 24 16 25 13 26 15 27
REMARK SMILES IDX 14 28 25 29 26 30 27 31 28 32 29 33 30 34 31 35 32 36 33 37
REMARK SMILES IDX 34 38 35 39 96 40 36 41 95 42 37 43 38 44 39 45 89 46 40 47
REMARK SMILES IDX 94 48 88 49 90 50 41 51 93 52 87 53 86 54 42 56 74 57 54 58
REMARK SMILES IDX 73 59 55 60 58 61 72 62 91 63 56 64 57 65 71 67 92 68 59 69
REMARK SMILES IDX 43 70 44 71 52 72 45 73 46 74 50 75 53 76 47 77 48 78 51 79
REMARK SMILES IDX 49 80 75 81 76 82 84 83 77 84 78 85 82 86 85 87 79 88 80 89
REMARK SMILES IDX 83 90 81 91 60 92 61 93 69 94 62 95 63 96 67 97 70 98 64 99
REMARK SMILES IDX 65 100 68 101 66 102
REMARK H PARENT 8 13 5 19 5 20 5 21 90 55 58 66
REMARK Flexibility Score: inf
ROOT
ATOM      1  C   UNL A   1      33.835  31.061  27.504  1.00  0.00     0.188 C 
ENDROOT
BRANCH   1   2
ATOM      2  C   UNL A   1      32.422  30.793  26.943  1.00  0.00     0.188 C 
BRANCH   2   3
ATOM      3  O   UNL A   1      32.171  29.636  26.153  1.00  0.00    -0.376 OA
BRANCH   3   4
ATOM      4  C   UNL A   1      31.634  29.784  24.845  1.00  0.00     0.202 C 
BRANCH   4   5
ATOM      5  C   UNL A   1      30.849  28.634  24.200  1.00  0.00     0.261 C 
BRANCH   5   6
ATOM      6  O   UNL A   1      30.577  27.517  25.066  1.00  0.00    -0.462 OA
BRANCH   6   7
ATOM      7  C   UNL A   1      30.302  26.331  24.476  1.00  0.00     0.329 C 
ATOM      8  O   UNL A   1      29.167  25.950  24.202  1.00  0.00    -0.250 OA
BRANCH   7   9
ATOM      9  C   UNL A   1      31.531  25.411  24.312  1.00  0.00     0.196 C 
BRANCH   9  10
ATOM     10  N   UNL A   1      32.343  25.360  23.081  1.00  0.00    -0.337 N 
ATOM     11  C   UNL A   1      32.813  24.318  22.332  1.00  0.00     0.279 C 
ATOM     12  O   UNL A   1      33.504  24.593  21.344  1.00  0.00    -0.268 OA
ATOM     13  H   UNL A   1      32.593  26.245  22.731  1.00  0.00     0.164 HD
BRANCH  11  14
ATOM     14  C   UNL A   1      32.443  22.831  22.606  1.00  0.00     0.273 C 
BRANCH  14  15
ATOM     15  C   UNL A   1      33.266  22.144  23.718  1.00  0.00     0.051 C 
ATOM     16  C   UNL A   1      32.888  20.671  23.916  1.00  0.00     0.014 C 
ATOM     17  C   UNL A   1      34.764  22.244  23.410  1.00  0.00     0.014 C 
ENDBRANCH  14  15
BRANCH  14  18
ATOM     18  N   UNL A   1      30.976  22.746  22.786  1.00  0.00    -0.347 N 
ATOM     19  H   UNL A   1      30.574  22.186  22.034  1.00  0.00     0.345 HD
ATOM     20  H   UNL A   1      30.575  23.684  22.762  1.00  0.00     0.345 HD
ATOM     21  H   UNL A   1      30.768  22.308  23.684  1.00  0.00     0.345 HD
ENDBRANCH  14  18
ENDBRANCH  11  14
ENDBRANCH   9  10
BRANCH   9  22
ATOM     22  C   UNL A   1      32.464  25.693  25.516  1.00  0.00     0.072 C 
BRANCH  22  23
ATOM     23  C   UNL A   1      33.020  24.472  26.241  1.00  0.00    -0.045 A 
ATOM     24  C   UNL A   1      34.392  24.192  26.320  1.00  0.00     0.004 A 
ATOM     25  C   UNL A   1      32.138  23.595  26.886  1.00  0.00     0.004 A 
ATOM     26  C   UNL A   1      34.865  23.035  26.944  1.00  0.00     0.000 A 
ATOM     27  C   UNL A   1      32.611  22.455  27.542  1.00  0.00     0.000 A 
ATOM     28  C   UNL A   1      33.973  22.164  27.555  1.00  0.00     0.000 A 
ENDBRANCH  22  23
ENDBRANCH   9  22
ENDBRANCH   7   9
ENDBRANCH   6   7
ENDBRANCH   5   6
ENDBRANCH   4   5
ENDBRANCH   3   4
ENDBRANCH   2   3
ENDBRANCH   1   2
BRANCH   1  29
ATOM     29  O   UNL A   1      34.071  32.384  27.948  1.00  0.00    -0.377 OA
BRANCH  29  30
ATOM     30  C   UNL A   1      35.348  32.621  28.516  1.00  0.00     0.188 C 
BRANCH  30  31
ATOM     31  C   UNL A   1      35.737  34.095  28.734  1.00  0.00     0.188 C 
BRANCH  31  32
ATOM     32  O   UNL A   1      34.904  35.013  28.035  1.00  0.00    -0.376 OA
BRANCH  32  33
ATOM     33  C   UNL A   1      34.118  35.934  28.773  1.00  0.00     0.202 C 
BRANCH  33  34
ATOM     34  C   UNL A   1      32.912  35.396  29.562  1.00  0.00     0.261 C 
BRANCH  34  35
ATOM     35  O   UNL A   1      33.187  34.472  30.623  1.00  0.00    -0.460 OA
BRANCH  35  36
ATOM     36  C   UNL A   1      33.090  34.902  31.896  1.00  0.00     0.338 C 
ATOM     37  O   UNL A   1      32.107  35.351  32.456  1.00  0.00    -0.246 OA
BRANCH  36  38
ATOM     38  C   UNL A   1      34.359  34.552  32.570  1.00  0.00     0.060 A 
ATOM     39  C   UNL A   1      35.503  35.326  32.330  1.00  0.00     0.016 A 
ATOM     40  C   UNL A   1      34.405  33.466  33.445  1.00  0.00     0.016 A 
ATOM     41  C   UNL A   1      36.715  34.986  32.936  1.00  0.00     0.010 A 
ATOM     42  C   UNL A   1      35.622  33.110  34.026  1.00  0.00     0.010 A 
ATOM     43  C   UNL A   1      36.788  33.844  33.741  1.00  0.00    -0.014 A 
BRANCH  43  44
ATOM     44  C   UNL A   1      38.101  33.249  34.078  1.00  0.00     0.031 A 
ATOM     45  C   UNL A   1      38.648  32.205  33.144  1.00  0.00     0.074 A 
ATOM     46  C   UNL A   1      38.775  33.594  35.188  1.00  0.00     0.049 A 
ATOM     47  N   UNL A   1      39.679  31.415  33.284  1.00  0.00    -0.248 NA
ATOM     48  C   UNL A   1      37.914  32.020  31.880  1.00  0.00     0.031 C 
ATOM     49  C   UNL A   1      38.375  34.630  36.134  1.00  0.00     0.029 A 
ATOM     50  N   UNL A   1      39.933  33.079  35.715  1.00  0.00    -0.354 N 
ATOM     51  C   UNL A   1      39.704  30.627  32.141  1.00  0.00     0.074 A 
ATOM     52  C   UNL A   1      38.574  31.015  31.328  1.00  0.00     0.031 C 
ATOM     53  C   UNL A   1      39.261  34.657  37.146  1.00  0.00     0.029 A 
ATOM     54  C   UNL A   1      40.259  33.608  36.938  1.00  0.00     0.049 A 
ATOM     55  H   UNL A   1      40.477  32.396  35.259  1.00  0.00     0.167 HD
ATOM     56  C   UNL A   1      40.593  29.665  31.801  1.00  0.00     0.037 A 
ATOM     57  C   UNL A   1      41.231  33.253  37.802  1.00  0.00     0.037 A 
ATOM     58  C   UNL A   1      41.710  29.281  32.622  1.00  0.00     0.049 A 
ATOM     59  C   UNL A   1      42.161  32.120  37.441  1.00  0.00     0.074 A 
ATOM     60  C   UNL A   1      42.677  28.325  32.371  1.00  0.00     0.029 A 
ATOM     61  N   UNL A   1      42.002  29.833  33.861  1.00  0.00    -0.354 N 
ATOM     62  N   UNL A   1      42.190  31.381  36.357  1.00  0.00    -0.248 NA
ATOM     63  C   UNL A   1      43.193  31.769  38.427  1.00  0.00     0.031 C 
ATOM     64  C   UNL A   1      43.518  28.255  33.485  1.00  0.00     0.029 A 
ATOM     65  C   UNL A   1      43.122  29.220  34.397  1.00  0.00     0.049 A 
ATOM     66  H   UNL A   1      41.490  30.554  34.293  1.00  0.00     0.167 HD
ATOM     67  C   UNL A   1      43.265  30.513  36.511  1.00  0.00     0.074 A 
ATOM     68  C   UNL A   1      43.864  30.817  37.794  1.00  0.00     0.031 C 
ATOM     69  C   UNL A   1      43.720  29.556  35.665  1.00  0.00     0.037 A 
BRANCH  56  70
ATOM     70  C   UNL A   1      40.366  28.936  30.510  1.00  0.00     0.064 A 
ATOM     71  C   UNL A   1      40.854  29.422  29.287  1.00  0.00     0.173 A 
ATOM     72  C   UNL A   1      39.665  27.720  30.498  1.00  0.00     0.173 A 
ATOM     73  F   UNL A   1      41.514  30.589  29.239  1.00  0.00    -0.203 F 
ATOM     74  C   UNL A   1      40.622  28.734  28.099  1.00  0.00     0.198 A 
ATOM     75  C   UNL A   1      39.466  27.017  29.312  1.00  0.00     0.198 A 
ATOM     76  F   UNL A   1      39.176  27.209  31.638  1.00  0.00    -0.203 F 
ATOM     77  F   UNL A   1      41.049  29.246  26.937  1.00  0.00    -0.200 F 
ATOM     78  C   UNL A   1      39.937  27.528  28.114  1.00  0.00     0.200 A 
ATOM     79  F   UNL A   1      38.816  25.845  29.333  1.00  0.00    -0.200 F 
ATOM     80  F   UNL A   1      39.723  26.863  26.970  1.00  0.00    -0.200 F 
ENDBRANCH  56  70
BRANCH  57  81
ATOM     81  C   UNL A   1      41.368  33.961  39.104  1.00  0.00     0.064 A 
ATOM     82  C   UNL A   1      42.242  35.048  39.246  1.00  0.00     0.173 A 
ATOM     83  C   UNL A   1      40.651  33.551  40.238  1.00  0.00     0.173 A 
ATOM     84  F   UNL A   1      42.971  35.462  38.199  1.00  0.00    -0.203 F 
ATOM     85  C   UNL A   1      42.412  35.681  40.476  1.00  0.00     0.198 A 
ATOM     86  C   UNL A   1      40.796  34.206  41.459  1.00  0.00     0.198 A 
ATOM     87  F   UNL A   1      39.803  32.515  40.159  1.00  0.00    -0.203 F 
ATOM     88  F   UNL A   1      43.295  36.682  40.597  1.00  0.00    -0.200 F 
ATOM     89  C   UNL A   1      41.684  35.264  41.581  1.00  0.00     0.200 A 
ATOM     90  F   UNL A   1      40.079  33.809  42.519  1.00  0.00    -0.200 F 
ATOM     91  F   UNL A   1      41.845  35.874  42.762  1.00  0.00    -0.200 F 
ENDBRANCH  57  81
BRANCH  69  92
ATOM     92  C   UNL A   1      44.967  28.812  36.054  1.00  0.00     0.064 A 
ATOM     93  C   UNL A   1      44.925  27.611  36.776  1.00  0.00     0.173 A 
ATOM     94  C   UNL A   1      46.222  29.283  35.636  1.00  0.00     0.173 A 
ATOM     95  F   UNL A   1      43.753  27.124  37.209  1.00  0.00    -0.203 F 
ATOM     96  C   UNL A   1      46.095  26.922  37.084  1.00  0.00     0.198 A 
ATOM     97  C   UNL A   1      47.386  28.573  35.914  1.00  0.00     0.198 A 
ATOM     98  F   UNL A   1      46.318  30.423  34.934  1.00  0.00    -0.203 F 
ATOM     99  F   UNL A   1      46.036  25.799  37.813  1.00  0.00    -0.200 F 
ATOM    100  C   UNL A   1      47.323  27.397  36.644  1.00  0.00     0.200 A 
ATOM    101  F   UNL A   1      48.568  29.024  35.471  1.00  0.00    -0.200 F 
ATOM    102  F   UNL A   1      48.445  26.722  36.928  1.00  0.00    -0.200 F 
ENDBRANCH  69  92
ENDBRANCH  43  44
ENDBRANCH  36  38
ENDBRANCH  35  36
ENDBRANCH  34  35
ENDBRANCH  33  34
ENDBRANCH  32  33
ENDBRANCH  31  32
ENDBRANCH  30  31
ENDBRANCH  29  30
ENDBRANCH   1  29
TORSDOF 26
ENDMDL
