MODEL 1
REMARK VINA RESULT:     -10.7      0.000      0.000
REMARK SMILES Cc1[nH]c2ccccc2c1[C@@H](C(=O)OCCOCCOCCOCCOC(=O)c1ccc(-c2c3nc(c(-c4c(F)c(F)c(F)c(F)c4F)c4ccc([nH]4)c(-c4c(F)c(F)c(F)c(F)c4F)c4nc(c(-c5c(F)c(F)c(F)c(F)c5F)c5ccc2[nH]5)C=C4)C=C3)cc1)[NH+]1CCCC1
REMARK SMILES IDX 21 1 20 2 19 3 18 4 17 5 16 6 15 7 14 8 12 9 13 10 11 11
REMARK SMILES IDX 10 12 1 13 2 14 3 15 4 16 9 18 5 19 8 20 6 21 7 22 92 23
REMARK SMILES IDX 93 24 96 25 94 27 95 28 22 29 23 30 24 31 25 32 26 33 27 34
REMARK SMILES IDX 28 35 29 36 30 37 91 38 31 39 90 40 32 41 33 42 34 43 84 44
REMARK SMILES IDX 35 45 89 46 83 47 85 48 36 49 88 50 82 51 81 52 37 54 69 55
REMARK SMILES IDX 49 56 68 57 50 58 53 59 67 60 86 61 51 62 52 63 66 65 87 66
REMARK SMILES IDX 54 67 38 68 39 69 47 70 40 71 41 72 45 73 48 74 42 75 43 76
REMARK SMILES IDX 46 77 44 78 70 79 71 80 79 81 72 82 73 83 77 84 80 85 74 86
REMARK SMILES IDX 75 87 78 88 76 89 55 90 56 91 64 92 57 93 58 94 62 95 65 96
REMARK SMILES IDX 59 97 60 98 63 99 61 100
REMARK H PARENT 3 17 92 26 85 53 53 64
REMARK Flexibility Score: inf
ROOT
ATOM      1  C   UNL A   1      37.269  23.405  25.042  1.00  0.00     0.188 C 
ENDROOT
BRANCH   1   2
ATOM      2  O   UNL A   1      35.906  23.758  25.154  1.00  0.00    -0.377 OA
BRANCH   2   3
ATOM      3  C   UNL A   1      35.154  23.002  26.080  1.00  0.00     0.188 C 
BRANCH   3   4
ATOM      4  C   UNL A   1      34.238  21.941  25.452  1.00  0.00     0.188 C 
BRANCH   4   5
ATOM      5  O   UNL A   1      33.052  22.320  24.762  1.00  0.00    -0.376 OA
BRANCH   5   6
ATOM      6  C   UNL A   1      31.784  21.910  25.245  1.00  0.00     0.202 C 
BRANCH   6   7
ATOM      7  C   UNL A   1      30.829  22.970  25.828  1.00  0.00     0.261 C 
BRANCH   7   8
ATOM      8  O   UNL A   1      31.406  24.133  26.464  1.00  0.00    -0.459 OA
BRANCH   8   9
ATOM      9  C   UNL A   1      30.838  25.330  26.127  1.00  0.00     0.370 C 
ATOM     10  O   UNL A   1      29.678  25.606  26.440  1.00  0.00    -0.245 OA
BRANCH   9  11
ATOM     11  C   UNL A   1      31.707  26.250  25.213  1.00  0.00     0.328 C 
BRANCH  11  12
ATOM     12  C   UNL A   1      31.257  27.685  24.829  1.00  0.00     0.049 A 
ATOM     13  C   UNL A   1      33.416  28.967  25.652  1.00  0.00     0.065 C 
ATOM     14  C   UNL A   1      32.065  28.809  25.049  1.00  0.00     0.022 A 
ATOM     15  N   UNL A   1      31.446  29.918  24.539  1.00  0.00    -0.358 N 
ATOM     16  C   UNL A   1      30.284  29.583  23.907  1.00  0.00     0.046 A 
ATOM     17  H   UNL A   1      31.793  30.836  24.618  1.00  0.00     0.166 HD
ATOM     18  C   UNL A   1      30.099  28.207  24.083  1.00  0.00     0.009 A 
ATOM     19  C   UNL A   1      29.407  30.415  23.189  1.00  0.00     0.027 A 
ATOM     20  C   UNL A   1      28.915  27.684  23.504  1.00  0.00     0.011 A 
ATOM     21  C   UNL A   1      28.286  29.842  22.597  1.00  0.00     0.002 A 
ATOM     22  C   UNL A   1      28.041  28.488  22.751  1.00  0.00     0.001 A 
ENDBRANCH  11  12
BRANCH  11  23
ATOM     23  N   UNL A   1      32.277  25.463  24.103  1.00  0.00    -0.319 N 
ATOM     24  C   UNL A   1      33.656  25.705  23.735  1.00  0.00     0.263 C 
ATOM     25  C   UNL A   1      31.485  25.230  22.911  1.00  0.00     0.263 C 
ATOM     26  H   UNL A   1      32.247  24.589  24.628  1.00  0.00     0.349 HD
ATOM     27  C   UNL A   1      33.567  26.349  22.368  1.00  0.00     0.067 C 
ATOM     28  C   UNL A   1      32.337  25.714  21.742  1.00  0.00     0.067 C 
ENDBRANCH  11  23
ENDBRANCH   9  11
ENDBRANCH   8   9
ENDBRANCH   7   8
ENDBRANCH   6   7
ENDBRANCH   5   6
ENDBRANCH   4   5
ENDBRANCH   3   4
ENDBRANCH   2   3
ENDBRANCH   1   2
BRANCH   1  29
ATOM     29  C   UNL A   1      37.777  22.388  26.072  1.00  0.00     0.188 C 
BRANCH  29  30
ATOM     30  O   UNL A   1      38.992  21.749  25.685  1.00  0.00    -0.376 OA
BRANCH  30  31
ATOM     31  C   UNL A   1      38.945  20.360  25.374  1.00  0.00     0.202 C 
BRANCH  31  32
ATOM     32  C   UNL A   1      39.927  19.465  26.145  1.00  0.00     0.261 C 
BRANCH  32  33
ATOM     33  O   UNL A   1      41.104  19.046  25.441  1.00  0.00    -0.460 OA
BRANCH  33  34
ATOM     34  C   UNL A   1      42.288  19.049  26.083  1.00  0.00     0.338 C 
ATOM     35  O   UNL A   1      43.056  18.118  26.240  1.00  0.00    -0.246 OA
BRANCH  34  36
ATOM     36  C   UNL A   1      42.601  20.463  26.366  1.00  0.00     0.060 A 
ATOM     37  C   UNL A   1      42.878  21.316  25.291  1.00  0.00     0.016 A 
ATOM     38  C   UNL A   1      42.537  20.958  27.672  1.00  0.00     0.016 A 
ATOM     39  C   UNL A   1      43.097  22.672  25.520  1.00  0.00     0.010 A 
ATOM     40  C   UNL A   1      42.789  22.309  27.905  1.00  0.00     0.010 A 
ATOM     41  C   UNL A   1      43.090  23.164  26.832  1.00  0.00    -0.014 A 
BRANCH  41  42
ATOM     42  C   UNL A   1      43.608  24.521  27.107  1.00  0.00     0.031 A 
ATOM     43  C   UNL A   1      42.631  25.554  27.591  1.00  0.00     0.074 A 
ATOM     44  C   UNL A   1      44.904  24.825  26.929  1.00  0.00     0.049 A 
ATOM     45  N   UNL A   1      42.817  26.822  27.844  1.00  0.00    -0.248 NA
ATOM     46  C   UNL A   1      41.252  25.088  27.816  1.00  0.00     0.031 C 
ATOM     47  C   UNL A   1      45.942  23.890  26.499  1.00  0.00     0.029 A 
ATOM     48  N   UNL A   1      45.564  26.020  27.075  1.00  0.00    -0.354 N 
ATOM     49  C   UNL A   1      41.582  27.304  28.257  1.00  0.00     0.074 A 
ATOM     50  C   UNL A   1      40.648  26.203  28.194  1.00  0.00     0.031 C 
ATOM     51  C   UNL A   1      47.107  24.553  26.397  1.00  0.00     0.029 A 
ATOM     52  C   UNL A   1      46.889  25.961  26.722  1.00  0.00     0.049 A 
ATOM     53  H   UNL A   1      45.128  26.840  27.403  1.00  0.00     0.167 HD
ATOM     54  C   UNL A   1      41.261  28.554  28.658  1.00  0.00     0.037 A 
ATOM     55  C   UNL A   1      47.806  26.946  26.645  1.00  0.00     0.037 A 
ATOM     56  C   UNL A   1      42.196  29.644  28.702  1.00  0.00     0.049 A 
ATOM     57  C   UNL A   1      47.400  28.353  27.013  1.00  0.00     0.074 A 
ATOM     58  C   UNL A   1      41.984  30.947  29.113  1.00  0.00     0.029 A 
ATOM     59  N   UNL A   1      43.522  29.558  28.303  1.00  0.00    -0.354 N 
ATOM     60  N   UNL A   1      46.243  28.797  27.444  1.00  0.00    -0.248 NA
ATOM     61  C   UNL A   1      48.426  29.398  26.878  1.00  0.00     0.031 C 
ATOM     62  C   UNL A   1      43.166  31.665  28.906  1.00  0.00     0.029 A 
ATOM     63  C   UNL A   1      44.130  30.796  28.421  1.00  0.00     0.049 A 
ATOM     64  H   UNL A   1      43.964  28.738  27.984  1.00  0.00     0.167 HD
ATOM     65  C   UNL A   1      46.406  30.160  27.652  1.00  0.00     0.074 A 
ATOM     66  C   UNL A   1      47.781  30.470  27.316  1.00  0.00     0.031 C 
ATOM     67  C   UNL A   1      45.502  31.076  28.080  1.00  0.00     0.037 A 
BRANCH  54  68
ATOM     68  C   UNL A   1      39.835  28.813  29.044  1.00  0.00     0.064 A 
ATOM     69  C   UNL A   1      39.388  28.654  30.365  1.00  0.00     0.173 A 
ATOM     70  C   UNL A   1      38.909  29.241  28.083  1.00  0.00     0.173 A 
ATOM     71  F   UNL A   1      40.230  28.225  31.316  1.00  0.00    -0.203 F 
ATOM     72  C   UNL A   1      38.058  28.894  30.703  1.00  0.00     0.198 A 
ATOM     73  C   UNL A   1      37.587  29.509  28.430  1.00  0.00     0.198 A 
ATOM     74  F   UNL A   1      39.285  29.404  26.806  1.00  0.00    -0.203 F 
ATOM     75  F   UNL A   1      37.641  28.690  31.960  1.00  0.00    -0.200 F 
ATOM     76  C   UNL A   1      37.162  29.328  29.737  1.00  0.00     0.200 A 
ATOM     77  F   UNL A   1      36.725  29.936  27.498  1.00  0.00    -0.200 F 
ATOM     78  F   UNL A   1      35.884  29.565  30.065  1.00  0.00    -0.200 F 
ENDBRANCH  54  68
BRANCH  55  79
ATOM     79  C   UNL A   1      49.186  26.650  26.176  1.00  0.00     0.064 A 
ATOM     80  C   UNL A   1      50.174  26.195  27.061  1.00  0.00     0.173 A 
ATOM     81  C   UNL A   1      49.554  26.840  24.834  1.00  0.00     0.173 A 
ATOM     82  F   UNL A   1      49.881  26.025  28.358  1.00  0.00    -0.203 F 
ATOM     83  C   UNL A   1      51.478  25.960  26.628  1.00  0.00     0.198 A 
ATOM     84  C   UNL A   1      50.850  26.576  24.396  1.00  0.00     0.198 A 
ATOM     85  F   UNL A   1      48.650  27.281  23.946  1.00  0.00    -0.203 F 
ATOM     86  F   UNL A   1      52.414  25.574  27.505  1.00  0.00    -0.200 F 
ATOM     87  C   UNL A   1      51.813  26.144  25.295  1.00  0.00     0.200 A 
ATOM     88  F   UNL A   1      51.166  26.747  23.106  1.00  0.00    -0.200 F 
ATOM     89  F   UNL A   1      53.066  25.916  24.878  1.00  0.00    -0.200 F 
ENDBRANCH  55  79
BRANCH  67  90
ATOM     90  C   UNL A   1      45.970  32.495  28.228  1.00  0.00     0.064 A 
ATOM     91  C   UNL A   1      45.829  33.425  27.188  1.00  0.00     0.173 A 
ATOM     92  C   UNL A   1      46.497  32.946  29.449  1.00  0.00     0.173 A 
ATOM     93  F   UNL A   1      45.343  33.040  25.999  1.00  0.00    -0.203 F 
ATOM     94  C   UNL A   1      46.214  34.753  27.360  1.00  0.00     0.198 A 
ATOM     95  C   UNL A   1      46.851  34.279  29.626  1.00  0.00     0.198 A 
ATOM     96  F   UNL A   1      46.643  32.096  30.477  1.00  0.00    -0.203 F 
ATOM     97  F   UNL A   1      46.104  35.616  26.342  1.00  0.00    -0.200 F 
ATOM     98  C   UNL A   1      46.714  35.180  28.581  1.00  0.00     0.200 A 
ATOM     99  F   UNL A   1      47.318  34.695  30.812  1.00  0.00    -0.200 F 
ATOM    100  F   UNL A   1      47.067  36.461  28.750  1.00  0.00    -0.200 F 
ENDBRANCH  67  90
ENDBRANCH  41  42
ENDBRANCH  34  36
ENDBRANCH  33  34
ENDBRANCH  32  33
ENDBRANCH  31  32
ENDBRANCH  30  31
ENDBRANCH  29  30
ENDBRANCH   1  29
TORSDOF 22
ENDMDL
MODEL 2
REMARK VINA RESULT:     -10.6      1.219      7.316
REMARK SMILES Cc1[nH]c2ccccc2c1[C@@H](C(=O)OCCOCCOCCOCCOC(=O)c1ccc(-c2c3nc(c(-c4c(F)c(F)c(F)c(F)c4F)c4ccc([nH]4)c(-c4c(F)c(F)c(F)c(F)c4F)c4nc(c(-c5c(F)c(F)c(F)c(F)c5F)c5ccc2[nH]5)C=C4)C=C3)cc1)[NH+]1CCCC1
REMARK SMILES IDX 21 1 20 2 19 3 18 4 17 5 16 6 15 7 14 8 12 9 13 10 11 11
REMARK SMILES IDX 10 12 1 13 2 14 3 15 4 16 9 18 5 19 8 20 6 21 7 22 92 23
REMARK SMILES IDX 93 24 96 25 94 27 95 28 22 29 23 30 24 31 25 32 26 33 27 34
REMARK SMILES IDX 28 35 29 36 30 37 91 38 31 39 90 40 32 41 33 42 34 43 84 44
REMARK SMILES IDX 35 45 89 46 83 47 85 48 36 49 88 50 82 51 81 52 37 54 69 55
REMARK SMILES IDX 49 56 68 57 50 58 53 59 67 60 86 61 51 62 52 63 66 65 87 66
REMARK SMILES IDX 54 67 38 68 39 69 47 70 40 71 41 72 45 73 48 74 42 75 43 76
REMARK SMILES IDX 46 77 44 78 70 79 71 80 79 81 72 82 73 83 77 84 80 85 74 86
REMARK SMILES IDX 75 87 78 88 76 89 55 90 56 91 64 92 57 93 58 94 62 95 65 96
REMARK SMILES IDX 59 97 60 98 63 99 61 100
REMARK H PARENT 3 17 92 26 85 53 53 64
REMARK Flexibility Score: inf
ROOT
ATOM      1  C   UNL A   1      36.835  23.339  24.880  1.00  0.00     0.188 C 
ENDROOT
BRANCH   1   2
ATOM      2  O   UNL A   1      35.904  24.030  25.688  1.00  0.00    -0.377 OA
BRANCH   2   3
ATOM      3  C   UNL A   1      34.791  23.276  26.119  1.00  0.00     0.188 C 
BRANCH   3   4
ATOM      4  C   UNL A   1      33.504  23.510  25.313  1.00  0.00     0.188 C 
BRANCH   4   5
ATOM      5  O   UNL A   1      33.254  22.785  24.115  1.00  0.00    -0.376 OA
BRANCH   5   6
ATOM      6  C   UNL A   1      33.314  23.439  22.859  1.00  0.00     0.202 C 
BRANCH   6   7
ATOM      7  C   UNL A   1      34.049  24.790  22.756  1.00  0.00     0.261 C 
BRANCH   7   8
ATOM      8  O   UNL A   1      33.552  25.768  21.813  1.00  0.00    -0.459 OA
BRANCH   8   9
ATOM      9  C   UNL A   1      33.367  27.026  22.316  1.00  0.00     0.370 C 
ATOM     10  O   UNL A   1      33.980  27.997  21.869  1.00  0.00    -0.245 OA
BRANCH   9  11
ATOM     11  C   UNL A   1      32.439  27.117  23.568  1.00  0.00     0.328 C 
BRANCH  11  12
ATOM     12  C   UNL A   1      30.911  27.358  23.441  1.00  0.00     0.049 A 
ATOM     13  C   UNL A   1      30.111  25.412  25.039  1.00  0.00     0.065 C 
ATOM     14  C   UNL A   1      29.969  26.574  24.120  1.00  0.00     0.022 A 
ATOM     15  N   UNL A   1      28.715  27.067  23.883  1.00  0.00    -0.358 N 
ATOM     16  C   UNL A   1      28.770  28.207  23.134  1.00  0.00     0.046 A 
ATOM     17  H   UNL A   1      27.882  26.654  24.209  1.00  0.00     0.166 HD
ATOM     18  C   UNL A   1      30.113  28.419  22.803  1.00  0.00     0.009 A 
ATOM     19  C   UNL A   1      27.715  29.053  22.750  1.00  0.00     0.027 A 
ATOM     20  C   UNL A   1      30.357  29.561  21.998  1.00  0.00     0.011 A 
ATOM     21  C   UNL A   1      28.016  30.188  22.004  1.00  0.00     0.002 A 
ATOM     22  C   UNL A   1      29.325  30.442  21.630  1.00  0.00     0.001 A 
ENDBRANCH  11  12
BRANCH  11  23
ATOM     23  N   UNL A   1      33.102  27.898  24.631  1.00  0.00    -0.319 N 
ATOM     24  C   UNL A   1      33.374  27.239  25.890  1.00  0.00     0.263 C 
ATOM     25  C   UNL A   1      32.694  29.268  24.871  1.00  0.00     0.263 C 
ATOM     26  H   UNL A   1      33.982  27.959  24.118  1.00  0.00     0.349 HD
ATOM     27  C   UNL A   1      32.445  27.920  26.873  1.00  0.00     0.067 C 
ATOM     28  C   UNL A   1      32.343  29.346  26.354  1.00  0.00     0.067 C 
ENDBRANCH  11  23
ENDBRANCH   9  11
ENDBRANCH   8   9
ENDBRANCH   7   8
ENDBRANCH   6   7
ENDBRANCH   5   6
ENDBRANCH   4   5
ENDBRANCH   3   4
ENDBRANCH   2   3
ENDBRANCH   1   2
BRANCH   1  29
ATOM     29  C   UNL A   1      37.545  22.156  25.552  1.00  0.00     0.188 C 
BRANCH  29  30
ATOM     30  O   UNL A   1      37.334  20.915  24.881  1.00  0.00    -0.376 OA
BRANCH  30  31
ATOM     31  C   UNL A   1      38.337  19.912  25.004  1.00  0.00     0.202 C 
BRANCH  31  32
ATOM     32  C   UNL A   1      39.641  20.344  25.691  1.00  0.00     0.261 C 
BRANCH  32  33
ATOM     33  O   UNL A   1      40.401  19.314  26.337  1.00  0.00    -0.460 OA
BRANCH  33  34
ATOM     34  C   UNL A   1      41.739  19.294  26.185  1.00  0.00     0.338 C 
ATOM     35  O   UNL A   1      42.430  18.389  25.755  1.00  0.00    -0.246 OA
BRANCH  34  36
ATOM     36  C   UNL A   1      42.203  20.676  26.419  1.00  0.00     0.060 A 
ATOM     37  C   UNL A   1      42.253  21.153  27.734  1.00  0.00     0.016 A 
ATOM     38  C   UNL A   1      42.664  21.460  25.357  1.00  0.00     0.016 A 
ATOM     39  C   UNL A   1      42.762  22.423  27.993  1.00  0.00     0.010 A 
ATOM     40  C   UNL A   1      43.142  22.744  25.612  1.00  0.00     0.010 A 
ATOM     41  C   UNL A   1      43.174  23.235  26.928  1.00  0.00    -0.014 A 
BRANCH  41  42
ATOM     42  C   UNL A   1      43.432  24.672  27.162  1.00  0.00     0.031 A 
ATOM     43  C   UNL A   1      44.825  25.176  26.922  1.00  0.00     0.074 A 
ATOM     44  C   UNL A   1      42.459  25.500  27.578  1.00  0.00     0.049 A 
ATOM     45  N   UNL A   1      45.323  26.369  27.109  1.00  0.00    -0.248 NA
ATOM     46  C   UNL A   1      45.791  24.193  26.402  1.00  0.00     0.031 C 
ATOM     47  C   UNL A   1      41.065  25.121  27.805  1.00  0.00     0.029 A 
ATOM     48  N   UNL A   1      42.504  26.833  27.897  1.00  0.00    -0.354 N 
ATOM     49  C   UNL A   1      46.656  26.280  26.730  1.00  0.00     0.074 A 
ATOM     50  C   UNL A   1      46.899  24.913  26.330  1.00  0.00     0.031 C 
ATOM     51  C   UNL A   1      40.391  26.197  28.248  1.00  0.00     0.029 A 
ATOM     52  C   UNL A   1      41.312  27.327  28.365  1.00  0.00     0.049 A 
ATOM     53  H   UNL A   1      43.315  27.384  27.799  1.00  0.00     0.167 HD
ATOM     54  C   UNL A   1      47.590  27.258  26.714  1.00  0.00     0.037 A 
ATOM     55  C   UNL A   1      41.016  28.546  28.858  1.00  0.00     0.037 A 
ATOM     56  C   UNL A   1      47.339  28.610  27.129  1.00  0.00     0.049 A 
ATOM     57  C   UNL A   1      42.100  29.595  28.913  1.00  0.00     0.074 A 
ATOM     58  C   UNL A   1      48.207  29.686  27.132  1.00  0.00     0.029 A 
ATOM     59  N   UNL A   1      46.130  29.066  27.631  1.00  0.00    -0.354 N 
ATOM     60  N   UNL A   1      43.347  29.520  28.514  1.00  0.00    -0.248 NA
ATOM     61  C   UNL A   1      41.737  30.897  29.492  1.00  0.00     0.031 C 
ATOM     62  C   UNL A   1      47.540  30.779  27.693  1.00  0.00     0.029 A 
ATOM     63  C   UNL A   1      46.239  30.399  27.985  1.00  0.00     0.049 A 
ATOM     64  H   UNL A   1      45.314  28.522  27.722  1.00  0.00     0.167 HD
ATOM     65  C   UNL A   1      43.910  30.763  28.771  1.00  0.00     0.074 A 
ATOM     66  C   UNL A   1      42.863  31.582  29.346  1.00  0.00     0.031 C 
ATOM     67  C   UNL A   1      45.179  31.192  28.555  1.00  0.00     0.037 A 
BRANCH  54  68
ATOM     68  C   UNL A   1      48.973  26.886  26.267  1.00  0.00     0.064 A 
ATOM     69  C   UNL A   1      49.918  26.353  27.157  1.00  0.00     0.173 A 
ATOM     70  C   UNL A   1      49.349  27.048  24.926  1.00  0.00     0.173 A 
ATOM     71  F   UNL A   1      49.613  26.199  28.454  1.00  0.00    -0.203 F 
ATOM     72  C   UNL A   1      51.199  26.019  26.723  1.00  0.00     0.198 A 
ATOM     73  C   UNL A   1      50.620  26.685  24.490  1.00  0.00     0.198 A 
ATOM     74  F   UNL A   1      48.484  27.556  24.037  1.00  0.00    -0.203 F 
ATOM     75  F   UNL A   1      52.101  25.557  27.600  1.00  0.00    -0.200 F 
ATOM     76  C   UNL A   1      51.546  26.178  25.389  1.00  0.00     0.200 A 
ATOM     77  F   UNL A   1      50.951  26.831  23.200  1.00  0.00    -0.200 F 
ATOM     78  F   UNL A   1      52.776  25.849  24.972  1.00  0.00    -0.200 F 
ENDBRANCH  54  68
BRANCH  55  79
ATOM     79  C   UNL A   1      39.649  28.836  29.366  1.00  0.00     0.064 A 
ATOM     80  C   UNL A   1      39.286  28.542  30.688  1.00  0.00     0.173 A 
ATOM     81  C   UNL A   1      38.666  29.391  28.531  1.00  0.00     0.173 A 
ATOM     82  F   UNL A   1      40.179  27.984  31.518  1.00  0.00    -0.203 F 
ATOM     83  C   UNL A   1      37.991  28.774  31.150  1.00  0.00     0.198 A 
ATOM     84  C   UNL A   1      37.380  29.651  29.002  1.00  0.00     0.198 A 
ATOM     85  F   UNL A   1      38.957  29.686  27.255  1.00  0.00    -0.203 F 
ATOM     86  F   UNL A   1      37.658  28.437  32.402  1.00  0.00    -0.200 F 
ATOM     87  C   UNL A   1      37.041  29.334  30.308  1.00  0.00     0.200 A 
ATOM     88  F   UNL A   1      36.470  30.201  28.187  1.00  0.00    -0.200 F 
ATOM     89  F   UNL A   1      35.798  29.559  30.752  1.00  0.00    -0.200 F 
ENDBRANCH  55  79
BRANCH  67  90
ATOM     90  C   UNL A   1      45.503  32.611  28.922  1.00  0.00     0.064 A 
ATOM     91  C   UNL A   1      46.072  32.935  30.162  1.00  0.00     0.173 A 
ATOM     92  C   UNL A   1      45.310  33.647  27.995  1.00  0.00     0.173 A 
ATOM     93  F   UNL A   1      46.265  31.983  31.086  1.00  0.00    -0.203 F 
ATOM     94  C   UNL A   1      46.423  34.249  30.466  1.00  0.00     0.198 A 
ATOM     95  C   UNL A   1      45.689  34.952  28.290  1.00  0.00     0.198 A 
ATOM     96  F   UNL A   1      44.777  33.386  26.791  1.00  0.00    -0.203 F 
ATOM     97  F   UNL A   1      46.931  34.542  31.669  1.00  0.00    -0.200 F 
ATOM     98  C   UNL A   1      46.241  35.253  29.527  1.00  0.00     0.200 A 
ATOM     99  F   UNL A   1      45.529  35.918  27.375  1.00  0.00    -0.200 F 
ATOM    100  F   UNL A   1      46.594  36.512  29.815  1.00  0.00    -0.200 F 
ENDBRANCH  67  90
ENDBRANCH  41  42
ENDBRANCH  34  36
ENDBRANCH  33  34
ENDBRANCH  32  33
ENDBRANCH  31  32
ENDBRANCH  30  31
ENDBRANCH  29  30
ENDBRANCH   1  29
TORSDOF 22
ENDMDL
MODEL 3
REMARK VINA RESULT:     -10.6      1.292      2.628
REMARK SMILES Cc1[nH]c2ccccc2c1[C@@H](C(=O)OCCOCCOCCOCCOC(=O)c1ccc(-c2c3nc(c(-c4c(F)c(F)c(F)c(F)c4F)c4ccc([nH]4)c(-c4c(F)c(F)c(F)c(F)c4F)c4nc(c(-c5c(F)c(F)c(F)c(F)c5F)c5ccc2[nH]5)C=C4)C=C3)cc1)[NH+]1CCCC1
REMARK SMILES IDX 21 1 20 2 19 3 18 4 17 5 16 6 15 7 14 8 12 9 13 10 11 11
REMARK SMILES IDX 10 12 1 13 2 14 3 15 4 16 9 18 5 19 8 20 6 21 7 22 92 23
REMARK SMILES IDX 93 24 96 25 94 27 95 28 22 29 23 30 24 31 25 32 26 33 27 34
REMARK SMILES IDX 28 35 29 36 30 37 91 38 31 39 90 40 32 41 33 42 34 43 84 44
REMARK SMILES IDX 35 45 89 46 83 47 85 48 36 49 88 50 82 51 81 52 37 54 69 55
REMARK SMILES IDX 49 56 68 57 50 58 53 59 67 60 86 61 51 62 52 63 66 65 87 66
REMARK SMILES IDX 54 67 38 68 39 69 47 70 40 71 41 72 45 73 48 74 42 75 43 76
REMARK SMILES IDX 46 77 44 78 70 79 71 80 79 81 72 82 73 83 77 84 80 85 74 86
REMARK SMILES IDX 75 87 78 88 76 89 55 90 56 91 64 92 57 93 58 94 62 95 65 96
REMARK SMILES IDX 59 97 60 98 63 99 61 100
REMARK H PARENT 3 17 92 26 85 53 53 64
REMARK Flexibility Score: inf
ROOT
ATOM      1  C   UNL A   1      35.546  21.250  25.061  1.00  0.00     0.188 C 
ENDROOT
BRANCH   1   2
ATOM      2  O   UNL A   1      34.265  21.819  25.236  1.00  0.00    -0.377 OA
BRANCH   2   3
ATOM      3  C   UNL A   1      33.192  21.088  24.681  1.00  0.00     0.188 C 
BRANCH   3   4
ATOM      4  C   UNL A   1      32.658  21.638  23.349  1.00  0.00     0.188 C 
BRANCH   4   5
ATOM      5  O   UNL A   1      31.823  22.789  23.320  1.00  0.00    -0.376 OA
BRANCH   5   6
ATOM      6  C   UNL A   1      32.280  23.988  22.718  1.00  0.00     0.202 C 
BRANCH   6   7
ATOM      7  C   UNL A   1      33.719  24.462  22.998  1.00  0.00     0.261 C 
BRANCH   7   8
ATOM      8  O   UNL A   1      33.904  25.737  23.657  1.00  0.00    -0.459 OA
BRANCH   8   9
ATOM      9  C   UNL A   1      33.956  25.691  25.022  1.00  0.00     0.370 C 
ATOM     10  O   UNL A   1      34.862  25.103  25.615  1.00  0.00    -0.245 OA
BRANCH   9  11
ATOM     11  C   UNL A   1      32.727  26.310  25.759  1.00  0.00     0.328 C 
BRANCH  11  12
ATOM     12  C   UNL A   1      31.343  26.453  25.071  1.00  0.00     0.049 A 
ATOM     13  C   UNL A   1      30.089  24.538  26.390  1.00  0.00     0.065 C 
ATOM     14  C   UNL A   1      30.249  25.646  25.410  1.00  0.00     0.022 A 
ATOM     15  N   UNL A   1      29.151  26.052  24.701  1.00  0.00    -0.358 N 
ATOM     16  C   UNL A   1      29.432  27.158  23.952  1.00  0.00     0.046 A 
ATOM     17  H   UNL A   1      28.273  25.606  24.729  1.00  0.00     0.166 HD
ATOM     18  C   UNL A   1      30.794  27.434  24.119  1.00  0.00     0.009 A 
ATOM     19  C   UNL A   1      28.559  27.921  23.157  1.00  0.00     0.027 A 
ATOM     20  C   UNL A   1      31.271  28.550  23.386  1.00  0.00     0.011 A 
ATOM     21  C   UNL A   1      29.068  29.037  22.500  1.00  0.00     0.002 A 
ATOM     22  C   UNL A   1      30.413  29.351  22.612  1.00  0.00     0.001 A 
ENDBRANCH  11  12
BRANCH  11  23
ATOM     23  N   UNL A   1      33.150  27.484  26.546  1.00  0.00    -0.319 N 
ATOM     24  C   UNL A   1      32.207  28.051  27.485  1.00  0.00     0.263 C 
ATOM     25  C   UNL A   1      33.897  28.546  25.899  1.00  0.00     0.263 C 
ATOM     26  H   UNL A   1      33.837  26.953  27.081  1.00  0.00     0.349 HD
ATOM     27  C   UNL A   1      31.852  29.396  26.889  1.00  0.00     0.067 C 
ATOM     28  C   UNL A   1      33.125  29.831  26.181  1.00  0.00     0.067 C 
ENDBRANCH  11  23
ENDBRANCH   9  11
ENDBRANCH   8   9
ENDBRANCH   7   8
ENDBRANCH   6   7
ENDBRANCH   5   6
ENDBRANCH   4   5
ENDBRANCH   3   4
ENDBRANCH   2   3
ENDBRANCH   1   2
BRANCH   1  29
ATOM     29  C   UNL A   1      36.721  22.092  25.576  1.00  0.00     0.188 C 
BRANCH  29  30
ATOM     30  O   UNL A   1      37.989  21.461  25.402  1.00  0.00    -0.376 OA
BRANCH  30  31
ATOM     31  C   UNL A   1      38.005  20.110  24.954  1.00  0.00     0.202 C 
BRANCH  31  32
ATOM     32  C   UNL A   1      39.237  19.284  25.351  1.00  0.00     0.261 C 
BRANCH  32  33
ATOM     33  O   UNL A   1      40.113  19.863  26.326  1.00  0.00    -0.460 OA
BRANCH  33  34
ATOM     34  C   UNL A   1      41.440  19.653  26.223  1.00  0.00     0.338 C 
ATOM     35  O   UNL A   1      42.010  18.685  25.754  1.00  0.00    -0.246 OA
BRANCH  34  36
ATOM     36  C   UNL A   1      42.090  20.932  26.571  1.00  0.00     0.060 A 
ATOM     37  C   UNL A   1      42.207  21.277  27.923  1.00  0.00     0.016 A 
ATOM     38  C   UNL A   1      42.651  21.738  25.577  1.00  0.00     0.016 A 
ATOM     39  C   UNL A   1      42.887  22.436  28.287  1.00  0.00     0.010 A 
ATOM     40  C   UNL A   1      43.302  22.916  25.939  1.00  0.00     0.010 A 
ATOM     41  C   UNL A   1      43.404  23.278  27.293  1.00  0.00    -0.014 A 
BRANCH  41  42
ATOM     42  C   UNL A   1      43.857  24.639  27.650  1.00  0.00     0.031 A 
ATOM     43  C   UNL A   1      42.806  25.657  27.986  1.00  0.00     0.074 A 
ATOM     44  C   UNL A   1      45.162  24.959  27.672  1.00  0.00     0.049 A 
ATOM     45  N   UNL A   1      42.936  26.925  28.271  1.00  0.00    -0.248 NA
ATOM     46  C   UNL A   1      41.414  25.173  27.997  1.00  0.00     0.031 C 
ATOM     47  C   UNL A   1      46.264  24.039  27.399  1.00  0.00     0.029 A 
ATOM     48  N   UNL A   1      45.777  26.160  27.922  1.00  0.00    -0.354 N 
ATOM     49  C   UNL A   1      41.647  27.390  28.495  1.00  0.00     0.074 A 
ATOM     50  C   UNL A   1      40.747  26.279  28.286  1.00  0.00     0.031 C 
ATOM     51  C   UNL A   1      47.423  24.715  27.477  1.00  0.00     0.029 A 
ATOM     52  C   UNL A   1      47.142  26.119  27.773  1.00  0.00     0.049 A 
ATOM     53  H   UNL A   1      45.287  26.972  28.184  1.00  0.00     0.167 HD
ATOM     54  C   UNL A   1      41.254  28.634  28.849  1.00  0.00     0.037 A 
ATOM     55  C   UNL A   1      48.047  27.115  27.840  1.00  0.00     0.037 A 
ATOM     56  C   UNL A   1      42.158  29.734  29.039  1.00  0.00     0.049 A 
ATOM     57  C   UNL A   1      47.573  28.514  28.150  1.00  0.00     0.074 A 
ATOM     58  C   UNL A   1      41.870  31.032  29.420  1.00  0.00     0.029 A 
ATOM     59  N   UNL A   1      43.530  29.666  28.845  1.00  0.00    -0.354 N 
ATOM     60  N   UNL A   1      46.359  28.942  28.403  1.00  0.00    -0.248 NA
ATOM     61  C   UNL A   1      48.595  29.572  28.177  1.00  0.00     0.031 C 
ATOM     62  C   UNL A   1      43.061  31.764  29.398  1.00  0.00     0.029 A 
ATOM     63  C   UNL A   1      44.098  30.909  29.059  1.00  0.00     0.049 A 
ATOM     64  H   UNL A   1      44.025  28.853  28.592  1.00  0.00     0.167 HD
ATOM     65  C   UNL A   1      46.472  30.305  28.640  1.00  0.00     0.074 A 
ATOM     66  C   UNL A   1      47.877  30.633  28.517  1.00  0.00     0.031 C 
ATOM     67  C   UNL A   1      45.502  31.208  28.931  1.00  0.00     0.037 A 
BRANCH  54  68
ATOM     68  C   UNL A   1      39.783  28.873  29.016  1.00  0.00     0.064 A 
ATOM     69  C   UNL A   1      39.142  28.693  30.252  1.00  0.00     0.173 A 
ATOM     70  C   UNL A   1      39.009  29.306  27.931  1.00  0.00     0.173 A 
ATOM     71  F   UNL A   1      39.834  28.259  31.315  1.00  0.00    -0.203 F 
ATOM     72  C   UNL A   1      37.773  28.915  30.386  1.00  0.00     0.198 A 
ATOM     73  C   UNL A   1      37.647  29.556  28.075  1.00  0.00     0.198 A 
ATOM     74  F   UNL A   1      39.573  29.490  26.728  1.00  0.00    -0.203 F 
ATOM     75  F   UNL A   1      37.172  28.691  31.562  1.00  0.00    -0.200 F 
ATOM     76  C   UNL A   1      37.029  29.354  29.300  1.00  0.00     0.200 A 
ATOM     77  F   UNL A   1      36.931  29.987  27.027  1.00  0.00    -0.200 F 
ATOM     78  F   UNL A   1      35.714  29.574  29.432  1.00  0.00    -0.200 F 
ENDBRANCH  54  68
BRANCH  55  79
ATOM     79  C   UNL A   1      49.486  26.837  27.583  1.00  0.00     0.064 A 
ATOM     80  C   UNL A   1      50.011  26.865  26.283  1.00  0.00     0.173 A 
ATOM     81  C   UNL A   1      50.361  26.512  28.631  1.00  0.00     0.173 A 
ATOM     82  F   UNL A   1      49.210  27.142  25.244  1.00  0.00    -0.203 F 
ATOM     83  C   UNL A   1      51.350  26.561  26.039  1.00  0.00     0.198 A 
ATOM     84  C   UNL A   1      51.706  26.238  28.390  1.00  0.00     0.198 A 
ATOM     85  F   UNL A   1      49.910  26.464  29.893  1.00  0.00    -0.203 F 
ATOM     86  F   UNL A   1      51.813  26.546  24.783  1.00  0.00    -0.200 F 
ATOM     87  C   UNL A   1      52.197  26.255  27.093  1.00  0.00     0.200 A 
ATOM     88  F   UNL A   1      52.522  25.951  29.412  1.00  0.00    -0.200 F 
ATOM     89  F   UNL A   1      53.484  25.965  26.859  1.00  0.00    -0.200 F 
ENDBRANCH  55  79
BRANCH  67  90
ATOM     90  C   UNL A   1      45.925  32.631  29.155  1.00  0.00     0.064 A 
ATOM     91  C   UNL A   1      46.340  33.082  30.416  1.00  0.00     0.173 A 
ATOM     92  C   UNL A   1      45.987  33.532  28.080  1.00  0.00     0.173 A 
ATOM     93  F   UNL A   1      46.287  32.264  31.477  1.00  0.00    -0.203 F 
ATOM     94  C   UNL A   1      46.786  34.389  30.596  1.00  0.00     0.198 A 
ATOM     95  C   UNL A   1      46.463  34.827  28.258  1.00  0.00     0.198 A 
ATOM     96  F   UNL A   1      45.610  33.144  26.852  1.00  0.00    -0.203 F 
ATOM     97  F   UNL A   1      47.143  34.811  31.817  1.00  0.00    -0.200 F 
ATOM     98  C   UNL A   1      46.857  35.256  29.516  1.00  0.00     0.200 A 
ATOM     99  F   UNL A   1      46.547  35.657  27.209  1.00  0.00    -0.200 F 
ATOM    100  F   UNL A   1      47.303  36.507  29.688  1.00  0.00    -0.200 F 
ENDBRANCH  67  90
ENDBRANCH  41  42
ENDBRANCH  34  36
ENDBRANCH  33  34
ENDBRANCH  32  33
ENDBRANCH  31  32
ENDBRANCH  30  31
ENDBRANCH  29  30
ENDBRANCH   1  29
TORSDOF 22
ENDMDL
