MODEL 1
REMARK VINA RESULT:     -12.6      0.000      0.000
REMARK SMILES Cc1nc(NC(=O)[C@H]2[C@@H]3CC[C@@H](C3)[C@@H]2C(=O)OCCOCCOCCOCCOC(=O)c2ccc(-c3c4nc(c(-c5c(F)c(F)c(F)c(F)c5F)c5ccc([nH]5)c(-c5c(F)c(F)c(F)c(F)c5F)c5nc(c(-c6c(F)c(F)c(F)c(F)c6F)c6ccc3[nH]6)C=C5)C=C4)cc2)sc1-c1ccccc1
REMARK SMILES IDX 22 1 21 2 20 3 19 4 18 5 17 6 15 7 16 8 14 9 8 10 9 11 10 12
REMARK SMILES IDX 13 13 12 14 11 15 6 16 5 17 7 19 4 20 1 21 2 22 3 23 96 24
REMARK SMILES IDX 95 25 97 26 98 27 102 28 99 29 101 30 100 31 23 32 24 33
REMARK SMILES IDX 25 34 26 35 27 36 28 37 29 38 30 39 31 40 32 41 33 42 94 43
REMARK SMILES IDX 34 44 93 45 35 46 36 47 37 48 87 49 38 50 92 51 86 52 88 53
REMARK SMILES IDX 39 54 91 55 85 56 84 57 40 59 72 60 52 61 71 62 53 63 56 64
REMARK SMILES IDX 70 65 89 66 54 67 55 68 69 70 90 71 57 72 41 73 42 74 50 75
REMARK SMILES IDX 43 76 44 77 48 78 51 79 45 80 46 81 49 82 47 83 73 84 74 85
REMARK SMILES IDX 82 86 75 87 76 88 80 89 83 90 77 91 78 92 81 93 79 94 58 95
REMARK SMILES IDX 59 96 67 97 60 98 61 99 65 100 68 101 62 102 63 103 66 104
REMARK SMILES IDX 64 105
REMARK H PARENT 5 18 88 58 56 69
REMARK Flexibility Score: inf
ROOT
ATOM      1  C   UNL A   1      37.865  22.780  25.755  1.00  0.00     0.188 C 
ENDROOT
BRANCH   1   2
ATOM      2  C   UNL A   1      36.796  23.691  25.148  1.00  0.00     0.188 C 
BRANCH   2   3
ATOM      3  O   UNL A   1      35.670  23.016  24.589  1.00  0.00    -0.376 OA
BRANCH   3   4
ATOM      4  C   UNL A   1      35.394  23.207  23.200  1.00  0.00     0.202 C 
BRANCH   4   5
ATOM      5  C   UNL A   1      34.122  23.996  22.869  1.00  0.00     0.261 C 
BRANCH   5   6
ATOM      6  O   UNL A   1      34.302  25.384  23.182  1.00  0.00    -0.463 OA
BRANCH   6   7
ATOM      7  C   UNL A   1      33.180  26.136  23.349  1.00  0.00     0.310 C 
ATOM      8  O   UNL A   1      32.553  26.691  22.449  1.00  0.00    -0.252 OA
BRANCH   7   9
ATOM      9  C   UNL A   1      32.768  26.069  24.802  1.00  0.00     0.115 C 
ATOM     10  C   UNL A   1      31.299  26.389  25.078  1.00  0.00     0.096 C 
ATOM     11  C   UNL A   1      31.399  27.654  25.964  1.00  0.00     0.003 C 
ATOM     12  C   UNL A   1      32.037  28.808  25.153  1.00  0.00     0.005 C 
ATOM     13  C   UNL A   1      32.539  27.263  26.897  1.00  0.00     0.009 C 
ATOM     14  C   UNL A   1      33.527  27.033  25.743  1.00  0.00     0.004 C 
ATOM     15  C   UNL A   1      33.533  28.444  25.138  1.00  0.00     0.005 C 
BRANCH  10  16
ATOM     16  C   UNL A   1      30.393  25.349  25.761  1.00  0.00     0.230 C 
ATOM     17  N   UNL A   1      30.461  23.997  25.749  1.00  0.00    -0.302 N 
ATOM     18  H   UNL A   1      29.802  23.576  26.349  1.00  0.00     0.172 HD
ATOM     19  O   UNL A   1      29.467  25.799  26.462  1.00  0.00    -0.274 OA
BRANCH  17  20
ATOM     20  C   UNL A   1      31.238  23.086  25.092  1.00  0.00     0.190 A 
ATOM     21  C   UNL A   1      32.016  20.890  22.373  1.00  0.00     0.068 C 
ATOM     22  C   UNL A   1      31.954  21.488  23.726  1.00  0.00     0.058 A 
ATOM     23  N   UNL A   1      31.317  22.725  23.842  1.00  0.00    -0.225 NA
ATOM     24  C   UNL A   1      32.450  20.981  24.911  1.00  0.00     0.059 A 
ATOM     25  S   UNL A   1      32.309  22.249  26.108  1.00  0.00    -0.096 S 
BRANCH  24  26
ATOM     26  C   UNL A   1      33.220  19.776  25.286  1.00  0.00    -0.006 A 
ATOM     27  C   UNL A   1      35.007  19.571  24.927  1.00  0.00     0.009 A 
ATOM     28  C   UNL A   1      32.179  18.297  25.324  1.00  0.00     0.009 A 
ATOM     29  C   UNL A   1      35.696  17.934  24.477  1.00  0.00     0.001 A 
ATOM     30  C   UNL A   1      32.840  16.692  24.859  1.00  0.00     0.001 A 
ATOM     31  C   UNL A   1      34.571  16.500  24.371  1.00  0.00     0.000 A 
ENDBRANCH  24  26
ENDBRANCH  17  20
ENDBRANCH  10  16
ENDBRANCH   7   9
ENDBRANCH   6   7
ENDBRANCH   5   6
ENDBRANCH   4   5
ENDBRANCH   3   4
ENDBRANCH   2   3
ENDBRANCH   1   2
BRANCH   1  32
ATOM     32  O   UNL A   1      37.603  21.397  25.529  1.00  0.00    -0.377 OA
BRANCH  32  33
ATOM     33  C   UNL A   1      38.783  20.596  25.549  1.00  0.00     0.188 C 
BRANCH  33  34
ATOM     34  C   UNL A   1      39.975  21.201  26.347  1.00  0.00     0.188 C 
BRANCH  34  35
ATOM     35  O   UNL A   1      40.456  20.547  27.536  1.00  0.00    -0.376 OA
BRANCH  35  36
ATOM     36  C   UNL A   1      41.622  19.719  27.413  1.00  0.00     0.202 C 
BRANCH  36  37
ATOM     37  C   UNL A   1      42.511  20.021  26.125  1.00  0.00     0.261 C 
BRANCH  37  38
ATOM     38  O   UNL A   1      43.077  21.647  25.940  1.00  0.00    -0.460 OA
BRANCH  38  39
ATOM     39  C   UNL A   1      42.879  23.461  25.565  1.00  0.00     0.338 C 
ATOM     40  O   UNL A   1      43.480  24.132  24.656  1.00  0.00    -0.246 OA
BRANCH  39  41
ATOM     41  C   UNL A   1      41.886  24.533  26.140  1.00  0.00     0.060 A 
ATOM     42  C   UNL A   1      41.830  25.849  25.606  1.00  0.00     0.016 A 
ATOM     43  C   UNL A   1      41.557  24.360  27.489  1.00  0.00     0.016 A 
ATOM     44  C   UNL A   1      41.537  26.956  26.392  1.00  0.00     0.010 A 
ATOM     45  C   UNL A   1      41.298  25.471  28.288  1.00  0.00     0.010 A 
ATOM     46  C   UNL A   1      41.351  26.767  27.751  1.00  0.00    -0.014 A 
BRANCH  46  47
ATOM     47  C   UNL A   1      41.346  27.903  28.683  1.00  0.00     0.031 A 
ATOM     48  C   UNL A   1      42.227  27.836  29.889  1.00  0.00     0.074 A 
ATOM     49  C   UNL A   1      40.428  28.864  28.517  1.00  0.00     0.049 A 
ATOM     50  N   UNL A   1      42.068  28.389  31.059  1.00  0.00    -0.248 NA
ATOM     51  C   UNL A   1      43.436  27.003  29.765  1.00  0.00     0.031 C 
ATOM     52  C   UNL A   1      39.600  29.040  27.325  1.00  0.00     0.029 A 
ATOM     53  N   UNL A   1      39.972  29.801  29.401  1.00  0.00    -0.354 N 
ATOM     54  C   UNL A   1      43.115  27.916  31.839  1.00  0.00     0.074 A 
ATOM     55  C   UNL A   1      43.923  27.058  30.999  1.00  0.00     0.031 C 
ATOM     56  C   UNL A   1      38.662  29.961  27.588  1.00  0.00     0.029 A 
ATOM     57  C   UNL A   1      38.797  30.371  28.982  1.00  0.00     0.049 A 
ATOM     58  H   UNL A   1      40.432  30.038  30.239  1.00  0.00     0.167 HD
ATOM     59  C   UNL A   1      43.339  28.163  33.151  1.00  0.00     0.037 A 
ATOM     60  C   UNL A   1      37.882  31.064  29.682  1.00  0.00     0.037 A 
ATOM     61  C   UNL A   1      42.500  29.034  33.936  1.00  0.00     0.049 A 
ATOM     62  C   UNL A   1      38.127  31.308  31.143  1.00  0.00     0.074 A 
ATOM     63  C   UNL A   1      42.629  29.400  35.263  1.00  0.00     0.029 A 
ATOM     64  N   UNL A   1      41.367  29.674  33.450  1.00  0.00    -0.354 N 
ATOM     65  N   UNL A   1      39.093  30.850  31.905  1.00  0.00    -0.248 NA
ATOM     66  C   UNL A   1      37.162  32.163  31.840  1.00  0.00     0.031 C 
ATOM     67  C   UNL A   1      41.552  30.234  35.588  1.00  0.00     0.029 A 
ATOM     68  C   UNL A   1      40.781  30.428  34.451  1.00  0.00     0.049 A 
ATOM     69  H   UNL A   1      41.030  29.601  32.527  1.00  0.00     0.167 HD
ATOM     70  C   UNL A   1      38.876  31.392  33.163  1.00  0.00     0.074 A 
ATOM     71  C   UNL A   1      37.680  32.206  33.060  1.00  0.00     0.031 C 
ATOM     72  C   UNL A   1      39.602  31.242  34.298  1.00  0.00     0.037 A 
BRANCH  59  73
ATOM     73  C   UNL A   1      44.482  27.460  33.823  1.00  0.00     0.064 A 
ATOM     74  C   UNL A   1      44.345  26.183  34.387  1.00  0.00     0.173 A 
ATOM     75  C   UNL A   1      45.753  28.058  33.865  1.00  0.00     0.173 A 
ATOM     76  F   UNL A   1      43.153  25.569  34.383  1.00  0.00    -0.203 F 
ATOM     77  C   UNL A   1      45.429  25.542  34.985  1.00  0.00     0.198 A 
ATOM     78  C   UNL A   1      46.840  27.402  34.437  1.00  0.00     0.198 A 
ATOM     79  F   UNL A   1      45.945  29.277  33.338  1.00  0.00    -0.203 F 
ATOM     80  F   UNL A   1      45.264  24.338  35.550  1.00  0.00    -0.200 F 
ATOM     81  C   UNL A   1      46.677  26.147  35.002  1.00  0.00     0.200 A 
ATOM     82  F   UNL A   1      48.048  27.984  34.439  1.00  0.00    -0.200 F 
ATOM     83  F   UNL A   1      47.720  25.523  35.566  1.00  0.00    -0.200 F 
ENDBRANCH  59  73
BRANCH  60  84
ATOM     84  C   UNL A   1      36.658  31.536  28.996  1.00  0.00     0.064 A 
ATOM     85  C   UNL A   1      35.597  30.655  28.758  1.00  0.00     0.173 A 
ATOM     86  C   UNL A   1      36.485  32.884  28.643  1.00  0.00     0.173 A 
ATOM     87  F   UNL A   1      35.724  29.359  29.074  1.00  0.00    -0.203 F 
ATOM     88  C   UNL A   1      34.407  31.102  28.191  1.00  0.00     0.198 A 
ATOM     89  C   UNL A   1      35.285  33.334  28.096  1.00  0.00     0.198 A 
ATOM     90  F   UNL A   1      37.467  33.770  28.869  1.00  0.00    -0.203 F 
ATOM     91  F   UNL A   1      33.412  30.234  27.962  1.00  0.00    -0.200 F 
ATOM     92  C   UNL A   1      34.248  32.442  27.870  1.00  0.00     0.200 A 
ATOM     93  F   UNL A   1      35.128  34.634  27.810  1.00  0.00    -0.200 F 
ATOM     94  F   UNL A   1      33.093  32.875  27.347  1.00  0.00    -0.200 F 
ENDBRANCH  60  84
BRANCH  72  95
ATOM     95  C   UNL A   1      39.161  32.028  35.493  1.00  0.00     0.064 A 
ATOM     96  C   UNL A   1      39.483  33.384  35.643  1.00  0.00     0.173 A 
ATOM     97  C   UNL A   1      38.356  31.424  36.470  1.00  0.00     0.173 A 
ATOM     98  F   UNL A   1      40.265  33.996  34.741  1.00  0.00    -0.203 F 
ATOM     99  C   UNL A   1      39.024  34.105  36.741  1.00  0.00     0.198 A 
ATOM    100  C   UNL A   1      37.880  32.155  37.552  1.00  0.00     0.198 A 
ATOM    101  F   UNL A   1      38.019  30.129  36.363  1.00  0.00    -0.203 F 
ATOM    102  F   UNL A   1      39.370  35.391  36.887  1.00  0.00    -0.200 F 
ATOM    103  C   UNL A   1      38.217  33.492  37.690  1.00  0.00     0.200 A 
ATOM    104  F   UNL A   1      37.091  31.564  38.462  1.00  0.00    -0.200 F 
ATOM    105  F   UNL A   1      37.768  34.192  38.741  1.00  0.00    -0.200 F 
ENDBRANCH  72  95
ENDBRANCH  46  47
ENDBRANCH  39  41
ENDBRANCH  38  39
ENDBRANCH  37  38
ENDBRANCH  36  37
ENDBRANCH  35  36
ENDBRANCH  34  35
ENDBRANCH  33  34
ENDBRANCH  32  33
ENDBRANCH   1  32
TORSDOF 23
ENDMDL
MODEL 2
REMARK VINA RESULT:     -11.3      1.195      3.918
REMARK SMILES Cc1nc(NC(=O)[C@H]2[C@@H]3CC[C@@H](C3)[C@@H]2C(=O)OCCOCCOCCOCCOC(=O)c2ccc(-c3c4nc(c(-c5c(F)c(F)c(F)c(F)c5F)c5ccc([nH]5)c(-c5c(F)c(F)c(F)c(F)c5F)c5nc(c(-c6c(F)c(F)c(F)c(F)c6F)c6ccc3[nH]6)C=C5)C=C4)cc2)sc1-c1ccccc1
REMARK SMILES IDX 22 1 21 2 20 3 19 4 18 5 17 6 15 7 16 8 14 9 8 10 9 11 10 12
REMARK SMILES IDX 13 13 12 14 11 15 6 16 5 17 7 19 4 20 1 21 2 22 3 23 96 24
REMARK SMILES IDX 95 25 97 26 98 27 102 28 99 29 101 30 100 31 23 32 24 33
REMARK SMILES IDX 25 34 26 35 27 36 28 37 29 38 30 39 31 40 32 41 33 42 94 43
REMARK SMILES IDX 34 44 93 45 35 46 36 47 37 48 87 49 38 50 92 51 86 52 88 53
REMARK SMILES IDX 39 54 91 55 85 56 84 57 40 59 72 60 52 61 71 62 53 63 56 64
REMARK SMILES IDX 70 65 89 66 54 67 55 68 69 70 90 71 57 72 41 73 42 74 50 75
REMARK SMILES IDX 43 76 44 77 48 78 51 79 45 80 46 81 49 82 47 83 73 84 74 85
REMARK SMILES IDX 82 86 75 87 76 88 80 89 83 90 77 91 78 92 81 93 79 94 58 95
REMARK SMILES IDX 59 96 67 97 60 98 61 99 65 100 68 101 62 102 63 103 66 104
REMARK SMILES IDX 64 105
REMARK H PARENT 5 18 88 58 56 69
REMARK Flexibility Score: inf
ROOT
ATOM      1  C   UNL A   1      37.829  22.709  25.749  1.00  0.00     0.188 C 
ENDROOT
BRANCH   1   2
ATOM      2  C   UNL A   1      36.816  23.531  24.949  1.00  0.00     0.188 C 
BRANCH   2   3
ATOM      3  O   UNL A   1      36.108  22.807  23.942  1.00  0.00    -0.376 OA
BRANCH   3   4
ATOM      4  C   UNL A   1      35.532  23.547  22.864  1.00  0.00     0.202 C 
BRANCH   4   5
ATOM      5  C   UNL A   1      34.276  22.940  22.228  1.00  0.00     0.261 C 
BRANCH   5   6
ATOM      6  O   UNL A   1      33.231  22.822  23.202  1.00  0.00    -0.463 OA
BRANCH   6   7
ATOM      7  C   UNL A   1      32.521  21.661  23.220  1.00  0.00     0.310 C 
ATOM      8  O   UNL A   1      32.089  21.074  22.230  1.00  0.00    -0.252 OA
BRANCH   7   9
ATOM      9  C   UNL A   1      32.466  21.153  24.643  1.00  0.00     0.115 C 
ATOM     10  C   UNL A   1      33.737  21.370  25.462  1.00  0.00     0.096 C 
ATOM     11  C   UNL A   1      34.176  19.920  25.778  1.00  0.00     0.003 C 
ATOM     12  C   UNL A   1      34.527  19.183  24.463  1.00  0.00     0.005 C 
ATOM     13  C   UNL A   1      32.837  19.287  26.142  1.00  0.00     0.009 C 
ATOM     14  C   UNL A   1      32.201  19.637  24.787  1.00  0.00     0.004 C 
ATOM     15  C   UNL A   1      33.147  18.859  23.862  1.00  0.00     0.005 C 
BRANCH  10  16
ATOM     16  C   UNL A   1      33.693  22.193  26.762  1.00  0.00     0.230 C 
ATOM     17  N   UNL A   1      33.406  23.502  26.952  1.00  0.00    -0.302 N 
ATOM     18  H   UNL A   1      33.362  23.750  27.905  1.00  0.00     0.172 HD
ATOM     19  O   UNL A   1      33.922  21.572  27.817  1.00  0.00    -0.274 OA
BRANCH  17  20
ATOM     20  C   UNL A   1      33.164  24.557  26.118  1.00  0.00     0.190 A 
ATOM     21  C   UNL A   1      34.050  27.582  24.420  1.00  0.00     0.068 C 
ATOM     22  C   UNL A   1      33.260  26.519  25.081  1.00  0.00     0.058 A 
ATOM     23  N   UNL A   1      33.946  25.361  25.456  1.00  0.00    -0.225 NA
ATOM     24  C   UNL A   1      31.913  26.513  25.382  1.00  0.00     0.059 A 
ATOM     25  S   UNL A   1      31.514  24.893  25.910  1.00  0.00    -0.096 S 
BRANCH  24  26
ATOM     26  C   UNL A   1      30.790  27.446  25.151  1.00  0.00    -0.006 A 
ATOM     27  C   UNL A   1      29.459  27.136  23.928  1.00  0.00     0.009 A 
ATOM     28  C   UNL A   1      31.261  29.160  25.489  1.00  0.00     0.009 A 
ATOM     29  C   UNL A   1      28.721  28.512  22.968  1.00  0.00     0.001 A 
ATOM     30  C   UNL A   1      30.562  30.513  24.534  1.00  0.00     0.001 A 
ATOM     31  C   UNL A   1      29.346  30.208  23.231  1.00  0.00     0.000 A 
ENDBRANCH  24  26
ENDBRANCH  17  20
ENDBRANCH  10  16
ENDBRANCH   7   9
ENDBRANCH   6   7
ENDBRANCH   5   6
ENDBRANCH   4   5
ENDBRANCH   3   4
ENDBRANCH   2   3
ENDBRANCH   1   2
BRANCH   1  32
ATOM     32  O   UNL A   1      37.587  21.307  25.668  1.00  0.00    -0.377 OA
BRANCH  32  33
ATOM     33  C   UNL A   1      38.787  20.536  25.628  1.00  0.00     0.188 C 
BRANCH  33  34
ATOM     34  C   UNL A   1      39.974  21.124  26.446  1.00  0.00     0.188 C 
BRANCH  34  35
ATOM     35  O   UNL A   1      40.510  20.397  27.568  1.00  0.00    -0.376 OA
BRANCH  35  36
ATOM     36  C   UNL A   1      41.681  19.597  27.342  1.00  0.00     0.202 C 
BRANCH  36  37
ATOM     37  C   UNL A   1      42.498  19.982  26.029  1.00  0.00     0.261 C 
BRANCH  37  38
ATOM     38  O   UNL A   1      43.049  21.619  25.912  1.00  0.00    -0.460 OA
BRANCH  38  39
ATOM     39  C   UNL A   1      42.840  23.443  25.595  1.00  0.00     0.338 C 
ATOM     40  O   UNL A   1      43.437  24.146  24.708  1.00  0.00    -0.246 OA
BRANCH  39  41
ATOM     41  C   UNL A   1      41.841  24.490  26.204  1.00  0.00     0.060 A 
ATOM     42  C   UNL A   1      41.739  25.805  25.676  1.00  0.00     0.016 A 
ATOM     43  C   UNL A   1      41.556  24.305  27.561  1.00  0.00     0.016 A 
ATOM     44  C   UNL A   1      41.443  26.903  26.474  1.00  0.00     0.010 A 
ATOM     45  C   UNL A   1      41.295  25.408  28.371  1.00  0.00     0.010 A 
ATOM     46  C   UNL A   1      41.303  26.706  27.837  1.00  0.00    -0.014 A 
BRANCH  46  47
ATOM     47  C   UNL A   1      41.299  27.839  28.773  1.00  0.00     0.031 A 
ATOM     48  C   UNL A   1      42.171  27.761  29.985  1.00  0.00     0.074 A 
ATOM     49  C   UNL A   1      40.390  28.807  28.603  1.00  0.00     0.049 A 
ATOM     50  N   UNL A   1      42.007  28.312  31.156  1.00  0.00    -0.248 NA
ATOM     51  C   UNL A   1      43.374  26.920  29.867  1.00  0.00     0.031 C 
ATOM     52  C   UNL A   1      39.572  28.993  27.406  1.00  0.00     0.029 A 
ATOM     53  N   UNL A   1      39.934  29.745  29.488  1.00  0.00    -0.354 N 
ATOM     54  C   UNL A   1      43.045  27.829  31.942  1.00  0.00     0.074 A 
ATOM     55  C   UNL A   1      43.852  26.967  31.105  1.00  0.00     0.031 C 
ATOM     56  C   UNL A   1      38.638  29.920  27.665  1.00  0.00     0.029 A 
ATOM     57  C   UNL A   1      38.766  30.325  29.062  1.00  0.00     0.049 A 
ATOM     58  H   UNL A   1      40.389  29.976  30.329  1.00  0.00     0.167 HD
ATOM     59  C   UNL A   1      43.261  28.070  33.256  1.00  0.00     0.037 A 
ATOM     60  C   UNL A   1      37.851  31.022  29.758  1.00  0.00     0.037 A 
ATOM     61  C   UNL A   1      42.423  28.943  34.038  1.00  0.00     0.049 A 
ATOM     62  C   UNL A   1      38.088  31.259  31.221  1.00  0.00     0.074 A 
ATOM     63  C   UNL A   1      42.545  29.305  35.367  1.00  0.00     0.029 A 
ATOM     64  N   UNL A   1      41.298  29.594  33.545  1.00  0.00    -0.354 N 
ATOM     65  N   UNL A   1      39.044  30.792  31.988  1.00  0.00    -0.248 NA
ATOM     66  C   UNL A   1      37.124  32.119  31.913  1.00  0.00     0.031 C 
ATOM     67  C   UNL A   1      41.472  30.146  35.687  1.00  0.00     0.029 A 
ATOM     68  C   UNL A   1      40.711  30.349  34.545  1.00  0.00     0.049 A 
ATOM     69  H   UNL A   1      40.968  29.527  32.621  1.00  0.00     0.167 HD
ATOM     70  C   UNL A   1      38.823  31.332  33.246  1.00  0.00     0.074 A 
ATOM     71  C   UNL A   1      37.633  32.155  33.138  1.00  0.00     0.031 C 
ATOM     72  C   UNL A   1      39.539  31.172  34.386  1.00  0.00     0.037 A 
BRANCH  59  73
ATOM     73  C   UNL A   1      44.394  27.356  33.934  1.00  0.00     0.064 A 
ATOM     74  C   UNL A   1      44.243  26.078  34.493  1.00  0.00     0.173 A 
ATOM     75  C   UNL A   1      45.669  27.944  33.988  1.00  0.00     0.173 A 
ATOM     76  F   UNL A   1      43.047  25.473  34.479  1.00  0.00    -0.203 F 
ATOM     77  C   UNL A   1      45.318  25.427  35.097  1.00  0.00     0.198 A 
ATOM     78  C   UNL A   1      46.747  27.278  34.565  1.00  0.00     0.198 A 
ATOM     79  F   UNL A   1      45.874  29.163  33.465  1.00  0.00    -0.203 F 
ATOM     80  F   UNL A   1      45.140  24.222  35.657  1.00  0.00    -0.200 F 
ATOM     81  C   UNL A   1      46.571  26.023  35.125  1.00  0.00     0.200 A 
ATOM     82  F   UNL A   1      47.959  27.851  34.577  1.00  0.00    -0.200 F 
ATOM     83  F   UNL A   1      47.605  25.389  35.694  1.00  0.00    -0.200 F 
ENDBRANCH  59  73
BRANCH  60  84
ATOM     84  C   UNL A   1      36.636  31.506  29.064  1.00  0.00     0.064 A 
ATOM     85  C   UNL A   1      35.574  30.631  28.806  1.00  0.00     0.173 A 
ATOM     86  C   UNL A   1      36.471  32.857  28.723  1.00  0.00     0.173 A 
ATOM     87  F   UNL A   1      35.694  29.331  29.110  1.00  0.00    -0.203 F 
ATOM     88  C   UNL A   1      34.392  31.088  28.232  1.00  0.00     0.198 A 
ATOM     89  C   UNL A   1      35.278  33.318  28.170  1.00  0.00     0.198 A 
ATOM     90  F   UNL A   1      37.454  33.738  28.968  1.00  0.00    -0.203 F 
ATOM     91  F   UNL A   1      33.396  30.226  27.983  1.00  0.00    -0.200 F 
ATOM     92  C   UNL A   1      34.241  32.432  27.923  1.00  0.00     0.200 A 
ATOM     93  F   UNL A   1      35.128  34.621  27.895  1.00  0.00    -0.200 F 
ATOM     94  F   UNL A   1      33.092  32.874  27.393  1.00  0.00    -0.200 F 
ENDBRANCH  60  84
BRANCH  72  95
ATOM     95  C   UNL A   1      39.095  31.958  35.581  1.00  0.00     0.064 A 
ATOM     96  C   UNL A   1      39.457  33.300  35.756  1.00  0.00     0.173 A 
ATOM     97  C   UNL A   1      38.248  31.368  36.531  1.00  0.00     0.173 A 
ATOM     98  F   UNL A   1      40.279  33.897  34.881  1.00  0.00    -0.203 F 
ATOM     99  C   UNL A   1      38.995  34.022  36.852  1.00  0.00     0.198 A 
ATOM    100  C   UNL A   1      37.770  32.101  37.611  1.00  0.00     0.198 A 
ATOM    101  F   UNL A   1      37.873  30.087  36.399  1.00  0.00    -0.203 F 
ATOM    102  F   UNL A   1      39.379  35.295  37.022  1.00  0.00    -0.200 F 
ATOM    103  C   UNL A   1      38.146  33.425  37.774  1.00  0.00     0.200 A 
ATOM    104  F   UNL A   1      36.941  31.525  38.494  1.00  0.00    -0.200 F 
ATOM    105  F   UNL A   1      37.695  34.126  38.822  1.00  0.00    -0.200 F 
ENDBRANCH  72  95
ENDBRANCH  46  47
ENDBRANCH  39  41
ENDBRANCH  38  39
ENDBRANCH  37  38
ENDBRANCH  36  37
ENDBRANCH  35  36
ENDBRANCH  34  35
ENDBRANCH  33  34
ENDBRANCH  32  33
ENDBRANCH   1  32
TORSDOF 23
ENDMDL
MODEL 3
REMARK VINA RESULT:     -10.3      1.905      4.376
REMARK SMILES Cc1nc(NC(=O)[C@H]2[C@@H]3CC[C@@H](C3)[C@@H]2C(=O)OCCOCCOCCOCCOC(=O)c2ccc(-c3c4nc(c(-c5c(F)c(F)c(F)c(F)c5F)c5ccc([nH]5)c(-c5c(F)c(F)c(F)c(F)c5F)c5nc(c(-c6c(F)c(F)c(F)c(F)c6F)c6ccc3[nH]6)C=C5)C=C4)cc2)sc1-c1ccccc1
REMARK SMILES IDX 22 1 21 2 20 3 19 4 18 5 17 6 15 7 16 8 14 9 8 10 9 11 10 12
REMARK SMILES IDX 13 13 12 14 11 15 6 16 5 17 7 19 4 20 1 21 2 22 3 23 96 24
REMARK SMILES IDX 95 25 97 26 98 27 102 28 99 29 101 30 100 31 23 32 24 33
REMARK SMILES IDX 25 34 26 35 27 36 28 37 29 38 30 39 31 40 32 41 33 42 94 43
REMARK SMILES IDX 34 44 93 45 35 46 36 47 37 48 87 49 38 50 92 51 86 52 88 53
REMARK SMILES IDX 39 54 91 55 85 56 84 57 40 59 72 60 52 61 71 62 53 63 56 64
REMARK SMILES IDX 70 65 89 66 54 67 55 68 69 70 90 71 57 72 41 73 42 74 50 75
REMARK SMILES IDX 43 76 44 77 48 78 51 79 45 80 46 81 49 82 47 83 73 84 74 85
REMARK SMILES IDX 82 86 75 87 76 88 80 89 83 90 77 91 78 92 81 93 79 94 58 95
REMARK SMILES IDX 59 96 67 97 60 98 61 99 65 100 68 101 62 102 63 103 66 104
REMARK SMILES IDX 64 105
REMARK H PARENT 5 18 88 58 56 69
REMARK Flexibility Score: inf
ROOT
ATOM      1  C   UNL A   1      37.505  23.337  25.882  1.00  0.00     0.188 C 
ENDROOT
BRANCH   1   2
ATOM      2  C   UNL A   1      36.243  24.105  25.482  1.00  0.00     0.188 C 
BRANCH   2   3
ATOM      3  O   UNL A   1      35.333  23.385  24.649  1.00  0.00    -0.376 OA
BRANCH   3   4
ATOM      4  C   UNL A   1      35.371  23.635  23.243  1.00  0.00     0.202 C 
BRANCH   4   5
ATOM      5  C   UNL A   1      34.111  23.249  22.457  1.00  0.00     0.261 C 
BRANCH   5   6
ATOM      6  O   UNL A   1      33.001  23.081  23.348  1.00  0.00    -0.463 OA
BRANCH   6   7
ATOM      7  C   UNL A   1      32.341  21.891  23.307  1.00  0.00     0.310 C 
ATOM      8  O   UNL A   1      32.110  21.239  22.291  1.00  0.00    -0.252 OA
BRANCH   7   9
ATOM      9  C   UNL A   1      32.054  21.451  24.724  1.00  0.00     0.115 C 
ATOM     10  C   UNL A   1      32.852  22.177  25.806  1.00  0.00     0.096 C 
ATOM     11  C   UNL A   1      33.675  21.027  26.435  1.00  0.00     0.003 C 
ATOM     12  C   UNL A   1      34.645  20.443  25.379  1.00  0.00     0.005 C 
ATOM     13  C   UNL A   1      32.618  19.932  26.525  1.00  0.00     0.009 C 
ATOM     14  C   UNL A   1      32.332  19.958  25.015  1.00  0.00     0.004 C 
ATOM     15  C   UNL A   1      33.726  19.583  24.493  1.00  0.00     0.005 C 
BRANCH  10  16
ATOM     16  C   UNL A   1      32.125  22.960  26.914  1.00  0.00     0.230 C 
ATOM     17  N   UNL A   1      31.760  24.263  26.960  1.00  0.00    -0.302 N 
ATOM     18  H   UNL A   1      31.223  24.481  27.758  1.00  0.00     0.172 HD
ATOM     19  O   UNL A   1      31.783  22.307  27.919  1.00  0.00    -0.274 OA
BRANCH  17  20
ATOM     20  C   UNL A   1      31.968  25.342  26.150  1.00  0.00     0.190 A 
ATOM     21  C   UNL A   1      33.351  28.548  25.357  1.00  0.00     0.068 C 
ATOM     22  C   UNL A   1      32.456  27.369  25.384  1.00  0.00     0.058 A 
ATOM     23  N   UNL A   1      32.889  26.263  26.119  1.00  0.00    -0.225 NA
ATOM     24  C   UNL A   1      31.230  27.208  24.770  1.00  0.00     0.059 A 
ATOM     25  S   UNL A   1      30.786  25.525  24.947  1.00  0.00    -0.096 S 
BRANCH  24  26
ATOM     26  C   UNL A   1      30.398  28.039  23.875  1.00  0.00    -0.006 A 
ATOM     27  C   UNL A   1      30.523  29.867  23.792  1.00  0.00     0.009 A 
ATOM     28  C   UNL A   1      28.790  27.276  23.550  1.00  0.00     0.009 A 
ATOM     29  C   UNL A   1      29.035  30.904  23.530  1.00  0.00     0.001 A 
ATOM     30  C   UNL A   1      27.320  28.284  23.319  1.00  0.00     0.001 A 
ATOM     31  C   UNL A   1      27.408  30.090  23.370  1.00  0.00     0.000 A 
ENDBRANCH  24  26
ENDBRANCH  17  20
ENDBRANCH  10  16
ENDBRANCH   7   9
ENDBRANCH   6   7
ENDBRANCH   5   6
ENDBRANCH   4   5
ENDBRANCH   3   4
ENDBRANCH   2   3
ENDBRANCH   1   2
BRANCH   1  32
ATOM     32  O   UNL A   1      37.375  21.930  25.695  1.00  0.00    -0.377 OA
BRANCH  32  33
ATOM     33  C   UNL A   1      38.632  21.258  25.629  1.00  0.00     0.188 C 
BRANCH  33  34
ATOM     34  C   UNL A   1      39.751  21.869  26.522  1.00  0.00     0.188 C 
BRANCH  34  35
ATOM     35  O   UNL A   1      40.363  21.076  27.557  1.00  0.00    -0.376 OA
BRANCH  35  36
ATOM     36  C   UNL A   1      41.660  20.521  27.288  1.00  0.00     0.202 C 
BRANCH  36  37
ATOM     37  C   UNL A   1      42.174  20.742  25.796  1.00  0.00     0.261 C 
BRANCH  37  38
ATOM     38  O   UNL A   1      42.585  22.364  25.351  1.00  0.00    -0.460 OA
BRANCH  38  39
ATOM     39  C   UNL A   1      42.780  24.191  25.658  1.00  0.00     0.338 C 
ATOM     40  O   UNL A   1      42.335  25.147  24.934  1.00  0.00    -0.246 OA
BRANCH  39  41
ATOM     41  C   UNL A   1      43.381  24.976  26.878  1.00  0.00     0.060 A 
ATOM     42  C   UNL A   1      42.804  24.880  28.173  1.00  0.00     0.016 A 
ATOM     43  C   UNL A   1      44.040  26.163  26.541  1.00  0.00     0.016 A 
ATOM     44  C   UNL A   1      42.813  25.942  29.069  1.00  0.00     0.010 A 
ATOM     45  C   UNL A   1      44.019  27.242  27.421  1.00  0.00     0.010 A 
ATOM     46  C   UNL A   1      43.352  27.148  28.652  1.00  0.00    -0.014 A 
BRANCH  46  47
ATOM     47  C   UNL A   1      43.123  28.385  29.412  1.00  0.00     0.031 A 
ATOM     48  C   UNL A   1      44.013  28.678  30.577  1.00  0.00     0.074 A 
ATOM     49  C   UNL A   1      42.025  29.105  29.148  1.00  0.00     0.049 A 
ATOM     50  N   UNL A   1      43.756  29.355  31.662  1.00  0.00    -0.248 NA
ATOM     51  C   UNL A   1      45.366  28.098  30.524  1.00  0.00     0.031 C 
ATOM     52  C   UNL A   1      41.165  28.930  27.980  1.00  0.00     0.029 A 
ATOM     53  N   UNL A   1      41.395  30.051  29.908  1.00  0.00    -0.354 N 
ATOM     54  C   UNL A   1      44.888  29.225  32.457  1.00  0.00     0.074 A 
ATOM     55  C   UNL A   1      45.845  28.433  31.715  1.00  0.00     0.031 C 
ATOM     56  C   UNL A   1      40.060  29.671  28.147  1.00  0.00     0.029 A 
ATOM     57  C   UNL A   1      40.123  30.303  29.461  1.00  0.00     0.049 A 
ATOM     58  H   UNL A   1      41.806  30.498  30.683  1.00  0.00     0.167 HD
ATOM     59  C   UNL A   1      45.070  29.705  33.710  1.00  0.00     0.037 A 
ATOM     60  C   UNL A   1      39.093  30.892  30.093  1.00  0.00     0.037 A 
ATOM     61  C   UNL A   1      44.080  30.494  34.396  1.00  0.00     0.049 A 
ATOM     62  C   UNL A   1      39.299  31.395  31.492  1.00  0.00     0.074 A 
ATOM     63  C   UNL A   1      44.145  31.072  35.651  1.00  0.00     0.029 A 
ATOM     64  N   UNL A   1      42.833  30.812  33.871  1.00  0.00    -0.354 N 
ATOM     65  N   UNL A   1      40.347  31.261  32.270  1.00  0.00    -0.248 NA
ATOM     66  C   UNL A   1      38.187  32.130  32.099  1.00  0.00     0.031 C 
ATOM     67  C   UNL A   1      42.923  31.710  35.897  1.00  0.00     0.029 A 
ATOM     68  C   UNL A   1      42.116  31.572  34.778  1.00  0.00     0.049 A 
ATOM     69  H   UNL A   1      42.508  30.536  32.984  1.00  0.00     0.167 HD
ATOM     70  C   UNL A   1      40.038  31.928  33.446  1.00  0.00     0.074 A 
ATOM     71  C   UNL A   1      38.699  32.459  33.278  1.00  0.00     0.031 C 
ATOM     72  C   UNL A   1      40.792  32.098  34.559  1.00  0.00     0.037 A 
BRANCH  59  73
ATOM     73  C   UNL A   1      46.342  29.355  34.427  1.00  0.00     0.064 A 
ATOM     74  C   UNL A   1      46.469  28.188  35.195  1.00  0.00     0.173 A 
ATOM     75  C   UNL A   1      47.471  30.183  34.308  1.00  0.00     0.173 A 
ATOM     76  F   UNL A   1      45.422  27.366  35.351  1.00  0.00    -0.203 F 
ATOM     77  C   UNL A   1      47.669  27.875  35.832  1.00  0.00     0.198 A 
ATOM     78  C   UNL A   1      48.676  29.852  34.922  1.00  0.00     0.198 A 
ATOM     79  F   UNL A   1      47.410  31.310  33.583  1.00  0.00    -0.203 F 
ATOM     80  F   UNL A   1      47.754  26.774  36.591  1.00  0.00    -0.200 F 
ATOM     81  C   UNL A   1      48.774  28.702  35.689  1.00  0.00     0.200 A 
ATOM     82  F   UNL A   1      49.746  30.646  34.769  1.00  0.00    -0.200 F 
ATOM     83  F   UNL A   1      49.929  28.391  36.291  1.00  0.00    -0.200 F 
ENDBRANCH  59  73
BRANCH  60  84
ATOM     84  C   UNL A   1      37.790  30.999  29.397  1.00  0.00     0.064 A 
ATOM     85  C   UNL A   1      37.385  32.217  28.838  1.00  0.00     0.173 A 
ATOM     86  C   UNL A   1      36.967  29.880  29.201  1.00  0.00     0.173 A 
ATOM     87  F   UNL A   1      38.140  33.312  29.009  1.00  0.00    -0.203 F 
ATOM     88  C   UNL A   1      36.204  32.313  28.109  1.00  0.00     0.198 A 
ATOM     89  C   UNL A   1      35.796  29.973  28.451  1.00  0.00     0.198 A 
ATOM     90  F   UNL A   1      37.322  28.687  29.702  1.00  0.00    -0.203 F 
ATOM     91  F   UNL A   1      35.833  33.495  27.596  1.00  0.00    -0.200 F 
ATOM     92  C   UNL A   1      35.415  31.190  27.908  1.00  0.00     0.200 A 
ATOM     93  F   UNL A   1      35.049  28.880  28.239  1.00  0.00    -0.200 F 
ATOM     94  F   UNL A   1      34.291  31.280  27.185  1.00  0.00    -0.200 F 
ENDBRANCH  60  84
BRANCH  72  95
ATOM     95  C   UNL A   1      40.212  32.948  35.647  1.00  0.00     0.064 A 
ATOM     96  C   UNL A   1      40.523  34.310  35.764  1.00  0.00     0.173 A 
ATOM     97  C   UNL A   1      39.288  32.398  36.547  1.00  0.00     0.173 A 
ATOM     98  F   UNL A   1      41.415  34.872  34.934  1.00  0.00    -0.203 F 
ATOM     99  C   UNL A   1      39.937  35.088  36.756  1.00  0.00     0.198 A 
ATOM    100  C   UNL A   1      38.687  33.185  37.522  1.00  0.00     0.198 A 
ATOM    101  F   UNL A   1      38.959  31.099  36.468  1.00  0.00    -0.203 F 
ATOM    102  F   UNL A   1      40.271  36.380  36.875  1.00  0.00    -0.200 F 
ATOM    103  C   UNL A   1      39.014  34.528  37.629  1.00  0.00     0.200 A 
ATOM    104  F   UNL A   1      37.788  32.645  38.357  1.00  0.00    -0.200 F 
ATOM    105  F   UNL A   1      38.444  35.284  38.577  1.00  0.00    -0.200 F 
ENDBRANCH  72  95
ENDBRANCH  46  47
ENDBRANCH  39  41
ENDBRANCH  38  39
ENDBRANCH  37  38
ENDBRANCH  36  37
ENDBRANCH  35  36
ENDBRANCH  34  35
ENDBRANCH  33  34
ENDBRANCH  32  33
ENDBRANCH   1  32
TORSDOF 23
ENDMDL
