MODEL 1
REMARK VINA RESULT:     -10.5      0.000      0.000
REMARK SMILES C[C@@H](C(=O)OCCOCCOCCOCCOC(=O)c1ccc(-c2c3nc(c(-c4c(F)c(F)c(F)c(F)c4F)c4ccc([nH]4)c(-c4c(F)c(F)c(F)c(F)c4F)c4nc(c(-c5c(F)c(F)c(F)c(F)c5F)c5ccc2[nH]5)C=C4)C=C3)cc1)c1ccc(C[C@H]2CCCC2=O)cc1F
REMARK SMILES IDX 10 1 9 2 8 3 7 4 6 5 5 6 3 7 4 8 2 9 1 10 83 11 84 12 95 13
REMARK SMILES IDX 85 14 94 15 96 16 86 17 87 18 88 19 89 20 92 21 90 22 91 23
REMARK SMILES IDX 93 24 11 25 12 26 13 27 14 28 15 29 16 30 17 31 18 32 19 33
REMARK SMILES IDX 20 34 21 35 82 36 22 37 81 38 23 39 24 40 25 41 75 42 26 43
REMARK SMILES IDX 80 44 74 45 76 46 27 47 79 48 73 49 72 50 28 52 60 53 40 54
REMARK SMILES IDX 59 55 41 56 44 57 58 58 77 59 42 60 43 61 57 63 78 64 45 65
REMARK SMILES IDX 29 66 30 67 38 68 31 69 32 70 36 71 39 72 33 73 34 74 37 75
REMARK SMILES IDX 35 76 61 77 62 78 70 79 63 80 64 81 68 82 71 83 65 84 66 85
REMARK SMILES IDX 69 86 67 87 46 88 47 89 55 90 48 91 49 92 53 93 56 94 50 95
REMARK SMILES IDX 51 96 54 97 52 98
REMARK H PARENT 76 51 44 62
REMARK Flexibility Score: inf
ROOT
ATOM      1  C   UNL A   1      33.954  25.530  22.998  1.00  0.00     0.188 C 
ENDROOT
BRANCH   1   2
ATOM      2  C   UNL A   1      32.579  24.843  22.913  1.00  0.00     0.188 C 
BRANCH   2   3
ATOM      3  O   UNL A   1      31.466  25.674  23.153  1.00  0.00    -0.376 OA
BRANCH   3   4
ATOM      4  C   UNL A   1      30.302  25.138  23.757  1.00  0.00     0.202 C 
BRANCH   4   5
ATOM      5  C   UNL A   1      29.540  25.701  24.982  1.00  0.00     0.261 C 
BRANCH   5   6
ATOM      6  O   UNL A   1      30.137  25.694  26.288  1.00  0.00    -0.463 OA
BRANCH   6   7
ATOM      7  C   UNL A   1      30.579  24.498  26.765  1.00  0.00     0.313 C 
ATOM      8  O   UNL A   1      29.828  23.597  27.125  1.00  0.00    -0.252 OA
BRANCH   7   9
ATOM      9  C   UNL A   1      32.115  24.398  26.871  1.00  0.00     0.129 C 
ATOM     10  C   UNL A   1      32.963  25.585  26.394  1.00  0.00     0.025 C 
BRANCH   9  11
ATOM     11  C   UNL A   1      32.654  23.078  26.327  1.00  0.00     0.002 A 
ATOM     12  C   UNL A   1      32.017  22.455  25.247  1.00  0.00     0.008 A 
ATOM     13  C   UNL A   1      33.785  22.439  26.847  1.00  0.00     0.127 A 
ATOM     14  C   UNL A   1      32.532  21.275  24.697  1.00  0.00     0.004 A 
ATOM     15  C   UNL A   1      34.318  21.282  26.296  1.00  0.00     0.043 A 
ATOM     16  F   UNL A   1      34.388  22.888  27.942  1.00  0.00    -0.207 F 
ATOM     17  C   UNL A   1      33.691  20.680  25.212  1.00  0.00    -0.044 A 
BRANCH  17  18
ATOM     18  C   UNL A   1      34.243  19.394  24.652  1.00  0.00     0.047 C 
BRANCH  18  19
ATOM     19  C   UNL A   1      33.199  18.398  24.137  1.00  0.00     0.060 C 
ATOM     20  C   UNL A   1      33.623  17.492  22.977  1.00  0.00     0.012 C 
ATOM     21  C   UNL A   1      32.819  17.398  25.201  1.00  0.00     0.136 C 
ATOM     22  C   UNL A   1      34.059  16.166  23.590  1.00  0.00     0.009 C 
ATOM     23  C   UNL A   1      33.233  15.993  24.857  1.00  0.00     0.076 C 
ATOM     24  O   UNL A   1      32.244  17.699  26.241  1.00  0.00    -0.299 OA
ENDBRANCH  18  19
ENDBRANCH  17  18
ENDBRANCH   9  11
ENDBRANCH   7   9
ENDBRANCH   6   7
ENDBRANCH   5   6
ENDBRANCH   4   5
ENDBRANCH   3   4
ENDBRANCH   2   3
ENDBRANCH   1   2
BRANCH   1  25
ATOM     25  O   UNL A   1      35.051  24.682  22.732  1.00  0.00    -0.377 OA
BRANCH  25  26
ATOM     26  C   UNL A   1      35.224  23.564  23.588  1.00  0.00     0.188 C 
BRANCH  26  27
ATOM     27  C   UNL A   1      36.462  22.649  23.457  1.00  0.00     0.188 C 
BRANCH  27  28
ATOM     28  O   UNL A   1      37.342  22.659  24.571  1.00  0.00    -0.376 OA
BRANCH  28  29
ATOM     29  C   UNL A   1      37.801  21.432  25.114  1.00  0.00     0.202 C 
BRANCH  29  30
ATOM     30  C   UNL A   1      39.207  21.409  25.731  1.00  0.00     0.261 C 
BRANCH  30  31
ATOM     31  O   UNL A   1      39.639  20.159  26.288  1.00  0.00    -0.460 OA
BRANCH  31  32
ATOM     32  C   UNL A   1      40.944  19.826  26.160  1.00  0.00     0.338 C 
ATOM     33  O   UNL A   1      41.407  18.823  25.668  1.00  0.00    -0.246 OA
BRANCH  32  34
ATOM     34  C   UNL A   1      41.730  21.020  26.547  1.00  0.00     0.060 A 
ATOM     35  C   UNL A   1      41.853  21.340  27.906  1.00  0.00     0.016 A 
ATOM     36  C   UNL A   1      42.378  21.789  25.577  1.00  0.00     0.016 A 
ATOM     37  C   UNL A   1      42.603  22.447  28.298  1.00  0.00     0.010 A 
ATOM     38  C   UNL A   1      43.101  22.917  25.967  1.00  0.00     0.010 A 
ATOM     39  C   UNL A   1      43.188  23.268  27.326  1.00  0.00    -0.014 A 
BRANCH  39  40
ATOM     40  C   UNL A   1      43.675  24.613  27.709  1.00  0.00     0.031 A 
ATOM     41  C   UNL A   1      42.649  25.654  28.062  1.00  0.00     0.074 A 
ATOM     42  C   UNL A   1      44.986  24.900  27.767  1.00  0.00     0.049 A 
ATOM     43  N   UNL A   1      42.809  26.913  28.374  1.00  0.00    -0.248 NA
ATOM     44  C   UNL A   1      41.245  25.208  28.058  1.00  0.00     0.031 C 
ATOM     45  C   UNL A   1      46.071  23.961  27.501  1.00  0.00     0.029 A 
ATOM     46  N   UNL A   1      45.622  26.080  28.064  1.00  0.00    -0.354 N 
ATOM     47  C   UNL A   1      41.531  27.410  28.591  1.00  0.00     0.074 A 
ATOM     48  C   UNL A   1      40.603  26.328  28.347  1.00  0.00     0.031 C 
ATOM     49  C   UNL A   1      47.245  24.605  27.636  1.00  0.00     0.029 A 
ATOM     50  C   UNL A   1      46.989  26.008  27.960  1.00  0.00     0.049 A 
ATOM     51  H   UNL A   1      45.144  26.899  28.326  1.00  0.00     0.167 HD
ATOM     52  C   UNL A   1      41.165  28.658  28.966  1.00  0.00     0.037 A 
ATOM     53  C   UNL A   1      47.919  26.976  28.088  1.00  0.00     0.037 A 
ATOM     54  C   UNL A   1      42.093  29.730  29.204  1.00  0.00     0.049 A 
ATOM     55  C   UNL A   1      47.479  28.381  28.420  1.00  0.00     0.074 A 
ATOM     56  C   UNL A   1      41.828  31.026  29.606  1.00  0.00     0.029 A 
ATOM     57  N   UNL A   1      43.468  29.630  29.049  1.00  0.00    -0.354 N 
ATOM     58  N   UNL A   1      46.272  28.841  28.650  1.00  0.00    -0.248 NA
ATOM     59  C   UNL A   1      48.532  29.401  28.514  1.00  0.00     0.031 C 
ATOM     60  C   UNL A   1      43.036  31.730  29.628  1.00  0.00     0.029 A 
ATOM     61  C   UNL A   1      44.062  30.854  29.313  1.00  0.00     0.049 A 
ATOM     62  H   UNL A   1      43.950  28.812  28.789  1.00  0.00     0.167 HD
ATOM     63  C   UNL A   1      46.425  30.190  28.950  1.00  0.00     0.074 A 
ATOM     64  C   UNL A   1      47.845  30.470  28.884  1.00  0.00     0.031 C 
ATOM     65  C   UNL A   1      45.479  31.113  29.254  1.00  0.00     0.037 A 
BRANCH  52  66
ATOM     66  C   UNL A   1      39.696  28.940  29.098  1.00  0.00     0.064 A 
ATOM     67  C   UNL A   1      39.027  28.842  30.327  1.00  0.00     0.173 A 
ATOM     68  C   UNL A   1      38.950  29.334  27.976  1.00  0.00     0.173 A 
ATOM     69  F   UNL A   1      39.689  28.450  31.427  1.00  0.00    -0.203 F 
ATOM     70  C   UNL A   1      37.663  29.103  30.423  1.00  0.00     0.198 A 
ATOM     71  C   UNL A   1      37.594  29.628  28.082  1.00  0.00     0.198 A 
ATOM     72  F   UNL A   1      39.539  29.442  26.776  1.00  0.00    -0.203 F 
ATOM     73  F   UNL A   1      37.034  28.951  31.598  1.00  0.00    -0.200 F 
ATOM     74  C   UNL A   1      36.949  29.504  29.304  1.00  0.00     0.200 A 
ATOM     75  F   UNL A   1      36.910  30.028  27.001  1.00  0.00    -0.200 F 
ATOM     76  F   UNL A   1      35.638  29.762  29.400  1.00  0.00    -0.200 F 
ENDBRANCH  52  66
BRANCH  53  77
ATOM     77  C   UNL A   1      49.359  26.661  27.888  1.00  0.00     0.064 A 
ATOM     78  C   UNL A   1      50.211  26.442  28.981  1.00  0.00     0.173 A 
ATOM     79  C   UNL A   1      49.923  26.607  26.605  1.00  0.00     0.173 A 
ATOM     80  F   UNL A   1      49.727  26.511  30.230  1.00  0.00    -0.203 F 
ATOM     81  C   UNL A   1      51.572  26.202  28.799  1.00  0.00     0.198 A 
ATOM     82  C   UNL A   1      51.278  26.335  26.422  1.00  0.00     0.198 A 
ATOM     83  F   UNL A   1      49.157  26.815  25.524  1.00  0.00    -0.203 F 
ATOM     84  F   UNL A   1      52.371  26.051  29.864  1.00  0.00    -0.200 F 
ATOM     85  C   UNL A   1      52.103  26.143  27.519  1.00  0.00     0.200 A 
ATOM     86  F   UNL A   1      51.784  26.267  25.184  1.00  0.00    -0.200 F 
ATOM     87  F   UNL A   1      53.411  25.911  27.345  1.00  0.00    -0.200 F 
ENDBRANCH  53  77
BRANCH  65  88
ATOM     88  C   UNL A   1      45.945  32.502  29.591  1.00  0.00     0.064 A 
ATOM     89  C   UNL A   1      46.050  33.507  28.619  1.00  0.00     0.173 A 
ATOM     90  C   UNL A   1      46.246  32.843  30.920  1.00  0.00     0.173 A 
ATOM     91  F   UNL A   1      45.786  33.232  27.333  1.00  0.00    -0.203 F 
ATOM     92  C   UNL A   1      46.467  34.792  28.958  1.00  0.00     0.198 A 
ATOM     93  C   UNL A   1      46.626  34.138  31.262  1.00  0.00     0.198 A 
ATOM     94  F   UNL A   1      46.152  31.923  31.893  1.00  0.00    -0.203 F 
ATOM     95  F   UNL A   1      46.612  35.721  28.004  1.00  0.00    -0.200 F 
ATOM     96  C   UNL A   1      46.746  35.108  30.280  1.00  0.00     0.200 A 
ATOM     97  F   UNL A   1      46.875  34.445  32.543  1.00  0.00    -0.200 F 
ATOM     98  F   UNL A   1      47.136  36.347  30.606  1.00  0.00    -0.200 F 
ENDBRANCH  65  88
ENDBRANCH  39  40
ENDBRANCH  32  34
ENDBRANCH  31  32
ENDBRANCH  30  31
ENDBRANCH  29  30
ENDBRANCH  28  29
ENDBRANCH  27  28
ENDBRANCH  26  27
ENDBRANCH  25  26
ENDBRANCH   1  25
TORSDOF 23
ENDMDL
MODEL 2
REMARK VINA RESULT:      -9.7      6.056     11.395
REMARK SMILES C[C@@H](C(=O)OCCOCCOCCOCCOC(=O)c1ccc(-c2c3nc(c(-c4c(F)c(F)c(F)c(F)c4F)c4ccc([nH]4)c(-c4c(F)c(F)c(F)c(F)c4F)c4nc(c(-c5c(F)c(F)c(F)c(F)c5F)c5ccc2[nH]5)C=C4)C=C3)cc1)c1ccc(C[C@H]2CCCC2=O)cc1F
REMARK SMILES IDX 10 1 9 2 8 3 7 4 6 5 5 6 3 7 4 8 2 9 1 10 83 11 84 12 95 13
REMARK SMILES IDX 85 14 94 15 96 16 86 17 87 18 88 19 89 20 92 21 90 22 91 23
REMARK SMILES IDX 93 24 11 25 12 26 13 27 14 28 15 29 16 30 17 31 18 32 19 33
REMARK SMILES IDX 20 34 21 35 82 36 22 37 81 38 23 39 24 40 25 41 75 42 26 43
REMARK SMILES IDX 80 44 74 45 76 46 27 47 79 48 73 49 72 50 28 52 60 53 40 54
REMARK SMILES IDX 59 55 41 56 44 57 58 58 77 59 42 60 43 61 57 63 78 64 45 65
REMARK SMILES IDX 29 66 30 67 38 68 31 69 32 70 36 71 39 72 33 73 34 74 37 75
REMARK SMILES IDX 35 76 61 77 62 78 70 79 63 80 64 81 68 82 71 83 65 84 66 85
REMARK SMILES IDX 69 86 67 87 46 88 47 89 55 90 48 91 49 92 53 93 56 94 50 95
REMARK SMILES IDX 51 96 54 97 52 98
REMARK H PARENT 76 51 44 62
REMARK Flexibility Score: inf
ROOT
ATOM      1  C   UNL A   1      37.000  32.731  34.319  1.00  0.00     0.188 C 
ENDROOT
BRANCH   1   2
ATOM      2  C   UNL A   1      35.622  33.260  33.880  1.00  0.00     0.188 C 
BRANCH   2   3
ATOM      3  O   UNL A   1      35.635  34.183  32.815  1.00  0.00    -0.376 OA
BRANCH   3   4
ATOM      4  C   UNL A   1      35.278  33.760  31.510  1.00  0.00     0.202 C 
BRANCH   4   5
ATOM      5  C   UNL A   1      35.185  32.302  30.992  1.00  0.00     0.261 C 
BRANCH   5   6
ATOM      6  O   UNL A   1      36.300  31.406  31.111  1.00  0.00    -0.463 OA
BRANCH   6   7
ATOM      7  C   UNL A   1      37.433  31.727  30.429  1.00  0.00     0.313 C 
ATOM      8  O   UNL A   1      37.433  32.397  29.400  1.00  0.00    -0.252 OA
BRANCH   7   9
ATOM      9  C   UNL A   1      38.718  31.119  31.030  1.00  0.00     0.129 C 
ATOM     10  C   UNL A   1      39.965  32.004  31.144  1.00  0.00     0.025 C 
BRANCH   9  11
ATOM     11  C   UNL A   1      39.057  29.759  30.427  1.00  0.00     0.002 A 
ATOM     12  C   UNL A   1      40.008  29.664  29.405  1.00  0.00     0.008 A 
ATOM     13  C   UNL A   1      38.467  28.563  30.852  1.00  0.00     0.127 A 
ATOM     14  C   UNL A   1      40.375  28.418  28.881  1.00  0.00     0.004 A 
ATOM     15  C   UNL A   1      38.838  27.320  30.358  1.00  0.00     0.043 A 
ATOM     16  F   UNL A   1      37.471  28.561  31.733  1.00  0.00    -0.207 F 
ATOM     17  C   UNL A   1      39.798  27.233  29.358  1.00  0.00    -0.044 A 
BRANCH  17  18
ATOM     18  C   UNL A   1      40.158  25.886  28.786  1.00  0.00     0.047 C 
BRANCH  18  19
ATOM     19  C   UNL A   1      41.513  25.813  28.075  1.00  0.00     0.060 C 
ATOM     20  C   UNL A   1      42.515  24.782  28.603  1.00  0.00     0.012 C 
ATOM     21  C   UNL A   1      41.358  25.397  26.632  1.00  0.00     0.136 C 
ATOM     22  C   UNL A   1      42.388  23.549  27.714  1.00  0.00     0.009 C 
ATOM     23  C   UNL A   1      41.976  24.058  26.340  1.00  0.00     0.076 C 
ATOM     24  O   UNL A   1      40.778  26.074  25.790  1.00  0.00    -0.299 OA
ENDBRANCH  18  19
ENDBRANCH  17  18
ENDBRANCH   9  11
ENDBRANCH   7   9
ENDBRANCH   6   7
ENDBRANCH   5   6
ENDBRANCH   4   5
ENDBRANCH   3   4
ENDBRANCH   2   3
ENDBRANCH   1   2
BRANCH   1  25
ATOM     25  O   UNL A   1      37.363  33.067  35.642  1.00  0.00    -0.377 OA
BRANCH  25  26
ATOM     26  C   UNL A   1      38.153  32.126  36.351  1.00  0.00     0.188 C 
BRANCH  26  27
ATOM     27  C   UNL A   1      38.669  32.438  37.775  1.00  0.00     0.188 C 
BRANCH  27  28
ATOM     28  O   UNL A   1      37.958  33.455  38.465  1.00  0.00    -0.376 OA
BRANCH  28  29
ATOM     29  C   UNL A   1      38.403  33.878  39.743  1.00  0.00     0.202 C 
BRANCH  29  30
ATOM     30  C   UNL A   1      38.967  35.301  39.866  1.00  0.00     0.261 C 
BRANCH  30  31
ATOM     31  O   UNL A   1      39.169  36.016  38.639  1.00  0.00    -0.460 OA
BRANCH  31  32
ATOM     32  C   UNL A   1      40.387  36.563  38.417  1.00  0.00     0.338 C 
ATOM     33  O   UNL A   1      41.005  37.309  39.140  1.00  0.00    -0.246 OA
BRANCH  32  34
ATOM     34  C   UNL A   1      40.934  35.911  37.205  1.00  0.00     0.060 A 
ATOM     35  C   UNL A   1      40.052  35.521  36.189  1.00  0.00     0.016 A 
ATOM     36  C   UNL A   1      42.311  35.731  37.056  1.00  0.00     0.016 A 
ATOM     37  C   UNL A   1      40.542  34.924  35.028  1.00  0.00     0.010 A 
ATOM     38  C   UNL A   1      42.799  35.102  35.910  1.00  0.00     0.010 A 
ATOM     39  C   UNL A   1      41.914  34.667  34.908  1.00  0.00    -0.014 A 
BRANCH  39  40
ATOM     40  C   UNL A   1      42.388  33.733  33.860  1.00  0.00     0.031 A 
ATOM     41  C   UNL A   1      42.724  34.309  32.513  1.00  0.00     0.074 A 
ATOM     42  C   UNL A   1      42.541  32.420  34.099  1.00  0.00     0.049 A 
ATOM     43  N   UNL A   1      43.103  33.705  31.417  1.00  0.00    -0.248 NA
ATOM     44  C   UNL A   1      42.612  35.772  32.386  1.00  0.00     0.031 C 
ATOM     45  C   UNL A   1      42.300  31.759  35.378  1.00  0.00     0.029 A 
ATOM     46  N   UNL A   1      42.931  31.407  33.259  1.00  0.00    -0.354 N 
ATOM     47  C   UNL A   1      43.262  34.709  30.472  1.00  0.00     0.074 A 
ATOM     48  C   UNL A   1      42.912  35.958  31.111  1.00  0.00     0.031 C 
ATOM     49  C   UNL A   1      42.538  30.442  35.236  1.00  0.00     0.029 A 
ATOM     50  C   UNL A   1      42.909  30.167  33.848  1.00  0.00     0.049 A 
ATOM     51  H   UNL A   1      43.200  31.554  32.325  1.00  0.00     0.167 HD
ATOM     52  C   UNL A   1      43.671  34.599  29.186  1.00  0.00     0.037 A 
ATOM     53  C   UNL A   1      43.139  28.950  33.314  1.00  0.00     0.037 A 
ATOM     54  C   UNL A   1      44.015  33.353  28.557  1.00  0.00     0.049 A 
ATOM     55  C   UNL A   1      43.508  28.846  31.854  1.00  0.00     0.074 A 
ATOM     56  C   UNL A   1      44.459  33.133  27.266  1.00  0.00     0.029 A 
ATOM     57  N   UNL A   1      43.941  32.112  29.173  1.00  0.00    -0.354 N 
ATOM     58  N   UNL A   1      43.682  29.799  30.970  1.00  0.00    -0.248 NA
ATOM     59  C   UNL A   1      43.713  27.493  31.318  1.00  0.00     0.031 C 
ATOM     60  C   UNL A   1      44.589  31.753  27.080  1.00  0.00     0.029 A 
ATOM     61  C   UNL A   1      44.299  31.118  28.276  1.00  0.00     0.049 A 
ATOM     62  H   UNL A   1      43.675  31.960  30.109  1.00  0.00     0.167 HD
ATOM     63  C   UNL A   1      44.053  29.166  29.789  1.00  0.00     0.074 A 
ATOM     64  C   UNL A   1      44.089  27.747  30.073  1.00  0.00     0.031 C 
ATOM     65  C   UNL A   1      44.339  29.709  28.579  1.00  0.00     0.037 A 
BRANCH  52  66
ATOM     66  C   UNL A   1      43.724  35.855  28.365  1.00  0.00     0.064 A 
ATOM     67  C   UNL A   1      42.577  36.406  27.774  1.00  0.00     0.173 A 
ATOM     68  C   UNL A   1      44.943  36.528  28.184  1.00  0.00     0.173 A 
ATOM     69  F   UNL A   1      41.391  35.792  27.899  1.00  0.00    -0.203 F 
ATOM     70  C   UNL A   1      42.654  37.569  27.011  1.00  0.00     0.198 A 
ATOM     71  C   UNL A   1      45.009  37.708  27.451  1.00  0.00     0.198 A 
ATOM     72  F   UNL A   1      46.070  36.043  28.726  1.00  0.00    -0.203 F 
ATOM     73  F   UNL A   1      41.554  38.048  26.412  1.00  0.00    -0.200 F 
ATOM     74  C   UNL A   1      43.866  38.224  26.858  1.00  0.00     0.200 A 
ATOM     75  F   UNL A   1      46.180  38.346  27.316  1.00  0.00    -0.200 F 
ATOM     76  F   UNL A   1      43.936  39.348  26.131  1.00  0.00    -0.200 F 
ENDBRANCH  52  66
BRANCH  53  77
ATOM     77  C   UNL A   1      43.015  27.728  34.153  1.00  0.00     0.064 A 
ATOM     78  C   UNL A   1      44.143  27.133  34.736  1.00  0.00     0.173 A 
ATOM     79  C   UNL A   1      41.773  27.110  34.363  1.00  0.00     0.173 A 
ATOM     80  F   UNL A   1      45.357  27.669  34.542  1.00  0.00    -0.203 F 
ATOM     81  C   UNL A   1      44.037  25.957  35.476  1.00  0.00     0.198 A 
ATOM     82  C   UNL A   1      41.664  25.952  35.130  1.00  0.00     0.198 A 
ATOM     83  F   UNL A   1      40.662  27.632  33.824  1.00  0.00    -0.203 F 
ATOM     84  F   UNL A   1      45.140  25.380  35.974  1.00  0.00    -0.200 F 
ATOM     85  C   UNL A   1      42.797  25.371  35.677  1.00  0.00     0.200 A 
ATOM     86  F   UNL A   1      40.462  25.395  35.332  1.00  0.00    -0.200 F 
ATOM     87  F   UNL A   1      42.696  24.240  36.390  1.00  0.00    -0.200 F 
ENDBRANCH  53  77
BRANCH  65  88
ATOM     88  C   UNL A   1      44.769  28.776  27.482  1.00  0.00     0.064 A 
ATOM     89  C   UNL A   1      43.865  28.285  26.528  1.00  0.00     0.173 A 
ATOM     90  C   UNL A   1      46.118  28.405  27.357  1.00  0.00     0.173 A 
ATOM     91  F   UNL A   1      42.563  28.599  26.609  1.00  0.00    -0.203 F 
ATOM     92  C   UNL A   1      44.290  27.435  25.510  1.00  0.00     0.198 A 
ATOM     93  C   UNL A   1      46.545  27.586  26.316  1.00  0.00     0.198 A 
ATOM     94  F   UNL A   1      47.028  28.855  28.236  1.00  0.00    -0.203 F 
ATOM     95  F   UNL A   1      43.399  26.935  24.643  1.00  0.00    -0.200 F 
ATOM     96  C   UNL A   1      45.630  27.094  25.399  1.00  0.00     0.200 A 
ATOM     97  F   UNL A   1      47.844  27.275  26.200  1.00  0.00    -0.200 F 
ATOM     98  F   UNL A   1      46.038  26.285  24.413  1.00  0.00    -0.200 F 
ENDBRANCH  65  88
ENDBRANCH  39  40
ENDBRANCH  32  34
ENDBRANCH  31  32
ENDBRANCH  30  31
ENDBRANCH  29  30
ENDBRANCH  28  29
ENDBRANCH  27  28
ENDBRANCH  26  27
ENDBRANCH  25  26
ENDBRANCH   1  25
TORSDOF 23
ENDMDL
MODEL 3
REMARK VINA RESULT:      -9.2      3.898      9.852
REMARK SMILES C[C@@H](C(=O)OCCOCCOCCOCCOC(=O)c1ccc(-c2c3nc(c(-c4c(F)c(F)c(F)c(F)c4F)c4ccc([nH]4)c(-c4c(F)c(F)c(F)c(F)c4F)c4nc(c(-c5c(F)c(F)c(F)c(F)c5F)c5ccc2[nH]5)C=C4)C=C3)cc1)c1ccc(C[C@H]2CCCC2=O)cc1F
REMARK SMILES IDX 10 1 9 2 8 3 7 4 6 5 5 6 3 7 4 8 2 9 1 10 83 11 84 12 95 13
REMARK SMILES IDX 85 14 94 15 96 16 86 17 87 18 88 19 89 20 92 21 90 22 91 23
REMARK SMILES IDX 93 24 11 25 12 26 13 27 14 28 15 29 16 30 17 31 18 32 19 33
REMARK SMILES IDX 20 34 21 35 82 36 22 37 81 38 23 39 24 40 25 41 75 42 26 43
REMARK SMILES IDX 80 44 74 45 76 46 27 47 79 48 73 49 72 50 28 52 60 53 40 54
REMARK SMILES IDX 59 55 41 56 44 57 58 58 77 59 42 60 43 61 57 63 78 64 45 65
REMARK SMILES IDX 29 66 30 67 38 68 31 69 32 70 36 71 39 72 33 73 34 74 37 75
REMARK SMILES IDX 35 76 61 77 62 78 70 79 63 80 64 81 68 82 71 83 65 84 66 85
REMARK SMILES IDX 69 86 67 87 46 88 47 89 55 90 48 91 49 92 53 93 56 94 50 95
REMARK SMILES IDX 51 96 54 97 52 98
REMARK H PARENT 76 51 44 62
REMARK Flexibility Score: inf
ROOT
ATOM      1  C   UNL A   1      44.261  18.331  25.822  1.00  0.00     0.188 C 
ENDROOT
BRANCH   1   2
ATOM      2  C   UNL A   1      42.746  18.333  26.097  1.00  0.00     0.188 C 
BRANCH   2   3
ATOM      3  O   UNL A   1      42.356  18.839  27.354  1.00  0.00    -0.376 OA
BRANCH   3   4
ATOM      4  C   UNL A   1      41.468  19.941  27.425  1.00  0.00     0.202 C 
BRANCH   4   5
ATOM      5  C   UNL A   1      40.398  20.350  26.382  1.00  0.00     0.261 C 
BRANCH   5   6
ATOM      6  O   UNL A   1      39.552  21.489  26.603  1.00  0.00    -0.463 OA
BRANCH   6   7
ATOM      7  C   UNL A   1      38.529  21.685  25.726  1.00  0.00     0.313 C 
ATOM      8  O   UNL A   1      37.981  20.772  25.116  1.00  0.00    -0.252 OA
BRANCH   7   9
ATOM      9  C   UNL A   1      38.160  23.168  25.519  1.00  0.00     0.129 C 
ATOM     10  C   UNL A   1      38.584  24.186  26.586  1.00  0.00     0.025 C 
BRANCH   9  11
ATOM     11  C   UNL A   1      36.698  23.356  25.124  1.00  0.00     0.002 A 
ATOM     12  C   UNL A   1      35.728  23.561  26.111  1.00  0.00     0.008 A 
ATOM     13  C   UNL A   1      36.256  23.349  23.796  1.00  0.00     0.127 A 
ATOM     14  C   UNL A   1      34.391  23.794  25.763  1.00  0.00     0.004 A 
ATOM     15  C   UNL A   1      34.939  23.602  23.437  1.00  0.00     0.043 A 
ATOM     16  F   UNL A   1      37.079  23.047  22.797  1.00  0.00    -0.207 F 
ATOM     17  C   UNL A   1      33.985  23.823  24.422  1.00  0.00    -0.044 A 
BRANCH  17  18
ATOM     18  C   UNL A   1      32.546  24.044  24.030  1.00  0.00     0.047 C 
BRANCH  18  19
ATOM     19  C   UNL A   1      31.695  22.776  23.908  1.00  0.00     0.060 C 
ATOM     20  C   UNL A   1      32.225  21.675  22.985  1.00  0.00     0.012 C 
ATOM     21  C   UNL A   1      31.582  22.058  25.230  1.00  0.00     0.136 C 
ATOM     22  C   UNL A   1      32.950  20.669  23.871  1.00  0.00     0.009 C 
ATOM     23  C   UNL A   1      32.248  20.709  25.222  1.00  0.00     0.076 C 
ATOM     24  O   UNL A   1      31.018  22.529  26.212  1.00  0.00    -0.299 OA
ENDBRANCH  18  19
ENDBRANCH  17  18
ENDBRANCH   9  11
ENDBRANCH   7   9
ENDBRANCH   6   7
ENDBRANCH   5   6
ENDBRANCH   4   5
ENDBRANCH   3   4
ENDBRANCH   2   3
ENDBRANCH   1   2
BRANCH   1  25
ATOM     25  O   UNL A   1      44.613  18.568  24.474  1.00  0.00    -0.377 OA
BRANCH  25  26
ATOM     26  C   UNL A   1      44.950  19.899  24.122  1.00  0.00     0.188 C 
BRANCH  26  27
ATOM     27  C   UNL A   1      44.405  21.096  24.934  1.00  0.00     0.188 C 
BRANCH  27  28
ATOM     28  O   UNL A   1      44.082  22.248  24.168  1.00  0.00    -0.376 OA
BRANCH  28  29
ATOM     29  C   UNL A   1      43.301  23.280  24.748  1.00  0.00     0.202 C 
BRANCH  29  30
ATOM     30  C   UNL A   1      42.848  23.097  26.204  1.00  0.00     0.261 C 
BRANCH  30  31
ATOM     31  O   UNL A   1      43.349  24.049  27.153  1.00  0.00    -0.460 OA
BRANCH  31  32
ATOM     32  C   UNL A   1      44.660  23.984  27.484  1.00  0.00     0.338 C 
ATOM     33  O   UNL A   1      45.331  22.995  27.657  1.00  0.00    -0.246 OA
BRANCH  32  34
ATOM     34  C   UNL A   1      45.193  25.363  27.391  1.00  0.00     0.060 A 
ATOM     35  C   UNL A   1      45.136  26.030  26.159  1.00  0.00     0.016 A 
ATOM     36  C   UNL A   1      45.700  26.007  28.522  1.00  0.00     0.016 A 
ATOM     37  C   UNL A   1      45.612  27.336  26.049  1.00  0.00     0.010 A 
ATOM     38  C   UNL A   1      46.209  27.301  28.404  1.00  0.00     0.010 A 
ATOM     39  C   UNL A   1      46.196  27.957  27.160  1.00  0.00    -0.014 A 
BRANCH  39  40
ATOM     40  C   UNL A   1      47.007  29.181  26.965  1.00  0.00     0.031 A 
ATOM     41  C   UNL A   1      48.452  29.009  26.589  1.00  0.00     0.074 A 
ATOM     42  C   UNL A   1      46.476  30.408  27.092  1.00  0.00     0.049 A 
ATOM     43  N   UNL A   1      49.384  29.909  26.416  1.00  0.00    -0.248 NA
ATOM     44  C   UNL A   1      48.908  27.624  26.382  1.00  0.00     0.031 C 
ATOM     45  C   UNL A   1      45.079  30.699  27.398  1.00  0.00     0.029 A 
ATOM     46  N   UNL A   1      47.065  31.643  26.984  1.00  0.00    -0.354 N 
ATOM     47  C   UNL A   1      50.534  29.201  26.094  1.00  0.00     0.074 A 
ATOM     48  C   UNL A   1      50.194  27.797  26.123  1.00  0.00     0.031 C 
ATOM     49  C   UNL A   1      44.919  32.033  27.465  1.00  0.00     0.029 A 
ATOM     50  C   UNL A   1      46.210  32.685  27.245  1.00  0.00     0.049 A 
ATOM     51  H   UNL A   1      48.011  31.771  26.743  1.00  0.00     0.167 HD
ATOM     52  C   UNL A   1      51.764  29.683  25.795  1.00  0.00     0.037 A 
ATOM     53  C   UNL A   1      46.454  34.009  27.320  1.00  0.00     0.037 A 
ATOM     54  C   UNL A   1      52.094  31.081  25.771  1.00  0.00     0.049 A 
ATOM     55  C   UNL A   1      47.855  34.514  27.069  1.00  0.00     0.074 A 
ATOM     56  C   UNL A   1      53.304  31.676  25.462  1.00  0.00     0.029 A 
ATOM     57  N   UNL A   1      51.211  32.105  26.081  1.00  0.00    -0.354 N 
ATOM     58  N   UNL A   1      48.934  33.844  26.740  1.00  0.00    -0.248 NA
ATOM     59  C   UNL A   1      48.069  35.962  27.198  1.00  0.00     0.031 C 
ATOM     60  C   UNL A   1      53.172  33.055  25.651  1.00  0.00     0.029 A 
ATOM     61  C   UNL A   1      51.860  33.327  26.004  1.00  0.00     0.049 A 
ATOM     62  H   UNL A   1      50.264  31.983  26.320  1.00  0.00     0.167 HD
ATOM     63  C   UNL A   1      49.942  34.789  26.587  1.00  0.00     0.074 A 
ATOM     64  C   UNL A   1      49.341  36.081  26.849  1.00  0.00     0.031 C 
ATOM     65  C   UNL A   1      51.245  34.606  26.258  1.00  0.00     0.037 A 
BRANCH  52  66
ATOM     66  C   UNL A   1      52.849  28.685  25.514  1.00  0.00     0.064 A 
ATOM     67  C   UNL A   1      53.090  28.191  24.223  1.00  0.00     0.173 A 
ATOM     68  C   UNL A   1      53.676  28.231  26.554  1.00  0.00     0.173 A 
ATOM     69  F   UNL A   1      52.316  28.577  23.197  1.00  0.00    -0.203 F 
ATOM     70  C   UNL A   1      54.099  27.260  23.989  1.00  0.00     0.198 A 
ATOM     71  C   UNL A   1      54.707  27.328  26.310  1.00  0.00     0.198 A 
ATOM     72  F   UNL A   1      53.489  28.670  27.808  1.00  0.00    -0.203 F 
ATOM     73  F   UNL A   1      54.276  26.762  22.756  1.00  0.00    -0.200 F 
ATOM     74  C   UNL A   1      54.913  26.837  25.029  1.00  0.00     0.200 A 
ATOM     75  F   UNL A   1      55.499  26.931  27.315  1.00  0.00    -0.200 F 
ATOM     76  F   UNL A   1      55.889  25.948  24.800  1.00  0.00    -0.200 F 
ENDBRANCH  52  66
BRANCH  53  77
ATOM     77  C   UNL A   1      45.358  34.954  27.662  1.00  0.00     0.064 A 
ATOM     78  C   UNL A   1      45.177  35.408  28.976  1.00  0.00     0.173 A 
ATOM     79  C   UNL A   1      44.449  35.398  26.689  1.00  0.00     0.173 A 
ATOM     80  F   UNL A   1      46.002  34.992  29.947  1.00  0.00    -0.203 F 
ATOM     81  C   UNL A   1      44.117  36.251  29.309  1.00  0.00     0.198 A 
ATOM     82  C   UNL A   1      43.409  36.266  27.017  1.00  0.00     0.198 A 
ATOM     83  F   UNL A   1      44.571  34.991  25.418  1.00  0.00    -0.203 F 
ATOM     84  F   UNL A   1      43.936  36.624  30.583  1.00  0.00    -0.200 F 
ATOM     85  C   UNL A   1      43.237  36.683  28.328  1.00  0.00     0.200 A 
ATOM     86  F   UNL A   1      42.568  36.691  26.064  1.00  0.00    -0.200 F 
ATOM     87  F   UNL A   1      42.220  37.494  28.648  1.00  0.00    -0.200 F 
ENDBRANCH  53  77
BRANCH  65  88
ATOM     88  C   UNL A   1      52.103  35.831  26.109  1.00  0.00     0.064 A 
ATOM     89  C   UNL A   1      52.270  36.476  24.875  1.00  0.00     0.173 A 
ATOM     90  C   UNL A   1      52.730  36.396  27.233  1.00  0.00     0.173 A 
ATOM     91  F   UNL A   1      51.702  35.972  23.769  1.00  0.00    -0.203 F 
ATOM     92  C   UNL A   1      53.056  37.621  24.765  1.00  0.00     0.198 A 
ATOM     93  C   UNL A   1      53.483  37.561  27.126  1.00  0.00     0.198 A 
ATOM     94  F   UNL A   1      52.595  35.826  28.441  1.00  0.00    -0.203 F 
ATOM     95  F   UNL A   1      53.245  38.188  23.566  1.00  0.00    -0.200 F 
ATOM     96  C   UNL A   1      53.654  38.167  25.892  1.00  0.00     0.200 A 
ATOM     97  F   UNL A   1      54.043  38.097  28.220  1.00  0.00    -0.200 F 
ATOM     98  F   UNL A   1      54.400  39.274  25.785  1.00  0.00    -0.200 F 
ENDBRANCH  65  88
ENDBRANCH  39  40
ENDBRANCH  32  34
ENDBRANCH  31  32
ENDBRANCH  30  31
ENDBRANCH  29  30
ENDBRANCH  28  29
ENDBRANCH  27  28
ENDBRANCH  26  27
ENDBRANCH  25  26
ENDBRANCH   1  25
TORSDOF 23
ENDMDL
