MODEL 1
REMARK VINA RESULT:     -12.2      0.000      0.000
REMARK SMILES Cc1c(C(=O)OCCOCCOCCOCCOC(=O)c2ccc(-c3c4nc(c(-c5c(F)c(F)c(F)c(F)c5F)c5ccc([nH]5)c(-c5c(F)c(F)c(F)c(F)c5F)c5nc(c(-c6c(F)c(F)c(F)c(F)c6F)c6ccc3[nH]6)C=C5)C=C4)cc2)cccc1-n1c(C)cc(/C=C2/C(=O)NC(=S)N=C2O)c1C
REMARK SMILES IDX 11 1 10 2 9 3 8 4 7 5 6 6 4 7 5 8 3 9 1 10 2 11 87 12 84 13
REMARK SMILES IDX 86 14 85 15 88 16 89 17 103 18 90 19 91 20 92 21 104 22
REMARK SMILES IDX 93 23 94 24 95 25 101 26 96 27 97 28 100 29 98 30 99 32
REMARK SMILES IDX 102 33 12 35 13 36 14 37 15 38 16 39 17 40 18 41 19 42 20 43
REMARK SMILES IDX 21 44 22 45 83 46 23 47 82 48 24 49 25 50 26 51 76 52 27 53
REMARK SMILES IDX 81 54 75 55 77 56 28 57 80 58 74 59 73 60 29 62 61 63 41 64
REMARK SMILES IDX 60 65 42 66 45 67 59 68 78 69 43 70 44 71 58 73 79 74 46 75
REMARK SMILES IDX 30 76 31 77 39 78 32 79 33 80 37 81 40 82 34 83 35 84 38 85
REMARK SMILES IDX 36 86 62 87 63 88 71 89 64 90 65 91 69 92 72 93 66 94 67 95
REMARK SMILES IDX 70 96 68 97 47 98 48 99 56 100 49 101 50 102 54 103 57 104
REMARK SMILES IDX 51 105 52 106 55 107 53 108
REMARK H PARENT 97 31 102 34 77 61 45 72
REMARK Flexibility Score: inf
ROOT
ATOM      1  C   UNL A   1      40.740  23.245  27.543  1.00  0.00     0.188 C 
ENDROOT
BRANCH   1   2
ATOM      2  C   UNL A   1      39.491  24.139  27.553  1.00  0.00     0.188 C 
BRANCH   2   3
ATOM      3  O   UNL A   1      38.790  24.380  26.343  1.00  0.00    -0.376 OA
BRANCH   3   4
ATOM      4  C   UNL A   1      37.528  23.739  26.218  1.00  0.00     0.202 C 
BRANCH   4   5
ATOM      5  C   UNL A   1      37.468  22.516  25.323  1.00  0.00     0.261 C 
BRANCH   5   6
ATOM      6  O   UNL A   1      36.174  22.454  24.731  1.00  0.00    -0.460 OA
BRANCH   6   7
ATOM      7  C   UNL A   1      36.017  23.214  23.640  1.00  0.00     0.338 C 
ATOM      8  O   UNL A   1      36.834  23.357  22.755  1.00  0.00    -0.246 OA
BRANCH   7   9
ATOM      9  C   UNL A   1      34.594  23.650  23.524  1.00  0.00     0.065 A 
ATOM     10  C   UNL A   1      34.290  25.070  25.679  1.00  0.00     0.047 C 
ATOM     11  C   UNL A   1      33.886  24.582  24.314  1.00  0.00    -0.012 A 
ATOM     12  C   UNL A   1      32.585  24.913  23.894  1.00  0.00     0.049 A 
ATOM     13  C   UNL A   1      33.901  22.894  22.558  1.00  0.00     0.016 A 
ATOM     14  C   UNL A   1      31.913  24.167  22.916  1.00  0.00     0.027 A 
ATOM     15  C   UNL A   1      32.560  23.117  22.287  1.00  0.00     0.003 A 
BRANCH  12  16
ATOM     16  N   UNL A   1      31.833  25.896  24.580  1.00  0.00    -0.318 N 
ATOM     17  C   UNL A   1      30.973  25.703  25.648  1.00  0.00     0.020 A 
ATOM     18  C   UNL A   1      31.859  27.246  24.259  1.00  0.00     0.027 A 
ATOM     19  C   UNL A   1      30.512  24.378  26.158  1.00  0.00     0.065 C 
ATOM     20  C   UNL A   1      30.739  26.957  26.182  1.00  0.00     0.031 A 
ATOM     21  C   UNL A   1      31.400  27.923  25.373  1.00  0.00    -0.003 A 
ATOM     22  C   UNL A   1      32.297  27.692  22.902  1.00  0.00     0.065 C 
BRANCH  21  23
ATOM     23  C   UNL A   1      31.402  29.321  25.663  1.00  0.00     0.029 C 
ATOM     24  C   UNL A   1      32.130  30.063  26.520  1.00  0.00     0.102 C 
ATOM     25  C   UNL A   1      31.874  31.525  26.491  1.00  0.00     0.262 C 
ATOM     26  C   UNL A   1      33.196  29.689  27.453  1.00  0.00     0.226 C 
ATOM     27  O   UNL A   1      30.873  32.044  26.009  1.00  0.00    -0.269 OA
ATOM     28  N   UNL A   1      32.883  32.275  27.034  1.00  0.00    -0.297 N 
ATOM     29  N   UNL A   1      34.082  30.466  27.958  1.00  0.00    -0.184 NA
ATOM     30  C   UNL A   1      34.006  31.799  27.663  1.00  0.00     0.203 C 
ATOM     31  H   UNL A   1      32.794  33.254  26.967  1.00  0.00     0.172 HD
ATOM     32  S   UNL A   1      35.182  32.907  28.106  1.00  0.00    -0.038 S 
BRANCH  26  33
ATOM     33  O   UNL A   1      33.202  28.430  27.893  1.00  0.00    -0.493 OA
ATOM     34  H   UNL A   1      32.409  27.930  27.894  1.00  0.00     0.295 HD
ENDBRANCH  26  33
ENDBRANCH  21  23
ENDBRANCH  12  16
ENDBRANCH   7   9
ENDBRANCH   6   7
ENDBRANCH   5   6
ENDBRANCH   4   5
ENDBRANCH   3   4
ENDBRANCH   2   3
ENDBRANCH   1   2
BRANCH   1  35
ATOM     35  O   UNL A   1      40.585  21.837  27.572  1.00  0.00    -0.377 OA
BRANCH  35  36
ATOM     36  C   UNL A   1      40.654  21.105  26.363  1.00  0.00     0.188 C 
BRANCH  36  37
ATOM     37  C   UNL A   1      40.970  19.623  26.364  1.00  0.00     0.188 C 
BRANCH  37  38
ATOM     38  O   UNL A   1      41.937  19.302  25.374  1.00  0.00    -0.376 OA
BRANCH  38  39
ATOM     39  C   UNL A   1      43.017  18.486  25.829  1.00  0.00     0.202 C 
BRANCH  39  40
ATOM     40  C   UNL A   1      44.259  18.523  24.926  1.00  0.00     0.261 C 
BRANCH  40  41
ATOM     41  O   UNL A   1      45.323  19.215  25.613  1.00  0.00    -0.460 OA
BRANCH  41  42
ATOM     42  C   UNL A   1      45.993  20.154  24.886  1.00  0.00     0.338 C 
ATOM     43  O   UNL A   1      47.161  20.078  24.545  1.00  0.00    -0.246 OA
BRANCH  42  44
ATOM     44  C   UNL A   1      45.210  21.431  24.871  1.00  0.00     0.060 A 
ATOM     45  C   UNL A   1      45.526  22.441  23.945  1.00  0.00     0.016 A 
ATOM     46  C   UNL A   1      44.478  21.762  26.001  1.00  0.00     0.016 A 
ATOM     47  C   UNL A   1      45.294  23.796  24.259  1.00  0.00     0.010 A 
ATOM     48  C   UNL A   1      44.342  23.098  26.333  1.00  0.00     0.010 A 
ATOM     49  C   UNL A   1      44.800  24.144  25.512  1.00  0.00    -0.014 A 
BRANCH  49  50
ATOM     50  C   UNL A   1      44.833  25.503  26.119  1.00  0.00     0.031 A 
ATOM     51  C   UNL A   1      43.577  26.335  26.115  1.00  0.00     0.074 A 
ATOM     52  C   UNL A   1      45.834  25.849  26.977  1.00  0.00     0.049 A 
ATOM     53  N   UNL A   1      43.403  27.445  26.751  1.00  0.00    -0.248 NA
ATOM     54  C   UNL A   1      42.358  25.937  25.426  1.00  0.00     0.031 C 
ATOM     55  C   UNL A   1      45.730  26.804  28.078  1.00  0.00     0.029 A 
ATOM     56  N   UNL A   1      47.155  25.401  27.104  1.00  0.00    -0.354 N 
ATOM     57  C   UNL A   1      42.048  27.679  26.907  1.00  0.00     0.074 A 
ATOM     58  C   UNL A   1      41.449  26.743  25.987  1.00  0.00     0.031 C 
ATOM     59  C   UNL A   1      46.899  26.979  28.696  1.00  0.00     0.029 A 
ATOM     60  C   UNL A   1      47.874  26.364  27.853  1.00  0.00     0.049 A 
ATOM     61  H   UNL A   1      47.519  24.563  26.739  1.00  0.00     0.167 HD
ATOM     62  C   UNL A   1      41.631  28.541  27.900  1.00  0.00     0.037 A 
ATOM     63  C   UNL A   1      48.890  27.073  27.286  1.00  0.00     0.037 A 
ATOM     64  C   UNL A   1      42.797  29.188  28.575  1.00  0.00     0.049 A 
ATOM     65  C   UNL A   1      48.482  28.544  27.159  1.00  0.00     0.074 A 
ATOM     66  C   UNL A   1      43.244  29.323  29.883  1.00  0.00     0.029 A 
ATOM     67  N   UNL A   1      43.857  29.673  27.798  1.00  0.00    -0.354 N 
ATOM     68  N   UNL A   1      47.226  28.941  27.217  1.00  0.00    -0.248 NA
ATOM     69  C   UNL A   1      49.382  29.687  27.135  1.00  0.00     0.031 C 
ATOM     70  C   UNL A   1      44.562  29.879  29.870  1.00  0.00     0.029 A 
ATOM     71  C   UNL A   1      44.923  30.118  28.554  1.00  0.00     0.049 A 
ATOM     72  H   UNL A   1      43.842  29.694  26.814  1.00  0.00     0.167 HD
ATOM     73  C   UNL A   1      47.145  30.278  27.479  1.00  0.00     0.074 A 
ATOM     74  C   UNL A   1      48.517  30.719  27.251  1.00  0.00     0.031 C 
ATOM     75  C   UNL A   1      46.000  30.897  27.936  1.00  0.00     0.037 A 
BRANCH  62  76
ATOM     76  C   UNL A   1      40.175  28.692  28.422  1.00  0.00     0.064 A 
ATOM     77  C   UNL A   1      39.146  29.258  27.624  1.00  0.00     0.173 A 
ATOM     78  C   UNL A   1      39.712  28.316  29.704  1.00  0.00     0.173 A 
ATOM     79  F   UNL A   1      39.345  29.576  26.340  1.00  0.00    -0.203 F 
ATOM     80  C   UNL A   1      37.836  29.491  28.087  1.00  0.00     0.198 A 
ATOM     81  C   UNL A   1      38.405  28.544  30.170  1.00  0.00     0.198 A 
ATOM     82  F   UNL A   1      40.472  27.651  30.570  1.00  0.00    -0.203 F 
ATOM     83  F   UNL A   1      36.928  30.044  27.270  1.00  0.00    -0.200 F 
ATOM     84  C   UNL A   1      37.467  29.142  29.365  1.00  0.00     0.200 A 
ATOM     85  F   UNL A   1      38.069  28.153  31.409  1.00  0.00    -0.200 F 
ATOM     86  F   UNL A   1      36.217  29.341  29.805  1.00  0.00    -0.200 F 
ENDBRANCH  62  76
BRANCH  63  87
ATOM     87  C   UNL A   1      49.757  26.115  26.518  1.00  0.00     0.064 A 
ATOM     88  C   UNL A   1      49.843  26.423  25.130  1.00  0.00     0.173 A 
ATOM     89  C   UNL A   1      50.923  25.605  27.113  1.00  0.00     0.173 A 
ATOM     90  F   UNL A   1      48.761  26.896  24.488  1.00  0.00    -0.203 F 
ATOM     91  C   UNL A   1      51.076  26.518  24.477  1.00  0.00     0.198 A 
ATOM     92  C   UNL A   1      52.151  25.647  26.428  1.00  0.00     0.198 A 
ATOM     93  F   UNL A   1      50.928  25.288  28.415  1.00  0.00    -0.203 F 
ATOM     94  F   UNL A   1      51.151  27.075  23.258  1.00  0.00    -0.200 F 
ATOM     95  C   UNL A   1      52.235  26.180  25.148  1.00  0.00     0.200 A 
ATOM     96  F   UNL A   1      53.282  25.308  27.065  1.00  0.00    -0.200 F 
ATOM     97  F   UNL A   1      53.431  26.444  24.600  1.00  0.00    -0.200 F 
ENDBRANCH  63  87
BRANCH  75  98
ATOM     98  C   UNL A   1      45.720  32.374  27.801  1.00  0.00     0.064 A 
ATOM     99  C   UNL A   1      46.212  33.356  28.656  1.00  0.00     0.173 A 
ATOM    100  C   UNL A   1      44.956  32.852  26.701  1.00  0.00     0.173 A 
ATOM    101  F   UNL A   1      46.702  33.040  29.862  1.00  0.00    -0.203 F 
ATOM    102  C   UNL A   1      46.167  34.706  28.307  1.00  0.00     0.198 A 
ATOM    103  C   UNL A   1      44.851  34.199  26.391  1.00  0.00     0.198 A 
ATOM    104  F   UNL A   1      44.301  32.041  25.862  1.00  0.00    -0.203 F 
ATOM    105  F   UNL A   1      46.779  35.607  29.086  1.00  0.00    -0.200 F 
ATOM    106  C   UNL A   1      45.515  35.124  27.159  1.00  0.00     0.200 A 
ATOM    107  F   UNL A   1      44.137  34.579  25.321  1.00  0.00    -0.200 F 
ATOM    108  F   UNL A   1      45.512  36.414  26.803  1.00  0.00    -0.200 F 
ENDBRANCH  75  98
ENDBRANCH  49  50
ENDBRANCH  42  44
ENDBRANCH  41  42
ENDBRANCH  40  41
ENDBRANCH  39  40
ENDBRANCH  38  39
ENDBRANCH  37  38
ENDBRANCH  36  37
ENDBRANCH  35  36
ENDBRANCH   1  35
TORSDOF 23
ENDMDL
MODEL 2
REMARK VINA RESULT:     -11.2      2.016      2.823
REMARK SMILES Cc1c(C(=O)OCCOCCOCCOCCOC(=O)c2ccc(-c3c4nc(c(-c5c(F)c(F)c(F)c(F)c5F)c5ccc([nH]5)c(-c5c(F)c(F)c(F)c(F)c5F)c5nc(c(-c6c(F)c(F)c(F)c(F)c6F)c6ccc3[nH]6)C=C5)C=C4)cc2)cccc1-n1c(C)cc(/C=C2/C(=O)NC(=S)N=C2O)c1C
REMARK SMILES IDX 11 1 10 2 9 3 8 4 7 5 6 6 4 7 5 8 3 9 1 10 2 11 87 12 84 13
REMARK SMILES IDX 86 14 85 15 88 16 89 17 103 18 90 19 91 20 92 21 104 22
REMARK SMILES IDX 93 23 94 24 95 25 101 26 96 27 97 28 100 29 98 30 99 32
REMARK SMILES IDX 102 33 12 35 13 36 14 37 15 38 16 39 17 40 18 41 19 42 20 43
REMARK SMILES IDX 21 44 22 45 83 46 23 47 82 48 24 49 25 50 26 51 76 52 27 53
REMARK SMILES IDX 81 54 75 55 77 56 28 57 80 58 74 59 73 60 29 62 61 63 41 64
REMARK SMILES IDX 60 65 42 66 45 67 59 68 78 69 43 70 44 71 58 73 79 74 46 75
REMARK SMILES IDX 30 76 31 77 39 78 32 79 33 80 37 81 40 82 34 83 35 84 38 85
REMARK SMILES IDX 36 86 62 87 63 88 71 89 64 90 65 91 69 92 72 93 66 94 67 95
REMARK SMILES IDX 70 96 68 97 47 98 48 99 56 100 49 101 50 102 54 103 57 104
REMARK SMILES IDX 51 105 52 106 55 107 53 108
REMARK H PARENT 97 31 102 34 77 61 45 72
REMARK Flexibility Score: inf
ROOT
ATOM      1  C   UNL A   1      39.534  23.196  26.380  1.00  0.00     0.188 C 
ENDROOT
BRANCH   1   2
ATOM      2  C   UNL A   1      38.020  23.029  26.184  1.00  0.00     0.188 C 
BRANCH   2   3
ATOM      3  O   UNL A   1      37.444  23.282  24.912  1.00  0.00    -0.376 OA
BRANCH   3   4
ATOM      4  C   UNL A   1      37.100  22.135  24.146  1.00  0.00     0.202 C 
BRANCH   4   5
ATOM      5  C   UNL A   1      37.112  20.802  24.869  1.00  0.00     0.261 C 
BRANCH   5   6
ATOM      6  O   UNL A   1      35.991  20.756  25.746  1.00  0.00    -0.460 OA
BRANCH   6   7
ATOM      7  C   UNL A   1      34.803  20.654  25.137  1.00  0.00     0.338 C 
ATOM      8  O   UNL A   1      34.418  19.702  24.493  1.00  0.00    -0.246 OA
BRANCH   7   9
ATOM      9  C   UNL A   1      33.908  21.764  25.580  1.00  0.00     0.065 A 
ATOM     10  C   UNL A   1      34.030  23.393  23.558  1.00  0.00     0.047 C 
ATOM     11  C   UNL A   1      33.439  22.873  24.841  1.00  0.00    -0.012 A 
ATOM     12  C   UNL A   1      32.486  23.698  25.467  1.00  0.00     0.049 A 
ATOM     13  C   UNL A   1      33.642  21.691  26.961  1.00  0.00     0.016 A 
ATOM     14  C   UNL A   1      32.215  23.600  26.839  1.00  0.00     0.027 A 
ATOM     15  C   UNL A   1      32.841  22.626  27.597  1.00  0.00     0.003 A 
BRANCH  12  16
ATOM     16  N   UNL A   1      31.904  24.783  24.773  1.00  0.00    -0.318 N 
ATOM     17  C   UNL A   1      30.927  24.728  23.793  1.00  0.00     0.020 A 
ATOM     18  C   UNL A   1      32.250  26.110  24.992  1.00  0.00     0.027 A 
ATOM     19  C   UNL A   1      30.439  23.484  23.129  1.00  0.00     0.065 C 
ATOM     20  C   UNL A   1      30.448  26.018  23.657  1.00  0.00     0.031 A 
ATOM     21  C   UNL A   1      31.205  26.873  24.507  1.00  0.00    -0.003 A 
ATOM     22  C   UNL A   1      33.564  26.456  25.614  1.00  0.00     0.065 C 
BRANCH  21  23
ATOM     23  C   UNL A   1      30.946  28.270  24.646  1.00  0.00     0.029 C 
ATOM     24  C   UNL A   1      30.599  29.217  23.753  1.00  0.00     0.102 C 
ATOM     25  C   UNL A   1      30.359  30.574  24.307  1.00  0.00     0.262 C 
ATOM     26  C   UNL A   1      30.349  29.136  22.312  1.00  0.00     0.226 C 
ATOM     27  O   UNL A   1      30.752  30.954  25.404  1.00  0.00    -0.269 OA
ATOM     28  N   UNL A   1      29.620  31.383  23.486  1.00  0.00    -0.297 N 
ATOM     29  N   UNL A   1      29.680  29.967  21.601  1.00  0.00    -0.184 NA
ATOM     30  C   UNL A   1      29.194  31.088  22.215  1.00  0.00     0.203 C 
ATOM     31  H   UNL A   1      29.368  32.266  23.844  1.00  0.00     0.172 HD
ATOM     32  S   UNL A   1      28.164  32.176  21.465  1.00  0.00    -0.038 S 
BRANCH  26  33
ATOM     33  O   UNL A   1      30.945  28.146  21.648  1.00  0.00    -0.493 OA
ATOM     34  H   UNL A   1      31.315  27.423  22.116  1.00  0.00     0.295 HD
ENDBRANCH  26  33
ENDBRANCH  21  23
ENDBRANCH  12  16
ENDBRANCH   7   9
ENDBRANCH   6   7
ENDBRANCH   5   6
ENDBRANCH   4   5
ENDBRANCH   3   4
ENDBRANCH   2   3
ENDBRANCH   1   2
BRANCH   1  35
ATOM     35  O   UNL A   1      40.015  23.831  27.552  1.00  0.00    -0.377 OA
BRANCH  35  36
ATOM     36  C   UNL A   1      41.375  23.682  27.914  1.00  0.00     0.188 C 
BRANCH  36  37
ATOM     37  C   UNL A   1      41.828  22.534  28.794  1.00  0.00     0.188 C 
BRANCH  37  38
ATOM     38  O   UNL A   1      42.504  21.540  28.036  1.00  0.00    -0.376 OA
BRANCH  38  39
ATOM     39  C   UNL A   1      41.666  20.515  27.501  1.00  0.00     0.202 C 
BRANCH  39  40
ATOM     40  C   UNL A   1      42.028  20.087  26.071  1.00  0.00     0.261 C 
BRANCH  40  41
ATOM     41  O   UNL A   1      42.677  21.185  25.398  1.00  0.00    -0.460 OA
BRANCH  41  42
ATOM     42  C   UNL A   1      43.956  20.959  24.983  1.00  0.00     0.338 C 
ATOM     43  O   UNL A   1      44.433  19.864  24.733  1.00  0.00    -0.246 OA
BRANCH  42  44
ATOM     44  C   UNL A   1      44.784  22.185  25.216  1.00  0.00     0.060 A 
ATOM     45  C   UNL A   1      45.332  22.434  26.488  1.00  0.00     0.016 A 
ATOM     46  C   UNL A   1      44.665  23.236  24.321  1.00  0.00     0.016 A 
ATOM     47  C   UNL A   1      45.554  23.758  26.923  1.00  0.00     0.010 A 
ATOM     48  C   UNL A   1      44.799  24.529  24.795  1.00  0.00     0.010 A 
ATOM     49  C   UNL A   1      45.180  24.826  26.116  1.00  0.00    -0.014 A 
BRANCH  49  50
ATOM     50  C   UNL A   1      45.016  26.240  26.554  1.00  0.00     0.031 A 
ATOM     51  C   UNL A   1      43.655  26.881  26.459  1.00  0.00     0.074 A 
ATOM     52  C   UNL A   1      45.950  26.824  27.356  1.00  0.00     0.049 A 
ATOM     53  N   UNL A   1      43.322  28.024  26.958  1.00  0.00    -0.248 NA
ATOM     54  C   UNL A   1      42.511  26.235  25.833  1.00  0.00     0.031 C 
ATOM     55  C   UNL A   1      45.703  27.880  28.335  1.00  0.00     0.029 A 
ATOM     56  N   UNL A   1      47.320  26.584  27.526  1.00  0.00    -0.354 N 
ATOM     57  C   UNL A   1      41.946  28.082  27.095  1.00  0.00     0.074 A 
ATOM     58  C   UNL A   1      41.493  26.967  26.300  1.00  0.00     0.031 C 
ATOM     59  C   UNL A   1      46.831  28.291  28.917  1.00  0.00     0.029 A 
ATOM     60  C   UNL A   1      47.890  27.722  28.148  1.00  0.00     0.049 A 
ATOM     61  H   UNL A   1      47.801  25.768  27.262  1.00  0.00     0.167 HD
ATOM     62  C   UNL A   1      41.402  28.990  27.980  1.00  0.00     0.037 A 
ATOM     63  C   UNL A   1      48.802  28.493  27.491  1.00  0.00     0.037 A 
ATOM     64  C   UNL A   1      42.460  29.872  28.563  1.00  0.00     0.049 A 
ATOM     65  C   UNL A   1      48.192  29.866  27.191  1.00  0.00     0.074 A 
ATOM     66  C   UNL A   1      42.871  30.225  29.842  1.00  0.00     0.029 A 
ATOM     67  N   UNL A   1      43.448  30.403  27.724  1.00  0.00    -0.354 N 
ATOM     68  N   UNL A   1      46.892  30.086  27.210  1.00  0.00    -0.248 NA
ATOM     69  C   UNL A   1      48.923  31.113  27.022  1.00  0.00     0.031 C 
ATOM     70  C   UNL A   1      44.098  30.955  29.751  1.00  0.00     0.029 A 
ATOM     71  C   UNL A   1      44.435  31.082  28.413  1.00  0.00     0.049 A 
ATOM     72  H   UNL A   1      43.440  30.303  26.745  1.00  0.00     0.167 HD
ATOM     73  C   UNL A   1      46.622  31.421  27.310  1.00  0.00     0.074 A 
ATOM     74  C   UNL A   1      47.920  32.020  27.019  1.00  0.00     0.031 C 
ATOM     75  C   UNL A   1      45.397  31.923  27.697  1.00  0.00     0.037 A 
BRANCH  62  76
ATOM     76  C   UNL A   1      39.935  28.997  28.492  1.00  0.00     0.064 A 
ATOM     77  C   UNL A   1      38.857  29.434  27.676  1.00  0.00     0.173 A 
ATOM     78  C   UNL A   1      39.506  28.601  29.779  1.00  0.00     0.173 A 
ATOM     79  F   UNL A   1      39.031  29.744  26.387  1.00  0.00    -0.203 F 
ATOM     80  C   UNL A   1      37.527  29.536  28.127  1.00  0.00     0.198 A 
ATOM     81  C   UNL A   1      38.178  28.700  30.233  1.00  0.00     0.198 A 
ATOM     82  F   UNL A   1      40.325  28.040  30.664  1.00  0.00    -0.203 F 
ATOM     83  F   UNL A   1      36.571  29.972  27.294  1.00  0.00    -0.200 F 
ATOM     84  C   UNL A   1      37.188  29.178  29.411  1.00  0.00     0.200 A 
ATOM     85  F   UNL A   1      37.876  28.302  31.479  1.00  0.00    -0.200 F 
ATOM     86  F   UNL A   1      35.921  29.253  29.840  1.00  0.00    -0.200 F 
ENDBRANCH  62  76
BRANCH  63  87
ATOM     87  C   UNL A   1      49.801  27.581  26.838  1.00  0.00     0.064 A 
ATOM     88  C   UNL A   1      49.752  27.620  25.414  1.00  0.00     0.173 A 
ATOM     89  C   UNL A   1      51.075  27.424  27.410  1.00  0.00     0.173 A 
ATOM     90  F   UNL A   1      48.566  27.747  24.796  1.00  0.00    -0.203 F 
ATOM     91  C   UNL A   1      50.906  27.812  24.648  1.00  0.00     0.198 A 
ATOM     92  C   UNL A   1      52.232  27.558  26.623  1.00  0.00     0.198 A 
ATOM     93  F   UNL A   1      51.209  27.376  28.742  1.00  0.00    -0.203 F 
ATOM     94  F   UNL A   1      50.806  28.122  23.346  1.00  0.00    -0.200 F 
ATOM     95  C   UNL A   1      52.143  27.834  25.264  1.00  0.00     0.200 A 
ATOM     96  F   UNL A   1      53.440  27.567  27.208  1.00  0.00    -0.200 F 
ATOM     97  F   UNL A   1      53.232  28.203  24.573  1.00  0.00    -0.200 F 
ENDBRANCH  63  87
BRANCH  75  98
ATOM     98  C   UNL A   1      44.914  33.319  27.387  1.00  0.00     0.064 A 
ATOM     99  C   UNL A   1      44.147  33.666  26.279  1.00  0.00     0.173 A 
ATOM    100  C   UNL A   1      45.182  34.379  28.297  1.00  0.00     0.173 A 
ATOM    101  F   UNL A   1      44.055  32.851  25.220  1.00  0.00    -0.203 F 
ATOM    102  C   UNL A   1      43.488  34.894  26.211  1.00  0.00     0.198 A 
ATOM    103  C   UNL A   1      44.583  35.625  28.193  1.00  0.00     0.198 A 
ATOM    104  F   UNL A   1      46.010  34.251  29.340  1.00  0.00    -0.203 F 
ATOM    105  F   UNL A   1      42.645  35.133  25.199  1.00  0.00    -0.200 F 
ATOM    106  C   UNL A   1      43.681  35.860  27.184  1.00  0.00     0.200 A 
ATOM    107  F   UNL A   1      44.858  36.571  29.103  1.00  0.00    -0.200 F 
ATOM    108  F   UNL A   1      43.014  37.019  27.141  1.00  0.00    -0.200 F 
ENDBRANCH  75  98
ENDBRANCH  49  50
ENDBRANCH  42  44
ENDBRANCH  41  42
ENDBRANCH  40  41
ENDBRANCH  39  40
ENDBRANCH  38  39
ENDBRANCH  37  38
ENDBRANCH  36  37
ENDBRANCH  35  36
ENDBRANCH   1  35
TORSDOF 23
ENDMDL
MODEL 3
REMARK VINA RESULT:     -11.1      1.512      2.106
REMARK SMILES Cc1c(C(=O)OCCOCCOCCOCCOC(=O)c2ccc(-c3c4nc(c(-c5c(F)c(F)c(F)c(F)c5F)c5ccc([nH]5)c(-c5c(F)c(F)c(F)c(F)c5F)c5nc(c(-c6c(F)c(F)c(F)c(F)c6F)c6ccc3[nH]6)C=C5)C=C4)cc2)cccc1-n1c(C)cc(/C=C2/C(=O)NC(=S)N=C2O)c1C
REMARK SMILES IDX 11 1 10 2 9 3 8 4 7 5 6 6 4 7 5 8 3 9 1 10 2 11 87 12 84 13
REMARK SMILES IDX 86 14 85 15 88 16 89 17 103 18 90 19 91 20 92 21 104 22
REMARK SMILES IDX 93 23 94 24 95 25 101 26 96 27 97 28 100 29 98 30 99 32
REMARK SMILES IDX 102 33 12 35 13 36 14 37 15 38 16 39 17 40 18 41 19 42 20 43
REMARK SMILES IDX 21 44 22 45 83 46 23 47 82 48 24 49 25 50 26 51 76 52 27 53
REMARK SMILES IDX 81 54 75 55 77 56 28 57 80 58 74 59 73 60 29 62 61 63 41 64
REMARK SMILES IDX 60 65 42 66 45 67 59 68 78 69 43 70 44 71 58 73 79 74 46 75
REMARK SMILES IDX 30 76 31 77 39 78 32 79 33 80 37 81 40 82 34 83 35 84 38 85
REMARK SMILES IDX 36 86 62 87 63 88 71 89 64 90 65 91 69 92 72 93 66 94 67 95
REMARK SMILES IDX 70 96 68 97 47 98 48 99 56 100 49 101 50 102 54 103 57 104
REMARK SMILES IDX 51 105 52 106 55 107 53 108
REMARK H PARENT 97 31 102 34 77 61 45 72
REMARK Flexibility Score: inf
ROOT
ATOM      1  C   UNL A   1      39.997  23.450  26.695  1.00  0.00     0.188 C 
ENDROOT
BRANCH   1   2
ATOM      2  C   UNL A   1      38.535  23.912  26.788  1.00  0.00     0.188 C 
BRANCH   2   3
ATOM      3  O   UNL A   1      37.693  23.811  25.649  1.00  0.00    -0.376 OA
BRANCH   3   4
ATOM      4  C   UNL A   1      37.400  22.492  25.208  1.00  0.00     0.202 C 
BRANCH   4   5
ATOM      5  C   UNL A   1      36.170  21.831  25.800  1.00  0.00     0.261 C 
BRANCH   5   6
ATOM      6  O   UNL A   1      35.046  22.670  25.553  1.00  0.00    -0.460 OA
BRANCH   6   7
ATOM      7  C   UNL A   1      34.130  22.154  24.723  1.00  0.00     0.338 C 
ATOM      8  O   UNL A   1      33.704  21.020  24.757  1.00  0.00    -0.246 OA
BRANCH   7   9
ATOM      9  C   UNL A   1      33.506  23.243  23.915  1.00  0.00     0.065 A 
ATOM     10  C   UNL A   1      32.075  24.480  25.697  1.00  0.00     0.047 C 
ATOM     11  C   UNL A   1      32.745  24.349  24.356  1.00  0.00    -0.012 A 
ATOM     12  C   UNL A   1      32.395  25.307  23.388  1.00  0.00     0.049 A 
ATOM     13  C   UNL A   1      33.630  22.996  22.534  1.00  0.00     0.016 A 
ATOM     14  C   UNL A   1      32.543  25.058  22.016  1.00  0.00     0.027 A 
ATOM     15  C   UNL A   1      33.113  23.870  21.590  1.00  0.00     0.003 A 
BRANCH  12  16
ATOM     16  N   UNL A   1      31.703  26.484  23.754  1.00  0.00    -0.318 N 
ATOM     17  C   UNL A   1      30.334  26.644  23.902  1.00  0.00     0.020 A 
ATOM     18  C   UNL A   1      32.331  27.692  24.029  1.00  0.00     0.027 A 
ATOM     19  C   UNL A   1      29.301  25.646  23.500  1.00  0.00     0.065 C 
ATOM     20  C   UNL A   1      30.160  27.837  24.579  1.00  0.00     0.031 A 
ATOM     21  C   UNL A   1      31.434  28.441  24.767  1.00  0.00    -0.003 A 
ATOM     22  C   UNL A   1      33.705  27.964  23.509  1.00  0.00     0.065 C 
BRANCH  21  23
ATOM     23  C   UNL A   1      31.625  29.668  25.472  1.00  0.00     0.029 C 
ATOM     24  C   UNL A   1      32.517  30.040  26.410  1.00  0.00     0.102 C 
ATOM     25  C   UNL A   1      32.427  31.450  26.868  1.00  0.00     0.262 C 
ATOM     26  C   UNL A   1      33.625  29.309  27.029  1.00  0.00     0.226 C 
ATOM     27  O   UNL A   1      31.446  32.168  26.709  1.00  0.00    -0.269 OA
ATOM     28  N   UNL A   1      33.565  31.909  27.475  1.00  0.00    -0.297 N 
ATOM     29  N   UNL A   1      34.641  29.815  27.625  1.00  0.00    -0.184 NA
ATOM     30  C   UNL A   1      34.687  31.175  27.769  1.00  0.00     0.203 C 
ATOM     31  H   UNL A   1      33.581  32.862  27.726  1.00  0.00     0.172 HD
ATOM     32  S   UNL A   1      36.020  31.992  28.370  1.00  0.00    -0.038 S 
BRANCH  26  33
ATOM     33  O   UNL A   1      33.535  27.979  27.054  1.00  0.00    -0.493 OA
ATOM     34  H   UNL A   1      33.915  27.497  27.762  1.00  0.00     0.295 HD
ENDBRANCH  26  33
ENDBRANCH  21  23
ENDBRANCH  12  16
ENDBRANCH   7   9
ENDBRANCH   6   7
ENDBRANCH   5   6
ENDBRANCH   4   5
ENDBRANCH   3   4
ENDBRANCH   2   3
ENDBRANCH   1   2
BRANCH   1  35
ATOM     35  O   UNL A   1      40.369  22.208  27.265  1.00  0.00    -0.377 OA
BRANCH  35  36
ATOM     36  C   UNL A   1      40.455  21.062  26.439  1.00  0.00     0.188 C 
BRANCH  36  37
ATOM     37  C   UNL A   1      41.076  19.777  26.947  1.00  0.00     0.188 C 
BRANCH  37  38
ATOM     38  O   UNL A   1      41.515  18.957  25.873  1.00  0.00    -0.376 OA
BRANCH  38  39
ATOM     39  C   UNL A   1      42.795  18.352  26.061  1.00  0.00     0.202 C 
BRANCH  39  40
ATOM     40  C   UNL A   1      43.913  18.962  25.203  1.00  0.00     0.261 C 
BRANCH  40  41
ATOM     41  O   UNL A   1      44.413  20.149  25.852  1.00  0.00    -0.460 OA
BRANCH  41  42
ATOM     42  C   UNL A   1      44.584  21.240  25.052  1.00  0.00     0.338 C 
ATOM     43  O   UNL A   1      45.463  21.369  24.216  1.00  0.00    -0.246 OA
BRANCH  42  44
ATOM     44  C   UNL A   1      43.776  22.384  25.582  1.00  0.00     0.060 A 
ATOM     45  C   UNL A   1      43.296  23.375  24.706  1.00  0.00     0.016 A 
ATOM     46  C   UNL A   1      43.855  22.669  26.937  1.00  0.00     0.016 A 
ATOM     47  C   UNL A   1      43.104  24.697  25.159  1.00  0.00     0.010 A 
ATOM     48  C   UNL A   1      43.752  23.987  27.343  1.00  0.00     0.010 A 
ATOM     49  C   UNL A   1      43.441  25.040  26.464  1.00  0.00    -0.014 A 
BRANCH  49  50
ATOM     50  C   UNL A   1      43.634  26.422  26.984  1.00  0.00     0.031 A 
ATOM     51  C   UNL A   1      42.422  27.265  27.283  1.00  0.00     0.074 A 
ATOM     52  C   UNL A   1      44.828  26.792  27.526  1.00  0.00     0.049 A 
ATOM     53  N   UNL A   1      42.424  28.401  27.896  1.00  0.00    -0.248 NA
ATOM     54  C   UNL A   1      41.063  26.851  26.965  1.00  0.00     0.031 C 
ATOM     55  C   UNL A   1      45.023  27.791  28.575  1.00  0.00     0.029 A 
ATOM     56  N   UNL A   1      46.135  26.337  27.311  1.00  0.00    -0.354 N 
ATOM     57  C   UNL A   1      41.161  28.654  28.402  1.00  0.00     0.074 A 
ATOM     58  C   UNL A   1      40.337  27.687  27.716  1.00  0.00     0.031 C 
ATOM     59  C   UNL A   1      46.315  27.980  28.847  1.00  0.00     0.029 A 
ATOM     60  C   UNL A   1      47.028  27.322  27.799  1.00  0.00     0.049 A 
ATOM     61  H   UNL A   1      46.389  25.482  26.896  1.00  0.00     0.167 HD
ATOM     62  C   UNL A   1      41.024  29.558  29.434  1.00  0.00     0.037 A 
ATOM     63  C   UNL A   1      47.853  27.998  26.951  1.00  0.00     0.037 A 
ATOM     64  C   UNL A   1      42.328  30.221  29.744  1.00  0.00     0.049 A 
ATOM     65  C   UNL A   1      47.424  29.467  26.878  1.00  0.00     0.074 A 
ATOM     66  C   UNL A   1      43.110  30.404  30.876  1.00  0.00     0.029 A 
ATOM     67  N   UNL A   1      43.139  30.665  28.690  1.00  0.00    -0.354 N 
ATOM     68  N   UNL A   1      46.228  29.877  27.255  1.00  0.00    -0.248 NA
ATOM     69  C   UNL A   1      48.282  30.599  26.566  1.00  0.00     0.031 C 
ATOM     70  C   UNL A   1      44.375  30.947  30.486  1.00  0.00     0.029 A 
ATOM     71  C   UNL A   1      44.369  31.129  29.113  1.00  0.00     0.049 A 
ATOM     72  H   UNL A   1      42.860  30.647  27.747  1.00  0.00     0.167 HD
ATOM     73  C   UNL A   1      46.219  31.225  27.475  1.00  0.00     0.074 A 
ATOM     74  C   UNL A   1      47.478  31.644  26.868  1.00  0.00     0.031 C 
ATOM     75  C   UNL A   1      45.238  31.872  28.196  1.00  0.00     0.037 A 
BRANCH  62  76
ATOM     76  C   UNL A   1      39.763  29.744  30.322  1.00  0.00     0.064 A 
ATOM     77  C   UNL A   1      39.123  31.005  30.463  1.00  0.00     0.173 A 
ATOM     78  C   UNL A   1      39.127  28.734  31.079  1.00  0.00     0.173 A 
ATOM     79  F   UNL A   1      39.496  32.068  29.743  1.00  0.00    -0.203 F 
ATOM     80  C   UNL A   1      38.030  31.235  31.322  1.00  0.00     0.198 A 
ATOM     81  C   UNL A   1      38.035  28.959  31.936  1.00  0.00     0.198 A 
ATOM     82  F   UNL A   1      39.479  27.454  30.999  1.00  0.00    -0.203 F 
ATOM     83  F   UNL A   1      37.494  32.461  31.405  1.00  0.00    -0.200 F 
ATOM     84  C   UNL A   1      37.492  30.213  32.067  1.00  0.00     0.200 A 
ATOM     85  F   UNL A   1      37.508  27.930  32.618  1.00  0.00    -0.200 F 
ATOM     86  F   UNL A   1      36.439  30.421  32.870  1.00  0.00    -0.200 F 
ENDBRANCH  62  76
BRANCH  63  87
ATOM     87  C   UNL A   1      48.483  27.002  26.018  1.00  0.00     0.064 A 
ATOM     88  C   UNL A   1      48.240  27.288  24.643  1.00  0.00     0.173 A 
ATOM     89  C   UNL A   1      49.743  26.464  26.327  1.00  0.00     0.173 A 
ATOM     90  F   UNL A   1      47.049  27.785  24.270  1.00  0.00    -0.203 F 
ATOM     91  C   UNL A   1      49.282  27.333  23.712  1.00  0.00     0.198 A 
ATOM     92  C   UNL A   1      50.771  26.457  25.366  1.00  0.00     0.198 A 
ATOM     93  F   UNL A   1      50.052  26.165  27.596  1.00  0.00    -0.203 F 
ATOM     94  F   UNL A   1      49.077  27.871  22.499  1.00  0.00    -0.200 F 
ATOM     95  C   UNL A   1      50.559  26.968  24.092  1.00  0.00     0.200 A 
ATOM     96  F   UNL A   1      52.012  26.091  25.720  1.00  0.00    -0.200 F 
ATOM     97  F   UNL A   1      51.595  27.187  23.268  1.00  0.00    -0.200 F 
ENDBRANCH  63  87
BRANCH  75  98
ATOM     98  C   UNL A   1      44.930  33.345  28.082  1.00  0.00     0.064 A 
ATOM     99  C   UNL A   1      44.194  33.924  27.052  1.00  0.00     0.173 A 
ATOM    100  C   UNL A   1      45.345  34.238  29.108  1.00  0.00     0.173 A 
ATOM    101  F   UNL A   1      43.981  33.271  25.903  1.00  0.00    -0.203 F 
ATOM    102  C   UNL A   1      43.695  35.222  27.162  1.00  0.00     0.198 A 
ATOM    103  C   UNL A   1      44.907  35.551  29.183  1.00  0.00     0.198 A 
ATOM    104  F   UNL A   1      46.169  33.875  30.099  1.00  0.00    -0.203 F 
ATOM    105  F   UNL A   1      42.871  35.693  26.217  1.00  0.00    -0.200 F 
ATOM    106  C   UNL A   1      44.025  36.024  28.242  1.00  0.00     0.200 A 
ATOM    107  F   UNL A   1      45.316  36.330  30.195  1.00  0.00    -0.200 F 
ATOM    108  F   UNL A   1      43.509  37.252  28.368  1.00  0.00    -0.200 F 
ENDBRANCH  75  98
ENDBRANCH  49  50
ENDBRANCH  42  44
ENDBRANCH  41  42
ENDBRANCH  40  41
ENDBRANCH  39  40
ENDBRANCH  38  39
ENDBRANCH  37  38
ENDBRANCH  36  37
ENDBRANCH  35  36
ENDBRANCH   1  35
TORSDOF 23
ENDMDL
