MODEL 1
REMARK VINA RESULT:      -7.9      0.000      0.000
REMARK SMILES COC(=O)CCN(C)C(=O)NCc1ccc(C(=O)OCCOCCOCCOCCOC(=O)c2ccc(-c3c4nc(c(-c5c(F)c(F)c(F)c(F)c5F)c5ccc([nH]5)c(-c5c(F)c(F)c(F)c(F)c5F)c5nc(c(-c6c(F)c(F)c(F)c(F)c6F)c6ccc3[nH]6)C=C5)C=C4)cc2)o1
REMARK SMILES IDX 23 1 22 2 21 3 20 4 19 5 17 6 18 7 16 8 13 9 14 10 97 11
REMARK SMILES IDX 15 12 12 13 11 14 9 15 10 16 7 18 8 19 6 20 5 21 3 22 4 23
REMARK SMILES IDX 2 24 1 25 24 26 25 27 26 28 27 29 28 30 29 31 30 32 31 33
REMARK SMILES IDX 32 34 33 35 34 36 35 37 96 38 36 39 95 40 37 41 38 42 39 43
REMARK SMILES IDX 89 44 40 45 94 46 88 47 90 48 41 49 93 50 87 51 86 52 42 54
REMARK SMILES IDX 74 55 54 56 73 57 55 58 58 59 72 60 91 61 56 62 57 63 71 65
REMARK SMILES IDX 92 66 59 67 43 68 44 69 52 70 45 71 46 72 50 73 53 74 47 75
REMARK SMILES IDX 48 76 51 77 49 78 75 79 76 80 84 81 77 82 78 83 82 84 85 85
REMARK SMILES IDX 79 86 80 87 83 88 81 89 60 90 61 91 69 92 62 93 63 94 67 95
REMARK SMILES IDX 70 96 64 97 65 98 68 99 66 100
REMARK H PARENT 11 17 90 53 58 64
REMARK Flexibility Score: inf
ROOT
ATOM      1  C   UNL A   1      32.838  35.938  32.511  1.00  0.00     0.188 C 
ENDROOT
BRANCH   1   2
ATOM      2  O   UNL A   1      32.981  37.035  31.607  1.00  0.00    -0.376 OA
BRANCH   2   3
ATOM      3  C   UNL A   1      33.276  36.701  30.254  1.00  0.00     0.202 C 
BRANCH   3   4
ATOM      4  C   UNL A   1      32.640  35.404  29.722  1.00  0.00     0.261 C 
BRANCH   4   5
ATOM      5  O   UNL A   1      33.541  34.460  29.125  1.00  0.00    -0.457 OA
BRANCH   5   6
ATOM      6  C   UNL A   1      33.068  33.692  28.111  1.00  0.00     0.374 C 
ATOM      7  O   UNL A   1      32.149  34.010  27.367  1.00  0.00    -0.242 OA
BRANCH   6   8
ATOM      8  C   UNL A   1      33.936  32.548  27.971  1.00  0.00     0.211 A 
ATOM      9  C   UNL A   1      34.415  30.504  27.304  1.00  0.00     0.124 A 
ATOM     10  C   UNL A   1      35.612  31.070  27.686  1.00  0.00     0.048 A 
ATOM     11  O   UNL A   1      33.397  31.390  27.484  1.00  0.00    -0.452 OA
ATOM     12  C   UNL A   1      35.304  32.385  28.112  1.00  0.00     0.058 A 
BRANCH   9  13
ATOM     13  C   UNL A   1      34.023  29.158  26.816  1.00  0.00     0.193 C 
BRANCH  13  14
ATOM     14  N   UNL A   1      34.013  29.252  25.377  1.00  0.00    -0.331 N 
ATOM     15  C   UNL A   1      33.175  28.945  24.382  1.00  0.00     0.317 C 
ATOM     16  O   UNL A   1      33.686  28.965  23.258  1.00  0.00    -0.249 OA
ATOM     17  H   UNL A   1      34.845  29.650  25.036  1.00  0.00     0.165 HD
BRANCH  15  18
ATOM     18  N   UNL A   1      31.841  28.709  24.560  1.00  0.00    -0.327 N 
ATOM     19  C   UNL A   1      30.756  29.663  24.414  1.00  0.00     0.148 C 
BRANCH  18  20
ATOM     20  C   UNL A   1      31.450  27.312  24.803  1.00  0.00     0.132 C 
BRANCH  20  21
ATOM     21  C   UNL A   1      30.567  26.757  23.688  1.00  0.00     0.144 C 
BRANCH  21  22
ATOM     22  C   UNL A   1      31.398  26.183  22.569  1.00  0.00     0.307 C 
ATOM     23  O   UNL A   1      31.427  26.644  21.436  1.00  0.00    -0.252 OA
BRANCH  22  24
ATOM     24  O   UNL A   1      32.091  25.090  22.998  1.00  0.00    -0.469 OA
ATOM     25  C   UNL A   1      33.510  25.257  23.004  1.00  0.00     0.282 C 
ENDBRANCH  22  24
ENDBRANCH  21  22
ENDBRANCH  20  21
ENDBRANCH  18  20
ENDBRANCH  15  18
ENDBRANCH  13  14
ENDBRANCH   9  13
ENDBRANCH   6   8
ENDBRANCH   5   6
ENDBRANCH   4   5
ENDBRANCH   3   4
ENDBRANCH   2   3
ENDBRANCH   1   2
BRANCH   1  26
ATOM     26  C   UNL A   1      34.188  35.408  33.018  1.00  0.00     0.188 C 
BRANCH  26  27
ATOM     27  O   UNL A   1      34.426  34.071  32.604  1.00  0.00    -0.377 OA
BRANCH  27  28
ATOM     28  C   UNL A   1      34.929  33.184  33.602  1.00  0.00     0.188 C 
BRANCH  28  29
ATOM     29  C   UNL A   1      36.205  32.362  33.325  1.00  0.00     0.188 C 
BRANCH  29  30
ATOM     30  O   UNL A   1      36.932  32.020  34.509  1.00  0.00    -0.376 OA
BRANCH  30  31
ATOM     31  C   UNL A   1      38.339  32.247  34.474  1.00  0.00     0.202 C 
BRANCH  31  32
ATOM     32  C   UNL A   1      38.715  33.735  34.465  1.00  0.00     0.261 C 
BRANCH  32  33
ATOM     33  O   UNL A   1      39.871  34.045  33.670  1.00  0.00    -0.460 OA
BRANCH  33  34
ATOM     34  C   UNL A   1      39.670  34.135  32.339  1.00  0.00     0.338 C 
ATOM     35  O   UNL A   1      38.680  34.558  31.770  1.00  0.00    -0.246 OA
BRANCH  34  36
ATOM     36  C   UNL A   1      40.929  33.797  31.647  1.00  0.00     0.060 A 
ATOM     37  C   UNL A   1      40.911  33.722  30.250  1.00  0.00     0.016 A 
ATOM     38  C   UNL A   1      42.091  33.497  32.363  1.00  0.00     0.016 A 
ATOM     39  C   UNL A   1      42.034  33.261  29.568  1.00  0.00     0.010 A 
ATOM     40  C   UNL A   1      43.215  33.024  31.680  1.00  0.00     0.010 A 
ATOM     41  C   UNL A   1      43.167  32.851  30.286  1.00  0.00    -0.014 A 
BRANCH  41  42
ATOM     42  C   UNL A   1      44.177  32.012  29.601  1.00  0.00     0.031 A 
ATOM     43  C   UNL A   1      45.430  32.681  29.103  1.00  0.00     0.074 A 
ATOM     44  C   UNL A   1      44.016  30.685  29.471  1.00  0.00     0.049 A 
ATOM     45  N   UNL A   1      46.489  32.156  28.541  1.00  0.00    -0.248 NA
ATOM     46  C   UNL A   1      45.498  34.143  29.265  1.00  0.00     0.031 C 
ATOM     47  C   UNL A   1      42.857  29.923  29.924  1.00  0.00     0.029 A 
ATOM     48  N   UNL A   1      44.848  29.744  28.918  1.00  0.00    -0.354 N 
ATOM     49  C   UNL A   1      47.349  33.219  28.295  1.00  0.00     0.074 A 
ATOM     50  C   UNL A   1      46.675  34.423  28.727  1.00  0.00     0.031 C 
ATOM     51  C   UNL A   1      43.049  28.625  29.629  1.00  0.00     0.029 A 
ATOM     52  C   UNL A   1      44.340  28.470  28.960  1.00  0.00     0.049 A 
ATOM     53  H   UNL A   1      45.725  29.962  28.527  1.00  0.00     0.167 HD
ATOM     54  C   UNL A   1      48.596  33.193  27.771  1.00  0.00     0.037 A 
ATOM     55  C   UNL A   1      44.867  27.315  28.512  1.00  0.00     0.037 A 
ATOM     56  C   UNL A   1      49.263  32.000  27.328  1.00  0.00     0.049 A 
ATOM     57  C   UNL A   1      46.242  27.318  27.892  1.00  0.00     0.074 A 
ATOM     58  C   UNL A   1      50.528  31.867  26.784  1.00  0.00     0.029 A 
ATOM     59  N   UNL A   1      48.709  30.729  27.375  1.00  0.00    -0.354 N 
ATOM     60  N   UNL A   1      47.066  28.320  27.707  1.00  0.00    -0.248 NA
ATOM     61  C   UNL A   1      46.763  26.021  27.436  1.00  0.00     0.031 C 
ATOM     62  C   UNL A   1      50.726  30.518  26.467  1.00  0.00     0.029 A 
ATOM     63  C   UNL A   1      49.602  29.807  26.855  1.00  0.00     0.049 A 
ATOM     64  H   UNL A   1      47.815  30.515  27.726  1.00  0.00     0.167 HD
ATOM     65  C   UNL A   1      48.213  27.772  27.144  1.00  0.00     0.074 A 
ATOM     66  C   UNL A   1      47.981  26.348  27.028  1.00  0.00     0.031 C 
ATOM     67  C   UNL A   1      49.357  28.391  26.760  1.00  0.00     0.037 A 
BRANCH  54  68
ATOM     68  C   UNL A   1      49.307  34.505  27.637  1.00  0.00     0.064 A 
ATOM     69  C   UNL A   1      49.224  35.265  26.460  1.00  0.00     0.173 A 
ATOM     70  C   UNL A   1      50.075  35.012  28.695  1.00  0.00     0.173 A 
ATOM     71  F   UNL A   1      48.519  34.812  25.413  1.00  0.00    -0.203 F 
ATOM     72  C   UNL A   1      49.904  36.474  26.340  1.00  0.00     0.198 A 
ATOM     73  C   UNL A   1      50.733  36.233  28.580  1.00  0.00     0.198 A 
ATOM     74  F   UNL A   1      50.188  34.321  29.839  1.00  0.00    -0.203 F 
ATOM     75  F   UNL A   1      49.849  37.161  25.190  1.00  0.00    -0.200 F 
ATOM     76  C   UNL A   1      50.654  36.960  27.401  1.00  0.00     0.200 A 
ATOM     77  F   UNL A   1      51.454  36.703  29.608  1.00  0.00    -0.200 F 
ATOM     78  F   UNL A   1      51.308  38.123  27.284  1.00  0.00    -0.200 F 
ENDBRANCH  54  68
BRANCH  55  79
ATOM     79  C   UNL A   1      44.104  26.048  28.649  1.00  0.00     0.064 A 
ATOM     80  C   UNL A   1      44.297  25.202  29.749  1.00  0.00     0.173 A 
ATOM     81  C   UNL A   1      43.184  25.647  27.668  1.00  0.00     0.173 A 
ATOM     82  F   UNL A   1      45.186  25.532  30.698  1.00  0.00    -0.203 F 
ATOM     83  C   UNL A   1      43.616  23.992  29.853  1.00  0.00     0.198 A 
ATOM     84  C   UNL A   1      42.485  24.448  27.786  1.00  0.00     0.198 A 
ATOM     85  F   UNL A   1      42.966  26.422  26.595  1.00  0.00    -0.203 F 
ATOM     86  F   UNL A   1      43.854  23.178  30.891  1.00  0.00    -0.200 F 
ATOM     87  C   UNL A   1      42.707  23.617  28.874  1.00  0.00     0.200 A 
ATOM     88  F   UNL A   1      41.603  24.093  26.842  1.00  0.00    -0.200 F 
ATOM     89  F   UNL A   1      42.055  22.452  28.974  1.00  0.00    -0.200 F 
ENDBRANCH  55  79
BRANCH  67  90
ATOM     90  C   UNL A   1      50.457  27.529  26.218  1.00  0.00     0.064 A 
ATOM     91  C   UNL A   1      50.629  27.335  24.839  1.00  0.00     0.173 A 
ATOM     92  C   UNL A   1      51.372  26.918  27.088  1.00  0.00     0.173 A 
ATOM     93  F   UNL A   1      49.773  27.889  23.968  1.00  0.00    -0.203 F 
ATOM     94  C   UNL A   1      51.662  26.537  24.354  1.00  0.00     0.198 A 
ATOM     95  C   UNL A   1      52.419  26.141  26.597  1.00  0.00     0.198 A 
ATOM     96  F   UNL A   1      51.256  27.079  28.414  1.00  0.00    -0.203 F 
ATOM     97  F   UNL A   1      51.780  26.326  23.035  1.00  0.00    -0.200 F 
ATOM     98  C   UNL A   1      52.558  25.945  25.231  1.00  0.00     0.200 A 
ATOM     99  F   UNL A   1      53.291  25.581  27.447  1.00  0.00    -0.200 F 
ATOM    100  F   UNL A   1      53.552  25.179  24.762  1.00  0.00    -0.200 F 
ENDBRANCH  67  90
ENDBRANCH  41  42
ENDBRANCH  34  36
ENDBRANCH  33  34
ENDBRANCH  32  33
ENDBRANCH  31  32
ENDBRANCH  30  31
ENDBRANCH  29  30
ENDBRANCH  28  29
ENDBRANCH  27  28
ENDBRANCH  26  27
ENDBRANCH   1  26
TORSDOF 27
ENDMDL
MODEL 2
REMARK VINA RESULT:      -7.7      4.511      6.773
REMARK SMILES COC(=O)CCN(C)C(=O)NCc1ccc(C(=O)OCCOCCOCCOCCOC(=O)c2ccc(-c3c4nc(c(-c5c(F)c(F)c(F)c(F)c5F)c5ccc([nH]5)c(-c5c(F)c(F)c(F)c(F)c5F)c5nc(c(-c6c(F)c(F)c(F)c(F)c6F)c6ccc3[nH]6)C=C5)C=C4)cc2)o1
REMARK SMILES IDX 23 1 22 2 21 3 20 4 19 5 17 6 18 7 16 8 13 9 14 10 97 11
REMARK SMILES IDX 15 12 12 13 11 14 9 15 10 16 7 18 8 19 6 20 5 21 3 22 4 23
REMARK SMILES IDX 2 24 1 25 24 26 25 27 26 28 27 29 28 30 29 31 30 32 31 33
REMARK SMILES IDX 32 34 33 35 34 36 35 37 96 38 36 39 95 40 37 41 38 42 39 43
REMARK SMILES IDX 89 44 40 45 94 46 88 47 90 48 41 49 93 50 87 51 86 52 42 54
REMARK SMILES IDX 74 55 54 56 73 57 55 58 58 59 72 60 91 61 56 62 57 63 71 65
REMARK SMILES IDX 92 66 59 67 43 68 44 69 52 70 45 71 46 72 50 73 53 74 47 75
REMARK SMILES IDX 48 76 51 77 49 78 75 79 76 80 84 81 77 82 78 83 82 84 85 85
REMARK SMILES IDX 79 86 80 87 83 88 81 89 60 90 61 91 69 92 62 93 63 94 67 95
REMARK SMILES IDX 70 96 64 97 65 98 68 99 66 100
REMARK H PARENT 11 17 90 53 58 64
REMARK Flexibility Score: inf
ROOT
ATOM      1  C   UNL A   1      33.147  35.725  32.464  1.00  0.00     0.188 C 
ENDROOT
BRANCH   1   2
ATOM      2  O   UNL A   1      33.114  36.854  31.590  1.00  0.00    -0.376 OA
BRANCH   2   3
ATOM      3  C   UNL A   1      33.296  36.581  30.203  1.00  0.00     0.202 C 
BRANCH   3   4
ATOM      4  C   UNL A   1      32.917  35.165  29.735  1.00  0.00     0.261 C 
BRANCH   4   5
ATOM      5  O   UNL A   1      33.579  34.695  28.552  1.00  0.00    -0.457 OA
BRANCH   5   6
ATOM      6  C   UNL A   1      33.055  33.611  27.926  1.00  0.00     0.374 C 
ATOM      7  O   UNL A   1      31.983  33.600  27.332  1.00  0.00    -0.242 OA
BRANCH   6   8
ATOM      8  C   UNL A   1      34.045  32.561  27.940  1.00  0.00     0.211 A 
ATOM      9  C   UNL A   1      34.770  30.526  27.512  1.00  0.00     0.124 A 
ATOM     10  C   UNL A   1      35.879  31.256  27.877  1.00  0.00     0.048 A 
ATOM     11  O   UNL A   1      33.656  31.308  27.559  1.00  0.00    -0.452 OA
ATOM     12  C   UNL A   1      35.414  32.566  28.149  1.00  0.00     0.058 A 
BRANCH   9  13
ATOM     13  C   UNL A   1      34.546  29.103  27.154  1.00  0.00     0.193 C 
BRANCH  13  14
ATOM     14  N   UNL A   1      34.500  29.064  25.714  1.00  0.00    -0.331 N 
ATOM     15  C   UNL A   1      33.614  28.724  24.772  1.00  0.00     0.317 C 
ATOM     16  O   UNL A   1      34.092  28.606  23.640  1.00  0.00    -0.249 OA
ATOM     17  H   UNL A   1      35.346  29.372  25.317  1.00  0.00     0.165 HD
BRANCH  15  18
ATOM     18  N   UNL A   1      32.274  28.595  25.003  1.00  0.00    -0.327 N 
ATOM     19  C   UNL A   1      31.306  29.666  25.160  1.00  0.00     0.148 C 
BRANCH  18  20
ATOM     20  C   UNL A   1      31.730  27.229  24.963  1.00  0.00     0.132 C 
BRANCH  20  21
ATOM     21  C   UNL A   1      32.115  26.418  26.198  1.00  0.00     0.144 C 
BRANCH  21  22
ATOM     22  C   UNL A   1      33.060  25.299  25.843  1.00  0.00     0.307 C 
ATOM     23  O   UNL A   1      34.254  25.458  25.630  1.00  0.00    -0.252 OA
BRANCH  22  24
ATOM     24  O   UNL A   1      32.395  24.110  25.786  1.00  0.00    -0.469 OA
ATOM     25  C   UNL A   1      31.214  24.057  26.589  1.00  0.00     0.282 C 
ENDBRANCH  22  24
ENDBRANCH  21  22
ENDBRANCH  20  21
ENDBRANCH  18  20
ENDBRANCH  15  18
ENDBRANCH  13  14
ENDBRANCH   9  13
ENDBRANCH   6   8
ENDBRANCH   5   6
ENDBRANCH   4   5
ENDBRANCH   3   4
ENDBRANCH   2   3
ENDBRANCH   1   2
BRANCH   1  26
ATOM     26  C   UNL A   1      34.562  35.416  32.979  1.00  0.00     0.188 C 
BRANCH  26  27
ATOM     27  O   UNL A   1      34.848  34.025  32.953  1.00  0.00    -0.377 OA
BRANCH  27  28
ATOM     28  C   UNL A   1      35.732  33.546  33.966  1.00  0.00     0.188 C 
BRANCH  28  29
ATOM     29  C   UNL A   1      36.984  32.736  33.570  1.00  0.00     0.188 C 
BRANCH  29  30
ATOM     30  O   UNL A   1      38.190  33.221  34.166  1.00  0.00    -0.376 OA
BRANCH  30  31
ATOM     31  C   UNL A   1      39.371  33.124  33.375  1.00  0.00     0.202 C 
BRANCH  31  32
ATOM     32  C   UNL A   1      39.257  33.843  32.023  1.00  0.00     0.261 C 
BRANCH  32  33
ATOM     33  O   UNL A   1      40.066  33.269  30.982  1.00  0.00    -0.460 OA
BRANCH  33  34
ATOM     34  C   UNL A   1      39.666  32.069  30.512  1.00  0.00     0.338 C 
ATOM     35  O   UNL A   1      38.560  31.770  30.103  1.00  0.00    -0.246 OA
BRANCH  34  36
ATOM     36  C   UNL A   1      40.845  31.189  30.402  1.00  0.00     0.060 A 
ATOM     37  C   UNL A   1      40.662  29.817  30.612  1.00  0.00     0.016 A 
ATOM     38  C   UNL A   1      42.119  31.710  30.159  1.00  0.00     0.016 A 
ATOM     39  C   UNL A   1      41.768  28.973  30.665  1.00  0.00     0.010 A 
ATOM     40  C   UNL A   1      43.230  30.865  30.224  1.00  0.00     0.010 A 
ATOM     41  C   UNL A   1      43.059  29.504  30.535  1.00  0.00    -0.014 A 
BRANCH  41  42
ATOM     42  C   UNL A   1      44.212  28.688  30.979  1.00  0.00     0.031 A 
ATOM     43  C   UNL A   1      45.101  28.087  29.923  1.00  0.00     0.074 A 
ATOM     44  C   UNL A   1      44.499  28.528  32.282  1.00  0.00     0.049 A 
ATOM     45  N   UNL A   1      46.205  27.399  30.056  1.00  0.00    -0.248 NA
ATOM     46  C   UNL A   1      44.685  28.293  28.526  1.00  0.00     0.031 C 
ATOM     47  C   UNL A   1      43.725  29.072  33.393  1.00  0.00     0.029 A 
ATOM     48  N   UNL A   1      45.534  27.858  32.883  1.00  0.00    -0.354 N 
ATOM     49  C   UNL A   1      46.620  27.103  28.764  1.00  0.00     0.074 A 
ATOM     50  C   UNL A   1      45.629  27.645  27.862  1.00  0.00     0.031 C 
ATOM     51  C   UNL A   1      44.312  28.711  34.547  1.00  0.00     0.029 A 
ATOM     52  C   UNL A   1      45.497  27.907  34.254  1.00  0.00     0.049 A 
ATOM     53  H   UNL A   1      46.236  27.386  32.379  1.00  0.00     0.167 HD
ATOM     54  C   UNL A   1      47.736  26.451  28.363  1.00  0.00     0.037 A 
ATOM     55  C   UNL A   1      46.332  27.365  35.160  1.00  0.00     0.037 A 
ATOM     56  C   UNL A   1      48.716  25.898  29.257  1.00  0.00     0.049 A 
ATOM     57  C   UNL A   1      47.547  26.605  34.689  1.00  0.00     0.074 A 
ATOM     58  C   UNL A   1      49.882  25.220  28.951  1.00  0.00     0.029 A 
ATOM     59  N   UNL A   1      48.636  25.956  30.640  1.00  0.00    -0.354 N 
ATOM     60  N   UNL A   1      47.957  26.371  33.466  1.00  0.00    -0.248 NA
ATOM     61  C   UNL A   1      48.424  26.050  35.730  1.00  0.00     0.031 C 
ATOM     62  C   UNL A   1      50.491  24.835  30.151  1.00  0.00     0.029 A 
ATOM     63  C   UNL A   1      49.726  25.313  31.203  1.00  0.00     0.049 A 
ATOM     64  H   UNL A   1      47.912  26.391  31.146  1.00  0.00     0.167 HD
ATOM     65  C   UNL A   1      49.151  25.673  33.590  1.00  0.00     0.074 A 
ATOM     66  C   UNL A   1      49.406  25.529  35.008  1.00  0.00     0.031 C 
ATOM     67  C   UNL A   1      49.967  25.194  32.617  1.00  0.00     0.037 A 
BRANCH  54  68
ATOM     68  C   UNL A   1      47.940  26.290  26.887  1.00  0.00     0.064 A 
ATOM     69  C   UNL A   1      47.346  25.235  26.177  1.00  0.00     0.173 A 
ATOM     70  C   UNL A   1      48.730  27.202  26.173  1.00  0.00     0.173 A 
ATOM     71  F   UNL A   1      46.599  24.325  26.820  1.00  0.00    -0.203 F 
ATOM     72  C   UNL A   1      47.558  25.085  24.809  1.00  0.00     0.198 A 
ATOM     73  C   UNL A   1      48.919  27.063  24.800  1.00  0.00     0.198 A 
ATOM     74  F   UNL A   1      49.322  28.225  26.806  1.00  0.00    -0.203 F 
ATOM     75  F   UNL A   1      47.019  24.044  24.160  1.00  0.00    -0.200 F 
ATOM     76  C   UNL A   1      48.339  26.002  24.121  1.00  0.00     0.200 A 
ATOM     77  F   UNL A   1      49.671  27.951  24.136  1.00  0.00    -0.200 F 
ATOM     78  F   UNL A   1      48.542  25.856  22.805  1.00  0.00    -0.200 F 
ENDBRANCH  54  68
BRANCH  55  79
ATOM     79  C   UNL A   1      46.065  27.535  36.611  1.00  0.00     0.064 A 
ATOM     80  C   UNL A   1      45.276  26.614  37.314  1.00  0.00     0.173 A 
ATOM     81  C   UNL A   1      46.572  28.635  37.317  1.00  0.00     0.173 A 
ATOM     82  F   UNL A   1      44.748  25.560  36.674  1.00  0.00    -0.203 F 
ATOM     83  C   UNL A   1      44.987  26.799  38.664  1.00  0.00     0.198 A 
ATOM     84  C   UNL A   1      46.302  28.806  38.673  1.00  0.00     0.198 A 
ATOM     85  F   UNL A   1      47.331  29.545  36.687  1.00  0.00    -0.203 F 
ATOM     86  F   UNL A   1      44.190  25.929  39.302  1.00  0.00    -0.200 F 
ATOM     87  C   UNL A   1      45.503  27.893  39.343  1.00  0.00     0.200 A 
ATOM     88  F   UNL A   1      46.808  29.860  39.327  1.00  0.00    -0.200 F 
ATOM     89  F   UNL A   1      45.221  28.071  40.641  1.00  0.00    -0.200 F 
ENDBRANCH  55  79
BRANCH  67  90
ATOM     90  C   UNL A   1      51.228  24.508  33.053  1.00  0.00     0.064 A 
ATOM     91  C   UNL A   1      51.261  23.134  33.329  1.00  0.00     0.173 A 
ATOM     92  C   UNL A   1      52.425  25.231  33.161  1.00  0.00     0.173 A 
ATOM     93  F   UNL A   1      50.140  22.402  33.250  1.00  0.00    -0.203 F 
ATOM     94  C   UNL A   1      52.444  22.513  33.724  1.00  0.00     0.198 A 
ATOM     95  C   UNL A   1      53.611  24.602  33.532  1.00  0.00     0.198 A 
ATOM     96  F   UNL A   1      52.448  26.547  32.900  1.00  0.00    -0.203 F 
ATOM     97  F   UNL A   1      52.444  21.208  34.029  1.00  0.00    -0.200 F 
ATOM     98  C   UNL A   1      53.617  23.246  33.821  1.00  0.00     0.200 A 
ATOM     99  F   UNL A   1      54.746  25.310  33.612  1.00  0.00    -0.200 F 
ATOM    100  F   UNL A   1      54.754  22.646  34.200  1.00  0.00    -0.200 F 
ENDBRANCH  67  90
ENDBRANCH  41  42
ENDBRANCH  34  36
ENDBRANCH  33  34
ENDBRANCH  32  33
ENDBRANCH  31  32
ENDBRANCH  30  31
ENDBRANCH  29  30
ENDBRANCH  28  29
ENDBRANCH  27  28
ENDBRANCH  26  27
ENDBRANCH   1  26
TORSDOF 27
ENDMDL
MODEL 3
REMARK VINA RESULT:      -7.5      6.982     13.594
REMARK SMILES COC(=O)CCN(C)C(=O)NCc1ccc(C(=O)OCCOCCOCCOCCOC(=O)c2ccc(-c3c4nc(c(-c5c(F)c(F)c(F)c(F)c5F)c5ccc([nH]5)c(-c5c(F)c(F)c(F)c(F)c5F)c5nc(c(-c6c(F)c(F)c(F)c(F)c6F)c6ccc3[nH]6)C=C5)C=C4)cc2)o1
REMARK SMILES IDX 23 1 22 2 21 3 20 4 19 5 17 6 18 7 16 8 13 9 14 10 97 11
REMARK SMILES IDX 15 12 12 13 11 14 9 15 10 16 7 18 8 19 6 20 5 21 3 22 4 23
REMARK SMILES IDX 2 24 1 25 24 26 25 27 26 28 27 29 28 30 29 31 30 32 31 33
REMARK SMILES IDX 32 34 33 35 34 36 35 37 96 38 36 39 95 40 37 41 38 42 39 43
REMARK SMILES IDX 89 44 40 45 94 46 88 47 90 48 41 49 93 50 87 51 86 52 42 54
REMARK SMILES IDX 74 55 54 56 73 57 55 58 58 59 72 60 91 61 56 62 57 63 71 65
REMARK SMILES IDX 92 66 59 67 43 68 44 69 52 70 45 71 46 72 50 73 53 74 47 75
REMARK SMILES IDX 48 76 51 77 49 78 75 79 76 80 84 81 77 82 78 83 82 84 85 85
REMARK SMILES IDX 79 86 80 87 83 88 81 89 60 90 61 91 69 92 62 93 63 94 67 95
REMARK SMILES IDX 70 96 64 97 65 98 68 99 66 100
REMARK H PARENT 11 17 90 53 58 64
REMARK Flexibility Score: inf
ROOT
ATOM      1  C   UNL A   1      46.322  26.321  28.490  1.00  0.00     0.188 C 
ENDROOT
BRANCH   1   2
ATOM      2  O   UNL A   1      45.187  26.947  27.889  1.00  0.00    -0.376 OA
BRANCH   2   3
ATOM      3  C   UNL A   1      45.451  27.790  26.771  1.00  0.00     0.202 C 
BRANCH   3   4
ATOM      4  C   UNL A   1      46.491  27.271  25.762  1.00  0.00     0.261 C 
BRANCH   4   5
ATOM      5  O   UNL A   1      47.737  26.823  26.315  1.00  0.00    -0.457 OA
BRANCH   5   6
ATOM      6  C   UNL A   1      48.476  25.954  25.580  1.00  0.00     0.374 C 
ATOM      7  O   UNL A   1      49.685  26.044  25.403  1.00  0.00    -0.242 OA
BRANCH   6   8
ATOM      8  C   UNL A   1      47.629  24.847  25.207  1.00  0.00     0.211 A 
ATOM      9  C   UNL A   1      46.262  23.175  25.639  1.00  0.00     0.124 A 
ATOM     10  C   UNL A   1      46.191  23.382  24.279  1.00  0.00     0.048 A 
ATOM     11  O   UNL A   1      47.138  24.052  26.203  1.00  0.00    -0.452 OA
ATOM     12  C   UNL A   1      47.068  24.460  24.001  1.00  0.00     0.058 A 
BRANCH   9  13
ATOM     13  C   UNL A   1      45.647  22.189  26.563  1.00  0.00     0.193 C 
BRANCH  13  14
ATOM     14  N   UNL A   1      44.960  21.240  25.722  1.00  0.00    -0.331 N 
ATOM     15  C   UNL A   1      43.702  20.832  25.534  1.00  0.00     0.317 C 
ATOM     16  O   UNL A   1      43.595  19.794  24.874  1.00  0.00    -0.249 OA
ATOM     17  H   UNL A   1      45.585  20.768  25.128  1.00  0.00     0.165 HD
BRANCH  15  18
ATOM     18  N   UNL A   1      42.606  21.532  25.954  1.00  0.00    -0.327 N 
ATOM     19  C   UNL A   1      42.271  22.907  25.633  1.00  0.00     0.148 C 
BRANCH  18  20
ATOM     20  C   UNL A   1      41.596  20.775  26.709  1.00  0.00     0.132 C 
BRANCH  20  21
ATOM     21  C   UNL A   1      40.182  21.297  26.466  1.00  0.00     0.144 C 
BRANCH  21  22
ATOM     22  C   UNL A   1      39.363  20.308  25.678  1.00  0.00     0.307 C 
ATOM     23  O   UNL A   1      39.661  19.128  25.548  1.00  0.00    -0.252 OA
BRANCH  22  24
ATOM     24  O   UNL A   1      38.269  20.914  25.136  1.00  0.00    -0.469 OA
ATOM     25  C   UNL A   1      37.885  22.127  25.787  1.00  0.00     0.282 C 
ENDBRANCH  22  24
ENDBRANCH  21  22
ENDBRANCH  20  21
ENDBRANCH  18  20
ENDBRANCH  15  18
ENDBRANCH  13  14
ENDBRANCH   9  13
ENDBRANCH   6   8
ENDBRANCH   5   6
ENDBRANCH   4   5
ENDBRANCH   3   4
ENDBRANCH   2   3
ENDBRANCH   1   2
BRANCH   1  26
ATOM     26  C   UNL A   1      45.933  25.295  29.566  1.00  0.00     0.188 C 
BRANCH  26  27
ATOM     27  O   UNL A   1      45.381  25.914  30.719  1.00  0.00    -0.377 OA
BRANCH  27  28
ATOM     28  C   UNL A   1      45.866  25.447  31.976  1.00  0.00     0.188 C 
BRANCH  28  29
ATOM     29  C   UNL A   1      47.376  25.508  32.286  1.00  0.00     0.188 C 
BRANCH  29  30
ATOM     30  O   UNL A   1      47.687  25.275  33.663  1.00  0.00    -0.376 OA
BRANCH  30  31
ATOM     31  C   UNL A   1      49.047  25.463  34.045  1.00  0.00     0.202 C 
BRANCH  31  32
ATOM     32  C   UNL A   1      49.214  25.880  35.513  1.00  0.00     0.261 C 
BRANCH  32  33
ATOM     33  O   UNL A   1      47.975  26.097  36.207  1.00  0.00    -0.460 OA
BRANCH  33  34
ATOM     34  C   UNL A   1      47.654  27.383  36.463  1.00  0.00     0.338 C 
ATOM     35  O   UNL A   1      48.273  28.173  37.151  1.00  0.00    -0.246 OA
BRANCH  34  36
ATOM     36  C   UNL A   1      46.498  27.757  35.625  1.00  0.00     0.060 A 
ATOM     37  C   UNL A   1      46.716  28.648  34.568  1.00  0.00     0.016 A 
ATOM     38  C   UNL A   1      45.213  27.290  35.913  1.00  0.00     0.016 A 
ATOM     39  C   UNL A   1      45.632  29.142  33.848  1.00  0.00     0.010 A 
ATOM     40  C   UNL A   1      44.124  27.795  35.198  1.00  0.00     0.010 A 
ATOM     41  C   UNL A   1      44.328  28.766  34.202  1.00  0.00    -0.014 A 
BRANCH  41  42
ATOM     42  C   UNL A   1      43.194  29.581  33.708  1.00  0.00     0.031 A 
ATOM     43  C   UNL A   1      42.466  29.107  32.479  1.00  0.00     0.074 A 
ATOM     44  C   UNL A   1      42.783  30.681  34.360  1.00  0.00     0.049 A 
ATOM     45  N   UNL A   1      41.405  29.601  31.896  1.00  0.00    -0.248 NA
ATOM     46  C   UNL A   1      43.012  27.909  31.819  1.00  0.00     0.031 C 
ATOM     47  C   UNL A   1      43.396  31.230  35.566  1.00  0.00     0.029 A 
ATOM     48  N   UNL A   1      41.740  31.530  34.091  1.00  0.00    -0.354 N 
ATOM     49  C   UNL A   1      41.150  28.769  30.813  1.00  0.00     0.074 A 
ATOM     50  C   UNL A   1      42.191  27.765  30.791  1.00  0.00     0.031 C 
ATOM     51  C   UNL A   1      42.716  32.330  35.934  1.00  0.00     0.029 A 
ATOM     52  C   UNL A   1      41.628  32.564  34.986  1.00  0.00     0.049 A 
ATOM     53  H   UNL A   1      41.129  31.410  33.327  1.00  0.00     0.167 HD
ATOM     54  C   UNL A   1      40.131  28.826  29.925  1.00  0.00     0.037 A 
ATOM     55  C   UNL A   1      40.741  33.576  35.030  1.00  0.00     0.037 A 
ATOM     56  C   UNL A   1      39.103  29.830  29.935  1.00  0.00     0.049 A 
ATOM     57  C   UNL A   1      39.639  33.642  34.003  1.00  0.00     0.074 A 
ATOM     58  C   UNL A   1      38.026  29.975  29.079  1.00  0.00     0.029 A 
ATOM     59  N   UNL A   1      39.033  30.869  30.850  1.00  0.00    -0.354 N 
ATOM     60  N   UNL A   1      39.379  32.825  33.012  1.00  0.00    -0.248 NA
ATOM     61  C   UNL A   1      38.698  34.766  34.116  1.00  0.00     0.031 C 
ATOM     62  C   UNL A   1      37.322  31.124  29.455  1.00  0.00     0.029 A 
ATOM     63  C   UNL A   1      37.937  31.669  30.572  1.00  0.00     0.049 A 
ATOM     64  H   UNL A   1      39.666  31.016  31.589  1.00  0.00     0.167 HD
ATOM     65  C   UNL A   1      38.229  33.316  32.404  1.00  0.00     0.074 A 
ATOM     66  C   UNL A   1      37.837  34.496  33.145  1.00  0.00     0.031 C 
ATOM     67  C   UNL A   1      37.556  32.832  31.330  1.00  0.00     0.037 A 
BRANCH  54  68
ATOM     68  C   UNL A   1      40.097  27.774  28.858  1.00  0.00     0.064 A 
ATOM     69  C   UNL A   1      39.381  26.580  29.031  1.00  0.00     0.173 A 
ATOM     70  C   UNL A   1      40.780  27.962  27.648  1.00  0.00     0.173 A 
ATOM     71  F   UNL A   1      38.728  26.344  30.180  1.00  0.00    -0.203 F 
ATOM     72  C   UNL A   1      39.370  25.601  28.040  1.00  0.00     0.198 A 
ATOM     73  C   UNL A   1      40.747  26.992  26.650  1.00  0.00     0.198 A 
ATOM     74  F   UNL A   1      41.481  29.085  27.435  1.00  0.00    -0.203 F 
ATOM     75  F   UNL A   1      38.719  24.448  28.246  1.00  0.00    -0.200 F 
ATOM     76  C   UNL A   1      40.049  25.811  26.848  1.00  0.00     0.200 A 
ATOM     77  F   UNL A   1      41.400  27.198  25.497  1.00  0.00    -0.200 F 
ATOM     78  F   UNL A   1      40.039  24.868  25.896  1.00  0.00    -0.200 F 
ENDBRANCH  54  68
BRANCH  55  79
ATOM     79  C   UNL A   1      40.841  34.605  36.096  1.00  0.00     0.064 A 
ATOM     80  C   UNL A   1      39.918  34.647  37.150  1.00  0.00     0.173 A 
ATOM     81  C   UNL A   1      41.847  35.582  36.068  1.00  0.00     0.173 A 
ATOM     82  F   UNL A   1      38.924  33.748  37.204  1.00  0.00    -0.203 F 
ATOM     83  C   UNL A   1      39.984  35.640  38.125  1.00  0.00     0.198 A 
ATOM     84  C   UNL A   1      41.926  36.560  37.057  1.00  0.00     0.198 A 
ATOM     85  F   UNL A   1      42.752  35.586  35.079  1.00  0.00    -0.203 F 
ATOM     86  F   UNL A   1      39.061  35.686  39.095  1.00  0.00    -0.200 F 
ATOM     87  C   UNL A   1      40.991  36.593  38.080  1.00  0.00     0.200 A 
ATOM     88  F   UNL A   1      42.904  37.476  37.014  1.00  0.00    -0.200 F 
ATOM     89  F   UNL A   1      41.051  37.550  39.016  1.00  0.00    -0.200 F 
ENDBRANCH  55  79
BRANCH  67  90
ATOM     90  C   UNL A   1      36.307  33.553  30.919  1.00  0.00     0.064 A 
ATOM     91  C   UNL A   1      36.191  34.168  29.663  1.00  0.00     0.173 A 
ATOM     92  C   UNL A   1      35.200  33.598  31.780  1.00  0.00     0.173 A 
ATOM     93  F   UNL A   1      37.226  34.160  28.810  1.00  0.00    -0.203 F 
ATOM     94  C   UNL A   1      35.020  34.826  29.296  1.00  0.00     0.198 A 
ATOM     95  C   UNL A   1      34.022  34.236  31.398  1.00  0.00     0.198 A 
ATOM     96  F   UNL A   1      35.258  33.019  32.988  1.00  0.00    -0.203 F 
ATOM     97  F   UNL A   1      34.946  35.447  28.111  1.00  0.00    -0.200 F 
ATOM     98  C   UNL A   1      33.936  34.855  30.161  1.00  0.00     0.200 A 
ATOM     99  F   UNL A   1      32.972  34.251  32.231  1.00  0.00    -0.200 F 
ATOM    100  F   UNL A   1      32.809  35.488  29.804  1.00  0.00    -0.200 F 
ENDBRANCH  67  90
ENDBRANCH  41  42
ENDBRANCH  34  36
ENDBRANCH  33  34
ENDBRANCH  32  33
ENDBRANCH  31  32
ENDBRANCH  30  31
ENDBRANCH  29  30
ENDBRANCH  28  29
ENDBRANCH  27  28
ENDBRANCH  26  27
ENDBRANCH   1  26
TORSDOF 27
ENDMDL
