MODEL 1
REMARK VINA RESULT:     -10.6      0.000      0.000
REMARK SMILES O=C(OCCOCCOCCOCCOC(=O)c1ccc(-c2ccc(Cl)c3ccccc23)o1)c1ccc(-c2c3nc(c(-c4c(F)c(F)c(F)c(F)c4F)c4ccc([nH]4)c(-c4c(F)c(F)c(F)c(F)c4F)c4nc(c(-c5c(F)c(F)c(F)c(F)c5F)c5ccc2[nH]5)C=C4)C=C3)cc1
REMARK SMILES IDX 8 1 7 2 6 3 5 4 4 5 3 6 2 7 1 8 34 9 35 10 96 11 36 12 95 13
REMARK SMILES IDX 37 14 38 15 39 16 89 17 40 18 94 19 88 20 90 21 41 22 93 23
REMARK SMILES IDX 87 24 86 25 42 27 74 28 54 29 73 30 55 31 58 32 72 33 91 34
REMARK SMILES IDX 56 35 57 36 71 38 92 39 59 40 43 41 44 42 52 43 45 44 46 45
REMARK SMILES IDX 50 46 53 47 47 48 48 49 51 50 49 51 75 52 76 53 84 54 77 55
REMARK SMILES IDX 78 56 82 57 85 58 79 59 80 60 83 61 81 62 60 63 61 64 69 65
REMARK SMILES IDX 62 66 63 67 67 68 70 69 64 70 65 71 68 72 66 73 9 74 10 75
REMARK SMILES IDX 11 76 12 77 13 78 14 79 15 80 16 81 17 82 18 83 19 84 33 85
REMARK SMILES IDX 20 86 21 87 22 88 23 89 32 90 24 91 27 92 31 93 25 94 28 95
REMARK SMILES IDX 30 96 26 97 29 98
REMARK H PARENT 90 26 58 37
REMARK Flexibility Score: inf
ROOT
ATOM      1  C   UNL A   1      39.897  21.461  26.132  1.00  0.00     0.188 C 
ENDROOT
BRANCH   1   2
ATOM      2  C   UNL A   1      40.922  21.298  27.252  1.00  0.00     0.188 C 
BRANCH   2   3
ATOM      3  O   UNL A   1      42.052  20.612  26.702  1.00  0.00    -0.376 OA
BRANCH   3   4
ATOM      4  C   UNL A   1      42.225  19.272  27.144  1.00  0.00     0.202 C 
BRANCH   4   5
ATOM      5  C   UNL A   1      42.918  18.367  26.123  1.00  0.00     0.261 C 
BRANCH   5   6
ATOM      6  O   UNL A   1      43.117  19.026  24.859  1.00  0.00    -0.460 OA
BRANCH   6   7
ATOM      7  C   UNL A   1      44.283  19.534  24.380  1.00  0.00     0.338 C 
ATOM      8  O   UNL A   1      44.935  18.895  23.558  1.00  0.00    -0.246 OA
BRANCH   7   9
ATOM      9  C   UNL A   1      44.758  20.895  24.751  1.00  0.00     0.060 A 
ATOM     10  C   UNL A   1      45.517  21.168  25.888  1.00  0.00     0.016 A 
ATOM     11  C   UNL A   1      44.466  21.948  23.874  1.00  0.00     0.016 A 
ATOM     12  C   UNL A   1      45.826  22.472  26.247  1.00  0.00     0.010 A 
ATOM     13  C   UNL A   1      44.844  23.258  24.189  1.00  0.00     0.010 A 
ATOM     14  C   UNL A   1      45.471  23.532  25.413  1.00  0.00    -0.014 A 
BRANCH  14  15
ATOM     15  C   UNL A   1      45.608  24.914  25.924  1.00  0.00     0.031 A 
ATOM     16  C   UNL A   1      46.906  25.632  25.684  1.00  0.00     0.074 A 
ATOM     17  C   UNL A   1      44.558  25.557  26.464  1.00  0.00     0.049 A 
ATOM     18  N   UNL A   1      47.301  26.804  26.107  1.00  0.00    -0.248 NA
ATOM     19  C   UNL A   1      47.896  24.932  24.848  1.00  0.00     0.031 C 
ATOM     20  C   UNL A   1      43.217  24.993  26.630  1.00  0.00     0.029 A 
ATOM     21  N   UNL A   1      44.439  26.840  26.928  1.00  0.00    -0.354 N 
ATOM     22  C   UNL A   1      48.605  26.945  25.651  1.00  0.00     0.074 A 
ATOM     23  C   UNL A   1      48.932  25.753  24.905  1.00  0.00     0.031 C 
ATOM     24  C   UNL A   1      42.396  25.946  27.103  1.00  0.00     0.029 A 
ATOM     25  C   UNL A   1      43.170  27.158  27.346  1.00  0.00     0.049 A 
ATOM     26  H   UNL A   1      45.192  27.474  26.961  1.00  0.00     0.167 HD
ATOM     27  C   UNL A   1      49.453  27.980  25.850  1.00  0.00     0.037 A 
ATOM     28  C   UNL A   1      42.699  28.301  27.883  1.00  0.00     0.037 A 
ATOM     29  C   UNL A   1      49.088  29.182  26.546  1.00  0.00     0.049 A 
ATOM     30  C   UNL A   1      43.665  29.434  28.109  1.00  0.00     0.074 A 
ATOM     31  C   UNL A   1      49.871  30.274  26.870  1.00  0.00     0.029 A 
ATOM     32  N   UNL A   1      47.806  29.454  27.005  1.00  0.00    -0.354 N 
ATOM     33  N   UNL A   1      44.934  29.517  27.785  1.00  0.00    -0.248 NA
ATOM     34  C   UNL A   1      43.143  30.619  28.802  1.00  0.00     0.031 C 
ATOM     35  C   UNL A   1      49.064  31.202  27.540  1.00  0.00     0.029 A 
ATOM     36  C   UNL A   1      47.773  30.698  27.606  1.00  0.00     0.049 A 
ATOM     37  H   UNL A   1      47.034  28.849  26.914  1.00  0.00     0.167 HD
ATOM     38  C   UNL A   1      45.362  30.759  28.229  1.00  0.00     0.074 A 
ATOM     39  C   UNL A   1      44.209  31.408  28.822  1.00  0.00     0.031 C 
ATOM     40  C   UNL A   1      46.598  31.311  28.171  1.00  0.00     0.037 A 
BRANCH  27  41
ATOM     41  C   UNL A   1      50.861  27.802  25.369  1.00  0.00     0.064 A 
ATOM     42  C   UNL A   1      51.910  27.466  26.237  1.00  0.00     0.173 A 
ATOM     43  C   UNL A   1      51.172  28.031  24.020  1.00  0.00     0.173 A 
ATOM     44  F   UNL A   1      51.670  27.270  27.542  1.00  0.00    -0.203 F 
ATOM     45  C   UNL A   1      53.224  27.401  25.779  1.00  0.00     0.198 A 
ATOM     46  C   UNL A   1      52.483  27.941  23.560  1.00  0.00     0.198 A 
ATOM     47  F   UNL A   1      50.206  28.365  23.151  1.00  0.00    -0.203 F 
ATOM     48  F   UNL A   1      54.220  27.145  26.638  1.00  0.00    -0.200 F 
ATOM     49  C   UNL A   1      53.509  27.637  24.441  1.00  0.00     0.200 A 
ATOM     50  F   UNL A   1      52.757  28.172  22.268  1.00  0.00    -0.200 F 
ATOM     51  F   UNL A   1      54.776  27.592  24.007  1.00  0.00    -0.200 F 
ENDBRANCH  27  41
BRANCH  28  52
ATOM     52  C   UNL A   1      41.266  28.419  28.263  1.00  0.00     0.064 A 
ATOM     53  C   UNL A   1      40.318  28.921  27.362  1.00  0.00     0.173 A 
ATOM     54  C   UNL A   1      40.813  28.034  29.535  1.00  0.00     0.173 A 
ATOM     55  F   UNL A   1      40.703  29.328  26.144  1.00  0.00    -0.203 F 
ATOM     56  C   UNL A   1      38.975  29.042  27.718  1.00  0.00     0.198 A 
ATOM     57  C   UNL A   1      39.465  28.128  29.880  1.00  0.00     0.198 A 
ATOM     58  F   UNL A   1      41.677  27.554  30.440  1.00  0.00    -0.203 F 
ATOM     59  F   UNL A   1      38.097  29.562  26.850  1.00  0.00    -0.200 F 
ATOM     60  C   UNL A   1      38.549  28.637  28.974  1.00  0.00     0.200 A 
ATOM     61  F   UNL A   1      39.058  27.726  31.091  1.00  0.00    -0.200 F 
ATOM     62  F   UNL A   1      37.257  28.747  29.314  1.00  0.00    -0.200 F 
ENDBRANCH  28  52
BRANCH  40  63
ATOM     63  C   UNL A   1      46.752  32.686  28.743  1.00  0.00     0.064 A 
ATOM     64  C   UNL A   1      47.092  32.878  30.088  1.00  0.00     0.173 A 
ATOM     65  C   UNL A   1      46.602  33.814  27.926  1.00  0.00     0.173 A 
ATOM     66  F   UNL A   1      47.231  31.826  30.907  1.00  0.00    -0.203 F 
ATOM     67  C   UNL A   1      47.260  34.160  30.603  1.00  0.00     0.198 A 
ATOM     68  C   UNL A   1      46.790  35.093  28.438  1.00  0.00     0.198 A 
ATOM     69  F   UNL A   1      46.282  33.674  26.631  1.00  0.00    -0.203 F 
ATOM     70  F   UNL A   1      47.551  34.327  31.900  1.00  0.00    -0.200 F 
ATOM     71  C   UNL A   1      47.115  35.265  29.776  1.00  0.00     0.200 A 
ATOM     72  F   UNL A   1      46.659  36.161  27.639  1.00  0.00    -0.200 F 
ATOM     73  F   UNL A   1      47.282  36.499  30.272  1.00  0.00    -0.200 F 
ENDBRANCH  40  63
ENDBRANCH  14  15
ENDBRANCH   7   9
ENDBRANCH   6   7
ENDBRANCH   5   6
ENDBRANCH   4   5
ENDBRANCH   3   4
ENDBRANCH   2   3
ENDBRANCH   1   2
BRANCH   1  74
ATOM     74  O   UNL A   1      39.196  20.253  25.816  1.00  0.00    -0.377 OA
BRANCH  74  75
ATOM     75  C   UNL A   1      38.043  20.397  25.000  1.00  0.00     0.188 C 
BRANCH  75  76
ATOM     76  C   UNL A   1      37.154  21.639  25.163  1.00  0.00     0.188 C 
BRANCH  76  77
ATOM     77  O   UNL A   1      36.006  21.795  24.344  1.00  0.00    -0.376 OA
BRANCH  77  78
ATOM     78  C   UNL A   1      35.033  22.773  24.707  1.00  0.00     0.202 C 
BRANCH  78  79
ATOM     79  C   UNL A   1      34.701  23.871  23.688  1.00  0.00     0.261 C 
BRANCH  79  80
ATOM     80  O   UNL A   1      34.218  23.302  22.455  1.00  0.00    -0.457 OA
BRANCH  80  81
ATOM     81  C   UNL A   1      33.302  24.036  21.753  1.00  0.00     0.374 C 
ATOM     82  O   UNL A   1      33.278  24.142  20.538  1.00  0.00    -0.242 OA
BRANCH  81  83
ATOM     83  C   UNL A   1      32.283  24.501  22.668  1.00  0.00     0.212 A 
ATOM     84  C   UNL A   1      31.239  23.865  23.316  1.00  0.00     0.059 A 
ATOM     85  O   UNL A   1      32.171  25.858  22.860  1.00  0.00    -0.449 OA
ATOM     86  C   UNL A   1      30.433  24.879  23.892  1.00  0.00     0.052 A 
ATOM     87  C   UNL A   1      31.009  26.081  23.539  1.00  0.00     0.135 A 
BRANCH  87  88
ATOM     88  C   UNL A   1      30.624  27.479  23.704  1.00  0.00     0.025 A 
ATOM     89  C   UNL A   1      29.642  27.979  22.840  1.00  0.00     0.014 A 
ATOM     90  C   UNL A   1      31.218  28.328  24.688  1.00  0.00    -0.006 A 
ATOM     91  C   UNL A   1      29.260  29.314  22.904  1.00  0.00     0.022 A 
ATOM     92  C   UNL A   1      30.816  29.693  24.763  1.00  0.00     0.001 A 
ATOM     93  C   UNL A   1      32.195  27.879  25.614  1.00  0.00     0.009 A 
ATOM     94  C   UNL A   1      29.843  30.163  23.847  1.00  0.00     0.048 A 
ATOM     95  C   UNL A   1      31.405  30.523  25.751  1.00  0.00     0.010 A 
ATOM     96  C   UNL A   1      32.754  28.721  26.579  1.00  0.00     0.001 A 
ATOM     97  Cl  UNL A   1      29.314  31.816  23.827  1.00  0.00    -0.084 Cl
ATOM     98  C   UNL A   1      32.357  30.044  26.650  1.00  0.00     0.001 A 
ENDBRANCH  87  88
ENDBRANCH  81  83
ENDBRANCH  80  81
ENDBRANCH  79  80
ENDBRANCH  78  79
ENDBRANCH  77  78
ENDBRANCH  76  77
ENDBRANCH  75  76
ENDBRANCH  74  75
ENDBRANCH   1  74
TORSDOF 21
ENDMDL
MODEL 2
REMARK VINA RESULT:     -10.5      1.373      2.597
REMARK SMILES O=C(OCCOCCOCCOCCOC(=O)c1ccc(-c2ccc(Cl)c3ccccc23)o1)c1ccc(-c2c3nc(c(-c4c(F)c(F)c(F)c(F)c4F)c4ccc([nH]4)c(-c4c(F)c(F)c(F)c(F)c4F)c4nc(c(-c5c(F)c(F)c(F)c(F)c5F)c5ccc2[nH]5)C=C4)C=C3)cc1
REMARK SMILES IDX 8 1 7 2 6 3 5 4 4 5 3 6 2 7 1 8 34 9 35 10 96 11 36 12 95 13
REMARK SMILES IDX 37 14 38 15 39 16 89 17 40 18 94 19 88 20 90 21 41 22 93 23
REMARK SMILES IDX 87 24 86 25 42 27 74 28 54 29 73 30 55 31 58 32 72 33 91 34
REMARK SMILES IDX 56 35 57 36 71 38 92 39 59 40 43 41 44 42 52 43 45 44 46 45
REMARK SMILES IDX 50 46 53 47 47 48 48 49 51 50 49 51 75 52 76 53 84 54 77 55
REMARK SMILES IDX 78 56 82 57 85 58 79 59 80 60 83 61 81 62 60 63 61 64 69 65
REMARK SMILES IDX 62 66 63 67 67 68 70 69 64 70 65 71 68 72 66 73 9 74 10 75
REMARK SMILES IDX 11 76 12 77 13 78 14 79 15 80 16 81 17 82 18 83 19 84 33 85
REMARK SMILES IDX 20 86 21 87 22 88 23 89 32 90 24 91 27 92 31 93 25 94 28 95
REMARK SMILES IDX 30 96 26 97 29 98
REMARK H PARENT 90 26 58 37
REMARK Flexibility Score: inf
ROOT
ATOM      1  C   UNL A   1      37.986  21.176  25.269  1.00  0.00     0.188 C 
ENDROOT
BRANCH   1   2
ATOM      2  C   UNL A   1      39.141  20.243  25.626  1.00  0.00     0.188 C 
BRANCH   2   3
ATOM      3  O   UNL A   1      40.331  21.036  25.682  1.00  0.00    -0.376 OA
BRANCH   3   4
ATOM      4  C   UNL A   1      41.304  20.610  26.626  1.00  0.00     0.202 C 
BRANCH   4   5
ATOM      5  C   UNL A   1      41.900  19.233  26.325  1.00  0.00     0.261 C 
BRANCH   5   6
ATOM      6  O   UNL A   1      42.577  19.200  25.055  1.00  0.00    -0.460 OA
BRANCH   6   7
ATOM      7  C   UNL A   1      43.853  19.592  24.802  1.00  0.00     0.338 C 
ATOM      8  O   UNL A   1      44.625  18.825  24.232  1.00  0.00    -0.246 OA
BRANCH   7   9
ATOM      9  C   UNL A   1      44.328  20.967  25.112  1.00  0.00     0.060 A 
ATOM     10  C   UNL A   1      45.244  21.262  26.121  1.00  0.00     0.016 A 
ATOM     11  C   UNL A   1      43.864  22.014  24.305  1.00  0.00     0.016 A 
ATOM     12  C   UNL A   1      45.556  22.575  26.445  1.00  0.00     0.010 A 
ATOM     13  C   UNL A   1      44.237  23.336  24.574  1.00  0.00     0.010 A 
ATOM     14  C   UNL A   1      45.036  23.625  25.689  1.00  0.00    -0.014 A 
BRANCH  14  15
ATOM     15  C   UNL A   1      45.199  25.008  26.192  1.00  0.00     0.031 A 
ATOM     16  C   UNL A   1      46.507  25.703  25.940  1.00  0.00     0.074 A 
ATOM     17  C   UNL A   1      44.162  25.672  26.733  1.00  0.00     0.049 A 
ATOM     18  N   UNL A   1      46.923  26.871  26.353  1.00  0.00    -0.248 NA
ATOM     19  C   UNL A   1      47.480  24.982  25.102  1.00  0.00     0.031 C 
ATOM     20  C   UNL A   1      42.814  25.132  26.909  1.00  0.00     0.029 A 
ATOM     21  N   UNL A   1      44.067  26.960  27.190  1.00  0.00    -0.354 N 
ATOM     22  C   UNL A   1      48.227  26.988  25.889  1.00  0.00     0.074 A 
ATOM     23  C   UNL A   1      48.530  25.785  25.148  1.00  0.00     0.031 C 
ATOM     24  C   UNL A   1      42.011  26.101  27.381  1.00  0.00     0.029 A 
ATOM     25  C   UNL A   1      42.806  27.302  27.612  1.00  0.00     0.049 A 
ATOM     26  H   UNL A   1      44.831  27.581  27.214  1.00  0.00     0.167 HD
ATOM     27  C   UNL A   1      49.093  28.009  26.076  1.00  0.00     0.037 A 
ATOM     28  C   UNL A   1      42.358  28.456  28.144  1.00  0.00     0.037 A 
ATOM     29  C   UNL A   1      48.753  29.222  26.767  1.00  0.00     0.049 A 
ATOM     30  C   UNL A   1      43.344  29.573  28.358  1.00  0.00     0.074 A 
ATOM     31  C   UNL A   1      49.556  30.302  27.079  1.00  0.00     0.029 A 
ATOM     32  N   UNL A   1      47.478  29.518  27.231  1.00  0.00    -0.354 N 
ATOM     33  N   UNL A   1      44.611  29.633  28.026  1.00  0.00    -0.248 NA
ATOM     34  C   UNL A   1      42.845  30.771  29.046  1.00  0.00     0.031 C 
ATOM     35  C   UNL A   1      48.768  31.247  27.748  1.00  0.00     0.029 A 
ATOM     36  C   UNL A   1      47.469  30.766  27.824  1.00  0.00     0.049 A 
ATOM     37  H   UNL A   1      46.695  28.925  27.148  1.00  0.00     0.167 HD
ATOM     38  C   UNL A   1      45.063  30.871  28.461  1.00  0.00     0.074 A 
ATOM     39  C   UNL A   1      43.924  31.543  29.055  1.00  0.00     0.031 C 
ATOM     40  C   UNL A   1      46.308  31.402  28.392  1.00  0.00     0.037 A 
BRANCH  27  41
ATOM     41  C   UNL A   1      50.496  27.805  25.588  1.00  0.00     0.064 A 
ATOM     42  C   UNL A   1      50.844  27.940  24.236  1.00  0.00     0.173 A 
ATOM     43  C   UNL A   1      51.497  27.409  26.488  1.00  0.00     0.173 A 
ATOM     44  F   UNL A   1      49.914  28.284  23.332  1.00  0.00    -0.203 F 
ATOM     45  C   UNL A   1      52.134  27.651  23.798  1.00  0.00     0.198 A 
ATOM     46  C   UNL A   1      52.792  27.144  26.051  1.00  0.00     0.198 A 
ATOM     47  F   UNL A   1      51.214  27.255  27.790  1.00  0.00    -0.203 F 
ATOM     48  F   UNL A   1      52.428  27.721  22.493  1.00  0.00    -0.200 F 
ATOM     49  C   UNL A   1      53.107  27.255  24.705  1.00  0.00     0.200 A 
ATOM     50  F   UNL A   1      53.730  26.759  26.927  1.00  0.00    -0.200 F 
ATOM     51  F   UNL A   1      54.342  26.960  24.278  1.00  0.00    -0.200 F 
ENDBRANCH  27  41
BRANCH  28  52
ATOM     52  C   UNL A   1      40.929  28.600  28.532  1.00  0.00     0.064 A 
ATOM     53  C   UNL A   1      40.493  28.264  29.821  1.00  0.00     0.173 A 
ATOM     54  C   UNL A   1      39.969  29.072  27.624  1.00  0.00     0.173 A 
ATOM     55  F   UNL A   1      41.365  27.783  30.718  1.00  0.00    -0.203 F 
ATOM     56  C   UNL A   1      39.152  28.389  30.186  1.00  0.00     0.198 A 
ATOM     57  C   UNL A   1      38.634  29.224  27.998  1.00  0.00     0.198 A 
ATOM     58  F   UNL A   1      40.328  29.401  26.375  1.00  0.00    -0.203 F 
ATOM     59  F   UNL A   1      38.756  28.024  31.412  1.00  0.00    -0.200 F 
ATOM     60  C   UNL A   1      38.226  28.876  29.276  1.00  0.00     0.200 A 
ATOM     61  F   UNL A   1      37.745  29.705  27.118  1.00  0.00    -0.200 F 
ATOM     62  F   UNL A   1      36.939  29.002  29.628  1.00  0.00    -0.200 F 
ENDBRANCH  28  52
BRANCH  40  63
ATOM     63  C   UNL A   1      46.488  32.777  28.954  1.00  0.00     0.064 A 
ATOM     64  C   UNL A   1      46.858  32.972  30.291  1.00  0.00     0.173 A 
ATOM     65  C   UNL A   1      46.331  33.904  28.135  1.00  0.00     0.173 A 
ATOM     66  F   UNL A   1      47.004  31.922  31.112  1.00  0.00    -0.203 F 
ATOM     67  C   UNL A   1      47.051  34.255  30.796  1.00  0.00     0.198 A 
ATOM     68  C   UNL A   1      46.544  35.183  28.638  1.00  0.00     0.198 A 
ATOM     69  F   UNL A   1      45.982  33.762  26.848  1.00  0.00    -0.203 F 
ATOM     70  F   UNL A   1      47.371  34.424  32.085  1.00  0.00    -0.200 F 
ATOM     71  C   UNL A   1      46.899  35.357  29.968  1.00  0.00     0.200 A 
ATOM     72  F   UNL A   1      46.406  36.249  27.836  1.00  0.00    -0.200 F 
ATOM     73  F   UNL A   1      47.089  36.592  30.454  1.00  0.00    -0.200 F 
ENDBRANCH  40  63
ENDBRANCH  14  15
ENDBRANCH   7   9
ENDBRANCH   6   7
ENDBRANCH   5   6
ENDBRANCH   4   5
ENDBRANCH   3   4
ENDBRANCH   2   3
ENDBRANCH   1   2
BRANCH   1  74
ATOM     74  O   UNL A   1      36.717  20.731  25.758  1.00  0.00    -0.377 OA
BRANCH  74  75
ATOM     75  C   UNL A   1      35.599  20.994  24.921  1.00  0.00     0.188 C 
BRANCH  75  76
ATOM     76  C   UNL A   1      34.553  19.892  24.693  1.00  0.00     0.188 C 
BRANCH  76  77
ATOM     77  O   UNL A   1      33.296  20.222  24.126  1.00  0.00    -0.376 OA
BRANCH  77  78
ATOM     78  C   UNL A   1      32.213  20.542  24.998  1.00  0.00     0.202 C 
BRANCH  78  79
ATOM     79  C   UNL A   1      31.780  22.011  25.097  1.00  0.00     0.261 C 
BRANCH  79  80
ATOM     80  O   UNL A   1      31.425  22.355  26.451  1.00  0.00    -0.457 OA
BRANCH  80  81
ATOM     81  C   UNL A   1      32.399  22.934  27.217  1.00  0.00     0.374 C 
ATOM     82  O   UNL A   1      32.792  22.503  28.288  1.00  0.00    -0.242 OA
BRANCH  81  83
ATOM     83  C   UNL A   1      32.994  24.018  26.466  1.00  0.00     0.212 A 
ATOM     84  C   UNL A   1      34.236  24.185  25.879  1.00  0.00     0.059 A 
ATOM     85  O   UNL A   1      32.310  25.210  26.416  1.00  0.00    -0.449 OA
ATOM     86  C   UNL A   1      34.329  25.545  25.492  1.00  0.00     0.052 A 
ATOM     87  C   UNL A   1      33.153  26.145  25.892  1.00  0.00     0.135 A 
BRANCH  87  88
ATOM     88  C   UNL A   1      32.667  27.520  25.902  1.00  0.00     0.025 A 
ATOM     89  C   UNL A   1      33.114  28.351  26.938  1.00  0.00     0.014 A 
ATOM     90  C   UNL A   1      31.760  28.022  24.917  1.00  0.00    -0.006 A 
ATOM     91  C   UNL A   1      32.654  29.658  27.042  1.00  0.00     0.022 A 
ATOM     92  C   UNL A   1      31.301  29.367  25.016  1.00  0.00     0.001 A 
ATOM     93  C   UNL A   1      31.292  27.246  23.826  1.00  0.00     0.009 A 
ATOM     94  C   UNL A   1      31.754  30.159  26.100  1.00  0.00     0.048 A 
ATOM     95  C   UNL A   1      30.410  29.857  24.027  1.00  0.00     0.010 A 
ATOM     96  C   UNL A   1      30.417  27.758  22.864  1.00  0.00     0.001 A 
ATOM     97  Cl  UNL A   1      31.224  31.795  26.334  1.00  0.00    -0.084 Cl
ATOM     98  C   UNL A   1      29.978  29.066  22.963  1.00  0.00     0.001 A 
ENDBRANCH  87  88
ENDBRANCH  81  83
ENDBRANCH  80  81
ENDBRANCH  79  80
ENDBRANCH  78  79
ENDBRANCH  77  78
ENDBRANCH  76  77
ENDBRANCH  75  76
ENDBRANCH  74  75
ENDBRANCH   1  74
TORSDOF 21
ENDMDL
MODEL 3
REMARK VINA RESULT:     -10.0      6.086     10.669
REMARK SMILES O=C(OCCOCCOCCOCCOC(=O)c1ccc(-c2ccc(Cl)c3ccccc23)o1)c1ccc(-c2c3nc(c(-c4c(F)c(F)c(F)c(F)c4F)c4ccc([nH]4)c(-c4c(F)c(F)c(F)c(F)c4F)c4nc(c(-c5c(F)c(F)c(F)c(F)c5F)c5ccc2[nH]5)C=C4)C=C3)cc1
REMARK SMILES IDX 8 1 7 2 6 3 5 4 4 5 3 6 2 7 1 8 34 9 35 10 96 11 36 12 95 13
REMARK SMILES IDX 37 14 38 15 39 16 89 17 40 18 94 19 88 20 90 21 41 22 93 23
REMARK SMILES IDX 87 24 86 25 42 27 74 28 54 29 73 30 55 31 58 32 72 33 91 34
REMARK SMILES IDX 56 35 57 36 71 38 92 39 59 40 43 41 44 42 52 43 45 44 46 45
REMARK SMILES IDX 50 46 53 47 47 48 48 49 51 50 49 51 75 52 76 53 84 54 77 55
REMARK SMILES IDX 78 56 82 57 85 58 79 59 80 60 83 61 81 62 60 63 61 64 69 65
REMARK SMILES IDX 62 66 63 67 67 68 70 69 64 70 65 71 68 72 66 73 9 74 10 75
REMARK SMILES IDX 11 76 12 77 13 78 14 79 15 80 16 81 17 82 18 83 19 84 33 85
REMARK SMILES IDX 20 86 21 87 22 88 23 89 32 90 24 91 27 92 31 93 25 94 28 95
REMARK SMILES IDX 30 96 26 97 29 98
REMARK H PARENT 90 26 58 37
REMARK Flexibility Score: inf
ROOT
ATOM      1  C   UNL A   1      40.792  35.128  29.983  1.00  0.00     0.188 C 
ENDROOT
BRANCH   1   2
ATOM      2  C   UNL A   1      42.038  35.271  29.110  1.00  0.00     0.188 C 
BRANCH   2   3
ATOM      3  O   UNL A   1      41.866  36.444  28.307  1.00  0.00    -0.376 OA
BRANCH   3   4
ATOM      4  C   UNL A   1      42.810  37.481  28.534  1.00  0.00     0.202 C 
BRANCH   4   5
ATOM      5  C   UNL A   1      43.816  37.173  29.645  1.00  0.00     0.261 C 
BRANCH   5   6
ATOM      6  O   UNL A   1      45.158  37.552  29.284  1.00  0.00    -0.460 OA
BRANCH   6   7
ATOM      7  C   UNL A   1      46.086  36.774  28.670  1.00  0.00     0.338 C 
ATOM      8  O   UNL A   1      47.196  37.234  28.415  1.00  0.00    -0.246 OA
BRANCH   7   9
ATOM      9  C   UNL A   1      45.834  35.337  28.373  1.00  0.00     0.060 A 
ATOM     10  C   UNL A   1      45.282  34.878  27.178  1.00  0.00     0.016 A 
ATOM     11  C   UNL A   1      46.227  34.396  29.333  1.00  0.00     0.016 A 
ATOM     12  C   UNL A   1      44.957  33.540  27.006  1.00  0.00     0.010 A 
ATOM     13  C   UNL A   1      45.975  33.034  29.134  1.00  0.00     0.010 A 
ATOM     14  C   UNL A   1      45.278  32.609  27.993  1.00  0.00    -0.014 A 
BRANCH  14  15
ATOM     15  C   UNL A   1      44.721  31.241  27.886  1.00  0.00     0.031 A 
ATOM     16  C   UNL A   1      45.549  30.191  27.203  1.00  0.00     0.074 A 
ATOM     17  C   UNL A   1      43.572  30.915  28.504  1.00  0.00     0.049 A 
ATOM     18  N   UNL A   1      45.248  28.955  26.906  1.00  0.00    -0.248 NA
ATOM     19  C   UNL A   1      46.909  30.590  26.799  1.00  0.00     0.031 C 
ATOM     20  C   UNL A   1      42.752  31.830  29.300  1.00  0.00     0.029 A 
ATOM     21  N   UNL A   1      42.920  29.715  28.599  1.00  0.00    -0.354 N 
ATOM     22  C   UNL A   1      46.348  28.457  26.220  1.00  0.00     0.074 A 
ATOM     23  C   UNL A   1      47.331  29.513  26.158  1.00  0.00     0.031 C 
ATOM     24  C   UNL A   1      41.738  31.142  29.851  1.00  0.00     0.029 A 
ATOM     25  C   UNL A   1      41.794  29.761  29.384  1.00  0.00     0.049 A 
ATOM     26  H   UNL A   1      43.228  28.896  28.146  1.00  0.00     0.167 HD
ATOM     27  C   UNL A   1      46.512  27.226  25.683  1.00  0.00     0.037 A 
ATOM     28  C   UNL A   1      40.902  28.793  29.672  1.00  0.00     0.037 A 
ATOM     29  C   UNL A   1      45.546  26.171  25.807  1.00  0.00     0.049 A 
ATOM     30  C   UNL A   1      41.097  27.436  29.050  1.00  0.00     0.074 A 
ATOM     31  C   UNL A   1      45.563  24.904  25.256  1.00  0.00     0.029 A 
ATOM     32  N   UNL A   1      44.387  26.266  26.567  1.00  0.00    -0.354 N 
ATOM     33  N   UNL A   1      42.081  27.004  28.299  1.00  0.00    -0.248 NA
ATOM     34  C   UNL A   1      40.044  26.441  29.293  1.00  0.00     0.031 C 
ATOM     35  C   UNL A   1      44.404  24.236  25.672  1.00  0.00     0.029 A 
ATOM     36  C   UNL A   1      43.683  25.079  26.505  1.00  0.00     0.049 A 
ATOM     37  H   UNL A   1      44.110  27.062  27.076  1.00  0.00     0.167 HD
ATOM     38  C   UNL A   1      41.770  25.690  27.979  1.00  0.00     0.074 A 
ATOM     39  C   UNL A   1      40.518  25.386  28.644  1.00  0.00     0.031 C 
ATOM     40  C   UNL A   1      42.446  24.816  27.194  1.00  0.00     0.037 A 
BRANCH  27  41
ATOM     41  C   UNL A   1      47.746  27.006  24.861  1.00  0.00     0.064 A 
ATOM     42  C   UNL A   1      48.887  26.376  25.380  1.00  0.00     0.173 A 
ATOM     43  C   UNL A   1      47.804  27.489  23.545  1.00  0.00     0.173 A 
ATOM     44  F   UNL A   1      48.894  25.927  26.645  1.00  0.00    -0.203 F 
ATOM     45  C   UNL A   1      50.052  26.271  24.624  1.00  0.00     0.198 A 
ATOM     46  C   UNL A   1      48.962  27.361  22.783  1.00  0.00     0.198 A 
ATOM     47  F   UNL A   1      46.743  28.108  23.005  1.00  0.00    -0.203 F 
ATOM     48  F   UNL A   1      51.152  25.726  25.162  1.00  0.00    -0.200 F 
ATOM     49  C   UNL A   1      50.088  26.762  23.326  1.00  0.00     0.200 A 
ATOM     50  F   UNL A   1      48.996  27.837  21.531  1.00  0.00    -0.200 F 
ATOM     51  F   UNL A   1      51.215  26.675  22.607  1.00  0.00    -0.200 F 
ENDBRANCH  27  41
BRANCH  28  52
ATOM     52  C   UNL A   1      39.743  29.079  30.561  1.00  0.00     0.064 A 
ATOM     53  C   UNL A   1      38.462  29.286  30.032  1.00  0.00     0.173 A 
ATOM     54  C   UNL A   1      39.891  29.153  31.954  1.00  0.00     0.173 A 
ATOM     55  F   UNL A   1      38.271  29.253  28.706  1.00  0.00    -0.203 F 
ATOM     56  C   UNL A   1      37.375  29.563  30.862  1.00  0.00     0.198 A 
ATOM     57  C   UNL A   1      38.799  29.401  32.784  1.00  0.00     0.198 A 
ATOM     58  F   UNL A   1      41.096  28.970  32.514  1.00  0.00    -0.203 F 
ATOM     59  F   UNL A   1      36.169  29.796  30.327  1.00  0.00    -0.200 F 
ATOM     60  C   UNL A   1      37.544  29.612  32.237  1.00  0.00     0.200 A 
ATOM     61  F   UNL A   1      38.966  29.437  34.113  1.00  0.00    -0.200 F 
ATOM     62  F   UNL A   1      36.498  29.872  33.034  1.00  0.00    -0.200 F 
ENDBRANCH  28  52
BRANCH  40  63
ATOM     63  C   UNL A   1      41.852  23.451  27.037  1.00  0.00     0.064 A 
ATOM     64  C   UNL A   1      40.676  23.252  26.301  1.00  0.00     0.173 A 
ATOM     65  C   UNL A   1      42.490  22.332  27.589  1.00  0.00     0.173 A 
ATOM     66  F   UNL A   1      40.027  24.297  25.768  1.00  0.00    -0.203 F 
ATOM     67  C   UNL A   1      40.148  21.975  26.137  1.00  0.00     0.198 A 
ATOM     68  C   UNL A   1      41.970  21.055  27.406  1.00  0.00     0.198 A 
ATOM     69  F   UNL A   1      43.620  22.478  28.296  1.00  0.00    -0.203 F 
ATOM     70  F   UNL A   1      39.005  21.807  25.459  1.00  0.00    -0.200 F 
ATOM     71  C   UNL A   1      40.798  20.878  26.684  1.00  0.00     0.200 A 
ATOM     72  F   UNL A   1      42.602  19.994  27.927  1.00  0.00    -0.200 F 
ATOM     73  F   UNL A   1      40.291  19.649  26.521  1.00  0.00    -0.200 F 
ENDBRANCH  40  63
ENDBRANCH  14  15
ENDBRANCH   7   9
ENDBRANCH   6   7
ENDBRANCH   5   6
ENDBRANCH   4   5
ENDBRANCH   3   4
ENDBRANCH   2   3
ENDBRANCH   1   2
BRANCH   1  74
ATOM     74  O   UNL A   1      40.062  33.920  29.747  1.00  0.00    -0.377 OA
BRANCH  74  75
ATOM     75  C   UNL A   1      38.912  33.719  30.554  1.00  0.00     0.188 C 
BRANCH  75  76
ATOM     76  C   UNL A   1      39.078  33.176  31.982  1.00  0.00     0.188 C 
BRANCH  76  77
ATOM     77  O   UNL A   1      40.319  32.616  32.381  1.00  0.00    -0.376 OA
BRANCH  77  78
ATOM     78  C   UNL A   1      40.605  32.507  33.775  1.00  0.00     0.202 C 
BRANCH  78  79
ATOM     79  C   UNL A   1      39.742  33.318  34.752  1.00  0.00     0.261 C 
BRANCH  79  80
ATOM     80  O   UNL A   1      39.337  32.511  35.875  1.00  0.00    -0.457 OA
BRANCH  80  81
ATOM     81  C   UNL A   1      38.091  31.949  35.815  1.00  0.00     0.374 C 
ATOM     82  O   UNL A   1      37.811  30.832  36.217  1.00  0.00    -0.242 OA
BRANCH  81  83
ATOM     83  C   UNL A   1      37.151  32.954  35.368  1.00  0.00     0.212 A 
ATOM     84  C   UNL A   1      36.348  33.856  36.043  1.00  0.00     0.059 A 
ATOM     85  O   UNL A   1      36.823  32.971  34.033  1.00  0.00    -0.449 OA
ATOM     86  C   UNL A   1      35.466  34.417  35.087  1.00  0.00     0.052 A 
ATOM     87  C   UNL A   1      35.754  33.805  33.885  1.00  0.00     0.135 A 
BRANCH  87  88
ATOM     88  C   UNL A   1      35.150  33.838  32.558  1.00  0.00     0.025 A 
ATOM     89  C   UNL A   1      35.258  32.682  31.774  1.00  0.00     0.014 A 
ATOM     90  C   UNL A   1      34.481  34.994  32.046  1.00  0.00    -0.006 A 
ATOM     91  C   UNL A   1      34.751  32.657  30.481  1.00  0.00     0.022 A 
ATOM     92  C   UNL A   1      33.948  34.962  30.726  1.00  0.00     0.001 A 
ATOM     93  C   UNL A   1      34.308  36.186  32.796  1.00  0.00     0.009 A 
ATOM     94  C   UNL A   1      34.111  33.782  29.959  1.00  0.00     0.048 A 
ATOM     95  C   UNL A   1      33.278  36.111  30.234  1.00  0.00     0.010 A 
ATOM     96  C   UNL A   1      33.639  37.301  32.286  1.00  0.00     0.001 A 
ATOM     97  Cl  UNL A   1      33.536  33.654  28.326  1.00  0.00    -0.084 Cl
ATOM     98  C   UNL A   1      33.120  37.263  31.004  1.00  0.00     0.001 A 
ENDBRANCH  87  88
ENDBRANCH  81  83
ENDBRANCH  80  81
ENDBRANCH  79  80
ENDBRANCH  78  79
ENDBRANCH  77  78
ENDBRANCH  76  77
ENDBRANCH  75  76
ENDBRANCH  74  75
ENDBRANCH   1  74
TORSDOF 21
ENDMDL
