MODEL 1
REMARK VINA RESULT:      -9.1      0.000      0.000
REMARK SMILES CC(C)CN(c1ccccc1/C=C/C(=O)OCCOCCOCCOCCOC(=O)c1ccc(-c2c3nc(c(-c4c(F)c(F)c(F)c(F)c4F)c4ccc([nH]4)c(-c4c(F)c(F)c(F)c(F)c4F)c4nc(c(-c5c(F)c(F)c(F)c(F)c5F)c5ccc2[nH]5)C=C4)C=C3)cc1)C1CCCC1
REMARK SMILES IDX 21 1 20 2 19 3 18 4 17 5 16 6 14 7 15 8 13 9 12 10 11 11
REMARK SMILES IDX 6 12 7 13 8 14 10 15 9 16 5 17 4 18 2 19 1 20 3 21 94 22
REMARK SMILES IDX 95 23 98 24 96 25 97 26 22 27 23 28 24 29 25 30 26 31 27 32
REMARK SMILES IDX 28 33 29 34 30 35 31 36 32 37 93 38 33 39 92 40 34 41 35 42
REMARK SMILES IDX 36 43 86 44 37 45 91 46 85 47 87 48 38 49 90 50 84 51 83 52
REMARK SMILES IDX 39 54 71 55 51 56 70 57 52 58 55 59 69 60 88 61 53 62 54 63
REMARK SMILES IDX 68 65 89 66 56 67 40 68 41 69 49 70 42 71 43 72 47 73 50 74
REMARK SMILES IDX 44 75 45 76 48 77 46 78 72 79 73 80 81 81 74 82 75 83 79 84
REMARK SMILES IDX 82 85 76 86 77 87 80 88 78 89 57 90 58 91 66 92 59 93 60 94
REMARK SMILES IDX 64 95 67 96 61 97 62 98 65 99 63 100
REMARK H PARENT 87 53 55 64
REMARK Flexibility Score: inf
ROOT
ATOM      1  C   UNL A   1      33.481  35.812  29.845  1.00  0.00     0.188 C 
ENDROOT
BRANCH   1   2
ATOM      2  C   UNL A   1      34.417  34.846  29.096  1.00  0.00     0.188 C 
BRANCH   2   3
ATOM      3  O   UNL A   1      33.737  33.726  28.553  1.00  0.00    -0.376 OA
BRANCH   3   4
ATOM      4  C   UNL A   1      34.241  32.423  28.772  1.00  0.00     0.202 C 
BRANCH   4   5
ATOM      5  C   UNL A   1      34.267  31.384  27.640  1.00  0.00     0.261 C 
BRANCH   5   6
ATOM      6  O   UNL A   1      33.025  30.750  27.330  1.00  0.00    -0.460 OA
BRANCH   6   7
ATOM      7  C   UNL A   1      33.047  29.781  26.396  1.00  0.00     0.330 C 
ATOM      8  O   UNL A   1      33.983  29.035  26.152  1.00  0.00    -0.247 OA
BRANCH   7   9
ATOM      9  C   UNL A   1      31.741  29.676  25.710  1.00  0.00     0.094 C 
ATOM     10  C   UNL A   1      31.568  29.541  24.381  1.00  0.00     0.018 C 
BRANCH  10  11
ATOM     11  C   UNL A   1      30.229  29.343  23.796  1.00  0.00    -0.002 A 
ATOM     12  C   UNL A   1      29.701  28.075  23.431  1.00  0.00     0.044 A 
ATOM     13  C   UNL A   1      28.322  28.047  23.137  1.00  0.00     0.026 A 
ATOM     14  C   UNL A   1      27.546  29.204  23.012  1.00  0.00     0.002 A 
ATOM     15  C   UNL A   1      29.453  30.512  23.618  1.00  0.00     0.010 A 
ATOM     16  C   UNL A   1      28.126  30.445  23.209  1.00  0.00     0.001 A 
BRANCH  12  17
ATOM     17  N   UNL A   1      30.426  26.877  23.323  1.00  0.00    -0.368 N 
BRANCH  17  18
ATOM     18  C   UNL A   1      30.928  26.435  22.005  1.00  0.00     0.120 C 
BRANCH  18  19
ATOM     19  C   UNL A   1      32.410  26.010  21.928  1.00  0.00     0.002 C 
ATOM     20  C   UNL A   1      32.875  25.445  20.586  1.00  0.00     0.009 C 
ATOM     21  C   UNL A   1      33.269  27.256  22.220  1.00  0.00     0.009 C 
ENDBRANCH  18  19
ENDBRANCH  17  18
BRANCH  17  22
ATOM     22  C   UNL A   1      30.403  25.892  24.440  1.00  0.00     0.082 C 
ATOM     23  C   UNL A   1      30.591  24.399  24.133  1.00  0.00     0.025 C 
ATOM     24  C   UNL A   1      31.552  26.103  25.440  1.00  0.00     0.025 C 
ATOM     25  C   UNL A   1      30.827  23.778  25.505  1.00  0.00     0.002 C 
ATOM     26  C   UNL A   1      31.584  24.836  26.296  1.00  0.00     0.002 C 
ENDBRANCH  17  22
ENDBRANCH  12  17
ENDBRANCH  10  11
ENDBRANCH   7   9
ENDBRANCH   6   7
ENDBRANCH   5   6
ENDBRANCH   4   5
ENDBRANCH   3   4
ENDBRANCH   2   3
ENDBRANCH   1   2
BRANCH   1  27
ATOM     27  O   UNL A   1      32.808  35.279  30.975  1.00  0.00    -0.377 OA
BRANCH  27  28
ATOM     28  C   UNL A   1      33.294  35.588  32.284  1.00  0.00     0.188 C 
BRANCH  28  29
ATOM     29  C   UNL A   1      34.797  35.550  32.667  1.00  0.00     0.188 C 
BRANCH  29  30
ATOM     30  O   UNL A   1      35.332  34.259  32.894  1.00  0.00    -0.376 OA
BRANCH  30  31
ATOM     31  C   UNL A   1      34.488  33.137  32.717  1.00  0.00     0.202 C 
BRANCH  31  32
ATOM     32  C   UNL A   1      35.167  31.803  32.377  1.00  0.00     0.261 C 
BRANCH  32  33
ATOM     33  O   UNL A   1      36.601  31.828  32.315  1.00  0.00    -0.460 OA
BRANCH  33  34
ATOM     34  C   UNL A   1      37.240  30.641  32.299  1.00  0.00     0.338 C 
ATOM     35  O   UNL A   1      36.787  29.550  32.608  1.00  0.00    -0.246 OA
BRANCH  34  36
ATOM     36  C   UNL A   1      38.557  30.852  31.669  1.00  0.00     0.060 A 
ATOM     37  C   UNL A   1      39.690  31.015  32.478  1.00  0.00     0.016 A 
ATOM     38  C   UNL A   1      38.669  30.881  30.278  1.00  0.00     0.016 A 
ATOM     39  C   UNL A   1      40.936  31.247  31.894  1.00  0.00     0.010 A 
ATOM     40  C   UNL A   1      39.912  31.135  29.695  1.00  0.00     0.010 A 
ATOM     41  C   UNL A   1      41.044  31.355  30.501  1.00  0.00    -0.014 A 
BRANCH  41  42
ATOM     42  C   UNL A   1      42.274  31.912  29.890  1.00  0.00     0.031 A 
ATOM     43  C   UNL A   1      43.334  30.945  29.436  1.00  0.00     0.074 A 
ATOM     44  C   UNL A   1      42.452  33.235  29.736  1.00  0.00     0.049 A 
ATOM     45  N   UNL A   1      44.536  31.179  28.975  1.00  0.00    -0.248 NA
ATOM     46  C   UNL A   1      42.991  29.516  29.522  1.00  0.00     0.031 C 
ATOM     47  C   UNL A   1      41.479  34.267  30.082  1.00  0.00     0.029 A 
ATOM     48  N   UNL A   1      43.532  33.936  29.257  1.00  0.00    -0.354 N 
ATOM     49  C   UNL A   1      45.089  29.930  28.723  1.00  0.00     0.074 A 
ATOM     50  C   UNL A   1      44.110  28.941  29.115  1.00  0.00     0.031 C 
ATOM     51  C   UNL A   1      42.013  35.474  29.819  1.00  0.00     0.029 A 
ATOM     52  C   UNL A   1      43.379  35.299  29.327  1.00  0.00     0.049 A 
ATOM     53  H   UNL A   1      44.340  33.502  28.898  1.00  0.00     0.167 HD
ATOM     54  C   UNL A   1      46.302  29.635  28.199  1.00  0.00     0.037 A 
ATOM     55  C   UNL A   1      44.256  36.286  29.053  1.00  0.00     0.037 A 
ATOM     56  C   UNL A   1      47.276  30.623  27.816  1.00  0.00     0.049 A 
ATOM     57  C   UNL A   1      45.642  35.927  28.569  1.00  0.00     0.074 A 
ATOM     58  C   UNL A   1      48.538  30.428  27.283  1.00  0.00     0.029 A 
ATOM     59  N   UNL A   1      47.095  31.993  27.930  1.00  0.00    -0.354 N 
ATOM     60  N   UNL A   1      46.158  34.746  28.322  1.00  0.00    -0.248 NA
ATOM     61  C   UNL A   1      46.569  37.041  28.324  1.00  0.00     0.031 C 
ATOM     62  C   UNL A   1      49.143  31.679  27.127  1.00  0.00     0.029 A 
ATOM     63  C   UNL A   1      48.232  32.655  27.496  1.00  0.00     0.049 A 
ATOM     64  H   UNL A   1      46.280  32.430  28.268  1.00  0.00     0.167 HD
ATOM     65  C   UNL A   1      47.444  34.979  27.850  1.00  0.00     0.074 A 
ATOM     66  C   UNL A   1      47.630  36.414  27.838  1.00  0.00     0.031 C 
ATOM     67  C   UNL A   1      48.387  34.087  27.459  1.00  0.00     0.037 A 
BRANCH  54  68
ATOM     68  C   UNL A   1      46.654  28.186  28.029  1.00  0.00     0.064 A 
ATOM     69  C   UNL A   1      47.266  27.452  29.057  1.00  0.00     0.173 A 
ATOM     70  C   UNL A   1      46.336  27.513  26.841  1.00  0.00     0.173 A 
ATOM     71  F   UNL A   1      47.607  28.052  30.207  1.00  0.00    -0.203 F 
ATOM     72  C   UNL A   1      47.565  26.102  28.891  1.00  0.00     0.198 A 
ATOM     73  C   UNL A   1      46.605  26.155  26.691  1.00  0.00     0.198 A 
ATOM     74  F   UNL A   1      45.748  28.168  25.828  1.00  0.00    -0.203 F 
ATOM     75  F   UNL A   1      48.190  25.432  29.868  1.00  0.00    -0.200 F 
ATOM     76  C   UNL A   1      47.226  25.453  27.714  1.00  0.00     0.200 A 
ATOM     77  F   UNL A   1      46.263  25.527  25.559  1.00  0.00    -0.200 F 
ATOM     78  F   UNL A   1      47.500  24.150  27.562  1.00  0.00    -0.200 F 
ENDBRANCH  54  68
BRANCH  55  79
ATOM     79  C   UNL A   1      43.876  37.712  29.245  1.00  0.00     0.064 A 
ATOM     80  C   UNL A   1      44.210  38.396  30.423  1.00  0.00     0.173 A 
ATOM     81  C   UNL A   1      43.120  38.403  28.286  1.00  0.00     0.173 A 
ATOM     82  F   UNL A   1      44.908  37.774  31.384  1.00  0.00    -0.203 F 
ATOM     83  C   UNL A   1      43.771  39.701  30.650  1.00  0.00     0.198 A 
ATOM     84  C   UNL A   1      42.714  39.719  28.498  1.00  0.00     0.198 A 
ATOM     85  F   UNL A   1      42.769  37.797  27.142  1.00  0.00    -0.203 F 
ATOM     86  F   UNL A   1      44.045  40.303  31.815  1.00  0.00    -0.200 F 
ATOM     87  C   UNL A   1      43.028  40.362  29.685  1.00  0.00     0.200 A 
ATOM     88  F   UNL A   1      42.006  40.358  27.557  1.00  0.00    -0.200 F 
ATOM     89  F   UNL A   1      42.600  41.613  29.906  1.00  0.00    -0.200 F 
ENDBRANCH  55  79
BRANCH  67  90
ATOM     90  C   UNL A   1      49.680  34.627  26.913  1.00  0.00     0.064 A 
ATOM     91  C   UNL A   1      49.798  35.079  25.591  1.00  0.00     0.173 A 
ATOM     92  C   UNL A   1      50.801  34.747  27.750  1.00  0.00     0.173 A 
ATOM     93  F   UNL A   1      48.762  34.977  24.746  1.00  0.00    -0.203 F 
ATOM     94  C   UNL A   1      50.999  35.606  25.121  1.00  0.00     0.198 A 
ATOM     95  C   UNL A   1      51.987  35.309  27.287  1.00  0.00     0.198 A 
ATOM     96  F   UNL A   1      50.738  34.341  29.027  1.00  0.00    -0.203 F 
ATOM     97  F   UNL A   1      51.105  35.987  23.839  1.00  0.00    -0.200 F 
ATOM     98  C   UNL A   1      52.088  35.730  25.971  1.00  0.00     0.200 A 
ATOM     99  F   UNL A   1      53.030  35.445  28.116  1.00  0.00    -0.200 F 
ATOM    100  F   UNL A   1      53.237  36.252  25.519  1.00  0.00    -0.200 F 
ENDBRANCH  67  90
ENDBRANCH  41  42
ENDBRANCH  34  36
ENDBRANCH  33  34
ENDBRANCH  32  33
ENDBRANCH  31  32
ENDBRANCH  30  31
ENDBRANCH  29  30
ENDBRANCH  28  29
ENDBRANCH  27  28
ENDBRANCH   1  27
TORSDOF 25
ENDMDL
MODEL 2
REMARK VINA RESULT:      -9.1      1.464      7.273
REMARK SMILES CC(C)CN(c1ccccc1/C=C/C(=O)OCCOCCOCCOCCOC(=O)c1ccc(-c2c3nc(c(-c4c(F)c(F)c(F)c(F)c4F)c4ccc([nH]4)c(-c4c(F)c(F)c(F)c(F)c4F)c4nc(c(-c5c(F)c(F)c(F)c(F)c5F)c5ccc2[nH]5)C=C4)C=C3)cc1)C1CCCC1
REMARK SMILES IDX 21 1 20 2 19 3 18 4 17 5 16 6 14 7 15 8 13 9 12 10 11 11
REMARK SMILES IDX 6 12 7 13 8 14 10 15 9 16 5 17 4 18 2 19 1 20 3 21 94 22
REMARK SMILES IDX 95 23 98 24 96 25 97 26 22 27 23 28 24 29 25 30 26 31 27 32
REMARK SMILES IDX 28 33 29 34 30 35 31 36 32 37 93 38 33 39 92 40 34 41 35 42
REMARK SMILES IDX 36 43 86 44 37 45 91 46 85 47 87 48 38 49 90 50 84 51 83 52
REMARK SMILES IDX 39 54 71 55 51 56 70 57 52 58 55 59 69 60 88 61 53 62 54 63
REMARK SMILES IDX 68 65 89 66 56 67 40 68 41 69 49 70 42 71 43 72 47 73 50 74
REMARK SMILES IDX 44 75 45 76 48 77 46 78 72 79 73 80 81 81 74 82 75 83 79 84
REMARK SMILES IDX 82 85 76 86 77 87 80 88 78 89 57 90 58 91 66 92 59 93 60 94
REMARK SMILES IDX 64 95 67 96 61 97 62 98 65 99 63 100
REMARK H PARENT 87 53 55 64
REMARK Flexibility Score: inf
ROOT
ATOM      1  C   UNL A   1      32.884  35.702  30.004  1.00  0.00     0.188 C 
ENDROOT
BRANCH   1   2
ATOM      2  C   UNL A   1      33.783  35.096  28.911  1.00  0.00     0.188 C 
BRANCH   2   3
ATOM      3  O   UNL A   1      34.048  33.718  29.114  1.00  0.00    -0.376 OA
BRANCH   3   4
ATOM      4  C   UNL A   1      34.566  32.937  28.054  1.00  0.00     0.202 C 
BRANCH   4   5
ATOM      5  C   UNL A   1      34.953  31.466  28.271  1.00  0.00     0.261 C 
BRANCH   5   6
ATOM      6  O   UNL A   1      34.059  30.488  27.735  1.00  0.00    -0.460 OA
BRANCH   6   7
ATOM      7  C   UNL A   1      34.585  29.295  27.400  1.00  0.00     0.330 C 
ATOM      8  O   UNL A   1      35.766  28.989  27.446  1.00  0.00    -0.247 OA
BRANCH   7   9
ATOM      9  C   UNL A   1      33.525  28.340  27.011  1.00  0.00     0.094 C 
ATOM     10  C   UNL A   1      33.642  27.391  26.061  1.00  0.00     0.018 C 
BRANCH  10  11
ATOM     11  C   UNL A   1      32.564  26.417  25.811  1.00  0.00    -0.002 A 
ATOM     12  C   UNL A   1      32.760  25.161  25.175  1.00  0.00     0.044 A 
ATOM     13  C   UNL A   1      31.680  24.258  25.257  1.00  0.00     0.026 A 
ATOM     14  C   UNL A   1      30.420  24.618  25.749  1.00  0.00     0.002 A 
ATOM     15  C   UNL A   1      31.275  26.790  26.260  1.00  0.00     0.010 A 
ATOM     16  C   UNL A   1      30.206  25.904  26.211  1.00  0.00     0.001 A 
BRANCH  12  17
ATOM     17  N   UNL A   1      33.907  24.760  24.472  1.00  0.00    -0.368 N 
BRANCH  17  18
ATOM     18  C   UNL A   1      34.090  25.170  23.063  1.00  0.00     0.120 C 
BRANCH  18  19
ATOM     19  C   UNL A   1      33.097  26.212  22.505  1.00  0.00     0.002 C 
ATOM     20  C   UNL A   1      33.645  27.627  22.320  1.00  0.00     0.009 C 
ATOM     21  C   UNL A   1      32.631  25.719  21.121  1.00  0.00     0.009 C 
ENDBRANCH  18  19
ENDBRANCH  17  18
BRANCH  17  22
ATOM     22  C   UNL A   1      34.762  23.665  25.009  1.00  0.00     0.082 C 
ATOM     23  C   UNL A   1      35.169  22.506  24.087  1.00  0.00     0.025 C 
ATOM     24  C   UNL A   1      36.152  24.157  25.443  1.00  0.00     0.025 C 
ATOM     25  C   UNL A   1      36.264  21.792  24.871  1.00  0.00     0.002 C 
ATOM     26  C   UNL A   1      36.992  22.893  25.631  1.00  0.00     0.002 C 
ENDBRANCH  17  22
ENDBRANCH  12  17
ENDBRANCH  10  11
ENDBRANCH   7   9
ENDBRANCH   6   7
ENDBRANCH   5   6
ENDBRANCH   4   5
ENDBRANCH   3   4
ENDBRANCH   2   3
ENDBRANCH   1   2
BRANCH   1  27
ATOM     27  O   UNL A   1      32.983  35.114  31.291  1.00  0.00    -0.377 OA
BRANCH  27  28
ATOM     28  C   UNL A   1      33.543  35.877  32.364  1.00  0.00     0.188 C 
BRANCH  28  29
ATOM     29  C   UNL A   1      34.762  35.406  33.200  1.00  0.00     0.188 C 
BRANCH  29  30
ATOM     30  O   UNL A   1      35.530  34.367  32.619  1.00  0.00    -0.376 OA
BRANCH  30  31
ATOM     31  C   UNL A   1      35.302  33.037  33.047  1.00  0.00     0.202 C 
BRANCH  31  32
ATOM     32  C   UNL A   1      35.531  31.927  32.013  1.00  0.00     0.261 C 
BRANCH  32  33
ATOM     33  O   UNL A   1      36.267  30.783  32.473  1.00  0.00    -0.460 OA
BRANCH  33  34
ATOM     34  C   UNL A   1      36.842  30.000  31.539  1.00  0.00     0.338 C 
ATOM     35  O   UNL A   1      36.357  29.025  30.986  1.00  0.00    -0.246 OA
BRANCH  34  36
ATOM     36  C   UNL A   1      38.120  30.630  31.156  1.00  0.00     0.060 A 
ATOM     37  C   UNL A   1      38.354  30.953  29.812  1.00  0.00     0.016 A 
ATOM     38  C   UNL A   1      39.081  30.907  32.129  1.00  0.00     0.016 A 
ATOM     39  C   UNL A   1      39.571  31.520  29.432  1.00  0.00     0.010 A 
ATOM     40  C   UNL A   1      40.307  31.454  31.746  1.00  0.00     0.010 A 
ATOM     41  C   UNL A   1      40.571  31.729  30.392  1.00  0.00    -0.014 A 
BRANCH  41  42
ATOM     42  C   UNL A   1      41.962  32.022  29.968  1.00  0.00     0.031 A 
ATOM     43  C   UNL A   1      42.371  33.465  29.848  1.00  0.00     0.074 A 
ATOM     44  C   UNL A   1      42.841  31.042  29.697  1.00  0.00     0.049 A 
ATOM     45  N   UNL A   1      43.483  33.983  29.395  1.00  0.00    -0.248 NA
ATOM     46  C   UNL A   1      41.382  34.461  30.294  1.00  0.00     0.031 C 
ATOM     47  C   UNL A   1      42.583  29.611  29.830  1.00  0.00     0.029 A 
ATOM     48  N   UNL A   1      44.134  31.112  29.237  1.00  0.00    -0.354 N 
ATOM     49  C   UNL A   1      43.325  35.359  29.499  1.00  0.00     0.074 A 
ATOM     50  C   UNL A   1      41.998  35.599  30.021  1.00  0.00     0.031 C 
ATOM     51  C   UNL A   1      43.680  28.934  29.443  1.00  0.00     0.029 A 
ATOM     52  C   UNL A   1      44.700  29.884  28.997  1.00  0.00     0.049 A 
ATOM     53  H   UNL A   1      44.609  31.962  29.093  1.00  0.00     0.167 HD
ATOM     54  C   UNL A   1      44.213  36.335  29.196  1.00  0.00     0.037 A 
ATOM     55  C   UNL A   1      45.891  29.570  28.450  1.00  0.00     0.037 A 
ATOM     56  C   UNL A   1      45.530  36.092  28.672  1.00  0.00     0.049 A 
ATOM     57  C   UNL A   1      46.822  30.681  28.023  1.00  0.00     0.074 A 
ATOM     58  C   UNL A   1      46.503  37.012  28.324  1.00  0.00     0.029 A 
ATOM     59  N   UNL A   1      46.055  34.835  28.414  1.00  0.00    -0.354 N 
ATOM     60  N   UNL A   1      46.673  31.980  28.132  1.00  0.00    -0.248 NA
ATOM     61  C   UNL A   1      48.090  30.281  27.397  1.00  0.00     0.031 C 
ATOM     62  C   UNL A   1      47.597  36.314  27.804  1.00  0.00     0.029 A 
ATOM     63  C   UNL A   1      47.333  34.957  27.893  1.00  0.00     0.049 A 
ATOM     64  H   UNL A   1      45.591  33.983  28.578  1.00  0.00     0.167 HD
ATOM     65  C   UNL A   1      47.842  32.544  27.635  1.00  0.00     0.074 A 
ATOM     66  C   UNL A   1      48.695  31.448  27.230  1.00  0.00     0.031 C 
ATOM     67  C   UNL A   1      48.181  33.852  27.526  1.00  0.00     0.037 A 
BRANCH  54  68
ATOM     68  C   UNL A   1      43.782  37.758  29.406  1.00  0.00     0.064 A 
ATOM     69  C   UNL A   1      43.021  38.445  28.447  1.00  0.00     0.173 A 
ATOM     70  C   UNL A   1      44.096  38.427  30.598  1.00  0.00     0.173 A 
ATOM     71  F   UNL A   1      42.708  37.857  27.284  1.00  0.00    -0.203 F 
ATOM     72  C   UNL A   1      42.609  39.757  28.667  1.00  0.00     0.198 A 
ATOM     73  C   UNL A   1      43.655  39.727  30.828  1.00  0.00     0.198 A 
ATOM     74  F   UNL A   1      44.819  37.815  31.547  1.00  0.00    -0.203 F 
ATOM     75  F   UNL A   1      41.923  40.409  27.719  1.00  0.00    -0.200 F 
ATOM     76  C   UNL A   1      42.917  40.393  29.860  1.00  0.00     0.200 A 
ATOM     77  F   UNL A   1      43.940  40.334  31.988  1.00  0.00    -0.200 F 
ATOM     78  F   UNL A   1      42.508  41.650  30.077  1.00  0.00    -0.200 F 
ENDBRANCH  54  68
BRANCH  55  79
ATOM     79  C   UNL A   1      46.280  28.147  28.246  1.00  0.00     0.064 A 
ATOM     80  C   UNL A   1      46.987  27.444  29.232  1.00  0.00     0.173 A 
ATOM     81  C   UNL A   1      46.007  27.480  27.042  1.00  0.00     0.173 A 
ATOM     82  F   UNL A   1      47.297  28.042  30.391  1.00  0.00    -0.203 F 
ATOM     83  C   UNL A   1      47.439  26.143  29.006  1.00  0.00     0.198 A 
ATOM     84  C   UNL A   1      46.427  26.168  26.832  1.00  0.00     0.198 A 
ATOM     85  F   UNL A   1      45.337  28.106  26.063  1.00  0.00    -0.203 F 
ATOM     86  F   UNL A   1      48.174  25.522  29.938  1.00  0.00    -0.200 F 
ATOM     87  C   UNL A   1      47.155  25.505  27.809  1.00  0.00     0.200 A 
ATOM     88  F   UNL A   1      46.139  25.552  25.678  1.00  0.00    -0.200 F 
ATOM     89  F   UNL A   1      47.595  24.259  27.590  1.00  0.00    -0.200 F 
ENDBRANCH  55  79
BRANCH  67  90
ATOM     90  C   UNL A   1      49.559  34.179  27.017  1.00  0.00     0.064 A 
ATOM     91  C   UNL A   1      49.783  34.617  25.705  1.00  0.00     0.173 A 
ATOM     92  C   UNL A   1      50.663  34.105  27.883  1.00  0.00     0.173 A 
ATOM     93  F   UNL A   1      48.766  34.694  24.834  1.00  0.00    -0.203 F 
ATOM     94  C   UNL A   1      51.066  34.944  25.270  1.00  0.00     0.198 A 
ATOM     95  C   UNL A   1      51.936  34.468  27.455  1.00  0.00     0.198 A 
ATOM     96  F   UNL A   1      50.502  33.702  29.152  1.00  0.00    -0.203 F 
ATOM     97  F   UNL A   1      51.265  35.315  23.997  1.00  0.00    -0.200 F 
ATOM     98  C   UNL A   1      52.139  34.880  26.147  1.00  0.00     0.200 A 
ATOM     99  F   UNL A   1      52.966  34.423  28.310  1.00  0.00    -0.200 F 
ATOM    100  F   UNL A   1      53.369  35.210  25.729  1.00  0.00    -0.200 F 
ENDBRANCH  67  90
ENDBRANCH  41  42
ENDBRANCH  34  36
ENDBRANCH  33  34
ENDBRANCH  32  33
ENDBRANCH  31  32
ENDBRANCH  30  31
ENDBRANCH  29  30
ENDBRANCH  28  29
ENDBRANCH  27  28
ENDBRANCH   1  27
TORSDOF 25
ENDMDL
MODEL 3
REMARK VINA RESULT:      -9.0      4.939     11.027
REMARK SMILES CC(C)CN(c1ccccc1/C=C/C(=O)OCCOCCOCCOCCOC(=O)c1ccc(-c2c3nc(c(-c4c(F)c(F)c(F)c(F)c4F)c4ccc([nH]4)c(-c4c(F)c(F)c(F)c(F)c4F)c4nc(c(-c5c(F)c(F)c(F)c(F)c5F)c5ccc2[nH]5)C=C4)C=C3)cc1)C1CCCC1
REMARK SMILES IDX 21 1 20 2 19 3 18 4 17 5 16 6 14 7 15 8 13 9 12 10 11 11
REMARK SMILES IDX 6 12 7 13 8 14 10 15 9 16 5 17 4 18 2 19 1 20 3 21 94 22
REMARK SMILES IDX 95 23 98 24 96 25 97 26 22 27 23 28 24 29 25 30 26 31 27 32
REMARK SMILES IDX 28 33 29 34 30 35 31 36 32 37 93 38 33 39 92 40 34 41 35 42
REMARK SMILES IDX 36 43 86 44 37 45 91 46 85 47 87 48 38 49 90 50 84 51 83 52
REMARK SMILES IDX 39 54 71 55 51 56 70 57 52 58 55 59 69 60 88 61 53 62 54 63
REMARK SMILES IDX 68 65 89 66 56 67 40 68 41 69 49 70 42 71 43 72 47 73 50 74
REMARK SMILES IDX 44 75 45 76 48 77 46 78 72 79 73 80 81 81 74 82 75 83 79 84
REMARK SMILES IDX 82 85 76 86 77 87 80 88 78 89 57 90 58 91 66 92 59 93 60 94
REMARK SMILES IDX 64 95 67 96 61 97 62 98 65 99 63 100
REMARK H PARENT 87 53 55 64
REMARK Flexibility Score: inf
ROOT
ATOM      1  C   UNL A   1      39.598  27.206  29.111  1.00  0.00     0.188 C 
ENDROOT
BRANCH   1   2
ATOM      2  C   UNL A   1      39.226  28.478  28.327  1.00  0.00     0.188 C 
BRANCH   2   3
ATOM      3  O   UNL A   1      37.833  28.745  28.335  1.00  0.00    -0.376 OA
BRANCH   3   4
ATOM      4  C   UNL A   1      37.340  29.924  27.728  1.00  0.00     0.202 C 
BRANCH   4   5
ATOM      5  C   UNL A   1      35.844  30.083  27.410  1.00  0.00     0.261 C 
BRANCH   5   6
ATOM      6  O   UNL A   1      35.068  30.822  28.355  1.00  0.00    -0.460 OA
BRANCH   6   7
ATOM      7  C   UNL A   1      35.343  32.133  28.483  1.00  0.00     0.330 C 
ATOM      8  O   UNL A   1      35.524  32.925  27.571  1.00  0.00    -0.247 OA
BRANCH   7   9
ATOM      9  C   UNL A   1      35.342  32.538  29.906  1.00  0.00     0.094 C 
ATOM     10  C   UNL A   1      36.005  31.908  30.895  1.00  0.00     0.018 C 
BRANCH  10  11
ATOM     11  C   UNL A   1      36.027  32.443  32.269  1.00  0.00    -0.002 A 
ATOM     12  C   UNL A   1      37.176  32.437  33.106  1.00  0.00     0.044 A 
ATOM     13  C   UNL A   1      37.086  33.220  34.275  1.00  0.00     0.026 A 
ATOM     14  C   UNL A   1      35.894  33.811  34.707  1.00  0.00     0.002 A 
ATOM     15  C   UNL A   1      34.813  32.999  32.736  1.00  0.00     0.010 A 
ATOM     16  C   UNL A   1      34.742  33.662  33.956  1.00  0.00     0.001 A 
BRANCH  12  17
ATOM     17  N   UNL A   1      38.361  31.718  32.879  1.00  0.00    -0.368 N 
BRANCH  17  18
ATOM     18  C   UNL A   1      39.500  32.370  32.198  1.00  0.00     0.120 C 
BRANCH  18  19
ATOM     19  C   UNL A   1      39.384  32.563  30.670  1.00  0.00     0.002 C 
ATOM     20  C   UNL A   1      39.834  33.920  30.131  1.00  0.00     0.009 C 
ATOM     21  C   UNL A   1      40.262  31.490  29.996  1.00  0.00     0.009 C 
ENDBRANCH  18  19
ENDBRANCH  17  18
BRANCH  17  22
ATOM     22  C   UNL A   1      38.366  30.234  33.006  1.00  0.00     0.082 C 
ATOM     23  C   UNL A   1      37.664  29.384  31.937  1.00  0.00     0.025 C 
ATOM     24  C   UNL A   1      39.780  29.637  32.932  1.00  0.00     0.025 C 
ATOM     25  C   UNL A   1      38.151  27.969  32.227  1.00  0.00     0.002 C 
ATOM     26  C   UNL A   1      39.578  28.135  32.731  1.00  0.00     0.002 C 
ENDBRANCH  17  22
ENDBRANCH  12  17
ENDBRANCH  10  11
ENDBRANCH   7   9
ENDBRANCH   6   7
ENDBRANCH   5   6
ENDBRANCH   4   5
ENDBRANCH   3   4
ENDBRANCH   2   3
ENDBRANCH   1   2
BRANCH   1  27
ATOM     27  O   UNL A   1      40.566  26.361  28.508  1.00  0.00    -0.377 OA
BRANCH  27  28
ATOM     28  C   UNL A   1      40.134  25.166  27.852  1.00  0.00     0.188 C 
BRANCH  28  29
ATOM     29  C   UNL A   1      41.088  24.239  27.053  1.00  0.00     0.188 C 
BRANCH  29  30
ATOM     30  O   UNL A   1      42.424  24.197  27.521  1.00  0.00    -0.376 OA
BRANCH  30  31
ATOM     31  C   UNL A   1      43.442  23.793  26.624  1.00  0.00     0.202 C 
BRANCH  31  32
ATOM     32  C   UNL A   1      43.324  24.283  25.175  1.00  0.00     0.261 C 
BRANCH  32  33
ATOM     33  O   UNL A   1      43.510  25.692  24.972  1.00  0.00    -0.460 OA
BRANCH  33  34
ATOM     34  C   UNL A   1      44.719  26.206  25.273  1.00  0.00     0.338 C 
ATOM     35  O   UNL A   1      45.791  25.934  24.755  1.00  0.00    -0.246 OA
BRANCH  34  36
ATOM     36  C   UNL A   1      44.509  27.304  26.236  1.00  0.00     0.060 A 
ATOM     37  C   UNL A   1      45.614  27.872  26.883  1.00  0.00     0.016 A 
ATOM     38  C   UNL A   1      43.220  27.773  26.489  1.00  0.00     0.016 A 
ATOM     39  C   UNL A   1      45.427  28.890  27.820  1.00  0.00     0.010 A 
ATOM     40  C   UNL A   1      43.030  28.776  27.442  1.00  0.00     0.010 A 
ATOM     41  C   UNL A   1      44.128  29.313  28.137  1.00  0.00    -0.014 A 
BRANCH  41  42
ATOM     42  C   UNL A   1      43.890  30.148  29.340  1.00  0.00     0.031 A 
ATOM     43  C   UNL A   1      43.853  31.642  29.163  1.00  0.00     0.074 A 
ATOM     44  C   UNL A   1      43.709  29.604  30.555  1.00  0.00     0.049 A 
ATOM     45  N   UNL A   1      43.771  32.588  30.062  1.00  0.00    -0.248 NA
ATOM     46  C   UNL A   1      43.927  32.135  27.777  1.00  0.00     0.031 C 
ATOM     47  C   UNL A   1      43.666  28.173  30.845  1.00  0.00     0.029 A 
ATOM     48  N   UNL A   1      43.540  30.203  31.780  1.00  0.00    -0.354 N 
ATOM     49  C   UNL A   1      43.787  33.781  29.353  1.00  0.00     0.074 A 
ATOM     50  C   UNL A   1      43.925  33.446  27.953  1.00  0.00     0.031 C 
ATOM     51  C   UNL A   1      43.499  28.004  32.170  1.00  0.00     0.029 A 
ATOM     52  C   UNL A   1      43.466  29.313  32.823  1.00  0.00     0.049 A 
ATOM     53  H   UNL A   1      43.479  31.178  31.898  1.00  0.00     0.167 HD
ATOM     54  C   UNL A   1      43.685  35.046  29.826  1.00  0.00     0.037 A 
ATOM     55  C   UNL A   1      43.409  29.535  34.151  1.00  0.00     0.037 A 
ATOM     56  C   UNL A   1      43.554  35.376  31.220  1.00  0.00     0.049 A 
ATOM     57  C   UNL A   1      43.402  30.958  34.660  1.00  0.00     0.074 A 
ATOM     58  C   UNL A   1      43.452  36.626  31.805  1.00  0.00     0.029 A 
ATOM     59  N   UNL A   1      43.513  34.447  32.249  1.00  0.00    -0.354 N 
ATOM     60  N   UNL A   1      43.408  32.084  33.986  1.00  0.00    -0.248 NA
ATOM     61  C   UNL A   1      43.379  31.141  36.119  1.00  0.00     0.031 C 
ATOM     62  C   UNL A   1      43.405  36.456  33.191  1.00  0.00     0.029 A 
ATOM     63  C   UNL A   1      43.407  35.098  33.466  1.00  0.00     0.049 A 
ATOM     64  H   UNL A   1      43.552  33.470  32.132  1.00  0.00     0.167 HD
ATOM     65  C   UNL A   1      43.341  33.099  34.933  1.00  0.00     0.074 A 
ATOM     66  C   UNL A   1      43.289  32.458  36.229  1.00  0.00     0.031 C 
ATOM     67  C   UNL A   1      43.322  34.442  34.747  1.00  0.00     0.037 A 
BRANCH  54  68
ATOM     68  C   UNL A   1      43.732  36.168  28.831  1.00  0.00     0.064 A 
ATOM     69  C   UNL A   1      42.566  36.672  28.235  1.00  0.00     0.173 A 
ATOM     70  C   UNL A   1      44.952  36.776  28.503  1.00  0.00     0.173 A 
ATOM     71  F   UNL A   1      41.375  36.116  28.501  1.00  0.00    -0.203 F 
ATOM     72  C   UNL A   1      42.624  37.730  27.331  1.00  0.00     0.198 A 
ATOM     73  C   UNL A   1      45.003  37.855  27.624  1.00  0.00     0.198 A 
ATOM     74  F   UNL A   1      46.097  36.334  29.046  1.00  0.00    -0.203 F 
ATOM     75  F   UNL A   1      41.503  38.165  26.739  1.00  0.00    -0.200 F 
ATOM     76  C   UNL A   1      43.840  38.327  27.034  1.00  0.00     0.200 A 
ATOM     77  F   UNL A   1      46.177  38.440  27.352  1.00  0.00    -0.200 F 
ATOM     78  F   UNL A   1      43.893  39.354  26.176  1.00  0.00    -0.200 F 
ENDBRANCH  54  68
BRANCH  55  79
ATOM     79  C   UNL A   1      43.377  28.396  35.109  1.00  0.00     0.064 A 
ATOM     80  C   UNL A   1      42.179  28.005  35.725  1.00  0.00     0.173 A 
ATOM     81  C   UNL A   1      44.548  27.716  35.476  1.00  0.00     0.173 A 
ATOM     82  F   UNL A   1      41.036  28.639  35.431  1.00  0.00    -0.203 F 
ATOM     83  C   UNL A   1      42.161  27.004  36.697  1.00  0.00     0.198 A 
ATOM     84  C   UNL A   1      44.522  26.691  36.420  1.00  0.00     0.198 A 
ATOM     85  F   UNL A   1      45.723  28.051  34.922  1.00  0.00    -0.203 F 
ATOM     86  F   UNL A   1      41.014  26.700  37.320  1.00  0.00    -0.200 F 
ATOM     87  C   UNL A   1      43.331  26.346  37.040  1.00  0.00     0.200 A 
ATOM     88  F   UNL A   1      45.654  26.050  36.740  1.00  0.00    -0.200 F 
ATOM     89  F   UNL A   1      43.315  25.390  37.979  1.00  0.00    -0.200 F 
ENDBRANCH  55  79
BRANCH  67  90
ATOM     90  C   UNL A   1      43.166  35.316  35.961  1.00  0.00     0.064 A 
ATOM     91  C   UNL A   1      44.270  35.827  36.657  1.00  0.00     0.173 A 
ATOM     92  C   UNL A   1      41.884  35.691  36.396  1.00  0.00     0.173 A 
ATOM     93  F   UNL A   1      45.515  35.491  36.291  1.00  0.00    -0.203 F 
ATOM     94  C   UNL A   1      44.095  36.661  37.760  1.00  0.00     0.198 A 
ATOM     95  C   UNL A   1      41.715  36.554  37.475  1.00  0.00     0.198 A 
ATOM     96  F   UNL A   1      40.794  35.238  35.758  1.00  0.00    -0.203 F 
ATOM     97  F   UNL A   1      45.164  37.100  38.441  1.00  0.00    -0.200 F 
ATOM     98  C   UNL A   1      42.820  37.032  38.161  1.00  0.00     0.200 A 
ATOM     99  F   UNL A   1      40.483  36.925  37.847  1.00  0.00    -0.200 F 
ATOM    100  F   UNL A   1      42.657  37.846  39.213  1.00  0.00    -0.200 F 
ENDBRANCH  67  90
ENDBRANCH  41  42
ENDBRANCH  34  36
ENDBRANCH  33  34
ENDBRANCH  32  33
ENDBRANCH  31  32
ENDBRANCH  30  31
ENDBRANCH  29  30
ENDBRANCH  28  29
ENDBRANCH  27  28
ENDBRANCH   1  27
TORSDOF 25
ENDMDL
