MODEL 1
REMARK VINA RESULT:     -10.3      0.000      0.000
REMARK SMILES C[NH2+][C@@]1(C(=O)OCCOCCOCCOCCOC(=O)c2ccc(-c3c4nc(c(-c5c(F)c(F)c(F)c(F)c5F)c5ccc([nH]5)c(-c5c(F)c(F)c(F)c(F)c5F)c5nc(c(-c6c(F)c(F)c(F)c(F)c6F)c6ccc3[nH]6)C=C5)C=C4)cc2)CC[C@H](n2ccc(C)n2)C1
REMARK SMILES IDX 13 1 12 2 11 3 10 4 9 5 8 6 7 7 6 8 4 9 5 10 3 11 84 12
REMARK SMILES IDX 93 13 85 14 86 15 2 16 1 17 87 20 88 21 92 22 89 23 90 24
REMARK SMILES IDX 91 25 14 26 15 27 16 28 17 29 18 30 19 31 20 32 21 33 22 34
REMARK SMILES IDX 83 35 23 36 82 37 24 38 25 39 26 40 76 41 27 42 81 43 75 44
REMARK SMILES IDX 77 45 28 46 80 47 74 48 73 49 29 51 61 52 41 53 60 54 42 55
REMARK SMILES IDX 45 56 59 57 78 58 43 59 44 60 58 62 79 63 46 64 30 65 31 66
REMARK SMILES IDX 39 67 32 68 33 69 37 70 40 71 34 72 35 73 38 74 36 75 62 76
REMARK SMILES IDX 63 77 71 78 64 79 65 80 69 81 72 82 66 83 67 84 70 85 68 86
REMARK SMILES IDX 47 87 48 88 56 89 49 90 50 91 54 92 57 93 51 94 52 95 55 96
REMARK SMILES IDX 53 97
REMARK H PARENT 2 18 2 19 77 50 45 61
REMARK Flexibility Score: inf
ROOT
ATOM      1  C   UNL A   1      39.694  21.938  26.708  1.00  0.00     0.188 C 
ENDROOT
BRANCH   1   2
ATOM      2  O   UNL A   1      38.837  21.822  25.582  1.00  0.00    -0.377 OA
BRANCH   2   3
ATOM      3  C   UNL A   1      37.795  22.766  25.396  1.00  0.00     0.188 C 
BRANCH   3   4
ATOM      4  C   UNL A   1      36.357  22.376  25.759  1.00  0.00     0.188 C 
BRANCH   4   5
ATOM      5  O   UNL A   1      35.440  22.337  24.669  1.00  0.00    -0.376 OA
BRANCH   5   6
ATOM      6  C   UNL A   1      35.057  23.622  24.180  1.00  0.00     0.202 C 
BRANCH   6   7
ATOM      7  C   UNL A   1      34.464  24.553  25.244  1.00  0.00     0.261 C 
BRANCH   7   8
ATOM      8  O   UNL A   1      33.205  24.106  25.769  1.00  0.00    -0.459 OA
BRANCH   8   9
ATOM      9  C   UNL A   1      32.276  25.052  26.037  1.00  0.00     0.368 C 
ATOM     10  O   UNL A   1      32.554  26.171  26.459  1.00  0.00    -0.245 OA
BRANCH   9  11
ATOM     11  C   UNL A   1      30.816  24.555  25.765  1.00  0.00     0.196 C 
ATOM     12  C   UNL A   1      30.789  23.907  24.374  1.00  0.00     0.083 C 
ATOM     13  C   UNL A   1      29.769  25.673  25.580  1.00  0.00     0.108 C 
ATOM     14  C   UNL A   1      30.786  25.113  23.434  1.00  0.00     0.034 C 
ATOM     15  C   UNL A   1      29.851  26.129  24.104  1.00  0.00     0.114 C 
BRANCH  11  16
ATOM     16  N   UNL A   1      30.366  23.694  26.889  1.00  0.00    -0.334 N 
ATOM     17  C   UNL A   1      30.155  22.293  26.556  1.00  0.00     0.331 C 
ATOM     18  H   UNL A   1      31.073  23.740  27.623  1.00  0.00     0.347 HD
ATOM     19  H   UNL A   1      29.455  24.055  27.173  1.00  0.00     0.347 HD
ENDBRANCH  11  16
BRANCH  15  20
ATOM     20  N   UNL A   1      30.224  27.520  23.919  1.00  0.00    -0.269 N 
ATOM     21  C   UNL A   1      30.028  28.309  22.820  1.00  0.00     0.109 A 
ATOM     22  N   UNL A   1      30.716  28.207  24.958  1.00  0.00    -0.178 NA
ATOM     23  C   UNL A   1      30.557  29.540  23.135  1.00  0.00     0.045 A 
ATOM     24  C   UNL A   1      30.998  29.412  24.467  1.00  0.00     0.059 A 
ATOM     25  C   UNL A   1      31.679  30.402  25.320  1.00  0.00     0.069 C 
ENDBRANCH  15  20
ENDBRANCH   9  11
ENDBRANCH   8   9
ENDBRANCH   7   8
ENDBRANCH   6   7
ENDBRANCH   5   6
ENDBRANCH   4   5
ENDBRANCH   3   4
ENDBRANCH   2   3
ENDBRANCH   1   2
BRANCH   1  26
ATOM     26  C   UNL A   1      40.781  20.876  26.925  1.00  0.00     0.188 C 
BRANCH  26  27
ATOM     27  O   UNL A   1      41.545  20.562  25.771  1.00  0.00    -0.376 OA
BRANCH  27  28
ATOM     28  C   UNL A   1      42.952  20.441  25.937  1.00  0.00     0.202 C 
BRANCH  28  29
ATOM     29  C   UNL A   1      43.813  21.531  25.286  1.00  0.00     0.261 C 
BRANCH  29  30
ATOM     30  O   UNL A   1      43.174  22.801  25.056  1.00  0.00    -0.460 OA
BRANCH  30  31
ATOM     31  C   UNL A   1      43.921  23.922  25.032  1.00  0.00     0.338 C 
ATOM     32  O   UNL A   1      44.886  24.171  24.337  1.00  0.00    -0.246 OA
BRANCH  31  33
ATOM     33  C   UNL A   1      43.292  24.883  25.956  1.00  0.00     0.060 A 
ATOM     34  C   UNL A   1      43.743  26.208  25.996  1.00  0.00     0.016 A 
ATOM     35  C   UNL A   1      42.256  24.459  26.788  1.00  0.00     0.016 A 
ATOM     36  C   UNL A   1      43.166  27.113  26.893  1.00  0.00     0.010 A 
ATOM     37  C   UNL A   1      41.682  25.364  27.684  1.00  0.00     0.010 A 
ATOM     38  C   UNL A   1      42.148  26.690  27.762  1.00  0.00    -0.014 A 
BRANCH  38  39
ATOM     39  C   UNL A   1      41.694  27.555  28.882  1.00  0.00     0.031 A 
ATOM     40  C   UNL A   1      42.441  27.471  30.186  1.00  0.00     0.074 A 
ATOM     41  C   UNL A   1      40.638  28.382  28.770  1.00  0.00     0.049 A 
ATOM     42  N   UNL A   1      42.201  28.068  31.326  1.00  0.00    -0.248 NA
ATOM     43  C   UNL A   1      43.613  26.580  30.207  1.00  0.00     0.031 C 
ATOM     44  C   UNL A   1      39.837  28.584  27.567  1.00  0.00     0.029 A 
ATOM     45  N   UNL A   1      40.050  29.203  29.705  1.00  0.00    -0.354 N 
ATOM     46  C   UNL A   1      43.186  27.621  32.196  1.00  0.00     0.074 A 
ATOM     47  C   UNL A   1      43.995  26.666  31.471  1.00  0.00     0.031 C 
ATOM     48  C   UNL A   1      38.849  29.456  27.838  1.00  0.00     0.029 A 
ATOM     49  C   UNL A   1      38.939  29.864  29.240  1.00  0.00     0.049 A 
ATOM     50  H   UNL A   1      40.394  29.307  30.621  1.00  0.00     0.167 HD
ATOM     51  C   UNL A   1      43.414  27.986  33.479  1.00  0.00     0.037 A 
ATOM     52  C   UNL A   1      38.088  30.693  29.878  1.00  0.00     0.037 A 
ATOM     53  C   UNL A   1      42.623  28.939  34.207  1.00  0.00     0.049 A 
ATOM     54  C   UNL A   1      38.325  31.037  31.328  1.00  0.00     0.074 A 
ATOM     55  C   UNL A   1      42.796  29.395  35.502  1.00  0.00     0.029 A 
ATOM     56  N   UNL A   1      41.500  29.578  33.703  1.00  0.00    -0.354 N 
ATOM     57  N   UNL A   1      39.290  30.652  32.127  1.00  0.00    -0.248 NA
ATOM     58  C   UNL A   1      37.354  31.942  31.964  1.00  0.00     0.031 C 
ATOM     59  C   UNL A   1      41.750  30.273  35.799  1.00  0.00     0.029 A 
ATOM     60  C   UNL A   1      40.955  30.407  34.671  1.00  0.00     0.049 A 
ATOM     61  H   UNL A   1      41.143  29.461  32.794  1.00  0.00     0.167 HD
ATOM     62  C   UNL A   1      39.066  31.293  33.340  1.00  0.00     0.074 A 
ATOM     63  C   UNL A   1      37.877  32.101  33.171  1.00  0.00     0.031 C 
ATOM     64  C   UNL A   1      39.783  31.223  34.488  1.00  0.00     0.037 A 
BRANCH  51  65
ATOM     65  C   UNL A   1      44.570  27.336  34.179  1.00  0.00     0.064 A 
ATOM     66  C   UNL A   1      45.853  27.904  34.164  1.00  0.00     0.173 A 
ATOM     67  C   UNL A   1      44.390  26.135  34.882  1.00  0.00     0.173 A 
ATOM     68  F   UNL A   1      46.079  29.042  33.489  1.00  0.00    -0.203 F 
ATOM     69  C   UNL A   1      46.920  27.278  34.800  1.00  0.00     0.198 A 
ATOM     70  C   UNL A   1      45.453  25.528  35.544  1.00  0.00     0.198 A 
ATOM     71  F   UNL A   1      43.182  25.553  34.929  1.00  0.00    -0.203 F 
ATOM     72  F   UNL A   1      48.147  27.809  34.724  1.00  0.00    -0.200 F 
ATOM     73  C   UNL A   1      46.718  26.094  35.494  1.00  0.00     0.200 A 
ATOM     74  F   UNL A   1      45.255  24.391  36.224  1.00  0.00    -0.200 F 
ATOM     75  F   UNL A   1      47.747  25.494  36.108  1.00  0.00    -0.200 F 
ENDBRANCH  51  65
BRANCH  52  76
ATOM     76  C   UNL A   1      36.924  31.275  29.156  1.00  0.00     0.064 A 
ATOM     77  C   UNL A   1      36.892  32.636  28.814  1.00  0.00     0.173 A 
ATOM     78  C   UNL A   1      35.802  30.498  28.836  1.00  0.00     0.173 A 
ATOM     79  F   UNL A   1      37.929  33.427  29.124  1.00  0.00    -0.203 F 
ATOM     80  C   UNL A   1      35.772  33.201  28.207  1.00  0.00     0.198 A 
ATOM     81  C   UNL A   1      34.693  31.058  28.205  1.00  0.00     0.198 A 
ATOM     82  F   UNL A   1      35.779  29.192  29.143  1.00  0.00    -0.203 F 
ATOM     83  F   UNL A   1      35.747  34.514  27.945  1.00  0.00    -0.200 F 
ATOM     84  C   UNL A   1      34.674  32.411  27.900  1.00  0.00     0.200 A 
ATOM     85  F   UNL A   1      33.637  30.290  27.902  1.00  0.00    -0.200 F 
ATOM     86  F   UNL A   1      33.595  32.956  27.322  1.00  0.00    -0.200 F 
ENDBRANCH  52  76
BRANCH  64  87
ATOM     87  C   UNL A   1      39.339  32.072  35.644  1.00  0.00     0.064 A 
ATOM     88  C   UNL A   1      39.749  33.406  35.784  1.00  0.00     0.173 A 
ATOM     89  C   UNL A   1      38.440  31.560  36.594  1.00  0.00     0.173 A 
ATOM     90  F   UNL A   1      40.617  33.940  34.911  1.00  0.00    -0.203 F 
ATOM     91  C   UNL A   1      39.293  34.188  36.843  1.00  0.00     0.198 A 
ATOM     92  C   UNL A   1      37.963  32.353  37.633  1.00  0.00     0.198 A 
ATOM     93  F   UNL A   1      38.009  30.293  36.503  1.00  0.00    -0.203 F 
ATOM     94  F   UNL A   1      39.732  35.447  36.979  1.00  0.00    -0.200 F 
ATOM     95  C   UNL A   1      38.395  33.665  37.760  1.00  0.00     0.200 A 
ATOM     96  F   UNL A   1      37.083  31.852  38.510  1.00  0.00    -0.200 F 
ATOM     97  F   UNL A   1      37.949  34.424  38.771  1.00  0.00    -0.200 F 
ENDBRANCH  64  87
ENDBRANCH  38  39
ENDBRANCH  31  33
ENDBRANCH  30  31
ENDBRANCH  29  30
ENDBRANCH  28  29
ENDBRANCH  27  28
ENDBRANCH  26  27
ENDBRANCH   1  26
TORSDOF 22
ENDMDL
MODEL 2
REMARK VINA RESULT:     -10.2      1.109      2.545
REMARK SMILES C[NH2+][C@@]1(C(=O)OCCOCCOCCOCCOC(=O)c2ccc(-c3c4nc(c(-c5c(F)c(F)c(F)c(F)c5F)c5ccc([nH]5)c(-c5c(F)c(F)c(F)c(F)c5F)c5nc(c(-c6c(F)c(F)c(F)c(F)c6F)c6ccc3[nH]6)C=C5)C=C4)cc2)CC[C@H](n2ccc(C)n2)C1
REMARK SMILES IDX 13 1 12 2 11 3 10 4 9 5 8 6 7 7 6 8 4 9 5 10 3 11 84 12
REMARK SMILES IDX 93 13 85 14 86 15 2 16 1 17 87 20 88 21 92 22 89 23 90 24
REMARK SMILES IDX 91 25 14 26 15 27 16 28 17 29 18 30 19 31 20 32 21 33 22 34
REMARK SMILES IDX 83 35 23 36 82 37 24 38 25 39 26 40 76 41 27 42 81 43 75 44
REMARK SMILES IDX 77 45 28 46 80 47 74 48 73 49 29 51 61 52 41 53 60 54 42 55
REMARK SMILES IDX 45 56 59 57 78 58 43 59 44 60 58 62 79 63 46 64 30 65 31 66
REMARK SMILES IDX 39 67 32 68 33 69 37 70 40 71 34 72 35 73 38 74 36 75 62 76
REMARK SMILES IDX 63 77 71 78 64 79 65 80 69 81 72 82 66 83 67 84 70 85 68 86
REMARK SMILES IDX 47 87 48 88 56 89 49 90 50 91 54 92 57 93 51 94 52 95 55 96
REMARK SMILES IDX 53 97
REMARK H PARENT 2 18 2 19 77 50 45 61
REMARK Flexibility Score: inf
ROOT
ATOM      1  C   UNL A   1      40.198  21.290  26.718  1.00  0.00     0.188 C 
ENDROOT
BRANCH   1   2
ATOM      2  O   UNL A   1      39.192  22.116  26.151  1.00  0.00    -0.377 OA
BRANCH   2   3
ATOM      3  C   UNL A   1      38.155  21.529  25.384  1.00  0.00     0.188 C 
BRANCH   3   4
ATOM      4  C   UNL A   1      36.854  22.311  25.158  1.00  0.00     0.188 C 
BRANCH   4   5
ATOM      5  O   UNL A   1      36.225  22.100  23.897  1.00  0.00    -0.376 OA
BRANCH   5   6
ATOM      6  C   UNL A   1      35.055  22.890  23.687  1.00  0.00     0.202 C 
BRANCH   6   7
ATOM      7  C   UNL A   1      35.026  24.202  24.481  1.00  0.00     0.261 C 
BRANCH   7   8
ATOM      8  O   UNL A   1      34.035  25.135  24.023  1.00  0.00    -0.459 OA
BRANCH   8   9
ATOM      9  C   UNL A   1      33.154  25.599  24.938  1.00  0.00     0.368 C 
ATOM     10  O   UNL A   1      33.491  26.158  25.978  1.00  0.00    -0.245 OA
BRANCH   9  11
ATOM     11  C   UNL A   1      31.667  25.328  24.531  1.00  0.00     0.196 C 
ATOM     12  C   UNL A   1      30.802  25.449  25.794  1.00  0.00     0.083 C 
ATOM     13  C   UNL A   1      31.358  23.874  24.113  1.00  0.00     0.108 C 
ATOM     14  C   UNL A   1      31.070  24.132  26.523  1.00  0.00     0.034 C 
ATOM     15  C   UNL A   1      31.111  23.073  25.412  1.00  0.00     0.114 C 
BRANCH  11  16
ATOM     16  N   UNL A   1      31.290  26.215  23.401  1.00  0.00    -0.334 N 
ATOM     17  C   UNL A   1      30.531  27.402  23.765  1.00  0.00     0.331 C 
ATOM     18  H   UNL A   1      32.148  26.519  22.940  1.00  0.00     0.347 HD
ATOM     19  H   UNL A   1      30.676  25.662  22.802  1.00  0.00     0.347 HD
ENDBRANCH  11  16
BRANCH  15  20
ATOM     20  N   UNL A   1      32.044  21.984  25.640  1.00  0.00    -0.269 N 
ATOM     21  C   UNL A   1      33.053  21.912  26.559  1.00  0.00     0.109 A 
ATOM     22  N   UNL A   1      31.873  20.830  24.980  1.00  0.00    -0.178 NA
ATOM     23  C   UNL A   1      33.649  20.685  26.377  1.00  0.00     0.045 A 
ATOM     24  C   UNL A   1      32.894  20.065  25.362  1.00  0.00     0.059 A 
ATOM     25  C   UNL A   1      33.089  18.749  24.730  1.00  0.00     0.069 C 
ENDBRANCH  15  20
ENDBRANCH   9  11
ENDBRANCH   8   9
ENDBRANCH   7   8
ENDBRANCH   6   7
ENDBRANCH   5   6
ENDBRANCH   4   5
ENDBRANCH   3   4
ENDBRANCH   2   3
ENDBRANCH   1   2
BRANCH   1  26
ATOM     26  C   UNL A   1      40.435  19.894  26.122  1.00  0.00     0.188 C 
BRANCH  26  27
ATOM     27  O   UNL A   1      41.663  19.746  25.427  1.00  0.00    -0.376 OA
BRANCH  27  28
ATOM     28  C   UNL A   1      42.843  20.171  26.097  1.00  0.00     0.202 C 
BRANCH  28  29
ATOM     29  C   UNL A   1      43.709  21.206  25.368  1.00  0.00     0.261 C 
BRANCH  29  30
ATOM     30  O   UNL A   1      43.989  22.424  26.083  1.00  0.00    -0.460 OA
BRANCH  30  31
ATOM     31  C   UNL A   1      43.987  23.596  25.417  1.00  0.00     0.338 C 
ATOM     32  O   UNL A   1      44.336  23.815  24.273  1.00  0.00    -0.246 OA
BRANCH  31  33
ATOM     33  C   UNL A   1      43.375  24.600  26.305  1.00  0.00     0.060 A 
ATOM     34  C   UNL A   1      43.881  25.905  26.335  1.00  0.00     0.016 A 
ATOM     35  C   UNL A   1      42.298  24.236  27.114  1.00  0.00     0.016 A 
ATOM     36  C   UNL A   1      43.317  26.851  27.199  1.00  0.00     0.010 A 
ATOM     37  C   UNL A   1      41.737  25.181  27.977  1.00  0.00     0.010 A 
ATOM     38  C   UNL A   1      42.258  26.488  28.044  1.00  0.00    -0.014 A 
BRANCH  38  39
ATOM     39  C   UNL A   1      41.809  27.392  29.135  1.00  0.00     0.031 A 
ATOM     40  C   UNL A   1      42.539  27.328  30.450  1.00  0.00     0.074 A 
ATOM     41  C   UNL A   1      40.773  28.238  28.988  1.00  0.00     0.049 A 
ATOM     42  N   UNL A   1      42.299  27.960  31.570  1.00  0.00    -0.248 NA
ATOM     43  C   UNL A   1      43.691  26.413  30.509  1.00  0.00     0.031 C 
ATOM     44  C   UNL A   1      39.990  28.424  27.770  1.00  0.00     0.029 A 
ATOM     45  N   UNL A   1      40.192  29.096  29.893  1.00  0.00    -0.354 N 
ATOM     46  C   UNL A   1      43.264  27.516  32.464  1.00  0.00     0.074 A 
ATOM     47  C   UNL A   1      44.060  26.525  31.775  1.00  0.00     0.031 C 
ATOM     48  C   UNL A   1      39.018  29.325  28.006  1.00  0.00     0.029 A 
ATOM     49  C   UNL A   1      39.101  29.768  29.397  1.00  0.00     0.049 A 
ATOM     50  H   UNL A   1      40.527  29.218  30.810  1.00  0.00     0.167 HD
ATOM     51  C   UNL A   1      43.484  27.911  33.739  1.00  0.00     0.037 A 
ATOM     52  C   UNL A   1      38.261  30.632  30.001  1.00  0.00     0.037 A 
ATOM     53  C   UNL A   1      42.706  28.900  34.432  1.00  0.00     0.049 A 
ATOM     54  C   UNL A   1      38.488  31.010  31.445  1.00  0.00     0.074 A 
ATOM     55  C   UNL A   1      42.873  29.387  35.716  1.00  0.00     0.029 A 
ATOM     56  N   UNL A   1      41.603  29.549  33.897  1.00  0.00    -0.354 N 
ATOM     57  N   UNL A   1      39.435  30.626  32.266  1.00  0.00    -0.248 NA
ATOM     58  C   UNL A   1      37.530  31.953  32.045  1.00  0.00     0.031 C 
ATOM     59  C   UNL A   1      41.843  30.295  35.977  1.00  0.00     0.029 A 
ATOM     60  C   UNL A   1      41.065  30.415  34.836  1.00  0.00     0.049 A 
ATOM     61  H   UNL A   1      41.254  29.415  32.987  1.00  0.00     0.167 HD
ATOM     62  C   UNL A   1      39.210  31.305  33.458  1.00  0.00     0.074 A 
ATOM     63  C   UNL A   1      38.041  32.133  33.253  1.00  0.00     0.031 C 
ATOM     64  C   UNL A   1      39.912  31.250  34.616  1.00  0.00     0.037 A 
BRANCH  51  65
ATOM     65  C   UNL A   1      44.618  27.255  34.471  1.00  0.00     0.064 A 
ATOM     66  C   UNL A   1      45.913  27.796  34.456  1.00  0.00     0.173 A 
ATOM     67  C   UNL A   1      44.403  26.079  35.205  1.00  0.00     0.173 A 
ATOM     68  F   UNL A   1      46.171  28.909  33.752  1.00  0.00    -0.203 F 
ATOM     69  C   UNL A   1      46.959  27.164  35.121  1.00  0.00     0.198 A 
ATOM     70  C   UNL A   1      45.445  25.468  35.896  1.00  0.00     0.198 A 
ATOM     71  F   UNL A   1      43.183  25.525  35.254  1.00  0.00    -0.203 F 
ATOM     72  F   UNL A   1      48.198  27.666  35.046  1.00  0.00    -0.200 F 
ATOM     73  C   UNL A   1      46.723  26.005  35.845  1.00  0.00     0.200 A 
ATOM     74  F   UNL A   1      45.214  24.355  36.605  1.00  0.00    -0.200 F 
ATOM     75  F   UNL A   1      47.731  25.400  36.488  1.00  0.00    -0.200 F 
ENDBRANCH  51  65
BRANCH  52  76
ATOM     76  C   UNL A   1      37.118  31.219  29.250  1.00  0.00     0.064 A 
ATOM     77  C   UNL A   1      37.116  32.572  28.878  1.00  0.00     0.173 A 
ATOM     78  C   UNL A   1      35.986  30.455  28.932  1.00  0.00     0.173 A 
ATOM     79  F   UNL A   1      38.164  33.351  29.185  1.00  0.00    -0.203 F 
ATOM     80  C   UNL A   1      36.016  33.143  28.242  1.00  0.00     0.198 A 
ATOM     81  C   UNL A   1      34.897  31.022  28.272  1.00  0.00     0.198 A 
ATOM     82  F   UNL A   1      35.934  29.158  29.267  1.00  0.00    -0.203 F 
ATOM     83  F   UNL A   1      36.019  34.451  27.950  1.00  0.00    -0.200 F 
ATOM     84  C   UNL A   1      34.908  32.367  27.937  1.00  0.00     0.200 A 
ATOM     85  F   UNL A   1      33.832  30.266  27.971  1.00  0.00    -0.200 F 
ATOM     86  F   UNL A   1      33.848  32.919  27.331  1.00  0.00    -0.200 F 
ENDBRANCH  52  76
BRANCH  64  87
ATOM     87  C   UNL A   1      39.473  32.140  35.744  1.00  0.00     0.064 A 
ATOM     88  C   UNL A   1      39.969  33.443  35.894  1.00  0.00     0.173 A 
ATOM     89  C   UNL A   1      38.496  31.701  36.652  1.00  0.00     0.173 A 
ATOM     90  F   UNL A   1      40.913  33.907  35.061  1.00  0.00    -0.203 F 
ATOM     91  C   UNL A   1      39.517  34.266  36.925  1.00  0.00     0.198 A 
ATOM     92  C   UNL A   1      38.026  32.536  37.662  1.00  0.00     0.198 A 
ATOM     93  F   UNL A   1      37.983  30.466  36.548  1.00  0.00    -0.203 F 
ATOM     94  F   UNL A   1      40.036  35.493  37.074  1.00  0.00    -0.200 F 
ATOM     95  C   UNL A   1      38.541  33.816  37.800  1.00  0.00     0.200 A 
ATOM     96  F   UNL A   1      37.071  32.105  38.497  1.00  0.00    -0.200 F 
ATOM     97  F   UNL A   1      38.101  34.614  38.783  1.00  0.00    -0.200 F 
ENDBRANCH  64  87
ENDBRANCH  38  39
ENDBRANCH  31  33
ENDBRANCH  30  31
ENDBRANCH  29  30
ENDBRANCH  28  29
ENDBRANCH  27  28
ENDBRANCH  26  27
ENDBRANCH   1  26
TORSDOF 22
ENDMDL
MODEL 3
REMARK VINA RESULT:     -10.1      4.314      6.713
REMARK SMILES C[NH2+][C@@]1(C(=O)OCCOCCOCCOCCOC(=O)c2ccc(-c3c4nc(c(-c5c(F)c(F)c(F)c(F)c5F)c5ccc([nH]5)c(-c5c(F)c(F)c(F)c(F)c5F)c5nc(c(-c6c(F)c(F)c(F)c(F)c6F)c6ccc3[nH]6)C=C5)C=C4)cc2)CC[C@H](n2ccc(C)n2)C1
REMARK SMILES IDX 13 1 12 2 11 3 10 4 9 5 8 6 7 7 6 8 4 9 5 10 3 11 84 12
REMARK SMILES IDX 93 13 85 14 86 15 2 16 1 17 87 20 88 21 92 22 89 23 90 24
REMARK SMILES IDX 91 25 14 26 15 27 16 28 17 29 18 30 19 31 20 32 21 33 22 34
REMARK SMILES IDX 83 35 23 36 82 37 24 38 25 39 26 40 76 41 27 42 81 43 75 44
REMARK SMILES IDX 77 45 28 46 80 47 74 48 73 49 29 51 61 52 41 53 60 54 42 55
REMARK SMILES IDX 45 56 59 57 78 58 43 59 44 60 58 62 79 63 46 64 30 65 31 66
REMARK SMILES IDX 39 67 32 68 33 69 37 70 40 71 34 72 35 73 38 74 36 75 62 76
REMARK SMILES IDX 63 77 71 78 64 79 65 80 69 81 72 82 66 83 67 84 70 85 68 86
REMARK SMILES IDX 47 87 48 88 56 89 49 90 50 91 54 92 57 93 51 94 52 95 55 96
REMARK SMILES IDX 53 97
REMARK H PARENT 2 18 2 19 77 50 45 61
REMARK Flexibility Score: inf
ROOT
ATOM      1  C   UNL A   1      37.030  23.069  25.110  1.00  0.00     0.188 C 
ENDROOT
BRANCH   1   2
ATOM      2  O   UNL A   1      36.896  23.310  23.718  1.00  0.00    -0.377 OA
BRANCH   2   3
ATOM      3  C   UNL A   1      35.644  23.095  23.088  1.00  0.00     0.188 C 
BRANCH   3   4
ATOM      4  C   UNL A   1      34.354  23.344  23.879  1.00  0.00     0.188 C 
BRANCH   4   5
ATOM      5  O   UNL A   1      33.144  23.087  23.172  1.00  0.00    -0.376 OA
BRANCH   5   6
ATOM      6  C   UNL A   1      33.145  23.549  21.821  1.00  0.00     0.202 C 
BRANCH   6   7
ATOM      7  C   UNL A   1      32.739  25.018  21.654  1.00  0.00     0.261 C 
BRANCH   7   8
ATOM      8  O   UNL A   1      31.758  25.460  22.606  1.00  0.00    -0.459 OA
BRANCH   8   9
ATOM      9  C   UNL A   1      31.921  26.696  23.132  1.00  0.00     0.368 C 
ATOM     10  O   UNL A   1      32.971  27.329  23.058  1.00  0.00    -0.245 OA
BRANCH   9  11
ATOM     11  C   UNL A   1      30.634  27.216  23.855  1.00  0.00     0.196 C 
ATOM     12  C   UNL A   1      31.076  28.039  25.073  1.00  0.00     0.083 C 
ATOM     13  C   UNL A   1      29.784  26.125  24.541  1.00  0.00     0.108 C 
ATOM     14  C   UNL A   1      31.475  26.966  26.086  1.00  0.00     0.034 C 
ATOM     15  C   UNL A   1      30.416  25.866  25.929  1.00  0.00     0.114 C 
BRANCH  11  16
ATOM     16  N   UNL A   1      29.764  27.920  22.878  1.00  0.00    -0.334 N 
ATOM     17  C   UNL A   1      30.139  29.297  22.589  1.00  0.00     0.331 C 
ATOM     18  H   UNL A   1      29.787  27.397  22.002  1.00  0.00     0.347 HD
ATOM     19  H   UNL A   1      28.839  27.964  23.306  1.00  0.00     0.347 HD
ENDBRANCH  11  16
BRANCH  15  20
ATOM     20  N   UNL A   1      30.903  24.513  26.130  1.00  0.00    -0.269 N 
ATOM     21  C   UNL A   1      30.613  23.392  25.404  1.00  0.00     0.109 A 
ATOM     22  N   UNL A   1      31.851  24.293  27.051  1.00  0.00    -0.178 NA
ATOM     23  C   UNL A   1      31.317  22.365  25.990  1.00  0.00     0.045 A 
ATOM     24  C   UNL A   1      32.048  22.976  27.028  1.00  0.00     0.059 A 
ATOM     25  C   UNL A   1      32.952  22.361  28.016  1.00  0.00     0.069 C 
ENDBRANCH  15  20
ENDBRANCH   9  11
ENDBRANCH   8   9
ENDBRANCH   7   8
ENDBRANCH   6   7
ENDBRANCH   5   6
ENDBRANCH   4   5
ENDBRANCH   3   4
ENDBRANCH   2   3
ENDBRANCH   1   2
BRANCH   1  26
ATOM     26  C   UNL A   1      37.164  21.620  25.602  1.00  0.00     0.188 C 
BRANCH  26  27
ATOM     27  O   UNL A   1      37.749  20.727  24.667  1.00  0.00    -0.376 OA
BRANCH  27  28
ATOM     28  C   UNL A   1      38.055  19.417  25.126  1.00  0.00     0.202 C 
BRANCH  28  29
ATOM     29  C   UNL A   1      39.475  19.193  25.660  1.00  0.00     0.261 C 
BRANCH  29  30
ATOM     30  O   UNL A   1      40.248  20.375  25.941  1.00  0.00    -0.460 OA
BRANCH  30  31
ATOM     31  C   UNL A   1      40.946  20.451  27.090  1.00  0.00     0.338 C 
ATOM     32  O   UNL A   1      41.432  19.545  27.740  1.00  0.00    -0.246 OA
BRANCH  31  33
ATOM     33  C   UNL A   1      41.122  21.882  27.400  1.00  0.00     0.060 A 
ATOM     34  C   UNL A   1      40.444  22.846  26.645  1.00  0.00     0.016 A 
ATOM     35  C   UNL A   1      41.971  22.260  28.440  1.00  0.00     0.016 A 
ATOM     36  C   UNL A   1      40.633  24.205  26.920  1.00  0.00     0.010 A 
ATOM     37  C   UNL A   1      42.160  23.617  28.712  1.00  0.00     0.010 A 
ATOM     38  C   UNL A   1      41.512  24.600  27.940  1.00  0.00    -0.014 A 
BRANCH  38  39
ATOM     39  C   UNL A   1      41.917  26.023  28.088  1.00  0.00     0.031 A 
ATOM     40  C   UNL A   1      43.256  26.436  27.540  1.00  0.00     0.074 A 
ATOM     41  C   UNL A   1      41.140  26.931  28.707  1.00  0.00     0.049 A 
ATOM     42  N   UNL A   1      43.863  27.594  27.603  1.00  0.00    -0.248 NA
ATOM     43  C   UNL A   1      44.020  25.394  26.834  1.00  0.00     0.031 C 
ATOM     44  C   UNL A   1      39.815  26.681  29.264  1.00  0.00     0.029 A 
ATOM     45  N   UNL A   1      41.373  28.259  28.981  1.00  0.00    -0.354 N 
ATOM     46  C   UNL A   1      45.077  27.416  26.952  1.00  0.00     0.074 A 
ATOM     47  C   UNL A   1      45.144  26.029  26.546  1.00  0.00     0.031 C 
ATOM     48  C   UNL A   1      39.356  27.812  29.832  1.00  0.00     0.029 A 
ATOM     49  C   UNL A   1      40.363  28.863  29.690  1.00  0.00     0.049 A 
ATOM     50  H   UNL A   1      42.187  28.732  28.694  1.00  0.00     0.167 HD
ATOM     51  C   UNL A   1      46.042  28.328  26.693  1.00  0.00     0.037 A 
ATOM     52  C   UNL A   1      40.270  30.116  30.178  1.00  0.00     0.037 A 
ATOM     53  C   UNL A   1      45.983  29.709  27.083  1.00  0.00     0.049 A 
ATOM     54  C   UNL A   1      41.389  31.100  29.932  1.00  0.00     0.074 A 
ATOM     55  C   UNL A   1      46.901  30.715  26.839  1.00  0.00     0.029 A 
ATOM     56  N   UNL A   1      44.948  30.278  27.809  1.00  0.00    -0.354 N 
ATOM     57  N   UNL A   1      42.508  30.937  29.269  1.00  0.00    -0.248 NA
ATOM     58  C   UNL A   1      41.225  32.449  30.499  1.00  0.00     0.031 C 
ATOM     59  C   UNL A   1      46.445  31.882  27.459  1.00  0.00     0.029 A 
ATOM     60  C   UNL A   1      45.217  31.618  28.043  1.00  0.00     0.049 A 
ATOM     61  H   UNL A   1      44.142  29.802  28.114  1.00  0.00     0.167 HD
ATOM     62  C   UNL A   1      43.159  32.165  29.306  1.00  0.00     0.074 A 
ATOM     63  C   UNL A   1      42.307  33.068  30.049  1.00  0.00     0.031 C 
ATOM     64  C   UNL A   1      44.353  32.514  28.768  1.00  0.00     0.037 A 
BRANCH  51  65
ATOM     65  C   UNL A   1      47.257  27.846  25.956  1.00  0.00     0.064 A 
ATOM     66  C   UNL A   1      48.422  27.458  26.635  1.00  0.00     0.173 A 
ATOM     67  C   UNL A   1      47.250  27.761  24.556  1.00  0.00     0.173 A 
ATOM     68  F   UNL A   1      48.483  27.539  27.973  1.00  0.00    -0.203 F 
ATOM     69  C   UNL A   1      49.548  27.034  25.936  1.00  0.00     0.198 A 
ATOM     70  C   UNL A   1      48.367  27.306  23.862  1.00  0.00     0.198 A 
ATOM     71  F   UNL A   1      46.159  28.118  23.861  1.00  0.00    -0.203 F 
ATOM     72  F   UNL A   1      50.669  26.722  26.601  1.00  0.00    -0.200 F 
ATOM     73  C   UNL A   1      49.518  26.953  24.552  1.00  0.00     0.200 A 
ATOM     74  F   UNL A   1      48.333  27.217  22.526  1.00  0.00    -0.200 F 
ATOM     75  F   UNL A   1      50.602  26.541  23.881  1.00  0.00    -0.200 F 
ENDBRANCH  51  65
BRANCH  52  76
ATOM     76  C   UNL A   1      39.068  30.535  30.948  1.00  0.00     0.064 A 
ATOM     77  C   UNL A   1      37.977  31.144  30.310  1.00  0.00     0.173 A 
ATOM     78  C   UNL A   1      39.004  30.380  32.341  1.00  0.00     0.173 A 
ATOM     79  F   UNL A   1      38.003  31.341  28.984  1.00  0.00    -0.203 F 
ATOM     80  C   UNL A   1      36.882  31.607  31.038  1.00  0.00     0.198 A 
ATOM     81  C   UNL A   1      37.897  30.820  33.065  1.00  0.00     0.198 A 
ATOM     82  F   UNL A   1      40.021  29.807  33.001  1.00  0.00    -0.203 F 
ATOM     83  F   UNL A   1      35.881  32.237  30.410  1.00  0.00    -0.200 F 
ATOM     84  C   UNL A   1      36.841  31.442  32.415  1.00  0.00     0.200 A 
ATOM     85  F   UNL A   1      37.857  30.650  34.394  1.00  0.00    -0.200 F 
ATOM     86  F   UNL A   1      35.791  31.892  33.115  1.00  0.00    -0.200 F 
ENDBRANCH  52  76
BRANCH  64  87
ATOM     87  C   UNL A   1      44.798  33.941  28.916  1.00  0.00     0.064 A 
ATOM     88  C   UNL A   1      44.428  34.931  27.994  1.00  0.00     0.173 A 
ATOM     89  C   UNL A   1      45.556  34.333  30.031  1.00  0.00     0.173 A 
ATOM     90  F   UNL A   1      43.715  34.606  26.905  1.00  0.00    -0.203 F 
ATOM     91  C   UNL A   1      44.819  36.256  28.172  1.00  0.00     0.198 A 
ATOM     92  C   UNL A   1      45.919  35.663  30.221  1.00  0.00     0.198 A 
ATOM     93  F   UNL A   1      45.929  33.427  30.947  1.00  0.00    -0.203 F 
ATOM     94  F   UNL A   1      44.489  37.177  27.256  1.00  0.00    -0.200 F 
ATOM     95  C   UNL A   1      45.555  36.623  29.288  1.00  0.00     0.200 A 
ATOM     96  F   UNL A   1      46.616  36.018  31.309  1.00  0.00    -0.200 F 
ATOM     97  F   UNL A   1      45.919  37.901  29.463  1.00  0.00    -0.200 F 
ENDBRANCH  64  87
ENDBRANCH  38  39
ENDBRANCH  31  33
ENDBRANCH  30  31
ENDBRANCH  29  30
ENDBRANCH  28  29
ENDBRANCH  27  28
ENDBRANCH  26  27
ENDBRANCH   1  26
TORSDOF 22
ENDMDL
