MODEL 1
REMARK VINA RESULT:     -10.4      0.000      0.000
REMARK SMILES O=C(OCCOCCOCCOCCOC(=O)[C@H]1C[C@H](O)CN1C(=O)c1ccccc1O)c1ccc(-c2c3nc(c(-c4c(F)c(F)c(F)c(F)c4F)c4ccc([nH]4)c(-c4c(F)c(F)c(F)c(F)c4F)c4nc(c(-c5c(F)c(F)c(F)c(F)c5F)c5ccc2[nH]5)C=C4)C=C3)cc1
REMARK SMILES IDX 10 1 9 2 8 3 7 4 6 5 5 6 4 7 3 8 2 9 1 10 33 11 34 12 95 13
REMARK SMILES IDX 35 14 94 15 36 16 37 17 38 18 88 19 39 20 93 21 87 22 89 23
REMARK SMILES IDX 40 24 92 25 86 26 85 27 41 29 73 30 53 31 72 32 54 33 57 34
REMARK SMILES IDX 71 35 90 36 55 37 56 38 70 40 91 41 58 42 42 43 43 44 51 45
REMARK SMILES IDX 44 46 45 47 49 48 52 49 46 50 47 51 50 52 48 53 74 54 75 55
REMARK SMILES IDX 83 56 76 57 77 58 81 59 84 60 78 61 79 62 82 63 80 64 59 65
REMARK SMILES IDX 60 66 68 67 61 68 62 69 66 70 69 71 63 72 64 73 67 74 65 75
REMARK SMILES IDX 11 76 12 77 13 78 14 79 15 80 16 81 17 82 18 83 19 84 23 85
REMARK SMILES IDX 20 86 22 87 24 88 25 89 26 90 27 91 31 92 28 93 30 94 29 95
REMARK SMILES IDX 32 96 21 98
REMARK H PARENT 89 28 57 39 32 97 21 99
REMARK Flexibility Score: inf
ROOT
ATOM      1  C   UNL A   1      33.626  22.636  25.573  1.00  0.00     0.188 C 
ENDROOT
BRANCH   1   2
ATOM      2  O   UNL A   1      34.442  21.734  26.303  1.00  0.00    -0.377 OA
BRANCH   2   3
ATOM      3  C   UNL A   1      35.769  21.497  25.853  1.00  0.00     0.188 C 
BRANCH   3   4
ATOM      4  C   UNL A   1      35.882  20.236  25.004  1.00  0.00     0.188 C 
BRANCH   4   5
ATOM      5  O   UNL A   1      37.262  19.885  24.992  1.00  0.00    -0.376 OA
BRANCH   5   6
ATOM      6  C   UNL A   1      38.198  20.931  25.021  1.00  0.00     0.202 C 
BRANCH   6   7
ATOM      7  C   UNL A   1      39.303  20.751  26.057  1.00  0.00     0.261 C 
BRANCH   7   8
ATOM      8  O   UNL A   1      40.187  19.646  25.780  1.00  0.00    -0.460 OA
BRANCH   8   9
ATOM      9  C   UNL A   1      41.532  19.664  25.959  1.00  0.00     0.338 C 
ATOM     10  O   UNL A   1      42.217  18.659  25.752  1.00  0.00    -0.246 OA
BRANCH   9  11
ATOM     11  C   UNL A   1      42.208  20.916  26.354  1.00  0.00     0.060 A 
ATOM     12  C   UNL A   1      42.564  21.161  27.677  1.00  0.00     0.016 A 
ATOM     13  C   UNL A   1      42.573  21.838  25.375  1.00  0.00     0.016 A 
ATOM     14  C   UNL A   1      43.053  22.398  28.069  1.00  0.00     0.010 A 
ATOM     15  C   UNL A   1      43.211  23.025  25.748  1.00  0.00     0.010 A 
ATOM     16  C   UNL A   1      43.407  23.338  27.106  1.00  0.00    -0.014 A 
BRANCH  16  17
ATOM     17  C   UNL A   1      43.927  24.666  27.517  1.00  0.00     0.031 A 
ATOM     18  C   UNL A   1      42.958  25.679  28.050  1.00  0.00     0.074 A 
ATOM     19  C   UNL A   1      45.244  24.951  27.453  1.00  0.00     0.049 A 
ATOM     20  N   UNL A   1      43.095  26.970  28.193  1.00  0.00    -0.248 NA
ATOM     21  C   UNL A   1      41.640  25.166  28.461  1.00  0.00     0.031 C 
ATOM     22  C   UNL A   1      46.301  24.014  27.065  1.00  0.00     0.029 A 
ATOM     23  N   UNL A   1      45.922  26.112  27.726  1.00  0.00    -0.354 N 
ATOM     24  C   UNL A   1      41.856  27.433  28.615  1.00  0.00     0.074 A 
ATOM     25  C   UNL A   1      40.986  26.284  28.736  1.00  0.00     0.031 C 
ATOM     26  C   UNL A   1      47.492  24.622  27.167  1.00  0.00     0.029 A 
ATOM     27  C   UNL A   1      47.275  26.022  27.499  1.00  0.00     0.049 A 
ATOM     28  H   UNL A   1      45.482  26.931  28.051  1.00  0.00     0.167 HD
ATOM     29  C   UNL A   1      41.485  28.712  28.851  1.00  0.00     0.037 A 
ATOM     30  C   UNL A   1      48.221  26.981  27.489  1.00  0.00     0.037 A 
ATOM     31  C   UNL A   1      42.397  29.821  28.777  1.00  0.00     0.049 A 
ATOM     32  C   UNL A   1      47.784  28.400  27.724  1.00  0.00     0.074 A 
ATOM     33  C   UNL A   1      42.148  31.168  28.956  1.00  0.00     0.029 A 
ATOM     34  N   UNL A   1      43.757  29.692  28.519  1.00  0.00    -0.354 N 
ATOM     35  N   UNL A   1      46.586  28.861  28.001  1.00  0.00    -0.248 NA
ATOM     36  C   UNL A   1      48.814  29.439  27.601  1.00  0.00     0.031 C 
ATOM     37  C   UNL A   1      43.355  31.857  28.779  1.00  0.00     0.029 A 
ATOM     38  C   UNL A   1      44.361  30.935  28.527  1.00  0.00     0.049 A 
ATOM     39  H   UNL A   1      44.221  28.839  28.355  1.00  0.00     0.167 HD
ATOM     40  C   UNL A   1      46.715  30.238  28.081  1.00  0.00     0.074 A 
ATOM     41  C   UNL A   1      48.115  30.538  27.853  1.00  0.00     0.031 C 
ATOM     42  C   UNL A   1      45.763  31.177  28.304  1.00  0.00     0.037 A 
BRANCH  29  43
ATOM     43  C   UNL A   1      40.032  28.968  29.123  1.00  0.00     0.064 A 
ATOM     44  C   UNL A   1      39.485  28.892  30.411  1.00  0.00     0.173 A 
ATOM     45  C   UNL A   1      39.163  29.253  28.058  1.00  0.00     0.173 A 
ATOM     46  F   UNL A   1      40.266  28.593  31.460  1.00  0.00    -0.203 F 
ATOM     47  C   UNL A   1      38.116  29.058  30.620  1.00  0.00     0.198 A 
ATOM     48  C   UNL A   1      37.800  29.444  28.272  1.00  0.00     0.198 A 
ATOM     49  F   UNL A   1      39.632  29.330  26.804  1.00  0.00    -0.203 F 
ATOM     50  F   UNL A   1      37.605  28.917  31.850  1.00  0.00    -0.200 F 
ATOM     51  C   UNL A   1      37.276  29.335  29.551  1.00  0.00     0.200 A 
ATOM     52  F   UNL A   1      36.991  29.713  27.238  1.00  0.00    -0.200 F 
ATOM     53  F   UNL A   1      35.959  29.481  29.750  1.00  0.00    -0.200 F 
ENDBRANCH  29  43
BRANCH  30  54
ATOM     54  C   UNL A   1      49.633  26.640  27.161  1.00  0.00     0.064 A 
ATOM     55  C   UNL A   1      50.067  26.548  25.831  1.00  0.00     0.173 A 
ATOM     56  C   UNL A   1      50.583  26.409  28.169  1.00  0.00     0.173 A 
ATOM     57  F   UNL A   1      49.195  26.731  24.829  1.00  0.00    -0.203 F 
ATOM     58  C   UNL A   1      51.391  26.233  25.525  1.00  0.00     0.198 A 
ATOM     59  C   UNL A   1      51.913  26.128  27.862  1.00  0.00     0.198 A 
ATOM     60  F   UNL A   1      50.224  26.475  29.459  1.00  0.00    -0.203 F 
ATOM     61  F   UNL A   1      51.769  26.111  24.244  1.00  0.00    -0.200 F 
ATOM     62  C   UNL A   1      52.315  26.034  26.539  1.00  0.00     0.200 A 
ATOM     63  F   UNL A   1      52.804  25.953  28.848  1.00  0.00    -0.200 F 
ATOM     64  F   UNL A   1      53.589  25.743  26.242  1.00  0.00    -0.200 F 
ENDBRANCH  30  54
BRANCH  42  65
ATOM     65  C   UNL A   1      46.218  32.603  28.329  1.00  0.00     0.064 A 
ATOM     66  C   UNL A   1      46.720  33.185  29.501  1.00  0.00     0.173 A 
ATOM     67  C   UNL A   1      46.208  33.369  27.155  1.00  0.00     0.173 A 
ATOM     68  F   UNL A   1      46.731  32.490  30.648  1.00  0.00    -0.203 F 
ATOM     69  C   UNL A   1      47.186  34.495  29.499  1.00  0.00     0.198 A 
ATOM     70  C   UNL A   1      46.697  34.670  27.154  1.00  0.00     0.198 A 
ATOM     71  F   UNL A   1      45.741  32.848  26.012  1.00  0.00    -0.203 F 
ATOM     72  F   UNL A   1      47.634  35.045  30.636  1.00  0.00    -0.200 F 
ATOM     73  C   UNL A   1      47.183  35.233  28.325  1.00  0.00     0.200 A 
ATOM     74  F   UNL A   1      46.702  35.381  26.017  1.00  0.00    -0.200 F 
ATOM     75  F   UNL A   1      47.643  36.491  28.323  1.00  0.00    -0.200 F 
ENDBRANCH  42  65
ENDBRANCH  16  17
ENDBRANCH   9  11
ENDBRANCH   8   9
ENDBRANCH   7   8
ENDBRANCH   6   7
ENDBRANCH   5   6
ENDBRANCH   4   5
ENDBRANCH   3   4
ENDBRANCH   2   3
ENDBRANCH   1   2
BRANCH   1  76
ATOM     76  C   UNL A   1      33.125  22.206  24.190  1.00  0.00     0.188 C 
BRANCH  76  77
ATOM     77  O   UNL A   1      33.825  22.672  23.050  1.00  0.00    -0.376 OA
BRANCH  77  78
ATOM     78  C   UNL A   1      33.044  23.259  22.002  1.00  0.00     0.202 C 
BRANCH  78  79
ATOM     79  C   UNL A   1      32.941  24.791  21.917  1.00  0.00     0.261 C 
BRANCH  79  80
ATOM     80  O   UNL A   1      33.672  25.430  22.984  1.00  0.00    -0.462 OA
BRANCH  80  81
ATOM     81  C   UNL A   1      32.932  26.014  23.943  1.00  0.00     0.329 C 
ATOM     82  O   UNL A   1      33.417  26.752  24.801  1.00  0.00    -0.250 OA
BRANCH  81  83
ATOM     83  C   UNL A   1      31.398  25.822  23.816  1.00  0.00     0.198 C 
ATOM     84  C   UNL A   1      31.009  24.909  25.016  1.00  0.00     0.071 C 
ATOM     85  N   UNL A   1      30.318  26.845  23.810  1.00  0.00    -0.322 N 
ATOM     86  C   UNL A   1      29.928  25.681  25.767  1.00  0.00     0.136 C 
ATOM     87  C   UNL A   1      29.216  26.374  24.628  1.00  0.00     0.152 C 
BRANCH  85  88
ATOM     88  C   UNL A   1      30.210  27.805  22.811  1.00  0.00     0.258 C 
ATOM     89  O   UNL A   1      30.656  27.573  21.685  1.00  0.00    -0.269 OA
BRANCH  88  90
ATOM     90  C   UNL A   1      29.499  29.127  23.037  1.00  0.00     0.081 A 
ATOM     91  C   UNL A   1      28.350  29.345  22.250  1.00  0.00     0.018 A 
ATOM     92  C   UNL A   1      29.910  30.189  23.868  1.00  0.00     0.128 A 
ATOM     93  C   UNL A   1      27.627  30.545  22.313  1.00  0.00     0.001 A 
ATOM     94  C   UNL A   1      29.161  31.374  23.962  1.00  0.00     0.047 A 
ATOM     95  C   UNL A   1      28.026  31.555  23.178  1.00  0.00     0.004 A 
BRANCH  92  96
ATOM     96  O   UNL A   1      31.088  30.158  24.565  1.00  0.00    -0.507 OA
ATOM     97  H   UNL A   1      31.674  29.434  24.463  1.00  0.00     0.293 HD
ENDBRANCH  92  96
ENDBRANCH  88  90
ENDBRANCH  85  88
BRANCH  86  98
ATOM     98  O   UNL A   1      29.087  24.837  26.528  1.00  0.00    -0.391 OA
ATOM     99  H   UNL A   1      29.522  24.617  27.367  1.00  0.00     0.211 HD
ENDBRANCH  86  98
ENDBRANCH  81  83
ENDBRANCH  80  81
ENDBRANCH  79  80
ENDBRANCH  78  79
ENDBRANCH  77  78
ENDBRANCH  76  77
ENDBRANCH   1  76
TORSDOF 24
ENDMDL
MODEL 2
REMARK VINA RESULT:     -10.3      6.032     10.510
REMARK SMILES O=C(OCCOCCOCCOCCOC(=O)[C@H]1C[C@H](O)CN1C(=O)c1ccccc1O)c1ccc(-c2c3nc(c(-c4c(F)c(F)c(F)c(F)c4F)c4ccc([nH]4)c(-c4c(F)c(F)c(F)c(F)c4F)c4nc(c(-c5c(F)c(F)c(F)c(F)c5F)c5ccc2[nH]5)C=C4)C=C3)cc1
REMARK SMILES IDX 10 1 9 2 8 3 7 4 6 5 5 6 4 7 3 8 2 9 1 10 33 11 34 12 95 13
REMARK SMILES IDX 35 14 94 15 36 16 37 17 38 18 88 19 39 20 93 21 87 22 89 23
REMARK SMILES IDX 40 24 92 25 86 26 85 27 41 29 73 30 53 31 72 32 54 33 57 34
REMARK SMILES IDX 71 35 90 36 55 37 56 38 70 40 91 41 58 42 42 43 43 44 51 45
REMARK SMILES IDX 44 46 45 47 49 48 52 49 46 50 47 51 50 52 48 53 74 54 75 55
REMARK SMILES IDX 83 56 76 57 77 58 81 59 84 60 78 61 79 62 82 63 80 64 59 65
REMARK SMILES IDX 60 66 68 67 61 68 62 69 66 70 69 71 63 72 64 73 67 74 65 75
REMARK SMILES IDX 11 76 12 77 13 78 14 79 15 80 16 81 17 82 18 83 19 84 23 85
REMARK SMILES IDX 20 86 22 87 24 88 25 89 26 90 27 91 31 92 28 93 30 94 29 95
REMARK SMILES IDX 32 96 21 98
REMARK H PARENT 89 28 57 39 32 97 21 99
REMARK Flexibility Score: inf
ROOT
ATOM      1  C   UNL A   1      39.419  32.596  35.182  1.00  0.00     0.188 C 
ENDROOT
BRANCH   1   2
ATOM      2  O   UNL A   1      40.372  32.399  34.150  1.00  0.00    -0.377 OA
BRANCH   2   3
ATOM      3  C   UNL A   1      41.703  32.854  34.355  1.00  0.00     0.188 C 
BRANCH   3   4
ATOM      4  C   UNL A   1      42.021  34.111  33.554  1.00  0.00     0.188 C 
BRANCH   4   5
ATOM      5  O   UNL A   1      42.629  35.021  34.464  1.00  0.00    -0.376 OA
BRANCH   5   6
ATOM      6  C   UNL A   1      42.895  36.321  34.003  1.00  0.00     0.202 C 
BRANCH   6   7
ATOM      7  C   UNL A   1      44.365  36.720  34.076  1.00  0.00     0.261 C 
BRANCH   7   8
ATOM      8  O   UNL A   1      45.196  35.760  34.759  1.00  0.00    -0.460 OA
BRANCH   8   9
ATOM      9  C   UNL A   1      46.185  35.036  34.178  1.00  0.00     0.338 C 
ATOM     10  O   UNL A   1      47.371  35.246  34.443  1.00  0.00    -0.246 OA
BRANCH   9  11
ATOM     11  C   UNL A   1      45.848  33.935  33.253  1.00  0.00     0.060 A 
ATOM     12  C   UNL A   1      45.418  32.698  33.724  1.00  0.00     0.016 A 
ATOM     13  C   UNL A   1      45.882  34.159  31.877  1.00  0.00     0.016 A 
ATOM     14  C   UNL A   1      45.256  31.623  32.865  1.00  0.00     0.010 A 
ATOM     15  C   UNL A   1      45.566  33.117  31.000  1.00  0.00     0.010 A 
ATOM     16  C   UNL A   1      45.303  31.823  31.488  1.00  0.00    -0.014 A 
BRANCH  16  17
ATOM     17  C   UNL A   1      45.134  30.677  30.561  1.00  0.00     0.031 A 
ATOM     18  C   UNL A   1      43.754  30.347  30.077  1.00  0.00     0.074 A 
ATOM     19  C   UNL A   1      46.196  29.967  30.127  1.00  0.00     0.049 A 
ATOM     20  N   UNL A   1      43.304  29.254  29.521  1.00  0.00    -0.248 NA
ATOM     21  C   UNL A   1      42.731  31.389  30.266  1.00  0.00     0.031 C 
ATOM     22  C   UNL A   1      47.599  30.260  30.431  1.00  0.00     0.029 A 
ATOM     23  N   UNL A   1      46.262  28.856  29.326  1.00  0.00    -0.354 N 
ATOM     24  C   UNL A   1      41.935  29.441  29.384  1.00  0.00     0.074 A 
ATOM     25  C   UNL A   1      41.629  30.762  29.885  1.00  0.00     0.031 C 
ATOM     26  C   UNL A   1      48.384  29.382  29.790  1.00  0.00     0.029 A 
ATOM     27  C   UNL A   1      47.542  28.390  29.140  1.00  0.00     0.049 A 
ATOM     28  H   UNL A   1      45.469  28.432  28.923  1.00  0.00     0.167 HD
ATOM     29  C   UNL A   1      41.023  28.565  28.904  1.00  0.00     0.037 A 
ATOM     30  C   UNL A   1      47.978  27.249  28.571  1.00  0.00     0.037 A 
ATOM     31  C   UNL A   1      41.376  27.283  28.358  1.00  0.00     0.049 A 
ATOM     32  C   UNL A   1      46.947  26.276  28.071  1.00  0.00     0.074 A 
ATOM     33  C   UNL A   1      40.552  26.286  27.872  1.00  0.00     0.029 A 
ATOM     34  N   UNL A   1      42.683  26.836  28.210  1.00  0.00    -0.354 N 
ATOM     35  N   UNL A   1      45.640  26.393  28.053  1.00  0.00    -0.248 NA
ATOM     36  C   UNL A   1      47.443  24.994  27.554  1.00  0.00     0.031 C 
ATOM     37  C   UNL A   1      41.363  25.223  27.454  1.00  0.00     0.029 A 
ATOM     38  C   UNL A   1      42.691  25.574  27.646  1.00  0.00     0.049 A 
ATOM     39  H   UNL A   1      43.486  27.344  28.469  1.00  0.00     0.167 HD
ATOM     40  C   UNL A   1      45.156  25.204  27.530  1.00  0.00     0.074 A 
ATOM     41  C   UNL A   1      46.313  24.389  27.214  1.00  0.00     0.031 C 
ATOM     42  C   UNL A   1      43.873  24.809  27.343  1.00  0.00     0.037 A 
BRANCH  29  43
ATOM     43  C   UNL A   1      39.576  28.941  29.030  1.00  0.00     0.064 A 
ATOM     44  C   UNL A   1      38.869  28.815  30.233  1.00  0.00     0.173 A 
ATOM     45  C   UNL A   1      38.873  29.398  27.902  1.00  0.00     0.173 A 
ATOM     46  F   UNL A   1      39.484  28.355  31.333  1.00  0.00    -0.203 F 
ATOM     47  C   UNL A   1      37.505  29.100  30.297  1.00  0.00     0.198 A 
ATOM     48  C   UNL A   1      37.517  29.707  27.975  1.00  0.00     0.198 A 
ATOM     49  F   UNL A   1      39.500  29.530  26.724  1.00  0.00    -0.203 F 
ATOM     50  F   UNL A   1      36.836  28.910  31.442  1.00  0.00    -0.200 F 
ATOM     51  C   UNL A   1      36.832  29.546  29.169  1.00  0.00     0.200 A 
ATOM     52  F   UNL A   1      36.870  30.138  26.884  1.00  0.00    -0.200 F 
ATOM     53  F   UNL A   1      35.518  29.806  29.228  1.00  0.00    -0.200 F 
ENDBRANCH  29  43
BRANCH  30  54
ATOM     54  C   UNL A   1      49.433  26.937  28.533  1.00  0.00     0.064 A 
ATOM     55  C   UNL A   1      50.079  26.350  29.630  1.00  0.00     0.173 A 
ATOM     56  C   UNL A   1      50.211  27.211  27.396  1.00  0.00     0.173 A 
ATOM     57  F   UNL A   1      49.391  26.093  30.752  1.00  0.00    -0.203 F 
ATOM     58  C   UNL A   1      51.441  26.054  29.592  1.00  0.00     0.198 A 
ATOM     59  C   UNL A   1      51.565  26.883  27.347  1.00  0.00     0.198 A 
ATOM     60  F   UNL A   1      49.651  27.780  26.319  1.00  0.00    -0.203 F 
ATOM     61  F   UNL A   1      52.041  25.529  30.671  1.00  0.00    -0.200 F 
ATOM     62  C   UNL A   1      52.181  26.311  28.448  1.00  0.00     0.200 A 
ATOM     63  F   UNL A   1      52.269  27.120  26.232  1.00  0.00    -0.200 F 
ATOM     64  F   UNL A   1      53.488  26.015  28.410  1.00  0.00    -0.200 F 
ENDBRANCH  30  54
BRANCH  42  65
ATOM     65  C   UNL A   1      43.669  23.448  26.755  1.00  0.00     0.064 A 
ATOM     66  C   UNL A   1      44.067  23.156  25.442  1.00  0.00     0.173 A 
ATOM     67  C   UNL A   1      43.127  22.415  27.532  1.00  0.00     0.173 A 
ATOM     68  F   UNL A   1      44.575  24.121  24.661  1.00  0.00    -0.203 F 
ATOM     69  C   UNL A   1      43.917  21.875  24.924  1.00  0.00     0.198 A 
ATOM     70  C   UNL A   1      43.001  21.130  27.017  1.00  0.00     0.198 A 
ATOM     71  F   UNL A   1      42.738  22.652  28.793  1.00  0.00    -0.203 F 
ATOM     72  F   UNL A   1      44.275  21.621  23.658  1.00  0.00    -0.200 F 
ATOM     73  C   UNL A   1      43.394  20.861  25.714  1.00  0.00     0.200 A 
ATOM     74  F   UNL A   1      42.503  20.149  27.783  1.00  0.00    -0.200 F 
ATOM     75  F   UNL A   1      43.261  19.625  25.216  1.00  0.00    -0.200 F 
ENDBRANCH  42  65
ENDBRANCH  16  17
ENDBRANCH   9  11
ENDBRANCH   8   9
ENDBRANCH   7   8
ENDBRANCH   6   7
ENDBRANCH   5   6
ENDBRANCH   4   5
ENDBRANCH   3   4
ENDBRANCH   2   3
ENDBRANCH   1   2
BRANCH   1  76
ATOM     76  C   UNL A   1      38.789  33.984  35.334  1.00  0.00     0.188 C 
BRANCH  76  77
ATOM     77  O   UNL A   1      37.674  34.306  34.521  1.00  0.00    -0.376 OA
BRANCH  77  78
ATOM     78  C   UNL A   1      36.374  34.125  35.096  1.00  0.00     0.202 C 
BRANCH  78  79
ATOM     79  C   UNL A   1      35.136  34.554  34.292  1.00  0.00     0.261 C 
BRANCH  79  80
ATOM     80  O   UNL A   1      35.446  35.622  33.373  1.00  0.00    -0.462 OA
BRANCH  80  81
ATOM     81  C   UNL A   1      34.396  36.230  32.793  1.00  0.00     0.329 C 
ATOM     82  O   UNL A   1      34.141  37.423  32.963  1.00  0.00    -0.250 OA
BRANCH  81  83
ATOM     83  C   UNL A   1      33.603  35.371  31.775  1.00  0.00     0.198 C 
ATOM     84  C   UNL A   1      32.775  36.396  30.945  1.00  0.00     0.071 C 
ATOM     85  N   UNL A   1      34.112  34.433  30.737  1.00  0.00    -0.322 N 
ATOM     86  C   UNL A   1      33.151  36.126  29.492  1.00  0.00     0.136 C 
ATOM     87  C   UNL A   1      33.357  34.629  29.513  1.00  0.00     0.152 C 
BRANCH  85  88
ATOM     88  C   UNL A   1      34.814  33.279  31.058  1.00  0.00     0.258 C 
ATOM     89  O   UNL A   1      34.226  32.328  31.581  1.00  0.00    -0.269 OA
BRANCH  88  90
ATOM     90  C   UNL A   1      36.287  33.114  30.733  1.00  0.00     0.081 A 
ATOM     91  C   UNL A   1      36.683  33.554  29.453  1.00  0.00     0.018 A 
ATOM     92  C   UNL A   1      37.273  32.489  31.522  1.00  0.00     0.128 A 
ATOM     93  C   UNL A   1      38.001  33.412  28.997  1.00  0.00     0.001 A 
ATOM     94  C   UNL A   1      38.604  32.385  31.081  1.00  0.00     0.047 A 
ATOM     95  C   UNL A   1      38.965  32.837  29.817  1.00  0.00     0.004 A 
BRANCH  92  96
ATOM     96  O   UNL A   1      36.981  31.888  32.717  1.00  0.00    -0.507 OA
ATOM     97  H   UNL A   1      36.557  32.376  33.395  1.00  0.00     0.293 HD
ENDBRANCH  92  96
ENDBRANCH  88  90
ENDBRANCH  85  88
BRANCH  86  98
ATOM     98  O   UNL A   1      32.152  36.547  28.584  1.00  0.00    -0.391 OA
ATOM     99  H   UNL A   1      32.499  37.262  28.029  1.00  0.00     0.211 HD
ENDBRANCH  86  98
ENDBRANCH  81  83
ENDBRANCH  80  81
ENDBRANCH  79  80
ENDBRANCH  78  79
ENDBRANCH  77  78
ENDBRANCH  76  77
ENDBRANCH   1  76
TORSDOF 24
ENDMDL
MODEL 3
REMARK VINA RESULT:     -10.1      6.391     11.434
REMARK SMILES O=C(OCCOCCOCCOCCOC(=O)[C@H]1C[C@H](O)CN1C(=O)c1ccccc1O)c1ccc(-c2c3nc(c(-c4c(F)c(F)c(F)c(F)c4F)c4ccc([nH]4)c(-c4c(F)c(F)c(F)c(F)c4F)c4nc(c(-c5c(F)c(F)c(F)c(F)c5F)c5ccc2[nH]5)C=C4)C=C3)cc1
REMARK SMILES IDX 10 1 9 2 8 3 7 4 6 5 5 6 4 7 3 8 2 9 1 10 33 11 34 12 95 13
REMARK SMILES IDX 35 14 94 15 36 16 37 17 38 18 88 19 39 20 93 21 87 22 89 23
REMARK SMILES IDX 40 24 92 25 86 26 85 27 41 29 73 30 53 31 72 32 54 33 57 34
REMARK SMILES IDX 71 35 90 36 55 37 56 38 70 40 91 41 58 42 42 43 43 44 51 45
REMARK SMILES IDX 44 46 45 47 49 48 52 49 46 50 47 51 50 52 48 53 74 54 75 55
REMARK SMILES IDX 83 56 76 57 77 58 81 59 84 60 78 61 79 62 82 63 80 64 59 65
REMARK SMILES IDX 60 66 68 67 61 68 62 69 66 70 69 71 63 72 64 73 67 74 65 75
REMARK SMILES IDX 11 76 12 77 13 78 14 79 15 80 16 81 17 82 18 83 19 84 23 85
REMARK SMILES IDX 20 86 22 87 24 88 25 89 26 90 27 91 31 92 28 93 30 94 29 95
REMARK SMILES IDX 32 96 21 98
REMARK H PARENT 89 28 57 39 32 97 21 99
REMARK Flexibility Score: inf
ROOT
ATOM      1  C   UNL A   1      33.131  30.156  26.187  1.00  0.00     0.188 C 
ENDROOT
BRANCH   1   2
ATOM      2  O   UNL A   1      33.113  31.236  27.107  1.00  0.00    -0.377 OA
BRANCH   2   3
ATOM      3  C   UNL A   1      31.919  31.993  27.247  1.00  0.00     0.188 C 
BRANCH   3   4
ATOM      4  C   UNL A   1      32.177  33.496  27.259  1.00  0.00     0.188 C 
BRANCH   4   5
ATOM      5  O   UNL A   1      33.471  33.674  27.825  1.00  0.00    -0.376 OA
BRANCH   5   6
ATOM      6  C   UNL A   1      33.543  34.134  29.149  1.00  0.00     0.202 C 
BRANCH   6   7
ATOM      7  C   UNL A   1      33.002  35.546  29.350  1.00  0.00     0.261 C 
BRANCH   7   8
ATOM      8  O   UNL A   1      32.156  35.687  30.510  1.00  0.00    -0.460 OA
BRANCH   8   9
ATOM      9  C   UNL A   1      32.597  35.961  31.764  1.00  0.00     0.338 C 
ATOM     10  O   UNL A   1      32.049  36.821  32.459  1.00  0.00    -0.246 OA
BRANCH   9  11
ATOM     11  C   UNL A   1      33.714  35.187  32.341  1.00  0.00     0.060 A 
ATOM     12  C   UNL A   1      34.991  35.730  32.451  1.00  0.00     0.016 A 
ATOM     13  C   UNL A   1      33.473  33.917  32.862  1.00  0.00     0.016 A 
ATOM     14  C   UNL A   1      36.068  34.950  32.844  1.00  0.00     0.010 A 
ATOM     15  C   UNL A   1      34.530  33.182  33.406  1.00  0.00     0.010 A 
ATOM     16  C   UNL A   1      35.849  33.672  33.351  1.00  0.00    -0.014 A 
BRANCH  16  17
ATOM     17  C   UNL A   1      36.995  32.829  33.771  1.00  0.00     0.031 A 
ATOM     18  C   UNL A   1      37.544  33.008  35.155  1.00  0.00     0.074 A 
ATOM     19  C   UNL A   1      37.513  31.895  32.948  1.00  0.00     0.049 A 
ATOM     20  N   UNL A   1      38.689  32.626  35.654  1.00  0.00    -0.248 NA
ATOM     21  C   UNL A   1      36.688  33.737  36.106  1.00  0.00     0.031 C 
ATOM     22  C   UNL A   1      36.995  31.543  31.624  1.00  0.00     0.029 A 
ATOM     23  N   UNL A   1      38.588  31.057  33.110  1.00  0.00    -0.354 N 
ATOM     24  C   UNL A   1      38.731  33.152  36.938  1.00  0.00     0.074 A 
ATOM     25  C   UNL A   1      37.485  33.853  37.157  1.00  0.00     0.031 C 
ATOM     26  C   UNL A   1      37.722  30.538  31.115  1.00  0.00     0.029 A 
ATOM     27  C   UNL A   1      38.832  30.263  32.015  1.00  0.00     0.049 A 
ATOM     28  H   UNL A   1      39.132  31.029  33.930  1.00  0.00     0.167 HD
ATOM     29  C   UNL A   1      39.740  33.070  37.836  1.00  0.00     0.037 A 
ATOM     30  C   UNL A   1      39.877  29.459  31.739  1.00  0.00     0.037 A 
ATOM     31  C   UNL A   1      40.939  32.312  37.602  1.00  0.00     0.049 A 
ATOM     32  C   UNL A   1      41.003  29.404  32.736  1.00  0.00     0.074 A 
ATOM     33  C   UNL A   1      42.053  32.173  38.408  1.00  0.00     0.029 A 
ATOM     34  N   UNL A   1      41.161  31.539  36.468  1.00  0.00    -0.354 N 
ATOM     35  N   UNL A   1      41.104  30.001  33.901  1.00  0.00    -0.248 NA
ATOM     36  C   UNL A   1      42.177  28.606  32.364  1.00  0.00     0.031 C 
ATOM     37  C   UNL A   1      42.961  31.336  37.747  1.00  0.00     0.029 A 
ATOM     38  C   UNL A   1      42.397  30.926  36.547  1.00  0.00     0.049 A 
ATOM     39  H   UNL A   1      40.530  31.444  35.719  1.00  0.00     0.167 HD
ATOM     40  C   UNL A   1      42.350  29.656  34.400  1.00  0.00     0.074 A 
ATOM     41  C   UNL A   1      42.958  28.772  33.424  1.00  0.00     0.031 C 
ATOM     42  C   UNL A   1      42.951  30.046  35.551  1.00  0.00     0.037 A 
BRANCH  29  43
ATOM     43  C   UNL A   1      39.611  33.880  39.091  1.00  0.00     0.064 A 
ATOM     44  C   UNL A   1      40.141  35.172  39.209  1.00  0.00     0.173 A 
ATOM     45  C   UNL A   1      38.978  33.327  40.216  1.00  0.00     0.173 A 
ATOM     46  F   UNL A   1      40.783  35.736  38.175  1.00  0.00    -0.203 F 
ATOM     47  C   UNL A   1      40.073  35.868  40.416  1.00  0.00     0.198 A 
ATOM     48  C   UNL A   1      38.887  34.035  41.412  1.00  0.00     0.198 A 
ATOM     49  F   UNL A   1      38.459  32.092  40.160  1.00  0.00    -0.203 F 
ATOM     50  F   UNL A   1      40.643  37.076  40.525  1.00  0.00    -0.200 F 
ATOM     51  C   UNL A   1      39.445  35.300  41.515  1.00  0.00     0.200 A 
ATOM     52  F   UNL A   1      38.279  33.484  42.472  1.00  0.00    -0.200 F 
ATOM     53  F   UNL A   1      39.392  35.964  42.677  1.00  0.00    -0.200 F 
ENDBRANCH  29  43
BRANCH  30  54
ATOM     54  C   UNL A   1      39.943  28.728  30.444  1.00  0.00     0.064 A 
ATOM     55  C   UNL A   1      40.613  29.269  29.339  1.00  0.00     0.173 A 
ATOM     56  C   UNL A   1      39.344  27.467  30.284  1.00  0.00     0.173 A 
ATOM     57  F   UNL A   1      41.178  30.481  29.427  1.00  0.00    -0.203 F 
ATOM     58  C   UNL A   1      40.678  28.581  28.127  1.00  0.00     0.198 A 
ATOM     59  C   UNL A   1      39.438  26.766  29.083  1.00  0.00     0.198 A 
ATOM     60  F   UNL A   1      38.682  26.903  31.304  1.00  0.00    -0.203 F 
ATOM     61  F   UNL A   1      41.291  29.141  27.073  1.00  0.00    -0.200 F 
ATOM     62  C   UNL A   1      40.100  27.327  28.002  1.00  0.00     0.200 A 
ATOM     63  F   UNL A   1      38.892  25.548  28.976  1.00  0.00    -0.200 F 
ATOM     64  F   UNL A   1      40.173  26.663  26.840  1.00  0.00    -0.200 F 
ENDBRANCH  30  54
BRANCH  42  65
ATOM     65  C   UNL A   1      44.319  29.500  35.812  1.00  0.00     0.064 A 
ATOM     66  C   UNL A   1      45.468  30.189  35.399  1.00  0.00     0.173 A 
ATOM     67  C   UNL A   1      44.480  28.309  36.535  1.00  0.00     0.173 A 
ATOM     68  F   UNL A   1      45.356  31.323  34.690  1.00  0.00    -0.203 F 
ATOM     69  C   UNL A   1      46.735  29.695  35.690  1.00  0.00     0.198 A 
ATOM     70  C   UNL A   1      45.749  27.833  36.845  1.00  0.00     0.198 A 
ATOM     71  F   UNL A   1      43.407  27.623  36.953  1.00  0.00    -0.203 F 
ATOM     72  F   UNL A   1      47.822  30.351  35.261  1.00  0.00    -0.200 F 
ATOM     73  C   UNL A   1      46.874  28.523  36.421  1.00  0.00     0.200 A 
ATOM     74  F   UNL A   1      45.883  26.706  37.557  1.00  0.00    -0.200 F 
ATOM     75  F   UNL A   1      48.096  28.056  36.711  1.00  0.00    -0.200 F 
ENDBRANCH  42  65
ENDBRANCH  16  17
ENDBRANCH   9  11
ENDBRANCH   8   9
ENDBRANCH   7   8
ENDBRANCH   6   7
ENDBRANCH   5   6
ENDBRANCH   4   5
ENDBRANCH   3   4
ENDBRANCH   2   3
ENDBRANCH   1   2
BRANCH   1  76
ATOM     76  C   UNL A   1      31.804  29.716  25.559  1.00  0.00     0.188 C 
BRANCH  76  77
ATOM     77  O   UNL A   1      31.838  29.106  24.281  1.00  0.00    -0.376 OA
BRANCH  77  78
ATOM     78  C   UNL A   1      31.661  27.685  24.232  1.00  0.00     0.202 C 
BRANCH  78  79
ATOM     79  C   UNL A   1      32.371  26.808  25.278  1.00  0.00     0.261 C 
BRANCH  79  80
ATOM     80  O   UNL A   1      32.788  25.548  24.715  1.00  0.00    -0.462 OA
BRANCH  80  81
ATOM     81  C   UNL A   1      33.085  24.575  25.595  1.00  0.00     0.329 C 
ATOM     82  O   UNL A   1      32.531  24.477  26.691  1.00  0.00    -0.250 OA
BRANCH  81  83
ATOM     83  C   UNL A   1      34.066  23.487  25.085  1.00  0.00     0.198 C 
ATOM     84  C   UNL A   1      35.391  24.251  24.791  1.00  0.00     0.071 C 
ATOM     85  N   UNL A   1      34.537  22.251  25.766  1.00  0.00    -0.322 N 
ATOM     86  C   UNL A   1      36.456  23.528  25.610  1.00  0.00     0.136 C 
ATOM     87  C   UNL A   1      35.962  22.100  25.541  1.00  0.00     0.152 C 
BRANCH  85  88
ATOM     88  C   UNL A   1      33.675  21.215  26.103  1.00  0.00     0.258 C 
ATOM     89  O   UNL A   1      33.249  21.122  27.257  1.00  0.00    -0.269 OA
BRANCH  88  90
ATOM     90  C   UNL A   1      33.181  20.210  25.079  1.00  0.00     0.081 A 
ATOM     91  C   UNL A   1      32.935  20.724  23.788  1.00  0.00     0.018 A 
ATOM     92  C   UNL A   1      32.853  18.857  25.295  1.00  0.00     0.128 A 
ATOM     93  C   UNL A   1      32.424  19.922  22.758  1.00  0.00     0.001 A 
ATOM     94  C   UNL A   1      32.380  18.043  24.251  1.00  0.00     0.047 A 
ATOM     95  C   UNL A   1      32.157  18.578  22.987  1.00  0.00     0.004 A 
BRANCH  92  96
ATOM     96  O   UNL A   1      32.904  18.282  26.537  1.00  0.00    -0.507 OA
ATOM     97  H   UNL A   1      33.681  18.356  27.056  1.00  0.00     0.293 HD
ENDBRANCH  92  96
ENDBRANCH  88  90
ENDBRANCH  85  88
BRANCH  86  98
ATOM     98  O   UNL A   1      37.757  23.701  25.085  1.00  0.00    -0.391 OA
ATOM     99  H   UNL A   1      38.409  23.612  25.797  1.00  0.00     0.211 HD
ENDBRANCH  86  98
ENDBRANCH  81  83
ENDBRANCH  80  81
ENDBRANCH  79  80
ENDBRANCH  78  79
ENDBRANCH  77  78
ENDBRANCH  76  77
ENDBRANCH   1  76
TORSDOF 24
ENDMDL
