MODEL 1
REMARK VINA RESULT:      -9.9      0.000      0.000
REMARK SMILES CC[C@@H](C)SCc1cc(F)cc(/C=C/C(=O)OCCOCCOCCOCCOC(=O)c2ccc(-c3c4nc(c(-c5c(F)c(F)c(F)c(F)c5F)c5ccc([nH]5)c(-c5c(F)c(F)c(F)c(F)c5F)c5nc(c(-c6c(F)c(F)c(F)c(F)c6F)c6ccc3[nH]6)C=C5)C=C4)cc2)c1
REMARK SMILES IDX 21 1 20 2 19 3 18 4 17 5 15 6 16 7 14 8 13 9 12 10 7 11 8 12
REMARK SMILES IDX 95 13 9 14 10 15 11 16 6 17 5 18 3 19 4 20 2 21 1 22 22 23
REMARK SMILES IDX 23 24 24 25 25 26 26 27 27 28 28 29 29 30 30 31 31 32 32 33
REMARK SMILES IDX 33 34 94 35 34 36 93 37 35 38 36 39 37 40 87 41 38 42 92 43
REMARK SMILES IDX 86 44 88 45 39 46 91 47 85 48 84 49 40 51 72 52 52 53 71 54
REMARK SMILES IDX 53 55 56 56 70 57 89 58 54 59 55 60 69 62 90 63 57 64 41 65
REMARK SMILES IDX 42 66 50 67 43 68 44 69 48 70 51 71 45 72 46 73 49 74 47 75
REMARK SMILES IDX 73 76 74 77 82 78 75 79 76 80 80 81 83 82 77 83 78 84 81 85
REMARK SMILES IDX 79 86 58 87 59 88 67 89 60 90 61 91 65 92 68 93 62 94 63 95
REMARK SMILES IDX 66 96 64 97
REMARK H PARENT 88 50 56 61
REMARK Flexibility Score: inf
ROOT
ATOM      1  C   UNL A   1      40.256  22.944  27.406  1.00  0.00     0.188 C 
ENDROOT
BRANCH   1   2
ATOM      2  O   UNL A   1      39.164  22.706  26.535  1.00  0.00    -0.376 OA
BRANCH   2   3
ATOM      3  C   UNL A   1      38.156  23.690  26.398  1.00  0.00     0.202 C 
BRANCH   3   4
ATOM      4  C   UNL A   1      36.778  23.283  25.856  1.00  0.00     0.261 C 
BRANCH   4   5
ATOM      5  O   UNL A   1      36.705  22.006  25.215  1.00  0.00    -0.460 OA
BRANCH   5   6
ATOM      6  C   UNL A   1      35.477  21.576  24.856  1.00  0.00     0.330 C 
ATOM      7  O   UNL A   1      35.039  20.447  25.005  1.00  0.00    -0.247 OA
BRANCH   6   8
ATOM      8  C   UNL A   1      34.638  22.699  24.381  1.00  0.00     0.094 C 
ATOM      9  C   UNL A   1      34.130  22.800  23.141  1.00  0.00     0.016 C 
BRANCH   9  10
ATOM     10  C   UNL A   1      33.315  23.935  22.678  1.00  0.00    -0.022 A 
ATOM     11  C   UNL A   1      31.742  25.735  23.230  1.00  0.00    -0.035 A 
ATOM     12  C   UNL A   1      31.728  26.119  21.884  1.00  0.00     0.043 A 
ATOM     13  C   UNL A   1      32.562  24.658  23.618  1.00  0.00     0.013 A 
ATOM     14  C   UNL A   1      32.446  25.383  20.950  1.00  0.00     0.124 A 
ATOM     15  F   UNL A   1      32.380  25.723  19.656  1.00  0.00    -0.207 F 
ATOM     16  C   UNL A   1      33.216  24.289  21.329  1.00  0.00     0.047 A 
BRANCH  11  17
ATOM     17  C   UNL A   1      30.886  26.467  24.231  1.00  0.00     0.105 C 
BRANCH  17  18
ATOM     18  S   UNL A   1      29.491  27.395  23.504  1.00  0.00    -0.154 SA
BRANCH  18  19
ATOM     19  C   UNL A   1      30.117  29.129  23.403  1.00  0.00     0.043 C 
ATOM     20  C   UNL A   1      30.062  29.701  21.987  1.00  0.00     0.019 C 
BRANCH  19  21
ATOM     21  C   UNL A   1      31.485  29.293  24.082  1.00  0.00     0.011 C 
ATOM     22  C   UNL A   1      31.409  30.080  25.385  1.00  0.00     0.005 C 
ENDBRANCH  19  21
ENDBRANCH  18  19
ENDBRANCH  17  18
ENDBRANCH  11  17
ENDBRANCH   9  10
ENDBRANCH   6   8
ENDBRANCH   5   6
ENDBRANCH   4   5
ENDBRANCH   3   4
ENDBRANCH   2   3
ENDBRANCH   1   2
BRANCH   1  23
ATOM     23  C   UNL A   1      41.020  21.663  27.801  1.00  0.00     0.188 C 
BRANCH  23  24
ATOM     24  O   UNL A   1      40.575  20.422  27.270  1.00  0.00    -0.377 OA
BRANCH  24  25
ATOM     25  C   UNL A   1      41.153  19.910  26.070  1.00  0.00     0.188 C 
BRANCH  25  26
ATOM     26  C   UNL A   1      42.668  19.623  25.927  1.00  0.00     0.188 C 
BRANCH  26  27
ATOM     27  O   UNL A   1      43.337  20.436  24.980  1.00  0.00    -0.376 OA
BRANCH  27  28
ATOM     28  C   UNL A   1      44.092  21.529  25.469  1.00  0.00     0.202 C 
BRANCH  28  29
ATOM     29  C   UNL A   1      44.359  22.674  24.483  1.00  0.00     0.261 C 
BRANCH  29  30
ATOM     30  O   UNL A   1      43.689  23.914  24.760  1.00  0.00    -0.460 OA
BRANCH  30  31
ATOM     31  C   UNL A   1      44.452  24.954  25.154  1.00  0.00     0.338 C 
ATOM     32  O   UNL A   1      45.511  25.322  24.666  1.00  0.00    -0.246 OA
BRANCH  31  33
ATOM     33  C   UNL A   1      43.700  25.702  26.182  1.00  0.00     0.060 A 
ATOM     34  C   UNL A   1      43.861  27.090  26.272  1.00  0.00     0.016 A 
ATOM     35  C   UNL A   1      42.836  25.031  27.049  1.00  0.00     0.016 A 
ATOM     36  C   UNL A   1      43.184  27.807  27.260  1.00  0.00     0.010 A 
ATOM     37  C   UNL A   1      42.174  25.746  28.050  1.00  0.00     0.010 A 
ATOM     38  C   UNL A   1      42.373  27.132  28.182  1.00  0.00    -0.014 A 
BRANCH  38  39
ATOM     39  C   UNL A   1      41.885  27.838  29.391  1.00  0.00     0.031 A 
ATOM     40  C   UNL A   1      40.618  28.643  29.285  1.00  0.00     0.074 A 
ATOM     41  C   UNL A   1      42.532  27.751  30.566  1.00  0.00     0.049 A 
ATOM     42  N   UNL A   1      40.024  29.383  30.186  1.00  0.00    -0.248 NA
ATOM     43  C   UNL A   1      39.928  28.608  27.985  1.00  0.00     0.031 C 
ATOM     44  C   UNL A   1      43.741  26.966  30.805  1.00  0.00     0.029 A 
ATOM     45  N   UNL A   1      42.262  28.337  31.779  1.00  0.00    -0.354 N 
ATOM     46  C   UNL A   1      38.897  29.901  29.562  1.00  0.00     0.074 A 
ATOM     47  C   UNL A   1      38.906  29.424  28.197  1.00  0.00     0.031 C 
ATOM     48  C   UNL A   1      44.112  27.122  32.088  1.00  0.00     0.029 A 
ATOM     49  C   UNL A   1      43.190  28.047  32.748  1.00  0.00     0.049 A 
ATOM     50  H   UNL A   1      41.478  28.909  31.938  1.00  0.00     0.167 HD
ATOM     51  C   UNL A   1      37.935  30.696  30.086  1.00  0.00     0.037 A 
ATOM     52  C   UNL A   1      43.293  28.494  34.017  1.00  0.00     0.037 A 
ATOM     53  C   UNL A   1      37.928  31.165  31.446  1.00  0.00     0.049 A 
ATOM     54  C   UNL A   1      42.253  29.446  34.554  1.00  0.00     0.074 A 
ATOM     55  C   UNL A   1      36.987  31.962  32.074  1.00  0.00     0.029 A 
ATOM     56  N   UNL A   1      38.909  30.886  32.385  1.00  0.00    -0.354 N 
ATOM     57  N   UNL A   1      41.183  29.922  33.963  1.00  0.00    -0.248 NA
ATOM     58  C   UNL A   1      42.435  29.922  35.933  1.00  0.00     0.031 C 
ATOM     59  C   UNL A   1      37.431  32.219  33.373  1.00  0.00     0.029 A 
ATOM     60  C   UNL A   1      38.611  31.523  33.579  1.00  0.00     0.049 A 
ATOM     61  H   UNL A   1      39.699  30.321  32.227  1.00  0.00     0.167 HD
ATOM     62  C   UNL A   1      40.551  30.726  34.904  1.00  0.00     0.074 A 
ATOM     63  C   UNL A   1      41.350  30.667  36.108  1.00  0.00     0.031 C 
ATOM     64  C   UNL A   1      39.410  31.448  34.777  1.00  0.00     0.037 A 
BRANCH  51  65
ATOM     65  C   UNL A   1      36.811  31.125  29.188  1.00  0.00     0.064 A 
ATOM     66  C   UNL A   1      36.719  32.457  28.758  1.00  0.00     0.173 A 
ATOM     67  C   UNL A   1      35.786  30.243  28.818  1.00  0.00     0.173 A 
ATOM     68  F   UNL A   1      37.672  33.343  29.087  1.00  0.00    -0.203 F 
ATOM     69  C   UNL A   1      35.630  32.896  28.009  1.00  0.00     0.198 A 
ATOM     70  C   UNL A   1      34.715  30.677  28.042  1.00  0.00     0.198 A 
ATOM     71  F   UNL A   1      35.835  28.955  29.190  1.00  0.00    -0.203 F 
ATOM     72  F   UNL A   1      35.544  34.183  27.645  1.00  0.00    -0.200 F 
ATOM     73  C   UNL A   1      34.631  32.005  27.648  1.00  0.00     0.200 A 
ATOM     74  F   UNL A   1      33.762  29.809  27.672  1.00  0.00    -0.200 F 
ATOM     75  F   UNL A   1      33.586  32.426  26.922  1.00  0.00    -0.200 F 
ENDBRANCH  51  65
BRANCH  52  76
ATOM     76  C   UNL A   1      44.427  28.042  34.866  1.00  0.00     0.064 A 
ATOM     77  C   UNL A   1      44.327  26.892  35.664  1.00  0.00     0.173 A 
ATOM     78  C   UNL A   1      45.630  28.759  34.908  1.00  0.00     0.173 A 
ATOM     79  F   UNL A   1      43.199  26.165  35.656  1.00  0.00    -0.203 F 
ATOM     80  C   UNL A   1      45.376  26.494  36.492  1.00  0.00     0.198 A 
ATOM     81  C   UNL A   1      46.690  28.343  35.712  1.00  0.00     0.198 A 
ATOM     82  F   UNL A   1      45.787  29.850  34.142  1.00  0.00    -0.203 F 
ATOM     83  F   UNL A   1      45.237  25.414  37.271  1.00  0.00    -0.200 F 
ATOM     84  C   UNL A   1      46.558  27.218  36.511  1.00  0.00     0.200 A 
ATOM     85  F   UNL A   1      47.841  29.029  35.708  1.00  0.00    -0.200 F 
ATOM     86  F   UNL A   1      47.571  26.828  37.298  1.00  0.00    -0.200 F 
ENDBRANCH  52  76
BRANCH  64  87
ATOM     87  C   UNL A   1      38.923  32.215  35.975  1.00  0.00     0.064 A 
ATOM     88  C   UNL A   1      39.304  33.555  36.161  1.00  0.00     0.173 A 
ATOM     89  C   UNL A   1      38.163  31.606  36.982  1.00  0.00     0.173 A 
ATOM     90  F   UNL A   1      40.042  34.183  35.233  1.00  0.00    -0.203 F 
ATOM     91  C   UNL A   1      38.961  34.245  37.320  1.00  0.00     0.198 A 
ATOM     92  C   UNL A   1      37.791  32.310  38.125  1.00  0.00     0.198 A 
ATOM     93  F   UNL A   1      37.765  30.331  36.849  1.00  0.00    -0.203 F 
ATOM     94  F   UNL A   1      39.376  35.507  37.495  1.00  0.00    -0.200 F 
ATOM     95  C   UNL A   1      38.200  33.624  38.299  1.00  0.00     0.200 A 
ATOM     96  F   UNL A   1      37.035  31.717  39.059  1.00  0.00    -0.200 F 
ATOM     97  F   UNL A   1      37.862  34.292  39.410  1.00  0.00    -0.200 F 
ENDBRANCH  64  87
ENDBRANCH  38  39
ENDBRANCH  31  33
ENDBRANCH  30  31
ENDBRANCH  29  30
ENDBRANCH  28  29
ENDBRANCH  27  28
ENDBRANCH  26  27
ENDBRANCH  25  26
ENDBRANCH  24  25
ENDBRANCH  23  24
ENDBRANCH   1  23
TORSDOF 25
ENDMDL
MODEL 2
REMARK VINA RESULT:      -9.4      0.940      7.143
REMARK SMILES CC[C@@H](C)SCc1cc(F)cc(/C=C/C(=O)OCCOCCOCCOCCOC(=O)c2ccc(-c3c4nc(c(-c5c(F)c(F)c(F)c(F)c5F)c5ccc([nH]5)c(-c5c(F)c(F)c(F)c(F)c5F)c5nc(c(-c6c(F)c(F)c(F)c(F)c6F)c6ccc3[nH]6)C=C5)C=C4)cc2)c1
REMARK SMILES IDX 21 1 20 2 19 3 18 4 17 5 15 6 16 7 14 8 13 9 12 10 7 11 8 12
REMARK SMILES IDX 95 13 9 14 10 15 11 16 6 17 5 18 3 19 4 20 2 21 1 22 22 23
REMARK SMILES IDX 23 24 24 25 25 26 26 27 27 28 28 29 29 30 30 31 31 32 32 33
REMARK SMILES IDX 33 34 94 35 34 36 93 37 35 38 36 39 37 40 87 41 38 42 92 43
REMARK SMILES IDX 86 44 88 45 39 46 91 47 85 48 84 49 40 51 72 52 52 53 71 54
REMARK SMILES IDX 53 55 56 56 70 57 89 58 54 59 55 60 69 62 90 63 57 64 41 65
REMARK SMILES IDX 42 66 50 67 43 68 44 69 48 70 51 71 45 72 46 73 49 74 47 75
REMARK SMILES IDX 73 76 74 77 82 78 75 79 76 80 80 81 83 82 77 83 78 84 81 85
REMARK SMILES IDX 79 86 58 87 59 88 67 89 60 90 61 91 65 92 68 93 62 94 63 95
REMARK SMILES IDX 66 96 64 97
REMARK H PARENT 88 50 56 61
REMARK Flexibility Score: inf
ROOT
ATOM      1  C   UNL A   1      40.212  23.096  27.223  1.00  0.00     0.188 C 
ENDROOT
BRANCH   1   2
ATOM      2  O   UNL A   1      39.264  22.840  26.201  1.00  0.00    -0.376 OA
BRANCH   2   3
ATOM      3  C   UNL A   1      37.960  23.377  26.312  1.00  0.00     0.202 C 
BRANCH   3   4
ATOM      4  C   UNL A   1      36.886  22.957  25.297  1.00  0.00     0.261 C 
BRANCH   4   5
ATOM      5  O   UNL A   1      36.437  21.601  25.380  1.00  0.00    -0.460 OA
BRANCH   5   6
ATOM      6  C   UNL A   1      35.188  21.347  24.937  1.00  0.00     0.330 C 
ATOM      7  O   UNL A   1      34.594  20.285  25.030  1.00  0.00    -0.247 OA
BRANCH   6   8
ATOM      8  C   UNL A   1      34.538  22.582  24.442  1.00  0.00     0.094 C 
ATOM      9  C   UNL A   1      34.250  22.827  23.152  1.00  0.00     0.016 C 
BRANCH   9  10
ATOM     10  C   UNL A   1      33.623  24.070  22.674  1.00  0.00    -0.022 A 
ATOM     11  C   UNL A   1      32.782  26.316  23.194  1.00  0.00    -0.035 A 
ATOM     12  C   UNL A   1      32.428  26.481  21.850  1.00  0.00     0.043 A 
ATOM     13  C   UNL A   1      33.404  25.115  23.587  1.00  0.00     0.013 A 
ATOM     14  C   UNL A   1      32.615  25.435  20.954  1.00  0.00     0.124 A 
ATOM     15  F   UNL A   1      32.220  25.583  19.683  1.00  0.00    -0.207 F 
ATOM     16  C   UNL A   1      33.184  24.232  21.357  1.00  0.00     0.047 A 
BRANCH  11  17
ATOM     17  C   UNL A   1      32.490  27.408  24.190  1.00  0.00     0.105 C 
BRANCH  17  18
ATOM     18  S   UNL A   1      30.749  27.958  24.227  1.00  0.00    -0.154 SA
BRANCH  18  19
ATOM     19  C   UNL A   1      30.867  29.801  24.244  1.00  0.00     0.043 C 
ATOM     20  C   UNL A   1      31.424  30.350  25.556  1.00  0.00     0.019 C 
BRANCH  19  21
ATOM     21  C   UNL A   1      29.557  30.471  23.802  1.00  0.00     0.011 C 
ATOM     22  C   UNL A   1      29.274  30.295  22.314  1.00  0.00     0.005 C 
ENDBRANCH  19  21
ENDBRANCH  18  19
ENDBRANCH  17  18
ENDBRANCH  11  17
ENDBRANCH   9  10
ENDBRANCH   6   8
ENDBRANCH   5   6
ENDBRANCH   4   5
ENDBRANCH   3   4
ENDBRANCH   2   3
ENDBRANCH   1   2
BRANCH   1  23
ATOM     23  C   UNL A   1      40.947  21.832  27.713  1.00  0.00     0.188 C 
BRANCH  23  24
ATOM     24  O   UNL A   1      40.412  20.563  27.364  1.00  0.00    -0.377 OA
BRANCH  24  25
ATOM     25  C   UNL A   1      40.962  19.832  26.268  1.00  0.00     0.188 C 
BRANCH  25  26
ATOM     26  C   UNL A   1      42.473  19.518  26.146  1.00  0.00     0.188 C 
BRANCH  26  27
ATOM     27  O   UNL A   1      43.169  20.315  25.204  1.00  0.00    -0.376 OA
BRANCH  27  28
ATOM     28  C   UNL A   1      43.760  21.515  25.668  1.00  0.00     0.202 C 
BRANCH  28  29
ATOM     29  C   UNL A   1      44.479  22.375  24.621  1.00  0.00     0.261 C 
BRANCH  29  30
ATOM     30  O   UNL A   1      44.025  23.733  24.501  1.00  0.00    -0.460 OA
BRANCH  30  31
ATOM     31  C   UNL A   1      44.868  24.704  24.911  1.00  0.00     0.338 C 
ATOM     32  O   UNL A   1      45.996  24.928  24.499  1.00  0.00    -0.246 OA
BRANCH  31  33
ATOM     33  C   UNL A   1      44.126  25.582  25.838  1.00  0.00     0.060 A 
ATOM     34  C   UNL A   1      44.411  26.954  25.857  1.00  0.00     0.016 A 
ATOM     35  C   UNL A   1      43.149  25.051  26.682  1.00  0.00     0.016 A 
ATOM     36  C   UNL A   1      43.744  27.793  26.751  1.00  0.00     0.010 A 
ATOM     37  C   UNL A   1      42.495  25.888  27.590  1.00  0.00     0.010 A 
ATOM     38  C   UNL A   1      42.816  27.256  27.652  1.00  0.00    -0.014 A 
BRANCH  38  39
ATOM     39  C   UNL A   1      42.321  28.082  28.781  1.00  0.00     0.031 A 
ATOM     40  C   UNL A   1      43.162  28.169  30.024  1.00  0.00     0.074 A 
ATOM     41  C   UNL A   1      41.164  28.761  28.699  1.00  0.00     0.049 A 
ATOM     42  N   UNL A   1      42.920  28.784  31.153  1.00  0.00    -0.248 NA
ATOM     43  C   UNL A   1      44.456  27.466  29.990  1.00  0.00     0.031 C 
ATOM     44  C   UNL A   1      40.286  28.794  27.533  1.00  0.00     0.029 A 
ATOM     45  N   UNL A   1      40.528  29.552  29.625  1.00  0.00    -0.354 N 
ATOM     46  C   UNL A   1      44.023  28.539  31.959  1.00  0.00     0.074 A 
ATOM     47  C   UNL A   1      44.922  27.691  31.209  1.00  0.00     0.031 C 
ATOM     48  C   UNL A   1      39.220  29.564  27.814  1.00  0.00     0.029 A 
ATOM     49  C   UNL A   1      39.323  30.046  29.192  1.00  0.00     0.049 A 
ATOM     50  H   UNL A   1      40.901  29.748  30.515  1.00  0.00     0.167 HD
ATOM     51  C   UNL A   1      44.268  28.993  33.211  1.00  0.00     0.037 A 
ATOM     52  C   UNL A   1      38.399  30.784  29.841  1.00  0.00     0.037 A 
ATOM     53  C   UNL A   1      43.372  29.840  33.953  1.00  0.00     0.049 A 
ATOM     54  C   UNL A   1      38.658  31.209  31.265  1.00  0.00     0.074 A 
ATOM     55  C   UNL A   1      43.541  30.363  35.222  1.00  0.00     0.029 A 
ATOM     56  N   UNL A   1      42.140  30.282  33.495  1.00  0.00    -0.354 N 
ATOM     57  N   UNL A   1      39.709  30.986  32.018  1.00  0.00    -0.248 NA
ATOM     58  C   UNL A   1      37.602  31.987  31.931  1.00  0.00     0.031 C 
ATOM     59  C   UNL A   1      42.384  31.068  35.559  1.00  0.00     0.029 A 
ATOM     60  C   UNL A   1      41.524  31.046  34.473  1.00  0.00     0.049 A 
ATOM     61  H   UNL A   1      41.760  30.081  32.611  1.00  0.00     0.167 HD
ATOM     62  C   UNL A   1      39.456  31.619  33.229  1.00  0.00     0.074 A 
ATOM     63  C   UNL A   1      38.157  32.244  33.109  1.00  0.00     0.031 C 
ATOM     64  C   UNL A   1      40.232  31.674  34.339  1.00  0.00     0.037 A 
BRANCH  51  65
ATOM     65  C   UNL A   1      45.549  28.574  33.871  1.00  0.00     0.064 A 
ATOM     66  C   UNL A   1      46.721  29.321  33.680  1.00  0.00     0.173 A 
ATOM     67  C   UNL A   1      45.638  27.396  34.626  1.00  0.00     0.173 A 
ATOM     68  F   UNL A   1      46.692  30.456  32.964  1.00  0.00    -0.203 F 
ATOM     69  C   UNL A   1      47.939  28.892  34.202  1.00  0.00     0.198 A 
ATOM     70  C   UNL A   1      46.851  26.986  35.173  1.00  0.00     0.198 A 
ATOM     71  F   UNL A   1      44.543  26.653  34.851  1.00  0.00    -0.203 F 
ATOM     72  F   UNL A   1      49.052  29.602  33.970  1.00  0.00    -0.200 F 
ATOM     73  C   UNL A   1      48.002  27.728  34.951  1.00  0.00     0.200 A 
ATOM     74  F   UNL A   1      46.907  25.873  35.919  1.00  0.00    -0.200 F 
ATOM     75  F   UNL A   1      49.173  27.318  35.458  1.00  0.00    -0.200 F 
ENDBRANCH  51  65
BRANCH  52  76
ATOM     76  C   UNL A   1      37.144  31.171  29.144  1.00  0.00     0.064 A 
ATOM     77  C   UNL A   1      36.132  30.233  28.889  1.00  0.00     0.173 A 
ATOM     78  C   UNL A   1      36.936  32.486  28.705  1.00  0.00     0.173 A 
ATOM     79  F   UNL A   1      36.277  28.962  29.293  1.00  0.00    -0.203 F 
ATOM     80  C   UNL A   1      34.975  30.589  28.198  1.00  0.00     0.198 A 
ATOM     81  C   UNL A   1      35.765  32.848  28.042  1.00  0.00     0.198 A 
ATOM     82  F   UNL A   1      37.860  33.428  28.950  1.00  0.00    -0.203 F 
ATOM     83  F   UNL A   1      34.043  29.663  27.936  1.00  0.00    -0.200 F 
ATOM     84  C   UNL A   1      34.791  31.897  27.779  1.00  0.00     0.200 A 
ATOM     85  F   UNL A   1      35.578  34.120  27.664  1.00  0.00    -0.200 F 
ATOM     86  F   UNL A   1      33.672  32.243  27.126  1.00  0.00    -0.200 F 
ENDBRANCH  52  76
BRANCH  64  87
ATOM     87  C   UNL A   1      39.728  32.462  35.516  1.00  0.00     0.064 A 
ATOM     88  C   UNL A   1      38.842  31.874  36.435  1.00  0.00     0.173 A 
ATOM     89  C   UNL A   1      40.041  33.818  35.684  1.00  0.00     0.173 A 
ATOM     90  F   UNL A   1      38.501  30.583  36.313  1.00  0.00    -0.203 F 
ATOM     91  C   UNL A   1      38.274  32.621  37.463  1.00  0.00     0.198 A 
ATOM     92  C   UNL A   1      39.497  34.554  36.734  1.00  0.00     0.198 A 
ATOM     93  F   UNL A   1      40.889  34.425  34.839  1.00  0.00    -0.203 F 
ATOM     94  F   UNL A   1      37.395  32.050  38.298  1.00  0.00    -0.200 F 
ATOM     95  C   UNL A   1      38.605  33.959  37.614  1.00  0.00     0.200 A 
ATOM     96  F   UNL A   1      39.836  35.840  36.895  1.00  0.00    -0.200 F 
ATOM     97  F   UNL A   1      38.064  34.675  38.610  1.00  0.00    -0.200 F 
ENDBRANCH  64  87
ENDBRANCH  38  39
ENDBRANCH  31  33
ENDBRANCH  30  31
ENDBRANCH  29  30
ENDBRANCH  28  29
ENDBRANCH  27  28
ENDBRANCH  26  27
ENDBRANCH  25  26
ENDBRANCH  24  25
ENDBRANCH  23  24
ENDBRANCH   1  23
TORSDOF 25
ENDMDL
MODEL 3
REMARK VINA RESULT:      -9.3      5.863     12.927
REMARK SMILES CC[C@@H](C)SCc1cc(F)cc(/C=C/C(=O)OCCOCCOCCOCCOC(=O)c2ccc(-c3c4nc(c(-c5c(F)c(F)c(F)c(F)c5F)c5ccc([nH]5)c(-c5c(F)c(F)c(F)c(F)c5F)c5nc(c(-c6c(F)c(F)c(F)c(F)c6F)c6ccc3[nH]6)C=C5)C=C4)cc2)c1
REMARK SMILES IDX 21 1 20 2 19 3 18 4 17 5 15 6 16 7 14 8 13 9 12 10 7 11 8 12
REMARK SMILES IDX 95 13 9 14 10 15 11 16 6 17 5 18 3 19 4 20 2 21 1 22 22 23
REMARK SMILES IDX 23 24 24 25 25 26 26 27 27 28 28 29 29 30 30 31 31 32 32 33
REMARK SMILES IDX 33 34 94 35 34 36 93 37 35 38 36 39 37 40 87 41 38 42 92 43
REMARK SMILES IDX 86 44 88 45 39 46 91 47 85 48 84 49 40 51 72 52 52 53 71 54
REMARK SMILES IDX 53 55 56 56 70 57 89 58 54 59 55 60 69 62 90 63 57 64 41 65
REMARK SMILES IDX 42 66 50 67 43 68 44 69 48 70 51 71 45 72 46 73 49 74 47 75
REMARK SMILES IDX 73 76 74 77 82 78 75 79 76 80 80 81 83 82 77 83 78 84 81 85
REMARK SMILES IDX 79 86 58 87 59 88 67 89 60 90 61 91 65 92 68 93 62 94 63 95
REMARK SMILES IDX 66 96 64 97
REMARK H PARENT 88 50 56 61
REMARK Flexibility Score: inf
ROOT
ATOM      1  C   UNL A   1      34.247  35.964  33.965  1.00  0.00     0.188 C 
ENDROOT
BRANCH   1   2
ATOM      2  O   UNL A   1      35.497  35.305  33.855  1.00  0.00    -0.376 OA
BRANCH   2   3
ATOM      3  C   UNL A   1      35.589  34.107  33.108  1.00  0.00     0.202 C 
BRANCH   3   4
ATOM      4  C   UNL A   1      36.450  34.078  31.837  1.00  0.00     0.261 C 
BRANCH   4   5
ATOM      5  O   UNL A   1      37.669  33.332  31.920  1.00  0.00    -0.460 OA
BRANCH   5   6
ATOM      6  C   UNL A   1      38.784  34.025  32.232  1.00  0.00     0.330 C 
ATOM      7  O   UNL A   1      39.475  34.663  31.455  1.00  0.00    -0.247 OA
BRANCH   6   8
ATOM      8  C   UNL A   1      39.002  34.050  33.696  1.00  0.00     0.094 C 
ATOM      9  C   UNL A   1      39.166  35.168  34.424  1.00  0.00     0.016 C 
BRANCH   9  10
ATOM     10  C   UNL A   1      39.405  35.173  35.876  1.00  0.00    -0.022 A 
ATOM     11  C   UNL A   1      39.197  34.014  38.029  1.00  0.00    -0.035 A 
ATOM     12  C   UNL A   1      39.821  35.096  38.659  1.00  0.00     0.043 A 
ATOM     13  C   UNL A   1      39.020  34.054  36.632  1.00  0.00     0.013 A 
ATOM     14  C   UNL A   1      40.172  36.217  37.916  1.00  0.00     0.124 A 
ATOM     15  F   UNL A   1      40.717  37.271  38.538  1.00  0.00    -0.207 F 
ATOM     16  C   UNL A   1      39.951  36.273  36.544  1.00  0.00     0.047 A 
BRANCH  11  17
ATOM     17  C   UNL A   1      38.724  32.838  38.844  1.00  0.00     0.105 C 
BRANCH  17  18
ATOM     18  S   UNL A   1      37.800  33.284  40.356  1.00  0.00    -0.154 SA
BRANCH  18  19
ATOM     19  C   UNL A   1      37.310  31.654  41.072  1.00  0.00     0.043 C 
ATOM     20  C   UNL A   1      35.808  31.542  41.325  1.00  0.00     0.019 C 
BRANCH  19  21
ATOM     21  C   UNL A   1      38.171  31.270  42.285  1.00  0.00     0.011 C 
ATOM     22  C   UNL A   1      38.136  29.776  42.588  1.00  0.00     0.005 C 
ENDBRANCH  19  21
ENDBRANCH  18  19
ENDBRANCH  17  18
ENDBRANCH  11  17
ENDBRANCH   9  10
ENDBRANCH   6   8
ENDBRANCH   5   6
ENDBRANCH   4   5
ENDBRANCH   3   4
ENDBRANCH   2   3
ENDBRANCH   1   2
BRANCH   1  23
ATOM     23  C   UNL A   1      34.014  37.030  32.876  1.00  0.00     0.188 C 
BRANCH  23  24
ATOM     24  O   UNL A   1      32.707  37.169  32.336  1.00  0.00    -0.377 OA
BRANCH  24  25
ATOM     25  C   UNL A   1      32.352  36.482  31.137  1.00  0.00     0.188 C 
BRANCH  25  26
ATOM     26  C   UNL A   1      33.323  35.526  30.400  1.00  0.00     0.188 C 
BRANCH  26  27
ATOM     27  O   UNL A   1      33.034  35.333  29.027  1.00  0.00    -0.376 OA
BRANCH  27  28
ATOM     28  C   UNL A   1      33.964  34.594  28.257  1.00  0.00     0.202 C 
BRANCH  28  29
ATOM     29  C   UNL A   1      33.702  33.089  28.123  1.00  0.00     0.261 C 
BRANCH  29  30
ATOM     30  O   UNL A   1      34.863  32.243  28.124  1.00  0.00    -0.460 OA
BRANCH  30  31
ATOM     31  C   UNL A   1      34.657  30.911  28.073  1.00  0.00     0.338 C 
ATOM     32  O   UNL A   1      33.634  30.332  27.741  1.00  0.00    -0.246 OA
BRANCH  31  33
ATOM     33  C   UNL A   1      35.952  30.245  28.319  1.00  0.00     0.060 A 
ATOM     34  C   UNL A   1      36.180  29.629  29.557  1.00  0.00     0.016 A 
ATOM     35  C   UNL A   1      36.934  30.226  27.328  1.00  0.00     0.016 A 
ATOM     36  C   UNL A   1      37.411  29.025  29.819  1.00  0.00     0.010 A 
ATOM     37  C   UNL A   1      38.173  29.638  27.598  1.00  0.00     0.010 A 
ATOM     38  C   UNL A   1      38.428  29.067  28.857  1.00  0.00    -0.014 A 
BRANCH  38  39
ATOM     39  C   UNL A   1      39.812  28.684  29.229  1.00  0.00     0.031 A 
ATOM     40  C   UNL A   1      40.590  29.607  30.127  1.00  0.00     0.074 A 
ATOM     41  C   UNL A   1      40.362  27.534  28.804  1.00  0.00     0.049 A 
ATOM     42  N   UNL A   1      41.825  29.513  30.549  1.00  0.00    -0.248 NA
ATOM     43  C   UNL A   1      39.877  30.798  30.618  1.00  0.00     0.031 C 
ATOM     44  C   UNL A   1      39.693  26.538  27.971  1.00  0.00     0.029 A 
ATOM     45  N   UNL A   1      41.616  27.014  29.014  1.00  0.00    -0.354 N 
ATOM     46  C   UNL A   1      42.036  30.630  31.347  1.00  0.00     0.074 A 
ATOM     47  C   UNL A   1      40.817  31.407  31.325  1.00  0.00     0.031 C 
ATOM     48  C   UNL A   1      40.547  25.526  27.736  1.00  0.00     0.029 A 
ATOM     49  C   UNL A   1      41.832  25.821  28.370  1.00  0.00     0.049 A 
ATOM     50  H   UNL A   1      42.295  27.454  29.575  1.00  0.00     0.167 HD
ATOM     51  C   UNL A   1      43.145  30.968  32.045  1.00  0.00     0.037 A 
ATOM     52  C   UNL A   1      42.947  25.066  28.285  1.00  0.00     0.037 A 
ATOM     53  C   UNL A   1      44.354  30.189  32.067  1.00  0.00     0.049 A 
ATOM     54  C   UNL A   1      44.197  25.507  29.004  1.00  0.00     0.074 A 
ATOM     55  C   UNL A   1      45.525  30.444  32.758  1.00  0.00     0.029 A 
ATOM     56  N   UNL A   1      44.549  29.010  31.365  1.00  0.00    -0.354 N 
ATOM     57  N   UNL A   1      44.386  26.557  29.768  1.00  0.00    -0.248 NA
ATOM     58  C   UNL A   1      45.389  24.660  28.851  1.00  0.00     0.031 C 
ATOM     59  C   UNL A   1      46.451  29.453  32.423  1.00  0.00     0.029 A 
ATOM     60  C   UNL A   1      45.835  28.541  31.582  1.00  0.00     0.049 A 
ATOM     61  H   UNL A   1      43.875  28.571  30.797  1.00  0.00     0.167 HD
ATOM     62  C   UNL A   1      45.702  26.481  30.208  1.00  0.00     0.074 A 
ATOM     63  C   UNL A   1      46.264  25.276  29.636  1.00  0.00     0.031 C 
ATOM     64  C   UNL A   1      46.381  27.333  31.014  1.00  0.00     0.037 A 
BRANCH  51  65
ATOM     65  C   UNL A   1      43.115  32.244  32.835  1.00  0.00     0.064 A 
ATOM     66  C   UNL A   1      42.721  32.234  34.181  1.00  0.00     0.173 A 
ATOM     67  C   UNL A   1      43.398  33.484  32.243  1.00  0.00     0.173 A 
ATOM     68  F   UNL A   1      42.437  31.076  34.795  1.00  0.00    -0.203 F 
ATOM     69  C   UNL A   1      42.591  33.420  34.899  1.00  0.00     0.198 A 
ATOM     70  C   UNL A   1      43.298  34.665  32.973  1.00  0.00     0.198 A 
ATOM     71  F   UNL A   1      43.794  33.546  30.962  1.00  0.00    -0.203 F 
ATOM     72  F   UNL A   1      42.174  33.388  36.173  1.00  0.00    -0.200 F 
ATOM     73  C   UNL A   1      42.883  34.634  34.296  1.00  0.00     0.200 A 
ATOM     74  F   UNL A   1      43.605  35.836  32.396  1.00  0.00    -0.200 F 
ATOM     75  F   UNL A   1      42.763  35.774  34.990  1.00  0.00    -0.200 F 
ENDBRANCH  51  65
BRANCH  52  76
ATOM     76  C   UNL A   1      42.926  23.812  27.487  1.00  0.00     0.064 A 
ATOM     77  C   UNL A   1      43.289  23.803  26.131  1.00  0.00     0.173 A 
ATOM     78  C   UNL A   1      42.530  22.596  28.061  1.00  0.00     0.173 A 
ATOM     79  F   UNL A   1      43.682  24.938  25.534  1.00  0.00    -0.203 F 
ATOM     80  C   UNL A   1      43.228  22.633  25.376  1.00  0.00     0.198 A 
ATOM     81  C   UNL A   1      42.499  21.421  27.313  1.00  0.00     0.198 A 
ATOM     82  F   UNL A   1      42.201  22.545  29.361  1.00  0.00    -0.203 F 
ATOM     83  F   UNL A   1      43.544  22.663  24.074  1.00  0.00    -0.200 F 
ATOM     84  C   UNL A   1      42.837  21.443  25.968  1.00  0.00     0.200 A 
ATOM     85  F   UNL A   1      42.149  20.267  27.895  1.00  0.00    -0.200 F 
ATOM     86  F   UNL A   1      42.792  20.315  25.244  1.00  0.00    -0.200 F 
ENDBRANCH  52  76
BRANCH  64  87
ATOM     87  C   UNL A   1      47.803  26.994  31.364  1.00  0.00     0.064 A 
ATOM     88  C   UNL A   1      48.091  26.258  32.526  1.00  0.00     0.173 A 
ATOM     89  C   UNL A   1      48.883  27.472  30.609  1.00  0.00     0.173 A 
ATOM     90  F   UNL A   1      47.095  25.787  33.291  1.00  0.00    -0.203 F 
ATOM     91  C   UNL A   1      49.404  26.036  32.929  1.00  0.00     0.198 A 
ATOM     92  C   UNL A   1      50.196  27.218  30.996  1.00  0.00     0.198 A 
ATOM     93  F   UNL A   1      48.663  28.172  29.485  1.00  0.00    -0.203 F 
ATOM     94  F   UNL A   1      49.652  25.372  34.066  1.00  0.00    -0.200 F 
ATOM     95  C   UNL A   1      50.456  26.511  32.161  1.00  0.00     0.200 A 
ATOM     96  F   UNL A   1      51.212  27.657  30.240  1.00  0.00    -0.200 F 
ATOM     97  F   UNL A   1      51.721  26.288  32.544  1.00  0.00    -0.200 F 
ENDBRANCH  64  87
ENDBRANCH  38  39
ENDBRANCH  31  33
ENDBRANCH  30  31
ENDBRANCH  29  30
ENDBRANCH  28  29
ENDBRANCH  27  28
ENDBRANCH  26  27
ENDBRANCH  25  26
ENDBRANCH  24  25
ENDBRANCH  23  24
ENDBRANCH   1  23
TORSDOF 25
ENDMDL
