MODEL 1
REMARK VINA RESULT:      -7.1      0.000      0.000
REMARK SMILES C[C@@H](C(=O)OCCOCCOCCOCCOC(=O)c1ccc(-c2c3nc(c(-c4c(F)c(F)c(F)c(F)c4F)c4ccc([nH]4)c(-c4c(F)c(F)c(F)c(F)c4F)c4nc(c(-c5c(F)c(F)c(F)c(F)c5F)c5ccc2[nH]5)C=C4)C=C3)cc1)c1ccc(C[C@H]2CCC[C@H]2O)cc1
REMARK SMILES IDX 10 1 9 2 8 3 7 4 6 5 5 6 3 7 4 8 2 9 1 10 83 11 84 12 95 13
REMARK SMILES IDX 85 14 94 15 86 16 87 17 88 18 89 19 92 20 90 21 91 22 93 23
REMARK SMILES IDX 11 25 12 26 13 27 14 28 15 29 16 30 17 31 18 32 19 33 20 34
REMARK SMILES IDX 21 35 82 36 22 37 81 38 23 39 24 40 25 41 75 42 26 43 80 44
REMARK SMILES IDX 74 45 76 46 27 47 79 48 73 49 72 50 28 52 60 53 40 54 59 55
REMARK SMILES IDX 41 56 44 57 58 58 77 59 42 60 43 61 57 63 78 64 45 65 29 66
REMARK SMILES IDX 30 67 38 68 31 69 32 70 36 71 39 72 33 73 34 74 37 75 35 76
REMARK SMILES IDX 61 77 62 78 70 79 63 80 64 81 68 82 71 83 65 84 66 85 69 86
REMARK SMILES IDX 67 87 46 88 47 89 55 90 48 91 49 92 53 93 56 94 50 95 51 96
REMARK SMILES IDX 54 97 52 98
REMARK H PARENT 93 24 76 51 44 62
REMARK Flexibility Score: inf
ROOT
ATOM      1  C   UNL A   1      36.969  34.558  33.594  1.00  0.00     0.188 C 
ENDROOT
BRANCH   1   2
ATOM      2  C   UNL A   1      36.434  33.290  34.284  1.00  0.00     0.188 C 
BRANCH   2   3
ATOM      3  O   UNL A   1      36.844  32.978  35.606  1.00  0.00    -0.376 OA
BRANCH   3   4
ATOM      4  C   UNL A   1      37.786  31.943  35.841  1.00  0.00     0.202 C 
BRANCH   4   5
ATOM      5  C   UNL A   1      38.430  31.123  34.702  1.00  0.00     0.261 C 
BRANCH   5   6
ATOM      6  O   UNL A   1      39.393  31.784  33.861  1.00  0.00    -0.463 OA
BRANCH   6   7
ATOM      7  C   UNL A   1      40.631  31.970  34.383  1.00  0.00     0.313 C 
ATOM      8  O   UNL A   1      41.280  33.002  34.225  1.00  0.00    -0.252 OA
BRANCH   7   9
ATOM      9  C   UNL A   1      41.163  30.775  35.207  1.00  0.00     0.126 C 
ATOM     10  C   UNL A   1      41.913  31.067  36.516  1.00  0.00     0.025 C 
BRANCH   9  11
ATOM     11  C   UNL A   1      41.867  29.776  34.285  1.00  0.00    -0.034 A 
ATOM     12  C   UNL A   1      41.197  28.774  33.566  1.00  0.00     0.005 A 
ATOM     13  C   UNL A   1      43.268  29.766  34.265  1.00  0.00     0.005 A 
ATOM     14  C   UNL A   1      41.904  27.747  32.932  1.00  0.00     0.004 A 
ATOM     15  C   UNL A   1      43.974  28.744  33.626  1.00  0.00     0.004 A 
ATOM     16  C   UNL A   1      43.297  27.690  33.002  1.00  0.00    -0.048 A 
BRANCH  16  17
ATOM     17  C   UNL A   1      44.057  26.508  32.453  1.00  0.00     0.041 C 
BRANCH  17  18
ATOM     18  C   UNL A   1      44.259  25.293  33.380  1.00  0.00     0.022 C 
ATOM     19  C   UNL A   1      44.044  23.905  32.751  1.00  0.00     0.007 C 
ATOM     20  C   UNL A   1      45.594  25.174  34.131  1.00  0.00     0.117 C 
ATOM     21  C   UNL A   1      44.948  22.941  33.525  1.00  0.00     0.003 C 
ATOM     22  C   UNL A   1      45.545  23.749  34.672  1.00  0.00     0.032 C 
BRANCH  20  23
ATOM     23  O   UNL A   1      46.741  25.326  33.313  1.00  0.00    -0.393 OA
ATOM     24  H   UNL A   1      47.458  24.769  33.656  1.00  0.00     0.210 HD
ENDBRANCH  20  23
ENDBRANCH  17  18
ENDBRANCH  16  17
ENDBRANCH   9  11
ENDBRANCH   7   9
ENDBRANCH   6   7
ENDBRANCH   5   6
ENDBRANCH   4   5
ENDBRANCH   3   4
ENDBRANCH   2   3
ENDBRANCH   1   2
BRANCH   1  25
ATOM     25  O   UNL A   1      35.997  35.316  32.901  1.00  0.00    -0.377 OA
BRANCH  25  26
ATOM     26  C   UNL A   1      34.702  34.749  32.797  1.00  0.00     0.188 C 
BRANCH  26  27
ATOM     27  C   UNL A   1      33.653  35.465  31.926  1.00  0.00     0.188 C 
BRANCH  27  28
ATOM     28  O   UNL A   1      33.284  34.749  30.754  1.00  0.00    -0.376 OA
BRANCH  28  29
ATOM     29  C   UNL A   1      34.272  34.481  29.770  1.00  0.00     0.202 C 
BRANCH  29  30
ATOM     30  C   UNL A   1      34.256  33.089  29.117  1.00  0.00     0.261 C 
BRANCH  30  31
ATOM     31  O   UNL A   1      35.485  32.349  29.164  1.00  0.00    -0.460 OA
BRANCH  31  32
ATOM     32  C   UNL A   1      35.828  31.772  30.333  1.00  0.00     0.338 C 
ATOM     33  O   UNL A   1      35.154  31.701  31.347  1.00  0.00    -0.246 OA
BRANCH  32  34
ATOM     34  C   UNL A   1      37.100  31.051  30.122  1.00  0.00     0.060 A 
ATOM     35  C   UNL A   1      37.612  30.264  31.164  1.00  0.00     0.016 A 
ATOM     36  C   UNL A   1      37.776  31.134  28.903  1.00  0.00     0.016 A 
ATOM     37  C   UNL A   1      38.820  29.587  31.000  1.00  0.00     0.010 A 
ATOM     38  C   UNL A   1      38.999  30.476  28.748  1.00  0.00     0.010 A 
ATOM     39  C   UNL A   1      39.543  29.729  29.809  1.00  0.00    -0.014 A 
BRANCH  39  40
ATOM     40  C   UNL A   1      40.956  29.282  29.753  1.00  0.00     0.031 A 
ATOM     41  C   UNL A   1      42.013  30.207  30.292  1.00  0.00     0.074 A 
ATOM     42  C   UNL A   1      41.298  28.078  29.263  1.00  0.00     0.049 A 
ATOM     43  N   UNL A   1      43.314  30.071  30.309  1.00  0.00    -0.248 NA
ATOM     44  C   UNL A   1      41.532  31.464  30.891  1.00  0.00     0.031 C 
ATOM     45  C   UNL A   1      40.365  27.073  28.761  1.00  0.00     0.029 A 
ATOM     46  N   UNL A   1      42.535  27.501  29.102  1.00  0.00    -0.354 N 
ATOM     47  C   UNL A   1      43.805  31.224  30.908  1.00  0.00     0.074 A 
ATOM     48  C   UNL A   1      42.668  32.064  31.213  1.00  0.00     0.031 C 
ATOM     49  C   UNL A   1      41.063  26.005  28.336  1.00  0.00     0.029 A 
ATOM     50  C   UNL A   1      42.492  26.267  28.501  1.00  0.00     0.049 A 
ATOM     51  H   UNL A   1      43.371  27.932  29.389  1.00  0.00     0.167 HD
ATOM     52  C   UNL A   1      45.089  31.550  31.184  1.00  0.00     0.037 A 
ATOM     53  C   UNL A   1      43.497  25.459  28.108  1.00  0.00     0.037 A 
ATOM     54  C   UNL A   1      46.217  30.713  30.878  1.00  0.00     0.049 A 
ATOM     55  C   UNL A   1      44.925  25.884  28.351  1.00  0.00     0.074 A 
ATOM     56  C   UNL A   1      47.557  30.943  31.136  1.00  0.00     0.029 A 
ATOM     57  N   UNL A   1      46.138  29.487  30.233  1.00  0.00    -0.354 N 
ATOM     58  N   UNL A   1      45.382  26.963  28.942  1.00  0.00    -0.248 NA
ATOM     59  C   UNL A   1      45.977  24.978  27.871  1.00  0.00     0.031 C 
ATOM     60  C   UNL A   1      48.294  29.889  30.587  1.00  0.00     0.029 A 
ATOM     61  C   UNL A   1      47.409  28.965  30.053  1.00  0.00     0.049 A 
ATOM     62  H   UNL A   1      45.303  29.052  29.946  1.00  0.00     0.167 HD
ATOM     63  C   UNL A   1      46.767  26.846  28.938  1.00  0.00     0.074 A 
ATOM     64  C   UNL A   1      47.076  25.585  28.296  1.00  0.00     0.031 C 
ATOM     65  C   UNL A   1      47.700  27.702  29.424  1.00  0.00     0.037 A 
BRANCH  52  66
ATOM     66  C   UNL A   1      45.346  32.888  31.816  1.00  0.00     0.064 A 
ATOM     67  C   UNL A   1      45.424  34.066  31.058  1.00  0.00     0.173 A 
ATOM     68  C   UNL A   1      45.486  32.996  33.209  1.00  0.00     0.173 A 
ATOM     69  F   UNL A   1      45.313  34.019  29.723  1.00  0.00    -0.203 F 
ATOM     70  C   UNL A   1      45.660  35.297  31.667  1.00  0.00     0.198 A 
ATOM     71  C   UNL A   1      45.688  34.231  33.817  1.00  0.00     0.198 A 
ATOM     72  F   UNL A   1      45.420  31.901  33.982  1.00  0.00    -0.203 F 
ATOM     73  F   UNL A   1      45.783  36.401  30.918  1.00  0.00    -0.200 F 
ATOM     74  C   UNL A   1      45.783  35.379  33.047  1.00  0.00     0.200 A 
ATOM     75  F   UNL A   1      45.792  34.309  35.152  1.00  0.00    -0.200 F 
ATOM     76  F   UNL A   1      46.002  36.565  33.632  1.00  0.00    -0.200 F 
ENDBRANCH  52  66
BRANCH  53  77
ATOM     77  C   UNL A   1      43.199  24.168  27.431  1.00  0.00     0.064 A 
ATOM     78  C   UNL A   1      42.824  23.033  28.165  1.00  0.00     0.173 A 
ATOM     79  C   UNL A   1      43.319  24.030  26.040  1.00  0.00     0.173 A 
ATOM     80  F   UNL A   1      42.723  23.104  29.501  1.00  0.00    -0.203 F 
ATOM     81  C   UNL A   1      42.605  21.808  27.538  1.00  0.00     0.198 A 
ATOM     82  C   UNL A   1      43.067  22.813  25.410  1.00  0.00     0.198 A 
ATOM     83  F   UNL A   1      43.680  25.081  25.288  1.00  0.00    -0.203 F 
ATOM     84  F   UNL A   1      42.305  20.727  28.270  1.00  0.00    -0.200 F 
ATOM     85  C   UNL A   1      42.721  21.700  26.160  1.00  0.00     0.200 A 
ATOM     86  F   UNL A   1      43.169  22.717  24.077  1.00  0.00    -0.200 F 
ATOM     87  F   UNL A   1      42.510  20.522  25.558  1.00  0.00    -0.200 F 
ENDBRANCH  53  77
BRANCH  65  88
ATOM     88  C   UNL A   1      49.142  27.287  29.331  1.00  0.00     0.064 A 
ATOM     89  C   UNL A   1      49.748  26.481  30.307  1.00  0.00     0.173 A 
ATOM     90  C   UNL A   1      49.917  27.665  28.223  1.00  0.00     0.173 A 
ATOM     91  F   UNL A   1      49.056  26.099  31.391  1.00  0.00    -0.203 F 
ATOM     92  C   UNL A   1      51.082  26.095  30.191  1.00  0.00     0.198 A 
ATOM     93  C   UNL A   1      51.238  27.247  28.092  1.00  0.00     0.198 A 
ATOM     94  F   UNL A   1      49.387  28.427  27.255  1.00  0.00    -0.203 F 
ATOM     95  F   UNL A   1      51.654  25.369  31.162  1.00  0.00    -0.200 F 
ATOM     96  C   UNL A   1      51.823  26.471  29.080  1.00  0.00     0.200 A 
ATOM     97  F   UNL A   1      51.946  27.596  27.009  1.00  0.00    -0.200 F 
ATOM     98  F   UNL A   1      53.102  26.089  28.966  1.00  0.00    -0.200 F 
ENDBRANCH  65  88
ENDBRANCH  39  40
ENDBRANCH  32  34
ENDBRANCH  31  32
ENDBRANCH  30  31
ENDBRANCH  29  30
ENDBRANCH  28  29
ENDBRANCH  27  28
ENDBRANCH  26  27
ENDBRANCH  25  26
ENDBRANCH   1  25
TORSDOF 24
ENDMDL
MODEL 2
REMARK VINA RESULT:      -6.4      5.721      9.732
REMARK SMILES C[C@@H](C(=O)OCCOCCOCCOCCOC(=O)c1ccc(-c2c3nc(c(-c4c(F)c(F)c(F)c(F)c4F)c4ccc([nH]4)c(-c4c(F)c(F)c(F)c(F)c4F)c4nc(c(-c5c(F)c(F)c(F)c(F)c5F)c5ccc2[nH]5)C=C4)C=C3)cc1)c1ccc(C[C@H]2CCC[C@H]2O)cc1
REMARK SMILES IDX 10 1 9 2 8 3 7 4 6 5 5 6 3 7 4 8 2 9 1 10 83 11 84 12 95 13
REMARK SMILES IDX 85 14 94 15 86 16 87 17 88 18 89 19 92 20 90 21 91 22 93 23
REMARK SMILES IDX 11 25 12 26 13 27 14 28 15 29 16 30 17 31 18 32 19 33 20 34
REMARK SMILES IDX 21 35 82 36 22 37 81 38 23 39 24 40 25 41 75 42 26 43 80 44
REMARK SMILES IDX 74 45 76 46 27 47 79 48 73 49 72 50 28 52 60 53 40 54 59 55
REMARK SMILES IDX 41 56 44 57 58 58 77 59 42 60 43 61 57 63 78 64 45 65 29 66
REMARK SMILES IDX 30 67 38 68 31 69 32 70 36 71 39 72 33 73 34 74 37 75 35 76
REMARK SMILES IDX 61 77 62 78 70 79 63 80 64 81 68 82 71 83 65 84 66 85 69 86
REMARK SMILES IDX 67 87 46 88 47 89 55 90 48 91 49 92 53 93 56 94 50 95 51 96
REMARK SMILES IDX 54 97 52 98
REMARK H PARENT 93 24 76 51 44 62
REMARK Flexibility Score: inf
ROOT
ATOM      1  C   UNL A   1      36.729  34.467  33.204  1.00  0.00     0.188 C 
ENDROOT
BRANCH   1   2
ATOM      2  C   UNL A   1      35.917  33.437  34.009  1.00  0.00     0.188 C 
BRANCH   2   3
ATOM      3  O   UNL A   1      36.586  32.519  34.861  1.00  0.00    -0.376 OA
BRANCH   3   4
ATOM      4  C   UNL A   1      37.566  31.637  34.339  1.00  0.00     0.202 C 
BRANCH   4   5
ATOM      5  C   UNL A   1      38.902  31.349  35.057  1.00  0.00     0.261 C 
BRANCH   5   6
ATOM      6  O   UNL A   1      39.396  29.997  35.038  1.00  0.00    -0.463 OA
BRANCH   6   7
ATOM      7  C   UNL A   1      40.442  29.743  34.212  1.00  0.00     0.313 C 
ATOM      8  O   UNL A   1      41.248  30.603  33.863  1.00  0.00    -0.252 OA
BRANCH   7   9
ATOM      9  C   UNL A   1      40.546  28.272  33.747  1.00  0.00     0.126 C 
ATOM     10  C   UNL A   1      41.653  27.393  34.349  1.00  0.00     0.025 C 
BRANCH   9  11
ATOM     11  C   UNL A   1      40.440  28.197  32.221  1.00  0.00    -0.034 A 
ATOM     12  C   UNL A   1      39.227  28.047  31.531  1.00  0.00     0.005 A 
ATOM     13  C   UNL A   1      41.625  28.130  31.477  1.00  0.00     0.005 A 
ATOM     14  C   UNL A   1      39.207  27.747  30.166  1.00  0.00     0.004 A 
ATOM     15  C   UNL A   1      41.604  27.836  30.111  1.00  0.00     0.004 A 
ATOM     16  C   UNL A   1      40.396  27.583  29.453  1.00  0.00    -0.048 A 
BRANCH  16  17
ATOM     17  C   UNL A   1      40.387  27.110  28.020  1.00  0.00     0.041 C 
BRANCH  17  18
ATOM     18  C   UNL A   1      40.830  25.661  27.741  1.00  0.00     0.022 C 
ATOM     19  C   UNL A   1      39.736  24.581  27.813  1.00  0.00     0.007 C 
ATOM     20  C   UNL A   1      41.570  25.374  26.426  1.00  0.00     0.117 C 
ATOM     21  C   UNL A   1      40.169  23.469  26.852  1.00  0.00     0.003 C 
ATOM     22  C   UNL A   1      41.563  23.850  26.365  1.00  0.00     0.032 C 
BRANCH  20  23
ATOM     23  O   UNL A   1      40.932  25.892  25.271  1.00  0.00    -0.393 OA
ATOM     24  H   UNL A   1      40.292  25.243  24.936  1.00  0.00     0.210 HD
ENDBRANCH  20  23
ENDBRANCH  17  18
ENDBRANCH  16  17
ENDBRANCH   9  11
ENDBRANCH   7   9
ENDBRANCH   6   7
ENDBRANCH   5   6
ENDBRANCH   4   5
ENDBRANCH   3   4
ENDBRANCH   2   3
ENDBRANCH   1   2
BRANCH   1  25
ATOM     25  O   UNL A   1      36.145  34.860  31.977  1.00  0.00    -0.377 OA
BRANCH  25  26
ATOM     26  C   UNL A   1      35.155  34.001  31.439  1.00  0.00     0.188 C 
BRANCH  26  27
ATOM     27  C   UNL A   1      34.159  34.577  30.414  1.00  0.00     0.188 C 
BRANCH  27  28
ATOM     28  O   UNL A   1      33.659  33.620  29.489  1.00  0.00    -0.376 OA
BRANCH  28  29
ATOM     29  C   UNL A   1      34.377  33.382  28.288  1.00  0.00     0.202 C 
BRANCH  29  30
ATOM     30  C   UNL A   1      34.914  31.960  28.058  1.00  0.00     0.261 C 
BRANCH  30  31
ATOM     31  O   UNL A   1      36.341  31.815  28.030  1.00  0.00    -0.460 OA
BRANCH  31  32
ATOM     32  C   UNL A   1      36.944  31.294  29.118  1.00  0.00     0.338 C 
ATOM     33  O   UNL A   1      36.689  30.234  29.666  1.00  0.00    -0.246 OA
BRANCH  32  34
ATOM     34  C   UNL A   1      38.117  32.136  29.429  1.00  0.00     0.060 A 
ATOM     35  C   UNL A   1      39.283  31.521  29.906  1.00  0.00     0.016 A 
ATOM     36  C   UNL A   1      38.076  33.518  29.236  1.00  0.00     0.016 A 
ATOM     37  C   UNL A   1      40.400  32.292  30.225  1.00  0.00     0.010 A 
ATOM     38  C   UNL A   1      39.188  34.293  29.582  1.00  0.00     0.010 A 
ATOM     39  C   UNL A   1      40.341  33.686  30.111  1.00  0.00    -0.014 A 
BRANCH  39  40
ATOM     40  C   UNL A   1      41.393  34.518  30.745  1.00  0.00     0.031 A 
ATOM     41  C   UNL A   1      41.410  34.614  32.246  1.00  0.00     0.074 A 
ATOM     42  C   UNL A   1      42.326  35.154  30.015  1.00  0.00     0.049 A 
ATOM     43  N   UNL A   1      42.189  35.313  33.030  1.00  0.00    -0.248 NA
ATOM     44  C   UNL A   1      40.404  33.809  32.960  1.00  0.00     0.031 C 
ATOM     45  C   UNL A   1      42.447  35.097  28.561  1.00  0.00     0.029 A 
ATOM     46  N   UNL A   1      43.350  35.982  30.408  1.00  0.00    -0.354 N 
ATOM     47  C   UNL A   1      41.762  35.042  34.324  1.00  0.00     0.074 A 
ATOM     48  C   UNL A   1      40.637  34.140  34.221  1.00  0.00     0.031 C 
ATOM     49  C   UNL A   1      43.481  35.869  28.181  1.00  0.00     0.029 A 
ATOM     50  C   UNL A   1      44.069  36.501  29.360  1.00  0.00     0.049 A 
ATOM     51  H   UNL A   1      43.548  36.184  31.351  1.00  0.00     0.167 HD
ATOM     52  C   UNL A   1      42.266  35.501  35.493  1.00  0.00     0.037 A 
ATOM     53  C   UNL A   1      45.071  37.404  29.359  1.00  0.00     0.037 A 
ATOM     54  C   UNL A   1      43.385  36.400  35.590  1.00  0.00     0.049 A 
ATOM     55  C   UNL A   1      45.560  37.967  30.672  1.00  0.00     0.074 A 
ATOM     56  C   UNL A   1      43.986  36.907  36.728  1.00  0.00     0.029 A 
ATOM     57  N   UNL A   1      44.064  36.936  34.506  1.00  0.00    -0.354 N 
ATOM     58  N   UNL A   1      45.170  37.686  31.893  1.00  0.00    -0.248 NA
ATOM     59  C   UNL A   1      46.629  38.972  30.605  1.00  0.00     0.031 C 
ATOM     60  C   UNL A   1      44.984  37.803  36.332  1.00  0.00     0.029 A 
ATOM     61  C   UNL A   1      45.055  37.797  34.947  1.00  0.00     0.049 A 
ATOM     62  H   UNL A   1      43.869  36.735  33.561  1.00  0.00     0.167 HD
ATOM     63  C   UNL A   1      45.969  38.449  32.736  1.00  0.00     0.074 A 
ATOM     64  C   UNL A   1      46.875  39.195  31.888  1.00  0.00     0.031 C 
ATOM     65  C   UNL A   1      45.958  38.523  34.091  1.00  0.00     0.037 A 
BRANCH  52  66
ATOM     66  C   UNL A   1      41.587  35.069  36.760  1.00  0.00     0.064 A 
ATOM     67  C   UNL A   1      40.490  35.764  37.291  1.00  0.00     0.173 A 
ATOM     68  C   UNL A   1      42.025  33.920  37.439  1.00  0.00     0.173 A 
ATOM     69  F   UNL A   1      40.041  36.877  36.691  1.00  0.00    -0.203 F 
ATOM     70  C   UNL A   1      39.874  35.342  38.467  1.00  0.00     0.198 A 
ATOM     71  C   UNL A   1      41.385  33.482  38.596  1.00  0.00     0.198 A 
ATOM     72  F   UNL A   1      43.069  33.218  36.976  1.00  0.00    -0.203 F 
ATOM     73  F   UNL A   1      38.862  36.052  38.983  1.00  0.00    -0.200 F 
ATOM     74  C   UNL A   1      40.317  34.197  39.113  1.00  0.00     0.200 A 
ATOM     75  F   UNL A   1      41.806  32.368  39.210  1.00  0.00    -0.200 F 
ATOM     76  F   UNL A   1      39.718  33.787  40.240  1.00  0.00    -0.200 F 
ENDBRANCH  52  66
BRANCH  53  77
ATOM     77  C   UNL A   1      45.675  37.851  28.075  1.00  0.00     0.064 A 
ATOM     78  C   UNL A   1      45.164  38.955  27.379  1.00  0.00     0.173 A 
ATOM     79  C   UNL A   1      46.751  37.161  27.497  1.00  0.00     0.173 A 
ATOM     80  F   UNL A   1      44.117  39.633  27.874  1.00  0.00    -0.203 F 
ATOM     81  C   UNL A   1      45.689  39.337  26.145  1.00  0.00     0.198 A 
ATOM     82  C   UNL A   1      47.297  37.563  26.279  1.00  0.00     0.198 A 
ATOM     83  F   UNL A   1      47.276  36.092  28.116  1.00  0.00    -0.203 F 
ATOM     84  F   UNL A   1      45.143  40.361  25.475  1.00  0.00    -0.200 F 
ATOM     85  C   UNL A   1      46.759  38.644  25.599  1.00  0.00     0.200 A 
ATOM     86  F   UNL A   1      48.339  36.897  25.762  1.00  0.00    -0.200 F 
ATOM     87  F   UNL A   1      47.263  39.012  24.414  1.00  0.00    -0.200 F 
ENDBRANCH  53  77
BRANCH  65  88
ATOM     88  C   UNL A   1      46.987  39.401  34.749  1.00  0.00     0.064 A 
ATOM     89  C   UNL A   1      48.259  38.923  35.096  1.00  0.00     0.173 A 
ATOM     90  C   UNL A   1      46.708  40.755  34.994  1.00  0.00     0.173 A 
ATOM     91  F   UNL A   1      48.575  37.635  34.894  1.00  0.00    -0.203 F 
ATOM     92  C   UNL A   1      49.202  39.760  35.690  1.00  0.00     0.198 A 
ATOM     93  C   UNL A   1      47.665  41.597  35.553  1.00  0.00     0.198 A 
ATOM     94  F   UNL A   1      45.511  41.268  34.673  1.00  0.00    -0.203 F 
ATOM     95  F   UNL A   1      50.392  39.267  36.062  1.00  0.00    -0.200 F 
ATOM     96  C   UNL A   1      48.907  41.097  35.910  1.00  0.00     0.200 A 
ATOM     97  F   UNL A   1      47.384  42.893  35.747  1.00  0.00    -0.200 F 
ATOM     98  F   UNL A   1      49.819  41.902  36.472  1.00  0.00    -0.200 F 
ENDBRANCH  65  88
ENDBRANCH  39  40
ENDBRANCH  32  34
ENDBRANCH  31  32
ENDBRANCH  30  31
ENDBRANCH  29  30
ENDBRANCH  28  29
ENDBRANCH  27  28
ENDBRANCH  26  27
ENDBRANCH  25  26
ENDBRANCH   1  25
TORSDOF 24
ENDMDL
MODEL 3
REMARK VINA RESULT:      -6.2      3.659     10.722
REMARK SMILES C[C@@H](C(=O)OCCOCCOCCOCCOC(=O)c1ccc(-c2c3nc(c(-c4c(F)c(F)c(F)c(F)c4F)c4ccc([nH]4)c(-c4c(F)c(F)c(F)c(F)c4F)c4nc(c(-c5c(F)c(F)c(F)c(F)c5F)c5ccc2[nH]5)C=C4)C=C3)cc1)c1ccc(C[C@H]2CCC[C@H]2O)cc1
REMARK SMILES IDX 10 1 9 2 8 3 7 4 6 5 5 6 3 7 4 8 2 9 1 10 83 11 84 12 95 13
REMARK SMILES IDX 85 14 94 15 86 16 87 17 88 18 89 19 92 20 90 21 91 22 93 23
REMARK SMILES IDX 11 25 12 26 13 27 14 28 15 29 16 30 17 31 18 32 19 33 20 34
REMARK SMILES IDX 21 35 82 36 22 37 81 38 23 39 24 40 25 41 75 42 26 43 80 44
REMARK SMILES IDX 74 45 76 46 27 47 79 48 73 49 72 50 28 52 60 53 40 54 59 55
REMARK SMILES IDX 41 56 44 57 58 58 77 59 42 60 43 61 57 63 78 64 45 65 29 66
REMARK SMILES IDX 30 67 38 68 31 69 32 70 36 71 39 72 33 73 34 74 37 75 35 76
REMARK SMILES IDX 61 77 62 78 70 79 63 80 64 81 68 82 71 83 65 84 66 85 69 86
REMARK SMILES IDX 67 87 46 88 47 89 55 90 48 91 49 92 53 93 56 94 50 95 51 96
REMARK SMILES IDX 54 97 52 98
REMARK H PARENT 93 24 76 51 44 62
REMARK Flexibility Score: inf
ROOT
ATOM      1  C   UNL A   1      46.115  26.600  24.971  1.00  0.00     0.188 C 
ENDROOT
BRANCH   1   2
ATOM      2  C   UNL A   1      46.500  25.222  25.541  1.00  0.00     0.188 C 
BRANCH   2   3
ATOM      3  O   UNL A   1      46.475  25.005  26.943  1.00  0.00    -0.376 OA
BRANCH   3   4
ATOM      4  C   UNL A   1      45.462  24.202  27.528  1.00  0.00     0.202 C 
BRANCH   4   5
ATOM      5  C   UNL A   1      44.189  24.795  28.170  1.00  0.00     0.261 C 
BRANCH   5   6
ATOM      6  O   UNL A   1      43.557  25.904  27.506  1.00  0.00    -0.463 OA
BRANCH   6   7
ATOM      7  C   UNL A   1      43.802  27.138  28.016  1.00  0.00     0.313 C 
ATOM      8  O   UNL A   1      44.354  27.322  29.098  1.00  0.00    -0.252 OA
BRANCH   7   9
ATOM      9  C   UNL A   1      43.336  28.305  27.115  1.00  0.00     0.126 C 
ATOM     10  C   UNL A   1      44.362  29.380  26.725  1.00  0.00     0.025 C 
BRANCH   9  11
ATOM     11  C   UNL A   1      42.002  28.858  27.623  1.00  0.00    -0.034 A 
ATOM     12  C   UNL A   1      41.804  29.335  28.928  1.00  0.00     0.005 A 
ATOM     13  C   UNL A   1      40.880  28.752  26.790  1.00  0.00     0.005 A 
ATOM     14  C   UNL A   1      40.518  29.604  29.409  1.00  0.00     0.004 A 
ATOM     15  C   UNL A   1      39.597  29.026  27.270  1.00  0.00     0.004 A 
ATOM     16  C   UNL A   1      39.397  29.399  28.603  1.00  0.00    -0.048 A 
BRANCH  16  17
ATOM     17  C   UNL A   1      38.001  29.540  29.160  1.00  0.00     0.041 C 
BRANCH  17  18
ATOM     18  C   UNL A   1      37.175  30.765  28.722  1.00  0.00     0.022 C 
ATOM     19  C   UNL A   1      36.096  30.521  27.652  1.00  0.00     0.007 C 
ATOM     20  C   UNL A   1      36.461  31.578  29.812  1.00  0.00     0.117 C 
ATOM     21  C   UNL A   1      35.003  31.563  27.903  1.00  0.00     0.003 C 
ATOM     22  C   UNL A   1      35.533  32.478  29.001  1.00  0.00     0.032 C 
BRANCH  20  23
ATOM     23  O   UNL A   1      35.691  30.801  30.713  1.00  0.00    -0.393 OA
ATOM     24  H   UNL A   1      34.747  30.957  30.549  1.00  0.00     0.210 HD
ENDBRANCH  20  23
ENDBRANCH  17  18
ENDBRANCH  16  17
ENDBRANCH   9  11
ENDBRANCH   7   9
ENDBRANCH   6   7
ENDBRANCH   5   6
ENDBRANCH   4   5
ENDBRANCH   3   4
ENDBRANCH   2   3
ENDBRANCH   1   2
BRANCH   1  25
ATOM     25  O   UNL A   1      46.943  27.065  23.923  1.00  0.00    -0.377 OA
BRANCH  25  26
ATOM     26  C   UNL A   1      48.257  27.463  24.278  1.00  0.00     0.188 C 
BRANCH  26  27
ATOM     27  C   UNL A   1      49.435  26.948  23.430  1.00  0.00     0.188 C 
BRANCH  27  28
ATOM     28  O   UNL A   1      50.714  27.328  23.922  1.00  0.00    -0.376 OA
BRANCH  28  29
ATOM     29  C   UNL A   1      51.648  26.315  24.266  1.00  0.00     0.202 C 
BRANCH  29  30
ATOM     30  C   UNL A   1      52.936  26.758  24.980  1.00  0.00     0.261 C 
BRANCH  30  31
ATOM     31  O   UNL A   1      52.768  27.568  26.152  1.00  0.00    -0.460 OA
BRANCH  31  32
ATOM     32  C   UNL A   1      52.526  26.943  27.322  1.00  0.00     0.338 C 
ATOM     33  O   UNL A   1      53.279  26.203  27.933  1.00  0.00    -0.246 OA
BRANCH  32  34
ATOM     34  C   UNL A   1      51.250  27.463  27.855  1.00  0.00     0.060 A 
ATOM     35  C   UNL A   1      51.285  28.428  28.871  1.00  0.00     0.016 A 
ATOM     36  C   UNL A   1      50.028  27.018  27.346  1.00  0.00     0.016 A 
ATOM     37  C   UNL A   1      50.097  28.924  29.406  1.00  0.00     0.010 A 
ATOM     38  C   UNL A   1      48.837  27.496  27.901  1.00  0.00     0.010 A 
ATOM     39  C   UNL A   1      48.868  28.425  28.958  1.00  0.00    -0.014 A 
BRANCH  39  40
ATOM     40  C   UNL A   1      47.636  28.705  29.735  1.00  0.00     0.031 A 
ATOM     41  C   UNL A   1      46.893  29.981  29.447  1.00  0.00     0.074 A 
ATOM     42  C   UNL A   1      47.170  27.843  30.656  1.00  0.00     0.049 A 
ATOM     43  N   UNL A   1      45.827  30.475  30.022  1.00  0.00    -0.248 NA
ATOM     44  C   UNL A   1      47.431  30.815  28.359  1.00  0.00     0.031 C 
ATOM     45  C   UNL A   1      47.770  26.554  30.987  1.00  0.00     0.029 A 
ATOM     46  N   UNL A   1      46.080  27.933  31.486  1.00  0.00    -0.354 N 
ATOM     47  C   UNL A   1      45.575  31.678  29.376  1.00  0.00     0.074 A 
ATOM     48  C   UNL A   1      46.614  31.857  28.386  1.00  0.00     0.031 C 
ATOM     49  C   UNL A   1      47.046  25.976  31.963  1.00  0.00     0.029 A 
ATOM     50  C   UNL A   1      45.956  26.871  32.348  1.00  0.00     0.049 A 
ATOM     51  H   UNL A   1      45.448  28.688  31.466  1.00  0.00     0.167 HD
ATOM     52  C   UNL A   1      44.564  32.553  29.585  1.00  0.00     0.037 A 
ATOM     53  C   UNL A   1      45.075  26.664  33.347  1.00  0.00     0.037 A 
ATOM     54  C   UNL A   1      43.533  32.373  30.571  1.00  0.00     0.049 A 
ATOM     55  C   UNL A   1      44.007  27.696  33.617  1.00  0.00     0.074 A 
ATOM     56  C   UNL A   1      42.453  33.191  30.849  1.00  0.00     0.029 A 
ATOM     57  N   UNL A   1      43.462  31.304  31.453  1.00  0.00    -0.354 N 
ATOM     58  N   UNL A   1      43.757  28.819  32.986  1.00  0.00    -0.248 NA
ATOM     59  C   UNL A   1      43.099  27.431  34.741  1.00  0.00     0.031 C 
ATOM     60  C   UNL A   1      41.767  32.652  31.942  1.00  0.00     0.029 A 
ATOM     61  C   UNL A   1      42.376  31.459  32.299  1.00  0.00     0.049 A 
ATOM     62  H   UNL A   1      44.092  30.546  31.474  1.00  0.00     0.167 HD
ATOM     63  C   UNL A   1      42.645  29.371  33.609  1.00  0.00     0.074 A 
ATOM     64  C   UNL A   1      42.260  28.455  34.661  1.00  0.00     0.031 C 
ATOM     65  C   UNL A   1      41.998  30.531  33.333  1.00  0.00     0.037 A 
BRANCH  52  66
ATOM     66  C   UNL A   1      44.546  33.806  28.757  1.00  0.00     0.064 A 
ATOM     67  C   UNL A   1      44.058  33.821  27.441  1.00  0.00     0.173 A 
ATOM     68  C   UNL A   1      44.997  35.019  29.301  1.00  0.00     0.173 A 
ATOM     69  F   UNL A   1      43.630  32.687  26.867  1.00  0.00    -0.203 F 
ATOM     70  C   UNL A   1      44.049  34.996  26.692  1.00  0.00     0.198 A 
ATOM     71  C   UNL A   1      44.955  36.198  28.562  1.00  0.00     0.198 A 
ATOM     72  F   UNL A   1      45.473  35.062  30.555  1.00  0.00    -0.203 F 
ATOM     73  F   UNL A   1      43.628  34.975  25.421  1.00  0.00    -0.200 F 
ATOM     74  C   UNL A   1      44.489  36.184  27.257  1.00  0.00     0.200 A 
ATOM     75  F   UNL A   1      45.367  37.347  29.115  1.00  0.00    -0.200 F 
ATOM     76  F   UNL A   1      44.471  37.316  26.539  1.00  0.00    -0.200 F 
ENDBRANCH  52  66
BRANCH  53  77
ATOM     77  C   UNL A   1      45.167  25.437  34.183  1.00  0.00     0.064 A 
ATOM     78  C   UNL A   1      45.848  25.443  35.409  1.00  0.00     0.173 A 
ATOM     79  C   UNL A   1      44.610  24.221  33.758  1.00  0.00     0.173 A 
ATOM     80  F   UNL A   1      46.423  26.573  35.849  1.00  0.00    -0.203 F 
ATOM     81  C   UNL A   1      45.988  24.280  36.164  1.00  0.00     0.198 A 
ATOM     82  C   UNL A   1      44.722  23.066  34.529  1.00  0.00     0.198 A 
ATOM     83  F   UNL A   1      43.953  24.155  32.590  1.00  0.00    -0.203 F 
ATOM     84  F   UNL A   1      46.693  24.303  37.303  1.00  0.00    -0.200 F 
ATOM     85  C   UNL A   1      45.420  23.094  35.726  1.00  0.00     0.200 A 
ATOM     86  F   UNL A   1      44.161  21.924  34.106  1.00  0.00    -0.200 F 
ATOM     87  F   UNL A   1      45.555  21.975  36.452  1.00  0.00    -0.200 F 
ENDBRANCH  53  77
BRANCH  65  88
ATOM     88  C   UNL A   1      40.774  30.855  34.145  1.00  0.00     0.064 A 
ATOM     89  C   UNL A   1      40.859  31.452  35.412  1.00  0.00     0.173 A 
ATOM     90  C   UNL A   1      39.494  30.606  33.625  1.00  0.00     0.173 A 
ATOM     91  F   UNL A   1      42.057  31.702  35.961  1.00  0.00    -0.203 F 
ATOM     92  C   UNL A   1      39.710  31.758  36.139  1.00  0.00     0.198 A 
ATOM     93  C   UNL A   1      38.348  30.947  34.338  1.00  0.00     0.198 A 
ATOM     94  F   UNL A   1      39.353  30.046  32.414  1.00  0.00    -0.203 F 
ATOM     95  F   UNL A   1      39.818  32.278  37.370  1.00  0.00    -0.200 F 
ATOM     96  C   UNL A   1      38.457  31.514  35.598  1.00  0.00     0.200 A 
ATOM     97  F   UNL A   1      37.139  30.728  33.804  1.00  0.00    -0.200 F 
ATOM     98  F   UNL A   1      37.353  31.819  36.295  1.00  0.00    -0.200 F 
ENDBRANCH  65  88
ENDBRANCH  39  40
ENDBRANCH  32  34
ENDBRANCH  31  32
ENDBRANCH  30  31
ENDBRANCH  29  30
ENDBRANCH  28  29
ENDBRANCH  27  28
ENDBRANCH  26  27
ENDBRANCH  25  26
ENDBRANCH   1  25
TORSDOF 24
ENDMDL
