MODEL 1
REMARK VINA RESULT:     -10.4      0.000      0.000
REMARK SMILES C[C@@H]1CN(C(=O)N2CC(CC(=O)OCCOCCOCCOCCOC(=O)c3ccc(-c4c5nc(c(-c6c(F)c(F)c(F)c(F)c6F)c6ccc([nH]6)c(-c6c(F)c(F)c(F)c(F)c6F)c6nc(c(-c7c(F)c(F)c(F)c(F)c7F)c7ccc4[nH]7)C=C6)C=C5)cc3)C2)C[C@H]1C
REMARK SMILES IDX 20 1 19 2 18 3 17 4 16 5 15 6 14 7 13 8 11 9 12 10 10 11
REMARK SMILES IDX 9 12 1 13 2 14 3 15 93 16 4 17 92 18 94 19 5 20 6 21 7 22
REMARK SMILES IDX 8 23 91 24 21 25 22 26 23 27 24 28 25 29 26 30 27 31 28 32
REMARK SMILES IDX 29 33 90 34 30 35 89 36 31 37 32 38 33 39 83 40 34 41 88 42
REMARK SMILES IDX 82 43 84 44 35 45 87 46 81 47 80 48 36 50 68 51 48 52 67 53
REMARK SMILES IDX 49 54 52 55 66 56 85 57 50 58 51 59 65 61 86 62 53 63 37 64
REMARK SMILES IDX 38 65 46 66 39 67 40 68 44 69 47 70 41 71 42 72 45 73 43 74
REMARK SMILES IDX 69 75 70 76 78 77 71 78 72 79 76 80 79 81 73 82 74 83 77 84
REMARK SMILES IDX 75 85 54 86 55 87 63 88 56 89 57 90 61 91 64 92 58 93 59 94
REMARK SMILES IDX 62 95 60 96
REMARK H PARENT 84 49 52 60
REMARK Flexibility Score: inf
ROOT
ATOM      1  C   UNL A   1      33.685  35.834  29.074  1.00  0.00     0.188 C 
ENDROOT
BRANCH   1   2
ATOM      2  O   UNL A   1      34.410  34.931  28.252  1.00  0.00    -0.377 OA
BRANCH   2   3
ATOM      3  C   UNL A   1      35.472  34.213  28.845  1.00  0.00     0.188 C 
BRANCH   3   4
ATOM      4  C   UNL A   1      36.019  33.035  28.034  1.00  0.00     0.188 C 
BRANCH   4   5
ATOM      5  O   UNL A   1      35.126  32.186  27.338  1.00  0.00    -0.376 OA
BRANCH   5   6
ATOM      6  C   UNL A   1      34.658  30.991  27.944  1.00  0.00     0.202 C 
BRANCH   6   7
ATOM      7  C   UNL A   1      33.997  29.845  27.148  1.00  0.00     0.261 C 
BRANCH   7   8
ATOM      8  O   UNL A   1      32.573  29.644  27.287  1.00  0.00    -0.463 OA
BRANCH   8   9
ATOM      9  C   UNL A   1      31.815  30.018  26.231  1.00  0.00     0.306 C 
ATOM     10  O   UNL A   1      31.333  31.139  26.098  1.00  0.00    -0.252 OA
BRANCH   9  11
ATOM     11  C   UNL A   1      31.528  28.935  25.218  1.00  0.00     0.130 C 
BRANCH  11  12
ATOM     12  C   UNL A   1      31.161  27.518  25.637  1.00  0.00     0.039 C 
ATOM     13  C   UNL A   1      35.667  22.905  23.497  1.00  0.00     0.010 C 
ATOM     14  C   UNL A   1      34.240  22.551  23.893  1.00  0.00     0.010 C 
ATOM     15  C   UNL A   1      33.415  23.803  24.182  1.00  0.00     0.125 C 
ATOM     16  C   UNL A   1      34.152  21.753  25.207  1.00  0.00     0.010 C 
ATOM     17  N   UNL A   1      32.559  23.455  25.302  1.00  0.00    -0.324 N 
ATOM     18  C   UNL A   1      32.735  22.068  25.691  1.00  0.00     0.125 C 
ATOM     19  C   UNL A   1      34.415  20.267  25.028  1.00  0.00     0.010 C 
ATOM     20  C   UNL A   1      31.962  24.384  26.131  1.00  0.00     0.320 C 
ATOM     21  O   UNL A   1      31.435  24.092  27.202  1.00  0.00    -0.248 OA
ATOM     22  N   UNL A   1      32.126  25.684  25.709  1.00  0.00    -0.324 N 
ATOM     23  C   UNL A   1      32.194  26.861  26.555  1.00  0.00     0.127 C 
ATOM     24  C   UNL A   1      31.350  26.349  24.660  1.00  0.00     0.127 C 
ENDBRANCH  11  12
ENDBRANCH   9  11
ENDBRANCH   8   9
ENDBRANCH   7   8
ENDBRANCH   6   7
ENDBRANCH   5   6
ENDBRANCH   4   5
ENDBRANCH   3   4
ENDBRANCH   2   3
ENDBRANCH   1   2
BRANCH   1  25
ATOM     25  C   UNL A   1      33.106  35.330  30.411  1.00  0.00     0.188 C 
BRANCH  25  26
ATOM     26  O   UNL A   1      34.040  35.283  31.479  1.00  0.00    -0.376 OA
BRANCH  26  27
ATOM     27  C   UNL A   1      33.960  34.221  32.420  1.00  0.00     0.202 C 
BRANCH  27  28
ATOM     28  C   UNL A   1      35.253  33.769  33.123  1.00  0.00     0.261 C 
BRANCH  28  29
ATOM     29  O   UNL A   1      35.956  32.665  32.530  1.00  0.00    -0.460 OA
BRANCH  29  30
ATOM     30  C   UNL A   1      36.889  32.033  33.266  1.00  0.00     0.338 C 
ATOM     31  O   UNL A   1      36.876  31.844  34.473  1.00  0.00    -0.246 OA
BRANCH  30  32
ATOM     32  C   UNL A   1      37.857  31.415  32.337  1.00  0.00     0.060 A 
ATOM     33  C   UNL A   1      38.944  30.707  32.868  1.00  0.00     0.016 A 
ATOM     34  C   UNL A   1      37.701  31.533  30.954  1.00  0.00     0.016 A 
ATOM     35  C   UNL A   1      39.899  30.150  32.018  1.00  0.00     0.010 A 
ATOM     36  C   UNL A   1      38.672  30.994  30.104  1.00  0.00     0.010 A 
ATOM     37  C   UNL A   1      39.794  30.332  30.634  1.00  0.00    -0.014 A 
BRANCH  37  38
ATOM     38  C   UNL A   1      40.951  30.007  29.763  1.00  0.00     0.031 A 
ATOM     39  C   UNL A   1      41.022  28.636  29.150  1.00  0.00     0.074 A 
ATOM     40  C   UNL A   1      41.905  30.916  29.496  1.00  0.00     0.049 A 
ATOM     41  N   UNL A   1      41.953  28.104  28.400  1.00  0.00    -0.248 NA
ATOM     42  C   UNL A   1      39.887  27.741  29.426  1.00  0.00     0.031 C 
ATOM     43  C   UNL A   1      41.925  32.290  29.988  1.00  0.00     0.029 A 
ATOM     44  N   UNL A   1      43.052  30.808  28.747  1.00  0.00    -0.354 N 
ATOM     45  C   UNL A   1      41.521  26.811  28.124  1.00  0.00     0.074 A 
ATOM     46  C   UNL A   1      40.261  26.630  28.812  1.00  0.00     0.031 C 
ATOM     47  C   UNL A   1      43.040  32.897  29.542  1.00  0.00     0.029 A 
ATOM     48  C   UNL A   1      43.828  31.940  28.764  1.00  0.00     0.049 A 
ATOM     49  H   UNL A   1      43.294  29.996  28.246  1.00  0.00     0.167 HD
ATOM     50  C   UNL A   1      42.119  25.866  27.363  1.00  0.00     0.037 A 
ATOM     51  C   UNL A   1      45.049  32.166  28.238  1.00  0.00     0.037 A 
ATOM     52  C   UNL A   1      43.374  26.052  26.682  1.00  0.00     0.049 A 
ATOM     53  C   UNL A   1      45.733  31.069  27.458  1.00  0.00     0.074 A 
ATOM     54  C   UNL A   1      44.051  25.163  25.866  1.00  0.00     0.029 A 
ATOM     55  N   UNL A   1      44.147  27.201  26.752  1.00  0.00    -0.354 N 
ATOM     56  N   UNL A   1      45.307  29.861  27.176  1.00  0.00    -0.248 NA
ATOM     57  C   UNL A   1      47.068  31.369  26.921  1.00  0.00     0.031 C 
ATOM     58  C   UNL A   1      45.267  25.748  25.499  1.00  0.00     0.029 A 
ATOM     59  C   UNL A   1      45.314  27.029  26.023  1.00  0.00     0.049 A 
ATOM     60  H   UNL A   1      43.904  28.017  27.246  1.00  0.00     0.167 HD
ATOM     61  C   UNL A   1      46.302  29.271  26.407  1.00  0.00     0.074 A 
ATOM     62  C   UNL A   1      47.348  30.260  26.253  1.00  0.00     0.031 C 
ATOM     63  C   UNL A   1      46.347  28.025  25.874  1.00  0.00     0.037 A 
BRANCH  50  64
ATOM     64  C   UNL A   1      41.443  24.528  27.257  1.00  0.00     0.064 A 
ATOM     65  C   UNL A   1      40.270  24.344  26.510  1.00  0.00     0.173 A 
ATOM     66  C   UNL A   1      41.995  23.407  27.896  1.00  0.00     0.173 A 
ATOM     67  F   UNL A   1      39.691  25.385  25.892  1.00  0.00    -0.203 F 
ATOM     68  C   UNL A   1      39.659  23.094  26.431  1.00  0.00     0.198 A 
ATOM     69  C   UNL A   1      41.403  22.152  27.785  1.00  0.00     0.198 A 
ATOM     70  F   UNL A   1      43.117  23.526  28.621  1.00  0.00    -0.203 F 
ATOM     71  F   UNL A   1      38.510  22.953  25.756  1.00  0.00    -0.200 F 
ATOM     72  C   UNL A   1      40.230  21.998  27.061  1.00  0.00     0.200 A 
ATOM     73  F   UNL A   1      41.964  21.092  28.382  1.00  0.00    -0.200 F 
ATOM     74  F   UNL A   1      39.646  20.795  26.976  1.00  0.00    -0.200 F 
ENDBRANCH  50  64
BRANCH  51  75
ATOM     75  C   UNL A   1      45.719  33.478  28.447  1.00  0.00     0.064 A 
ATOM     76  C   UNL A   1      45.479  34.563  27.593  1.00  0.00     0.173 A 
ATOM     77  C   UNL A   1      46.635  33.666  29.493  1.00  0.00     0.173 A 
ATOM     78  F   UNL A   1      44.632  34.428  26.561  1.00  0.00    -0.203 F 
ATOM     79  C   UNL A   1      46.142  35.777  27.763  1.00  0.00     0.198 A 
ATOM     80  C   UNL A   1      47.273  34.889  29.683  1.00  0.00     0.198 A 
ATOM     81  F   UNL A   1      46.906  32.660  30.338  1.00  0.00    -0.203 F 
ATOM     82  F   UNL A   1      45.933  36.780  26.900  1.00  0.00    -0.200 F 
ATOM     83  C   UNL A   1      47.034  35.941  28.812  1.00  0.00     0.200 A 
ATOM     84  F   UNL A   1      48.123  35.047  30.708  1.00  0.00    -0.200 F 
ATOM     85  F   UNL A   1      47.669  37.109  28.980  1.00  0.00    -0.200 F 
ENDBRANCH  51  75
BRANCH  63  86
ATOM     86  C   UNL A   1      47.544  27.667  25.037  1.00  0.00     0.064 A 
ATOM     87  C   UNL A   1      48.709  27.126  25.602  1.00  0.00     0.173 A 
ATOM     88  C   UNL A   1      47.507  27.827  23.642  1.00  0.00     0.173 A 
ATOM     89  F   UNL A   1      48.802  26.964  26.931  1.00  0.00    -0.203 F 
ATOM     90  C   UNL A   1      49.801  26.788  24.807  1.00  0.00     0.198 A 
ATOM     91  C   UNL A   1      48.587  27.453  22.847  1.00  0.00     0.198 A 
ATOM     92  F   UNL A   1      46.415  28.331  23.047  1.00  0.00    -0.203 F 
ATOM     93  F   UNL A   1      50.922  26.323  25.374  1.00  0.00    -0.200 F 
ATOM     94  C   UNL A   1      49.736  26.943  23.430  1.00  0.00     0.200 A 
ATOM     95  F   UNL A   1      48.514  27.587  21.515  1.00  0.00    -0.200 F 
ATOM     96  F   UNL A   1      50.784  26.607  22.665  1.00  0.00    -0.200 F 
ENDBRANCH  63  86
ENDBRANCH  37  38
ENDBRANCH  30  32
ENDBRANCH  29  30
ENDBRANCH  28  29
ENDBRANCH  27  28
ENDBRANCH  26  27
ENDBRANCH  25  26
ENDBRANCH   1  25
TORSDOF 21
ENDMDL
MODEL 2
REMARK VINA RESULT:     -10.2      1.503      7.442
REMARK SMILES C[C@@H]1CN(C(=O)N2CC(CC(=O)OCCOCCOCCOCCOC(=O)c3ccc(-c4c5nc(c(-c6c(F)c(F)c(F)c(F)c6F)c6ccc([nH]6)c(-c6c(F)c(F)c(F)c(F)c6F)c6nc(c(-c7c(F)c(F)c(F)c(F)c7F)c7ccc4[nH]7)C=C6)C=C5)cc3)C2)C[C@H]1C
REMARK SMILES IDX 20 1 19 2 18 3 17 4 16 5 15 6 14 7 13 8 11 9 12 10 10 11
REMARK SMILES IDX 9 12 1 13 2 14 3 15 93 16 4 17 92 18 94 19 5 20 6 21 7 22
REMARK SMILES IDX 8 23 91 24 21 25 22 26 23 27 24 28 25 29 26 30 27 31 28 32
REMARK SMILES IDX 29 33 90 34 30 35 89 36 31 37 32 38 33 39 83 40 34 41 88 42
REMARK SMILES IDX 82 43 84 44 35 45 87 46 81 47 80 48 36 50 68 51 48 52 67 53
REMARK SMILES IDX 49 54 52 55 66 56 85 57 50 58 51 59 65 61 86 62 53 63 37 64
REMARK SMILES IDX 38 65 46 66 39 67 40 68 44 69 47 70 41 71 42 72 45 73 43 74
REMARK SMILES IDX 69 75 70 76 78 77 71 78 72 79 76 80 79 81 73 82 74 83 77 84
REMARK SMILES IDX 75 85 54 86 55 87 63 88 56 89 57 90 61 91 64 92 58 93 59 94
REMARK SMILES IDX 62 95 60 96
REMARK H PARENT 84 49 52 60
REMARK Flexibility Score: inf
ROOT
ATOM      1  C   UNL A   1      35.035  32.355  28.681  1.00  0.00     0.188 C 
ENDROOT
BRANCH   1   2
ATOM      2  O   UNL A   1      34.202  31.225  28.464  1.00  0.00    -0.377 OA
BRANCH   2   3
ATOM      3  C   UNL A   1      34.357  30.520  27.250  1.00  0.00     0.188 C 
BRANCH   3   4
ATOM      4  C   UNL A   1      33.061  30.075  26.564  1.00  0.00     0.188 C 
BRANCH   4   5
ATOM      5  O   UNL A   1      32.960  28.766  26.037  1.00  0.00    -0.376 OA
BRANCH   5   6
ATOM      6  C   UNL A   1      33.691  28.405  24.875  1.00  0.00     0.202 C 
BRANCH   6   7
ATOM      7  C   UNL A   1      33.016  28.022  23.540  1.00  0.00     0.261 C 
BRANCH   7   8
ATOM      8  O   UNL A   1      31.740  27.346  23.585  1.00  0.00    -0.463 OA
BRANCH   8   9
ATOM      9  C   UNL A   1      31.419  26.611  22.495  1.00  0.00     0.306 C 
ATOM     10  O   UNL A   1      30.653  26.992  21.614  1.00  0.00    -0.252 OA
BRANCH   9  11
ATOM     11  C   UNL A   1      32.019  25.226  22.443  1.00  0.00     0.130 C 
BRANCH  11  12
ATOM     12  C   UNL A   1      32.212  24.385  23.698  1.00  0.00     0.039 C 
ATOM     13  C   UNL A   1      32.747  17.749  22.341  1.00  0.00     0.010 C 
ATOM     14  C   UNL A   1      32.362  18.287  23.712  1.00  0.00     0.010 C 
ATOM     15  C   UNL A   1      32.170  19.803  23.681  1.00  0.00     0.125 C 
ATOM     16  C   UNL A   1      33.458  18.088  24.776  1.00  0.00     0.010 C 
ATOM     17  N   UNL A   1      32.700  20.287  24.944  1.00  0.00    -0.324 N 
ATOM     18  C   UNL A   1      33.145  19.193  25.786  1.00  0.00     0.125 C 
ATOM     19  C   UNL A   1      33.461  16.695  25.382  1.00  0.00     0.010 C 
ATOM     20  C   UNL A   1      33.093  21.594  25.161  1.00  0.00     0.320 C 
ATOM     21  O   UNL A   1      33.747  21.946  26.139  1.00  0.00    -0.248 OA
ATOM     22  N   UNL A   1      32.795  22.439  24.117  1.00  0.00    -0.324 N 
ATOM     23  C   UNL A   1      33.539  23.623  23.729  1.00  0.00     0.127 C 
ATOM     24  C   UNL A   1      31.486  23.040  23.846  1.00  0.00     0.127 C 
ENDBRANCH  11  12
ENDBRANCH   9  11
ENDBRANCH   8   9
ENDBRANCH   7   8
ENDBRANCH   6   7
ENDBRANCH   5   6
ENDBRANCH   4   5
ENDBRANCH   3   4
ENDBRANCH   2   3
ENDBRANCH   1   2
BRANCH   1  25
ATOM     25  C   UNL A   1      34.383  33.714  29.006  1.00  0.00     0.188 C 
BRANCH  25  26
ATOM     26  O   UNL A   1      34.895  34.352  30.167  1.00  0.00    -0.376 OA
BRANCH  26  27
ATOM     27  C   UNL A   1      34.094  34.401  31.338  1.00  0.00     0.202 C 
BRANCH  27  28
ATOM     28  C   UNL A   1      34.646  33.769  32.629  1.00  0.00     0.261 C 
BRANCH  28  29
ATOM     29  O   UNL A   1      35.283  32.487  32.496  1.00  0.00    -0.460 OA
BRANCH  29  30
ATOM     30  C   UNL A   1      36.396  32.250  33.216  1.00  0.00     0.338 C 
ATOM     31  O   UNL A   1      36.555  32.430  34.413  1.00  0.00    -0.246 OA
BRANCH  30  32
ATOM     32  C   UNL A   1      37.353  31.533  32.348  1.00  0.00     0.060 A 
ATOM     33  C   UNL A   1      38.237  30.617  32.931  1.00  0.00     0.016 A 
ATOM     34  C   UNL A   1      37.383  31.763  30.970  1.00  0.00     0.016 A 
ATOM     35  C   UNL A   1      39.183  29.958  32.146  1.00  0.00     0.010 A 
ATOM     36  C   UNL A   1      38.347  31.119  30.187  1.00  0.00     0.010 A 
ATOM     37  C   UNL A   1      39.274  30.241  30.778  1.00  0.00    -0.014 A 
BRANCH  37  38
ATOM     38  C   UNL A   1      40.457  29.778  30.011  1.00  0.00     0.031 A 
ATOM     39  C   UNL A   1      41.562  30.760  29.739  1.00  0.00     0.074 A 
ATOM     40  C   UNL A   1      40.566  28.506  29.589  1.00  0.00     0.049 A 
ATOM     41  N   UNL A   1      42.666  30.607  29.052  1.00  0.00    -0.248 NA
ATOM     42  C   UNL A   1      41.396  32.103  30.319  1.00  0.00     0.031 C 
ATOM     43  C   UNL A   1      39.588  27.449  29.830  1.00  0.00     0.029 A 
ATOM     44  N   UNL A   1      41.552  27.894  28.854  1.00  0.00    -0.354 N 
ATOM     45  C   UNL A   1      43.317  31.834  29.109  1.00  0.00     0.074 A 
ATOM     46  C   UNL A   1      42.473  32.728  29.871  1.00  0.00     0.031 C 
ATOM     47  C   UNL A   1      40.015  26.318  29.239  1.00  0.00     0.029 A 
ATOM     48  C   UNL A   1      41.276  26.585  28.548  1.00  0.00     0.049 A 
ATOM     49  H   UNL A   1      42.377  28.351  28.573  1.00  0.00     0.167 HD
ATOM     50  C   UNL A   1      44.514  32.179  28.579  1.00  0.00     0.037 A 
ATOM     51  C   UNL A   1      41.952  25.712  27.772  1.00  0.00     0.037 A 
ATOM     52  C   UNL A   1      45.349  31.286  27.821  1.00  0.00     0.049 A 
ATOM     53  C   UNL A   1      43.245  26.145  27.125  1.00  0.00     0.074 A 
ATOM     54  C   UNL A   1      46.590  31.532  27.261  1.00  0.00     0.029 A 
ATOM     55  N   UNL A   1      45.020  29.976  27.502  1.00  0.00    -0.354 N 
ATOM     56  N   UNL A   1      43.871  27.295  27.207  1.00  0.00    -0.248 NA
ATOM     57  C   UNL A   1      43.928  25.155  26.280  1.00  0.00     0.031 C 
ATOM     58  C   UNL A   1      46.981  30.396  26.546  1.00  0.00     0.029 A 
ATOM     59  C   UNL A   1      46.019  29.415  26.721  1.00  0.00     0.049 A 
ATOM     60  H   UNL A   1      44.199  29.514  27.787  1.00  0.00     0.167 HD
ATOM     61  C   UNL A   1      45.030  27.157  26.453  1.00  0.00     0.074 A 
ATOM     62  C   UNL A   1      45.029  25.806  25.934  1.00  0.00     0.031 C 
ATOM     63  C   UNL A   1      46.008  28.065  26.214  1.00  0.00     0.037 A 
BRANCH  50  64
ATOM     64  C   UNL A   1      44.973  33.597  28.766  1.00  0.00     0.064 A 
ATOM     65  C   UNL A   1      44.533  34.638  27.934  1.00  0.00     0.173 A 
ATOM     66  C   UNL A   1      45.850  33.922  29.813  1.00  0.00     0.173 A 
ATOM     67  F   UNL A   1      43.707  34.381  26.909  1.00  0.00    -0.203 F 
ATOM     68  C   UNL A   1      44.977  35.945  28.125  1.00  0.00     0.198 A 
ATOM     69  C   UNL A   1      46.263  35.235  30.023  1.00  0.00     0.198 A 
ATOM     70  F   UNL A   1      46.299  32.967  30.640  1.00  0.00    -0.203 F 
ATOM     71  F   UNL A   1      44.587  36.913  27.285  1.00  0.00    -0.200 F 
ATOM     72  C   UNL A   1      45.834  36.244  29.174  1.00  0.00     0.200 A 
ATOM     73  F   UNL A   1      47.079  35.524  31.046  1.00  0.00    -0.200 F 
ATOM     74  F   UNL A   1      46.254  37.503  29.362  1.00  0.00    -0.200 F 
ENDBRANCH  50  64
BRANCH  51  75
ATOM     75  C   UNL A   1      41.409  24.345  27.542  1.00  0.00     0.064 A 
ATOM     76  C   UNL A   1      42.013  23.216  28.113  1.00  0.00     0.173 A 
ATOM     77  C   UNL A   1      40.287  24.139  26.724  1.00  0.00     0.173 A 
ATOM     78  F   UNL A   1      43.104  23.357  28.880  1.00  0.00    -0.203 F 
ATOM     79  C   UNL A   1      41.530  21.934  27.858  1.00  0.00     0.198 A 
ATOM     80  C   UNL A   1      39.786  22.860  26.497  1.00  0.00     0.198 A 
ATOM     81  F   UNL A   1      39.673  25.184  26.150  1.00  0.00    -0.203 F 
ATOM     82  F   UNL A   1      42.159  20.869  28.373  1.00  0.00    -0.200 F 
ATOM     83  C   UNL A   1      40.413  21.757  27.056  1.00  0.00     0.200 A 
ATOM     84  F   UNL A   1      38.697  22.696  25.733  1.00  0.00    -0.200 F 
ATOM     85  F   UNL A   1      39.946  20.524  26.815  1.00  0.00    -0.200 F 
ENDBRANCH  51  75
BRANCH  63  86
ATOM     86  C   UNL A   1      47.183  27.622  25.387  1.00  0.00     0.064 A 
ATOM     87  C   UNL A   1      48.264  26.924  25.948  1.00  0.00     0.173 A 
ATOM     88  C   UNL A   1      47.206  27.859  24.003  1.00  0.00     0.173 A 
ATOM     89  F   UNL A   1      48.299  26.681  27.267  1.00  0.00    -0.203 F 
ATOM     90  C   UNL A   1      49.336  26.509  25.161  1.00  0.00     0.198 A 
ATOM     91  C   UNL A   1      48.261  27.410  23.214  1.00  0.00     0.198 A 
ATOM     92  F   UNL A   1      46.195  28.512  23.412  1.00  0.00    -0.203 F 
ATOM     93  F   UNL A   1      50.382  25.893  25.728  1.00  0.00    -0.200 F 
ATOM     94  C   UNL A   1      49.329  26.745  23.794  1.00  0.00     0.200 A 
ATOM     95  F   UNL A   1      48.244  27.623  21.890  1.00  0.00    -0.200 F 
ATOM     96  F   UNL A   1      50.357  26.335  23.037  1.00  0.00    -0.200 F 
ENDBRANCH  63  86
ENDBRANCH  37  38
ENDBRANCH  30  32
ENDBRANCH  29  30
ENDBRANCH  28  29
ENDBRANCH  27  28
ENDBRANCH  26  27
ENDBRANCH  25  26
ENDBRANCH   1  25
TORSDOF 21
ENDMDL
MODEL 3
REMARK VINA RESULT:     -10.0      5.076      7.990
REMARK SMILES C[C@@H]1CN(C(=O)N2CC(CC(=O)OCCOCCOCCOCCOC(=O)c3ccc(-c4c5nc(c(-c6c(F)c(F)c(F)c(F)c6F)c6ccc([nH]6)c(-c6c(F)c(F)c(F)c(F)c6F)c6nc(c(-c7c(F)c(F)c(F)c(F)c7F)c7ccc4[nH]7)C=C6)C=C5)cc3)C2)C[C@H]1C
REMARK SMILES IDX 20 1 19 2 18 3 17 4 16 5 15 6 14 7 13 8 11 9 12 10 10 11
REMARK SMILES IDX 9 12 1 13 2 14 3 15 93 16 4 17 92 18 94 19 5 20 6 21 7 22
REMARK SMILES IDX 8 23 91 24 21 25 22 26 23 27 24 28 25 29 26 30 27 31 28 32
REMARK SMILES IDX 29 33 90 34 30 35 89 36 31 37 32 38 33 39 83 40 34 41 88 42
REMARK SMILES IDX 82 43 84 44 35 45 87 46 81 47 80 48 36 50 68 51 48 52 67 53
REMARK SMILES IDX 49 54 52 55 66 56 85 57 50 58 51 59 65 61 86 62 53 63 37 64
REMARK SMILES IDX 38 65 46 66 39 67 40 68 44 69 47 70 41 71 42 72 45 73 43 74
REMARK SMILES IDX 69 75 70 76 78 77 71 78 72 79 76 80 79 81 73 82 74 83 77 84
REMARK SMILES IDX 75 85 54 86 55 87 63 88 56 89 57 90 61 91 64 92 58 93 59 94
REMARK SMILES IDX 62 95 60 96
REMARK H PARENT 84 49 52 60
REMARK Flexibility Score: inf
ROOT
ATOM      1  C   UNL A   1      35.042  33.213  28.881  1.00  0.00     0.188 C 
ENDROOT
BRANCH   1   2
ATOM      2  O   UNL A   1      34.453  31.925  28.985  1.00  0.00    -0.377 OA
BRANCH   2   3
ATOM      3  C   UNL A   1      34.514  31.082  27.853  1.00  0.00     0.188 C 
BRANCH   3   4
ATOM      4  C   UNL A   1      33.169  30.706  27.224  1.00  0.00     0.188 C 
BRANCH   4   5
ATOM      5  O   UNL A   1      32.953  29.385  26.765  1.00  0.00    -0.376 OA
BRANCH   5   6
ATOM      6  C   UNL A   1      33.941  28.728  25.988  1.00  0.00     0.202 C 
BRANCH   6   7
ATOM      7  C   UNL A   1      33.685  28.221  24.552  1.00  0.00     0.261 C 
BRANCH   7   8
ATOM      8  O   UNL A   1      32.744  27.140  24.364  1.00  0.00    -0.463 OA
BRANCH   8   9
ATOM      9  C   UNL A   1      32.985  26.319  23.315  1.00  0.00     0.306 C 
ATOM     10  O   UNL A   1      32.465  26.450  22.211  1.00  0.00    -0.252 OA
BRANCH   9  11
ATOM     11  C   UNL A   1      33.909  25.157  23.596  1.00  0.00     0.130 C 
BRANCH  11  12
ATOM     12  C   UNL A   1      33.632  24.161  24.714  1.00  0.00     0.039 C 
ATOM     13  C   UNL A   1      32.865  17.809  22.428  1.00  0.00     0.010 C 
ATOM     14  C   UNL A   1      32.339  18.274  23.779  1.00  0.00     0.010 C 
ATOM     15  C   UNL A   1      32.520  19.781  23.958  1.00  0.00     0.125 C 
ATOM     16  C   UNL A   1      33.110  17.678  24.972  1.00  0.00     0.010 C 
ATOM     17  N   UNL A   1      32.872  19.967  25.355  1.00  0.00    -0.324 N 
ATOM     18  C   UNL A   1      32.861  18.708  26.076  1.00  0.00     0.125 C 
ATOM     19  C   UNL A   1      32.659  16.275  25.339  1.00  0.00     0.010 C 
ATOM     20  C   UNL A   1      33.507  21.093  25.843  1.00  0.00     0.320 C 
ATOM     21  O   UNL A   1      34.006  21.151  26.964  1.00  0.00    -0.248 OA
ATOM     22  N   UNL A   1      33.641  22.097  24.912  1.00  0.00    -0.324 N 
ATOM     23  C   UNL A   1      34.707  23.080  24.854  1.00  0.00     0.127 C 
ATOM     24  C   UNL A   1      32.596  23.045  24.517  1.00  0.00     0.127 C 
ENDBRANCH  11  12
ENDBRANCH   9  11
ENDBRANCH   8   9
ENDBRANCH   7   8
ENDBRANCH   6   7
ENDBRANCH   5   6
ENDBRANCH   4   5
ENDBRANCH   3   4
ENDBRANCH   2   3
ENDBRANCH   1   2
BRANCH   1  25
ATOM     25  C   UNL A   1      34.356  34.282  28.009  1.00  0.00     0.188 C 
BRANCH  25  26
ATOM     26  O   UNL A   1      34.593  35.621  28.419  1.00  0.00    -0.376 OA
BRANCH  26  27
ATOM     27  C   UNL A   1      33.485  36.485  28.627  1.00  0.00     0.202 C 
BRANCH  27  28
ATOM     28  C   UNL A   1      32.959  36.668  30.063  1.00  0.00     0.261 C 
BRANCH  28  29
ATOM     29  O   UNL A   1      32.521  35.480  30.743  1.00  0.00    -0.460 OA
BRANCH  29  30
ATOM     30  C   UNL A   1      32.797  35.357  32.055  1.00  0.00     0.338 C 
ATOM     31  O   UNL A   1      32.057  35.609  32.993  1.00  0.00    -0.246 OA
BRANCH  30  32
ATOM     32  C   UNL A   1      34.095  34.665  32.182  1.00  0.00     0.060 A 
ATOM     33  C   UNL A   1      34.104  33.301  32.503  1.00  0.00     0.016 A 
ATOM     34  C   UNL A   1      35.297  35.352  31.992  1.00  0.00     0.016 A 
ATOM     35  C   UNL A   1      35.314  32.629  32.675  1.00  0.00     0.010 A 
ATOM     36  C   UNL A   1      36.510  34.683  32.187  1.00  0.00     0.010 A 
ATOM     37  C   UNL A   1      36.522  33.327  32.565  1.00  0.00    -0.014 A 
BRANCH  37  38
ATOM     38  C   UNL A   1      37.780  32.696  33.039  1.00  0.00     0.031 A 
ATOM     39  C   UNL A   1      38.425  31.651  32.172  1.00  0.00     0.074 A 
ATOM     40  C   UNL A   1      38.354  33.059  34.199  1.00  0.00     0.049 A 
ATOM     41  N   UNL A   1      39.493  30.926  32.392  1.00  0.00    -0.248 NA
ATOM     42  C   UNL A   1      37.774  31.386  30.879  1.00  0.00     0.031 C 
ATOM     43  C   UNL A   1      37.853  34.090  35.103  1.00  0.00     0.029 A 
ATOM     44  N   UNL A   1      39.485  32.586  34.818  1.00  0.00    -0.354 N 
ATOM     45  C   UNL A   1      39.633  30.114  31.273  1.00  0.00     0.074 A 
ATOM     46  C   UNL A   1      38.527  30.413  30.390  1.00  0.00     0.031 C 
ATOM     47  C   UNL A   1      38.665  34.163  36.173  1.00  0.00     0.029 A 
ATOM     48  C   UNL A   1      39.719  33.157  36.044  1.00  0.00     0.049 A 
ATOM     49  H   UNL A   1      40.071  31.902  34.421  1.00  0.00     0.167 HD
ATOM     50  C   UNL A   1      40.600  29.206  31.005  1.00  0.00     0.037 A 
ATOM     51  C   UNL A   1      40.661  32.877  36.969  1.00  0.00     0.037 A 
ATOM     52  C   UNL A   1      41.698  28.911  31.888  1.00  0.00     0.049 A 
ATOM     53  C   UNL A   1      41.683  31.803  36.681  1.00  0.00     0.074 A 
ATOM     54  C   UNL A   1      42.744  28.025  31.697  1.00  0.00     0.029 A 
ATOM     55  N   UNL A   1      41.883  29.486  33.137  1.00  0.00    -0.354 N 
ATOM     56  N   UNL A   1      41.828  31.060  35.610  1.00  0.00    -0.248 NA
ATOM     57  C   UNL A   1      42.674  31.532  37.732  1.00  0.00     0.031 C 
ATOM     58  C   UNL A   1      43.522  28.012  32.858  1.00  0.00     0.029 A 
ATOM     59  C   UNL A   1      43.006  28.944  33.744  1.00  0.00     0.049 A 
ATOM     60  H   UNL A   1      41.303  30.175  33.534  1.00  0.00     0.167 HD
ATOM     61  C   UNL A   1      42.940  30.260  35.844  1.00  0.00     0.074 A 
ATOM     62  C   UNL A   1      43.441  30.619  37.154  1.00  0.00     0.031 C 
ATOM     63  C   UNL A   1      43.498  29.315  35.048  1.00  0.00     0.037 A 
BRANCH  50  64
ATOM     64  C   UNL A   1      40.493  28.434  29.720  1.00  0.00     0.064 A 
ATOM     65  C   UNL A   1      41.137  28.850  28.545  1.00  0.00     0.173 A 
ATOM     66  C   UNL A   1      39.752  27.243  29.674  1.00  0.00     0.173 A 
ATOM     67  F   UNL A   1      41.845  29.990  28.530  1.00  0.00    -0.203 F 
ATOM     68  C   UNL A   1      41.019  28.119  27.365  1.00  0.00     0.198 A 
ATOM     69  C   UNL A   1      39.665  26.495  28.502  1.00  0.00     0.198 A 
ATOM     70  F   UNL A   1      39.119  26.796  30.769  1.00  0.00    -0.203 F 
ATOM     71  F   UNL A   1      41.597  28.565  26.242  1.00  0.00    -0.200 F 
ATOM     72  C   UNL A   1      40.291  26.938  27.347  1.00  0.00     0.200 A 
ATOM     73  F   UNL A   1      38.974  25.347  28.491  1.00  0.00    -0.200 F 
ATOM     74  F   UNL A   1      40.185  26.232  26.213  1.00  0.00    -0.200 F 
ENDBRANCH  50  64
BRANCH  51  75
ATOM     75  C   UNL A   1      40.671  33.605  38.266  1.00  0.00     0.064 A 
ATOM     76  C   UNL A   1      39.810  33.243  39.311  1.00  0.00     0.173 A 
ATOM     77  C   UNL A   1      41.527  34.697  38.478  1.00  0.00     0.173 A 
ATOM     78  F   UNL A   1      38.953  32.224  39.151  1.00  0.00    -0.203 F 
ATOM     79  C   UNL A   1      39.790  33.956  40.509  1.00  0.00     0.198 A 
ATOM     80  C   UNL A   1      41.530  35.388  39.686  1.00  0.00     0.198 A 
ATOM     81  F   UNL A   1      42.369  35.089  37.510  1.00  0.00    -0.203 F 
ATOM     82  F   UNL A   1      38.919  33.622  41.470  1.00  0.00    -0.200 F 
ATOM     83  C   UNL A   1      40.654  35.024  40.698  1.00  0.00     0.200 A 
ATOM     84  F   UNL A   1      42.377  36.410  39.870  1.00  0.00    -0.200 F 
ATOM     85  F   UNL A   1      40.638  35.707  41.851  1.00  0.00    -0.200 F 
ENDBRANCH  51  75
BRANCH  63  86
ATOM     86  C   UNL A   1      44.739  28.627  35.546  1.00  0.00     0.064 A 
ATOM     87  C   UNL A   1      44.680  27.450  36.307  1.00  0.00     0.173 A 
ATOM     88  C   UNL A   1      46.008  29.132  35.218  1.00  0.00     0.173 A 
ATOM     89  F   UNL A   1      43.493  26.933  36.659  1.00  0.00    -0.203 F 
ATOM     90  C   UNL A   1      45.843  26.821  36.746  1.00  0.00     0.198 A 
ATOM     91  C   UNL A   1      47.168  28.479  35.627  1.00  0.00     0.198 A 
ATOM     92  F   UNL A   1      46.124  30.248  34.484  1.00  0.00    -0.203 F 
ATOM     93  F   UNL A   1      45.761  25.729  37.517  1.00  0.00    -0.200 F 
ATOM     94  C   UNL A   1      47.086  27.331  36.398  1.00  0.00     0.200 A 
ATOM     95  F   UNL A   1      48.367  28.964  35.273  1.00  0.00    -0.200 F 
ATOM     96  F   UNL A   1      48.203  26.719  36.812  1.00  0.00    -0.200 F 
ENDBRANCH  63  86
ENDBRANCH  37  38
ENDBRANCH  30  32
ENDBRANCH  29  30
ENDBRANCH  28  29
ENDBRANCH  27  28
ENDBRANCH  26  27
ENDBRANCH  25  26
ENDBRANCH   1  25
TORSDOF 21
ENDMDL
