MODEL 1
REMARK VINA RESULT:     -10.4      0.000      0.000
REMARK SMILES O=C(OCCOCCOCCOCCOC(=O)c1nc(F)ccc1Br)c1ccc(-c2c3nc(c(-c4c(F)c(F)c(F)c(F)c4F)c4ccc([nH]4)c(-c4c(F)c(F)c(F)c(F)c4F)c4nc(c(-c5c(F)c(F)c(F)c(F)c5F)c5ccc2[nH]5)C=C4)C=C3)cc1
REMARK SMILES IDX 8 1 7 2 6 3 5 4 4 5 3 6 2 7 1 8 26 9 27 10 88 11 28 12 87 13
REMARK SMILES IDX 29 14 30 15 31 16 81 17 32 18 86 19 80 20 82 21 33 22 85 23
REMARK SMILES IDX 79 24 78 25 34 27 66 28 46 29 65 30 47 31 50 32 64 33 83 34
REMARK SMILES IDX 48 35 49 36 63 38 84 39 51 40 35 41 36 42 44 43 37 44 38 45
REMARK SMILES IDX 42 46 45 47 39 48 40 49 43 50 41 51 67 52 68 53 76 54 69 55
REMARK SMILES IDX 70 56 74 57 77 58 71 59 72 60 75 61 73 62 52 63 53 64 61 65
REMARK SMILES IDX 54 66 55 67 59 68 62 69 56 70 57 71 60 72 58 73 9 74 10 75
REMARK SMILES IDX 11 76 12 77 13 78 14 79 15 80 16 81 17 82 18 83 19 84 24 85
REMARK SMILES IDX 20 86 23 87 25 88 21 89 22 90
REMARK H PARENT 82 26 50 37
REMARK Flexibility Score: inf
ROOT
ATOM      1  C   UNL A   1      41.275  20.872  27.449  1.00  0.00     0.188 C 
ENDROOT
BRANCH   1   2
ATOM      2  C   UNL A   1      41.504  19.805  26.375  1.00  0.00     0.188 C 
BRANCH   2   3
ATOM      3  O   UNL A   1      42.492  20.021  25.372  1.00  0.00    -0.376 OA
BRANCH   3   4
ATOM      4  C   UNL A   1      43.748  20.592  25.706  1.00  0.00     0.202 C 
BRANCH   4   5
ATOM      5  C   UNL A   1      44.204  21.887  25.023  1.00  0.00     0.261 C 
BRANCH   5   6
ATOM      6  O   UNL A   1      43.300  23.004  25.045  1.00  0.00    -0.460 OA
BRANCH   6   7
ATOM      7  C   UNL A   1      43.755  24.282  25.007  1.00  0.00     0.338 C 
ATOM      8  O   UNL A   1      44.804  24.601  24.467  1.00  0.00    -0.246 OA
BRANCH   7   9
ATOM      9  C   UNL A   1      43.100  25.183  25.974  1.00  0.00     0.060 A 
ATOM     10  C   UNL A   1      42.064  24.663  26.764  1.00  0.00     0.016 A 
ATOM     11  C   UNL A   1      43.459  26.527  26.066  1.00  0.00     0.016 A 
ATOM     12  C   UNL A   1      41.350  25.506  27.618  1.00  0.00     0.010 A 
ATOM     13  C   UNL A   1      42.701  27.381  26.859  1.00  0.00     0.010 A 
ATOM     14  C   UNL A   1      41.670  26.869  27.669  1.00  0.00    -0.014 A 
BRANCH  14  15
ATOM     15  C   UNL A   1      41.201  27.704  28.793  1.00  0.00     0.031 A 
ATOM     16  C   UNL A   1      40.056  28.658  28.692  1.00  0.00     0.074 A 
ATOM     17  C   UNL A   1      41.927  27.601  29.923  1.00  0.00     0.049 A 
ATOM     18  N   UNL A   1      39.540  29.402  29.638  1.00  0.00    -0.248 NA
ATOM     19  C   UNL A   1      39.402  28.807  27.384  1.00  0.00     0.031 C 
ATOM     20  C   UNL A   1      43.073  26.700  30.095  1.00  0.00     0.029 A 
ATOM     21  N   UNL A   1      41.855  28.276  31.108  1.00  0.00    -0.354 N 
ATOM     22  C   UNL A   1      38.475  30.075  29.059  1.00  0.00     0.074 A 
ATOM     23  C   UNL A   1      38.446  29.691  27.662  1.00  0.00     0.031 C 
ATOM     24  C   UNL A   1      43.640  26.930  31.283  1.00  0.00     0.029 A 
ATOM     25  C   UNL A   1      42.875  27.960  31.970  1.00  0.00     0.049 A 
ATOM     26  H   UNL A   1      41.144  28.922  31.323  1.00  0.00     0.167 HD
ATOM     27  C   UNL A   1      37.601  30.915  29.666  1.00  0.00     0.037 A 
ATOM     28  C   UNL A   1      43.158  28.436  33.193  1.00  0.00     0.037 A 
ATOM     29  C   UNL A   1      37.683  31.292  31.059  1.00  0.00     0.049 A 
ATOM     30  C   UNL A   1      42.198  29.391  33.823  1.00  0.00     0.074 A 
ATOM     31  C   UNL A   1      36.799  32.062  31.796  1.00  0.00     0.029 A 
ATOM     32  N   UNL A   1      38.719  30.948  31.916  1.00  0.00    -0.354 N 
ATOM     33  N   UNL A   1      41.111  29.913  33.311  1.00  0.00    -0.248 NA
ATOM     34  C   UNL A   1      42.469  29.786  35.208  1.00  0.00     0.031 C 
ATOM     35  C   UNL A   1      37.329  32.232  33.079  1.00  0.00     0.029 A 
ATOM     36  C   UNL A   1      38.517  31.523  33.160  1.00  0.00     0.049 A 
ATOM     37  H   UNL A   1      39.485  30.378  31.675  1.00  0.00     0.167 HD
ATOM     38  C   UNL A   1      40.542  30.668  34.321  1.00  0.00     0.074 A 
ATOM     39  C   UNL A   1      41.409  30.539  35.476  1.00  0.00     0.031 C 
ATOM     40  C   UNL A   1      39.397  31.390  34.294  1.00  0.00     0.037 A 
BRANCH  27  41
ATOM     41  C   UNL A   1      36.454  31.471  28.873  1.00  0.00     0.064 A 
ATOM     42  C   UNL A   1      35.350  30.670  28.543  1.00  0.00     0.173 A 
ATOM     43  C   UNL A   1      36.368  32.846  28.602  1.00  0.00     0.173 A 
ATOM     44  F   UNL A   1      35.375  29.352  28.787  1.00  0.00    -0.203 F 
ATOM     45  C   UNL A   1      34.203  31.226  27.979  1.00  0.00     0.198 A 
ATOM     46  C   UNL A   1      35.213  33.401  28.057  1.00  0.00     0.198 A 
ATOM     47  F   UNL A   1      37.389  33.661  28.915  1.00  0.00    -0.203 F 
ATOM     48  F   UNL A   1      33.159  30.442  27.678  1.00  0.00    -0.200 F 
ATOM     49  C   UNL A   1      34.130  32.592  27.750  1.00  0.00     0.200 A 
ATOM     50  F   UNL A   1      35.135  34.724  27.857  1.00  0.00    -0.200 F 
ATOM     51  F   UNL A   1      33.010  33.129  27.244  1.00  0.00    -0.200 F 
ENDBRANCH  27  41
BRANCH  28  52
ATOM     52  C   UNL A   1      44.347  27.911  33.899  1.00  0.00     0.064 A 
ATOM     53  C   UNL A   1      45.590  28.540  33.763  1.00  0.00     0.173 A 
ATOM     54  C   UNL A   1      44.239  26.856  34.817  1.00  0.00     0.173 A 
ATOM     55  F   UNL A   1      45.733  29.559  32.902  1.00  0.00    -0.203 F 
ATOM     56  C   UNL A   1      46.685  28.130  34.516  1.00  0.00     0.198 A 
ATOM     57  C   UNL A   1      45.331  26.459  35.585  1.00  0.00     0.198 A 
ATOM     58  F   UNL A   1      43.059  26.244  35.002  1.00  0.00    -0.203 F 
ATOM     59  F   UNL A   1      47.866  28.746  34.365  1.00  0.00    -0.200 F 
ATOM     60  C   UNL A   1      46.554  27.096  35.432  1.00  0.00     0.200 A 
ATOM     61  F   UNL A   1      45.195  25.478  36.486  1.00  0.00    -0.200 F 
ATOM     62  F   UNL A   1      47.603  26.720  36.175  1.00  0.00    -0.200 F 
ENDBRANCH  28  52
BRANCH  40  63
ATOM     63  C   UNL A   1      39.009  32.097  35.556  1.00  0.00     0.064 A 
ATOM     64  C   UNL A   1      39.347  33.440  35.769  1.00  0.00     0.173 A 
ATOM     65  C   UNL A   1      38.235  31.445  36.526  1.00  0.00     0.173 A 
ATOM     66  F   UNL A   1      40.099  34.098  34.875  1.00  0.00    -0.203 F 
ATOM     67  C   UNL A   1      38.928  34.105  36.918  1.00  0.00     0.198 A 
ATOM     68  C   UNL A   1      37.798  32.120  37.662  1.00  0.00     0.198 A 
ATOM     69  F   UNL A   1      37.886  30.160  36.363  1.00  0.00    -0.203 F 
ATOM     70  F   UNL A   1      39.285  35.381  37.118  1.00  0.00    -0.200 F 
ATOM     71  C   UNL A   1      38.147  33.448  37.857  1.00  0.00     0.200 A 
ATOM     72  F   UNL A   1      37.033  31.488  38.562  1.00  0.00    -0.200 F 
ATOM     73  F   UNL A   1      37.731  34.095  38.954  1.00  0.00    -0.200 F 
ENDBRANCH  40  63
ENDBRANCH  14  15
ENDBRANCH   7   9
ENDBRANCH   6   7
ENDBRANCH   5   6
ENDBRANCH   4   5
ENDBRANCH   3   4
ENDBRANCH   2   3
ENDBRANCH   1   2
BRANCH   1  74
ATOM     74  O   UNL A   1      40.231  21.783  27.144  1.00  0.00    -0.377 OA
BRANCH  74  75
ATOM     75  C   UNL A   1      39.469  21.439  25.988  1.00  0.00     0.188 C 
BRANCH  75  76
ATOM     76  C   UNL A   1      38.175  22.236  25.753  1.00  0.00     0.188 C 
BRANCH  76  77
ATOM     77  O   UNL A   1      37.351  21.531  24.823  1.00  0.00    -0.376 OA
BRANCH  77  78
ATOM     78  C   UNL A   1      36.632  22.345  23.905  1.00  0.00     0.202 C 
BRANCH  78  79
ATOM     79  C   UNL A   1      35.104  22.357  24.069  1.00  0.00     0.261 C 
BRANCH  79  80
ATOM     80  O   UNL A   1      34.562  23.527  24.699  1.00  0.00    -0.458 OA
BRANCH  80  81
ATOM     81  C   UNL A   1      34.316  23.513  26.036  1.00  0.00     0.358 C 
ATOM     82  O   UNL A   1      35.132  23.324  26.910  1.00  0.00    -0.244 OA
BRANCH  81  83
ATOM     83  C   UNL A   1      32.883  23.934  26.210  1.00  0.00     0.165 A 
ATOM     84  N   UNL A   1      32.001  22.904  26.369  1.00  0.00    -0.211 NA
ATOM     85  C   UNL A   1      32.482  25.262  26.052  1.00  0.00     0.051 A 
ATOM     86  C   UNL A   1      30.691  23.209  26.357  1.00  0.00     0.213 A 
ATOM     87  C   UNL A   1      31.110  25.532  26.027  1.00  0.00     0.023 A 
ATOM     88  Br  UNL A   1      33.655  26.715  25.746  1.00  0.00    -0.048 Br
ATOM     89  F   UNL A   1      29.817  22.206  26.508  1.00  0.00    -0.185 F 
ATOM     90  C   UNL A   1      30.198  24.490  26.179  1.00  0.00     0.061 A 
ENDBRANCH  81  83
ENDBRANCH  80  81
ENDBRANCH  79  80
ENDBRANCH  78  79
ENDBRANCH  77  78
ENDBRANCH  76  77
ENDBRANCH  75  76
ENDBRANCH  74  75
ENDBRANCH   1  74
TORSDOF 20
ENDMDL
MODEL 2
REMARK VINA RESULT:     -10.0      0.604      7.532
REMARK SMILES O=C(OCCOCCOCCOCCOC(=O)c1nc(F)ccc1Br)c1ccc(-c2c3nc(c(-c4c(F)c(F)c(F)c(F)c4F)c4ccc([nH]4)c(-c4c(F)c(F)c(F)c(F)c4F)c4nc(c(-c5c(F)c(F)c(F)c(F)c5F)c5ccc2[nH]5)C=C4)C=C3)cc1
REMARK SMILES IDX 8 1 7 2 6 3 5 4 4 5 3 6 2 7 1 8 26 9 27 10 88 11 28 12 87 13
REMARK SMILES IDX 29 14 30 15 31 16 81 17 32 18 86 19 80 20 82 21 33 22 85 23
REMARK SMILES IDX 79 24 78 25 34 27 66 28 46 29 65 30 47 31 50 32 64 33 83 34
REMARK SMILES IDX 48 35 49 36 63 38 84 39 51 40 35 41 36 42 44 43 37 44 38 45
REMARK SMILES IDX 42 46 45 47 39 48 40 49 43 50 41 51 67 52 68 53 76 54 69 55
REMARK SMILES IDX 70 56 74 57 77 58 71 59 72 60 75 61 73 62 52 63 53 64 61 65
REMARK SMILES IDX 54 66 55 67 59 68 62 69 56 70 57 71 60 72 58 73 9 74 10 75
REMARK SMILES IDX 11 76 12 77 13 78 14 79 15 80 16 81 17 82 18 83 19 84 24 85
REMARK SMILES IDX 20 86 23 87 25 88 21 89 22 90
REMARK H PARENT 82 26 50 37
REMARK Flexibility Score: inf
ROOT
ATOM      1  C   UNL A   1      41.316  20.864  27.449  1.00  0.00     0.188 C 
ENDROOT
BRANCH   1   2
ATOM      2  C   UNL A   1      41.534  19.776  26.394  1.00  0.00     0.188 C 
BRANCH   2   3
ATOM      3  O   UNL A   1      42.510  19.972  25.376  1.00  0.00    -0.376 OA
BRANCH   3   4
ATOM      4  C   UNL A   1      43.789  20.501  25.695  1.00  0.00     0.202 C 
BRANCH   4   5
ATOM      5  C   UNL A   1      44.258  21.808  25.044  1.00  0.00     0.261 C 
BRANCH   5   6
ATOM      6  O   UNL A   1      43.394  22.951  25.151  1.00  0.00    -0.460 OA
BRANCH   6   7
ATOM      7  C   UNL A   1      43.886  24.215  25.115  1.00  0.00     0.338 C 
ATOM      8  O   UNL A   1      44.899  24.519  24.502  1.00  0.00    -0.246 OA
BRANCH   7   9
ATOM      9  C   UNL A   1      43.341  25.104  26.159  1.00  0.00     0.060 A 
ATOM     10  C   UNL A   1      42.249  24.646  26.912  1.00  0.00     0.016 A 
ATOM     11  C   UNL A   1      43.857  26.383  26.360  1.00  0.00     0.016 A 
ATOM     12  C   UNL A   1      41.640  25.492  27.839  1.00  0.00     0.010 A 
ATOM     13  C   UNL A   1      43.205  27.252  27.228  1.00  0.00     0.010 A 
ATOM     14  C   UNL A   1      42.119  26.799  28.001  1.00  0.00    -0.014 A 
BRANCH  14  15
ATOM     15  C   UNL A   1      41.750  27.587  29.195  1.00  0.00     0.031 A 
ATOM     16  C   UNL A   1      42.428  27.448  30.518  1.00  0.00     0.074 A 
ATOM     17  C   UNL A   1      40.695  28.408  29.031  1.00  0.00     0.049 A 
ATOM     18  N   UNL A   1      42.204  28.130  31.614  1.00  0.00    -0.248 NA
ATOM     19  C   UNL A   1      43.482  26.432  30.644  1.00  0.00     0.031 C 
ATOM     20  C   UNL A   1      39.968  28.588  27.769  1.00  0.00     0.029 A 
ATOM     21  N   UNL A   1      40.021  29.200  29.917  1.00  0.00    -0.354 N 
ATOM     22  C   UNL A   1      43.115  27.662  32.549  1.00  0.00     0.074 A 
ATOM     23  C   UNL A   1      43.864  26.599  31.909  1.00  0.00     0.031 C 
ATOM     24  C   UNL A   1      38.908  29.375  27.979  1.00  0.00     0.029 A 
ATOM     25  C   UNL A   1      38.906  29.787  29.374  1.00  0.00     0.049 A 
ATOM     26  H   UNL A   1      40.305  29.335  30.850  1.00  0.00     0.167 HD
ATOM     27  C   UNL A   1      43.302  28.110  33.814  1.00  0.00     0.037 A 
ATOM     28  C   UNL A   1      37.986  30.589  29.934  1.00  0.00     0.037 A 
ATOM     29  C   UNL A   1      42.513  29.156  34.423  1.00  0.00     0.049 A 
ATOM     30  C   UNL A   1      38.198  31.037  31.343  1.00  0.00     0.074 A 
ATOM     31  C   UNL A   1      42.677  29.749  35.663  1.00  0.00     0.029 A 
ATOM     32  N   UNL A   1      41.396  29.746  33.846  1.00  0.00    -0.354 N 
ATOM     33  N   UNL A   1      39.149  30.693  32.175  1.00  0.00    -0.248 NA
ATOM     34  C   UNL A   1      37.246  32.016  31.877  1.00  0.00     0.031 C 
ATOM     35  C   UNL A   1      41.629  30.653  35.861  1.00  0.00     0.029 A 
ATOM     36  C   UNL A   1      40.839  30.665  34.722  1.00  0.00     0.049 A 
ATOM     37  H   UNL A   1      41.050  29.542  32.947  1.00  0.00     0.167 HD
ATOM     38  C   UNL A   1      38.938  31.441  33.320  1.00  0.00     0.074 A 
ATOM     39  C   UNL A   1      37.764  32.254  33.076  1.00  0.00     0.031 C 
ATOM     40  C   UNL A   1      39.664  31.459  34.463  1.00  0.00     0.037 A 
BRANCH  27  41
ATOM     41  C   UNL A   1      44.413  27.525  34.638  1.00  0.00     0.064 A 
ATOM     42  C   UNL A   1      45.679  28.128  34.675  1.00  0.00     0.173 A 
ATOM     43  C   UNL A   1      44.164  26.471  35.532  1.00  0.00     0.173 A 
ATOM     44  F   UNL A   1      45.967  29.144  33.848  1.00  0.00    -0.203 F 
ATOM     45  C   UNL A   1      46.649  27.704  35.582  1.00  0.00     0.198 A 
ATOM     46  C   UNL A   1      45.129  26.064  36.450  1.00  0.00     0.198 A 
ATOM     47  F   UNL A   1      42.963  25.871  35.551  1.00  0.00    -0.203 F 
ATOM     48  F   UNL A   1      47.849  28.300  35.603  1.00  0.00    -0.200 F 
ATOM     49  C   UNL A   1      46.369  26.683  36.477  1.00  0.00     0.200 A 
ATOM     50  F   UNL A   1      44.850  25.091  37.329  1.00  0.00    -0.200 F 
ATOM     51  F   UNL A   1      47.291  26.304  37.374  1.00  0.00    -0.200 F 
ENDBRANCH  27  41
BRANCH  28  52
ATOM     52  C   UNL A   1      36.867  31.075  29.097  1.00  0.00     0.064 A 
ATOM     53  C   UNL A   1      35.788  30.235  28.797  1.00  0.00     0.173 A 
ATOM     54  C   UNL A   1      36.794  32.415  28.691  1.00  0.00     0.173 A 
ATOM     55  F   UNL A   1      35.817  28.949  29.175  1.00  0.00    -0.203 F 
ATOM     56  C   UNL A   1      34.675  30.718  28.115  1.00  0.00     0.198 A 
ATOM     57  C   UNL A   1      35.670  32.902  28.027  1.00  0.00     0.198 A 
ATOM     58  F   UNL A   1      37.791  33.263  28.985  1.00  0.00    -0.203 F 
ATOM     59  F   UNL A   1      33.656  29.893  27.835  1.00  0.00    -0.200 F 
ATOM     60  C   UNL A   1      34.613  32.052  27.738  1.00  0.00     0.200 A 
ATOM     61  F   UNL A   1      35.602  34.195  27.686  1.00  0.00    -0.200 F 
ATOM     62  F   UNL A   1      33.530  32.520  27.104  1.00  0.00    -0.200 F 
ENDBRANCH  28  52
BRANCH  40  63
ATOM     63  C   UNL A   1      39.212  32.394  35.541  1.00  0.00     0.064 A 
ATOM     64  C   UNL A   1      38.342  31.968  36.554  1.00  0.00     0.173 A 
ATOM     65  C   UNL A   1      39.706  33.705  35.598  1.00  0.00     0.173 A 
ATOM     66  F   UNL A   1      37.832  30.728  36.530  1.00  0.00    -0.203 F 
ATOM     67  C   UNL A   1      37.976  32.828  37.585  1.00  0.00     0.198 A 
ATOM     68  C   UNL A   1      39.358  34.554  36.644  1.00  0.00     0.198 A 
ATOM     69  F   UNL A   1      40.544  34.155  34.652  1.00  0.00    -0.203 F 
ATOM     70  F   UNL A   1      37.121  32.412  38.530  1.00  0.00    -0.200 F 
ATOM     71  C   UNL A   1      38.492  34.115  37.635  1.00  0.00     0.200 A 
ATOM     72  F   UNL A   1      39.866  35.793  36.698  1.00  0.00    -0.200 F 
ATOM     73  F   UNL A   1      38.152  34.935  38.638  1.00  0.00    -0.200 F 
ENDBRANCH  40  63
ENDBRANCH  14  15
ENDBRANCH   7   9
ENDBRANCH   6   7
ENDBRANCH   5   6
ENDBRANCH   4   5
ENDBRANCH   3   4
ENDBRANCH   2   3
ENDBRANCH   1   2
BRANCH   1  74
ATOM     74  O   UNL A   1      40.267  21.767  27.138  1.00  0.00    -0.377 OA
BRANCH  74  75
ATOM     75  C   UNL A   1      39.478  21.388  26.011  1.00  0.00     0.188 C 
BRANCH  75  76
ATOM     76  C   UNL A   1      38.208  22.215  25.750  1.00  0.00     0.188 C 
BRANCH  76  77
ATOM     77  O   UNL A   1      37.347  21.489  24.870  1.00  0.00    -0.376 OA
BRANCH  77  78
ATOM     78  C   UNL A   1      36.626  22.278  23.933  1.00  0.00     0.202 C 
BRANCH  78  79
ATOM     79  C   UNL A   1      35.097  22.297  24.102  1.00  0.00     0.261 C 
BRANCH  79  80
ATOM     80  O   UNL A   1      34.564  23.463  24.745  1.00  0.00    -0.458 OA
BRANCH  80  81
ATOM     81  C   UNL A   1      34.288  23.426  26.076  1.00  0.00     0.358 C 
ATOM     82  O   UNL A   1      35.079  23.200  26.963  1.00  0.00    -0.244 OA
BRANCH  81  83
ATOM     83  C   UNL A   1      32.860  23.875  26.227  1.00  0.00     0.165 A 
ATOM     84  N   UNL A   1      31.957  22.863  26.381  1.00  0.00    -0.211 NA
ATOM     85  C   UNL A   1      32.486  25.209  26.054  1.00  0.00     0.051 A 
ATOM     86  C   UNL A   1      30.653  23.192  26.348  1.00  0.00     0.213 A 
ATOM     87  C   UNL A   1      31.120  25.504  26.008  1.00  0.00     0.023 A 
ATOM     88  Br  UNL A   1      33.691  26.637  25.755  1.00  0.00    -0.048 Br
ATOM     89  F   UNL A   1      29.758  22.207  26.495  1.00  0.00    -0.185 F 
ATOM     90  C   UNL A   1      30.187  24.481  26.155  1.00  0.00     0.061 A 
ENDBRANCH  81  83
ENDBRANCH  80  81
ENDBRANCH  79  80
ENDBRANCH  78  79
ENDBRANCH  77  78
ENDBRANCH  76  77
ENDBRANCH  75  76
ENDBRANCH  74  75
ENDBRANCH   1  74
TORSDOF 20
ENDMDL
MODEL 3
REMARK VINA RESULT:     -10.0      1.444      2.037
REMARK SMILES O=C(OCCOCCOCCOCCOC(=O)c1nc(F)ccc1Br)c1ccc(-c2c3nc(c(-c4c(F)c(F)c(F)c(F)c4F)c4ccc([nH]4)c(-c4c(F)c(F)c(F)c(F)c4F)c4nc(c(-c5c(F)c(F)c(F)c(F)c5F)c5ccc2[nH]5)C=C4)C=C3)cc1
REMARK SMILES IDX 8 1 7 2 6 3 5 4 4 5 3 6 2 7 1 8 26 9 27 10 88 11 28 12 87 13
REMARK SMILES IDX 29 14 30 15 31 16 81 17 32 18 86 19 80 20 82 21 33 22 85 23
REMARK SMILES IDX 79 24 78 25 34 27 66 28 46 29 65 30 47 31 50 32 64 33 83 34
REMARK SMILES IDX 48 35 49 36 63 38 84 39 51 40 35 41 36 42 44 43 37 44 38 45
REMARK SMILES IDX 42 46 45 47 39 48 40 49 43 50 41 51 67 52 68 53 76 54 69 55
REMARK SMILES IDX 70 56 74 57 77 58 71 59 72 60 75 61 73 62 52 63 53 64 61 65
REMARK SMILES IDX 54 66 55 67 59 68 62 69 56 70 57 71 60 72 58 73 9 74 10 75
REMARK SMILES IDX 11 76 12 77 13 78 14 79 15 80 16 81 17 82 18 83 19 84 24 85
REMARK SMILES IDX 20 86 23 87 25 88 21 89 22 90
REMARK H PARENT 82 26 50 37
REMARK Flexibility Score: inf
ROOT
ATOM      1  C   UNL A   1      40.263  21.757  26.998  1.00  0.00     0.188 C 
ENDROOT
BRANCH   1   2
ATOM      2  C   UNL A   1      41.000  20.567  26.376  1.00  0.00     0.188 C 
BRANCH   2   3
ATOM      3  O   UNL A   1      42.375  20.359  26.680  1.00  0.00    -0.376 OA
BRANCH   3   4
ATOM      4  C   UNL A   1      43.384  20.730  25.752  1.00  0.00     0.202 C 
BRANCH   4   5
ATOM      5  C   UNL A   1      43.380  22.139  25.145  1.00  0.00     0.261 C 
BRANCH   5   6
ATOM      6  O   UNL A   1      43.934  23.204  25.933  1.00  0.00    -0.460 OA
BRANCH   6   7
ATOM      7  C   UNL A   1      43.886  24.493  25.513  1.00  0.00     0.338 C 
ATOM      8  O   UNL A   1      44.589  24.928  24.613  1.00  0.00    -0.246 OA
BRANCH   7   9
ATOM      9  C   UNL A   1      43.215  25.409  26.455  1.00  0.00     0.060 A 
ATOM     10  C   UNL A   1      42.106  24.927  27.167  1.00  0.00     0.016 A 
ATOM     11  C   UNL A   1      43.632  26.731  26.598  1.00  0.00     0.016 A 
ATOM     12  C   UNL A   1      41.381  25.789  27.991  1.00  0.00     0.010 A 
ATOM     13  C   UNL A   1      42.867  27.608  27.358  1.00  0.00     0.010 A 
ATOM     14  C   UNL A   1      41.762  27.134  28.091  1.00  0.00    -0.014 A 
BRANCH  14  15
ATOM     15  C   UNL A   1      41.262  27.971  29.200  1.00  0.00     0.031 A 
ATOM     16  C   UNL A   1      40.120  28.924  29.066  1.00  0.00     0.074 A 
ATOM     17  C   UNL A   1      41.959  27.872  30.348  1.00  0.00     0.049 A 
ATOM     18  N   UNL A   1      39.578  29.669  29.996  1.00  0.00    -0.248 NA
ATOM     19  C   UNL A   1      39.500  29.068  27.740  1.00  0.00     0.031 C 
ATOM     20  C   UNL A   1      43.101  26.973  30.553  1.00  0.00     0.029 A 
ATOM     21  N   UNL A   1      41.855  28.550  31.530  1.00  0.00    -0.354 N 
ATOM     22  C   UNL A   1      38.528  30.339  29.387  1.00  0.00     0.074 A 
ATOM     23  C   UNL A   1      38.536  29.952  27.991  1.00  0.00     0.031 C 
ATOM     24  C   UNL A   1      43.636  27.207  31.755  1.00  0.00     0.029 A 
ATOM     25  C   UNL A   1      42.852  28.238  32.419  1.00  0.00     0.049 A 
ATOM     26  H   UNL A   1      41.138  29.195  31.723  1.00  0.00     0.167 HD
ATOM     27  C   UNL A   1      37.637  31.180  29.969  1.00  0.00     0.037 A 
ATOM     28  C   UNL A   1      43.102  28.717  33.648  1.00  0.00     0.037 A 
ATOM     29  C   UNL A   1      37.681  31.561  31.362  1.00  0.00     0.049 A 
ATOM     30  C   UNL A   1      42.124  29.673  34.250  1.00  0.00     0.074 A 
ATOM     31  C   UNL A   1      36.778  32.331  32.074  1.00  0.00     0.029 A 
ATOM     32  N   UNL A   1      38.696  31.220  32.247  1.00  0.00    -0.354 N 
ATOM     33  N   UNL A   1      41.050  30.192  33.708  1.00  0.00    -0.248 NA
ATOM     34  C   UNL A   1      42.358  30.072  35.640  1.00  0.00     0.031 C 
ATOM     35  C   UNL A   1      37.273  32.505  33.370  1.00  0.00     0.029 A 
ATOM     36  C   UNL A   1      38.460  31.799  33.484  1.00  0.00     0.049 A 
ATOM     37  H   UNL A   1      39.468  30.651  32.028  1.00  0.00     0.167 HD
ATOM     38  C   UNL A   1      40.455  30.949  34.700  1.00  0.00     0.074 A 
ATOM     39  C   UNL A   1      41.291  30.825  35.878  1.00  0.00     0.031 C 
ATOM     40  C   UNL A   1      39.310  31.670  34.641  1.00  0.00     0.037 A 
BRANCH  27  41
ATOM     41  C   UNL A   1      36.511  31.732  29.144  1.00  0.00     0.064 A 
ATOM     42  C   UNL A   1      35.427  30.924  28.770  1.00  0.00     0.173 A 
ATOM     43  C   UNL A   1      36.420  33.109  28.884  1.00  0.00     0.173 A 
ATOM     44  F   UNL A   1      35.458  29.603  29.002  1.00  0.00    -0.203 F 
ATOM     45  C   UNL A   1      34.293  31.474  28.175  1.00  0.00     0.198 A 
ATOM     46  C   UNL A   1      35.277  33.658  28.307  1.00  0.00     0.198 A 
ATOM     47  F   UNL A   1      37.420  33.931  29.238  1.00  0.00    -0.203 F 
ATOM     48  F   UNL A   1      33.267  30.682  27.832  1.00  0.00    -0.200 F 
ATOM     49  C   UNL A   1      34.212  32.841  27.957  1.00  0.00     0.200 A 
ATOM     50  F   UNL A   1      35.192  34.982  28.117  1.00  0.00    -0.200 F 
ATOM     51  F   UNL A   1      33.105  33.372  27.420  1.00  0.00    -0.200 F 
ENDBRANCH  27  41
BRANCH  28  52
ATOM     52  C   UNL A   1      44.273  28.195  34.386  1.00  0.00     0.064 A 
ATOM     53  C   UNL A   1      45.486  28.892  34.377  1.00  0.00     0.173 A 
ATOM     54  C   UNL A   1      44.165  27.067  35.213  1.00  0.00     0.173 A 
ATOM     55  F   UNL A   1      45.627  29.981  33.606  1.00  0.00    -0.203 F 
ATOM     56  C   UNL A   1      46.555  28.477  35.165  1.00  0.00     0.198 A 
ATOM     57  C   UNL A   1      45.229  26.665  36.017  1.00  0.00     0.198 A 
ATOM     58  F   UNL A   1      43.010  26.388  35.277  1.00  0.00    -0.203 F 
ATOM     59  F   UNL A   1      47.709  29.158  35.136  1.00  0.00    -0.200 F 
ATOM     60  C   UNL A   1      46.423  27.369  35.991  1.00  0.00     0.200 A 
ATOM     61  F   UNL A   1      45.091  25.610  36.831  1.00  0.00    -0.200 F 
ATOM     62  F   UNL A   1      47.445  26.986  36.768  1.00  0.00    -0.200 F 
ENDBRANCH  28  52
BRANCH  40  63
ATOM     63  C   UNL A   1      38.888  32.379  35.890  1.00  0.00     0.064 A 
ATOM     64  C   UNL A   1      38.187  31.711  36.904  1.00  0.00     0.173 A 
ATOM     65  C   UNL A   1      39.247  33.718  36.103  1.00  0.00     0.173 A 
ATOM     66  F   UNL A   1      37.809  30.436  36.736  1.00  0.00    -0.203 F 
ATOM     67  C   UNL A   1      37.854  32.364  38.086  1.00  0.00     0.198 A 
ATOM     68  C   UNL A   1      38.934  34.359  37.297  1.00  0.00     0.198 A 
ATOM     69  F   UNL A   1      39.920  34.396  35.162  1.00  0.00    -0.203 F 
ATOM     70  F   UNL A   1      37.159  31.717  39.033  1.00  0.00    -0.200 F 
ATOM     71  C   UNL A   1      38.236  33.682  38.286  1.00  0.00     0.200 A 
ATOM     72  F   UNL A   1      39.313  35.629  37.494  1.00  0.00    -0.200 F 
ATOM     73  F   UNL A   1      37.928  34.302  39.433  1.00  0.00    -0.200 F 
ENDBRANCH  40  63
ENDBRANCH  14  15
ENDBRANCH   7   9
ENDBRANCH   6   7
ENDBRANCH   5   6
ENDBRANCH   4   5
ENDBRANCH   3   4
ENDBRANCH   2   3
ENDBRANCH   1   2
BRANCH   1  74
ATOM     74  O   UNL A   1      39.466  22.487  26.079  1.00  0.00    -0.377 OA
BRANCH  74  75
ATOM     75  C   UNL A   1      38.089  22.116  26.069  1.00  0.00     0.188 C 
BRANCH  75  76
ATOM     76  C   UNL A   1      37.077  23.231  25.756  1.00  0.00     0.188 C 
BRANCH  76  77
ATOM     77  O   UNL A   1      37.112  23.519  24.357  1.00  0.00    -0.376 OA
BRANCH  77  78
ATOM     78  C   UNL A   1      36.249  22.730  23.549  1.00  0.00     0.202 C 
BRANCH  78  79
ATOM     79  C   UNL A   1      34.851  23.315  23.285  1.00  0.00     0.261 C 
BRANCH  79  80
ATOM     80  O   UNL A   1      34.816  24.722  23.008  1.00  0.00    -0.458 OA
BRANCH  80  81
ATOM     81  C   UNL A   1      33.653  25.295  22.598  1.00  0.00     0.358 C 
ATOM     82  O   UNL A   1      33.124  25.141  21.520  1.00  0.00    -0.244 OA
BRANCH  81  83
ATOM     83  C   UNL A   1      33.088  26.014  23.791  1.00  0.00     0.165 A 
ATOM     84  N   UNL A   1      33.782  27.127  24.169  1.00  0.00    -0.211 NA
ATOM     85  C   UNL A   1      32.037  25.483  24.540  1.00  0.00     0.051 A 
ATOM     86  C   UNL A   1      33.425  27.710  25.327  1.00  0.00     0.213 A 
ATOM     87  C   UNL A   1      31.710  26.110  25.747  1.00  0.00     0.023 A 
ATOM     88  Br  UNL A   1      31.095  23.899  24.107  1.00  0.00    -0.048 Br
ATOM     89  F   UNL A   1      34.103  28.801  25.709  1.00  0.00    -0.185 F 
ATOM     90  C   UNL A   1      32.417  27.241  26.149  1.00  0.00     0.061 A 
ENDBRANCH  81  83
ENDBRANCH  80  81
ENDBRANCH  79  80
ENDBRANCH  78  79
ENDBRANCH  77  78
ENDBRANCH  76  77
ENDBRANCH  75  76
ENDBRANCH  74  75
ENDBRANCH   1  74
TORSDOF 20
ENDMDL
