MODEL 1
REMARK VINA RESULT:      -9.9      0.000      0.000
REMARK SMILES [NH3+]CCOCC(=O)N1C[C@@H](C(=O)OCCOCCOCCOCCOC(=O)c2ccc(-c3c4nc(c(-c5c(F)c(F)c(F)c(F)c5F)c5ccc([nH]5)c(-c5c(F)c(F)c(F)c(F)c5F)c5nc(c(-c6c(F)c(F)c(F)c(F)c6F)c6ccc3[nH]6)C=C5)C=C4)cc2)Oc2ccccc21
REMARK SMILES IDX 17 1 16 2 15 3 14 4 13 5 11 6 12 7 10 8 8 9 9 10 97 11 92 12
REMARK SMILES IDX 96 13 91 14 93 15 95 16 94 17 6 18 7 19 5 20 4 21 3 22 2 23
REMARK SMILES IDX 1 24 18 28 19 29 20 30 21 31 22 32 23 33 24 34 25 35 26 36
REMARK SMILES IDX 27 37 28 38 29 39 90 40 30 41 89 42 31 43 32 44 33 45 83 46
REMARK SMILES IDX 34 47 88 48 82 49 84 50 35 51 87 52 81 53 80 54 36 56 68 57
REMARK SMILES IDX 48 58 67 59 49 60 52 61 66 62 85 63 50 64 51 65 65 67 86 68
REMARK SMILES IDX 53 69 37 70 38 71 46 72 39 73 40 74 44 75 47 76 41 77 42 78
REMARK SMILES IDX 45 79 43 80 69 81 70 82 78 83 71 84 72 85 76 86 79 87 73 88
REMARK SMILES IDX 74 89 77 90 75 91 54 92 55 93 63 94 56 95 57 96 61 97 64 98
REMARK SMILES IDX 58 99 59 100 62 101 60 102
REMARK H PARENT 1 25 1 26 1 27 84 55 52 66
REMARK Flexibility Score: inf
ROOT
ATOM      1  C   UNL A   1      36.296  23.590  25.779  1.00  0.00     0.188 C 
ENDROOT
BRANCH   1   2
ATOM      2  O   UNL A   1      35.345  22.824  26.490  1.00  0.00    -0.376 OA
BRANCH   2   3
ATOM      3  C   UNL A   1      34.031  23.299  26.695  1.00  0.00     0.202 C 
BRANCH   3   4
ATOM      4  C   UNL A   1      33.038  22.595  27.638  1.00  0.00     0.261 C 
BRANCH   4   5
ATOM      5  O   UNL A   1      31.648  22.959  27.491  1.00  0.00    -0.460 OA
BRANCH   5   6
ATOM      6  C   UNL A   1      31.189  23.216  26.235  1.00  0.00     0.349 C 
ATOM      7  O   UNL A   1      31.147  22.364  25.352  1.00  0.00    -0.248 OA
BRANCH   6   8
ATOM      8  C   UNL A   1      30.718  24.687  25.993  1.00  0.00     0.302 C 
ATOM      9  N   UNL A   1      32.244  25.771  24.368  1.00  0.00    -0.303 N 
ATOM     10  C   UNL A   1      30.942  25.129  24.554  1.00  0.00     0.183 C 
ATOM     11  C   UNL A   1      32.549  26.747  25.356  1.00  0.00     0.086 A 
ATOM     12  C   UNL A   1      31.781  26.768  26.531  1.00  0.00     0.144 A 
ATOM     13  C   UNL A   1      33.526  27.735  25.164  1.00  0.00     0.030 A 
ATOM     14  O   UNL A   1      30.980  25.723  26.941  1.00  0.00    -0.475 OA
ATOM     15  C   UNL A   1      31.911  27.832  27.433  1.00  0.00     0.049 A 
ATOM     16  C   UNL A   1      33.676  28.776  26.084  1.00  0.00     0.002 A 
ATOM     17  C   UNL A   1      32.844  28.845  27.197  1.00  0.00     0.004 A 
BRANCH   9  18
ATOM     18  C   UNL A   1      33.024  25.595  23.233  1.00  0.00     0.253 C 
ATOM     19  O   UNL A   1      34.021  24.873  23.177  1.00  0.00    -0.272 OA
BRANCH  18  20
ATOM     20  C   UNL A   1      32.629  26.455  22.021  1.00  0.00     0.260 C 
BRANCH  20  21
ATOM     21  O   UNL A   1      31.267  26.695  21.739  1.00  0.00    -0.366 OA
BRANCH  21  22
ATOM     22  C   UNL A   1      30.683  27.799  22.431  1.00  0.00     0.222 C 
BRANCH  22  23
ATOM     23  C   UNL A   1      31.393  29.135  22.198  1.00  0.00     0.287 C 
BRANCH  23  24
ATOM     24  N   UNL A   1      30.578  30.146  21.526  1.00  0.00    -0.356 N 
ATOM     25  H   UNL A   1      30.657  31.032  22.026  1.00  0.00     0.344 HD
ATOM     26  H   UNL A   1      29.604  29.846  21.516  1.00  0.00     0.344 HD
ATOM     27  H   UNL A   1      30.907  30.267  20.568  1.00  0.00     0.344 HD
ENDBRANCH  23  24
ENDBRANCH  22  23
ENDBRANCH  21  22
ENDBRANCH  20  21
ENDBRANCH  18  20
ENDBRANCH   9  18
ENDBRANCH   6   8
ENDBRANCH   5   6
ENDBRANCH   4   5
ENDBRANCH   3   4
ENDBRANCH   2   3
ENDBRANCH   1   2
BRANCH   1  28
ATOM     28  C   UNL A   1      37.810  23.390  25.992  1.00  0.00     0.188 C 
BRANCH  28  29
ATOM     29  O   UNL A   1      38.538  22.186  26.084  1.00  0.00    -0.377 OA
BRANCH  29  30
ATOM     30  C   UNL A   1      39.927  22.229  26.241  1.00  0.00     0.188 C 
BRANCH  30  31
ATOM     31  C   UNL A   1      40.501  20.899  26.715  1.00  0.00     0.188 C 
BRANCH  31  32
ATOM     32  O   UNL A   1      41.722  20.580  26.080  1.00  0.00    -0.376 OA
BRANCH  32  33
ATOM     33  C   UNL A   1      42.072  19.217  25.867  1.00  0.00     0.202 C 
BRANCH  33  34
ATOM     34  C   UNL A   1      43.442  18.727  25.346  1.00  0.00     0.261 C 
BRANCH  34  35
ATOM     35  O   UNL A   1      43.959  19.281  24.136  1.00  0.00    -0.460 OA
BRANCH  35  36
ATOM     36  C   UNL A   1      45.183  19.836  24.165  1.00  0.00     0.338 C 
ATOM     37  O   UNL A   1      46.185  19.454  23.608  1.00  0.00    -0.246 OA
BRANCH  36  38
ATOM     38  C   UNL A   1      45.025  21.139  24.846  1.00  0.00     0.060 A 
ATOM     39  C   UNL A   1      44.614  22.227  24.068  1.00  0.00     0.016 A 
ATOM     40  C   UNL A   1      45.241  21.283  26.220  1.00  0.00     0.016 A 
ATOM     41  C   UNL A   1      44.433  23.471  24.658  1.00  0.00     0.010 A 
ATOM     42  C   UNL A   1      45.102  22.545  26.806  1.00  0.00     0.010 A 
ATOM     43  C   UNL A   1      44.730  23.646  26.016  1.00  0.00    -0.014 A 
BRANCH  43  44
ATOM     44  C   UNL A   1      44.882  25.034  26.505  1.00  0.00     0.031 A 
ATOM     45  C   UNL A   1      46.240  25.666  26.391  1.00  0.00     0.074 A 
ATOM     46  C   UNL A   1      43.822  25.743  26.923  1.00  0.00     0.049 A 
ATOM     47  N   UNL A   1      46.619  26.884  26.673  1.00  0.00    -0.248 NA
ATOM     48  C   UNL A   1      47.317  24.805  25.871  1.00  0.00     0.031 C 
ATOM     49  C   UNL A   1      42.452  25.240  27.010  1.00  0.00     0.029 A 
ATOM     50  N   UNL A   1      43.732  27.047  27.339  1.00  0.00    -0.354 N 
ATOM     51  C   UNL A   1      47.972  26.936  26.364  1.00  0.00     0.074 A 
ATOM     52  C   UNL A   1      48.358  25.622  25.904  1.00  0.00     0.031 C 
ATOM     53  C   UNL A   1      41.655  26.227  27.456  1.00  0.00     0.029 A 
ATOM     54  C   UNL A   1      42.465  27.417  27.712  1.00  0.00     0.049 A 
ATOM     55  H   UNL A   1      44.503  27.658  27.367  1.00  0.00     0.167 HD
ATOM     56  C   UNL A   1      48.813  27.992  26.447  1.00  0.00     0.037 A 
ATOM     57  C   UNL A   1      42.022  28.584  28.220  1.00  0.00     0.037 A 
ATOM     58  C   UNL A   1      48.417  29.292  26.919  1.00  0.00     0.049 A 
ATOM     59  C   UNL A   1      43.001  29.719  28.392  1.00  0.00     0.074 A 
ATOM     60  C   UNL A   1      49.185  30.433  27.052  1.00  0.00     0.029 A 
ATOM     61  N   UNL A   1      47.138  29.613  27.351  1.00  0.00    -0.354 N 
ATOM     62  N   UNL A   1      44.275  29.771  28.081  1.00  0.00    -0.248 NA
ATOM     63  C   UNL A   1      42.480  30.960  28.980  1.00  0.00     0.031 C 
ATOM     64  C   UNL A   1      48.387  31.427  27.628  1.00  0.00     0.029 A 
ATOM     65  C   UNL A   1      47.102  30.929  27.783  1.00  0.00     0.049 A 
ATOM     66  H   UNL A   1      46.368  28.998  27.351  1.00  0.00     0.167 HD
ATOM     67  C   UNL A   1      44.699  31.053  28.406  1.00  0.00     0.074 A 
ATOM     68  C   UNL A   1      43.541  31.753  28.923  1.00  0.00     0.031 C 
ATOM     69  C   UNL A   1      45.933  31.605  28.288  1.00  0.00     0.037 A 
BRANCH  56  70
ATOM     70  C   UNL A   1      50.249  27.768  26.067  1.00  0.00     0.064 A 
ATOM     71  C   UNL A   1      51.247  27.547  27.029  1.00  0.00     0.173 A 
ATOM     72  C   UNL A   1      50.628  27.762  24.716  1.00  0.00     0.173 A 
ATOM     73  F   UNL A   1      50.943  27.562  28.336  1.00  0.00    -0.203 F 
ATOM     74  C   UNL A   1      52.575  27.357  26.652  1.00  0.00     0.198 A 
ATOM     75  C   UNL A   1      51.949  27.537  24.342  1.00  0.00     0.198 A 
ATOM     76  F   UNL A   1      49.714  27.970  23.757  1.00  0.00    -0.203 F 
ATOM     77  F   UNL A   1      53.520  27.203  27.589  1.00  0.00    -0.200 F 
ATOM     78  C   UNL A   1      52.923  27.345  25.310  1.00  0.00     0.200 A 
ATOM     79  F   UNL A   1      52.281  27.513  23.044  1.00  0.00    -0.200 F 
ATOM     80  F   UNL A   1      54.200  27.154  24.949  1.00  0.00    -0.200 F 
ENDBRANCH  56  70
BRANCH  57  81
ATOM     81  C   UNL A   1      40.597  28.734  28.620  1.00  0.00     0.064 A 
ATOM     82  C   UNL A   1      40.166  28.432  29.919  1.00  0.00     0.173 A 
ATOM     83  C   UNL A   1      39.629  29.160  27.697  1.00  0.00     0.173 A 
ATOM     84  F   UNL A   1      41.045  27.995  30.832  1.00  0.00    -0.203 F 
ATOM     85  C   UNL A   1      38.821  28.531  30.274  1.00  0.00     0.198 A 
ATOM     86  C   UNL A   1      38.290  29.290  28.062  1.00  0.00     0.198 A 
ATOM     87  F   UNL A   1      39.984  29.456  26.438  1.00  0.00    -0.203 F 
ATOM     88  F   UNL A   1      38.428  28.184  31.507  1.00  0.00    -0.200 F 
ATOM     89  C   UNL A   1      37.886  28.967  29.347  1.00  0.00     0.200 A 
ATOM     90  F   UNL A   1      37.392  29.721  27.165  1.00  0.00    -0.200 F 
ATOM     91  F   UNL A   1      36.593  29.062  29.689  1.00  0.00    -0.200 F 
ENDBRANCH  57  81
BRANCH  69  92
ATOM     92  C   UNL A   1      46.085  33.047  28.682  1.00  0.00     0.064 A 
ATOM     93  C   UNL A   1      45.884  34.091  27.768  1.00  0.00     0.173 A 
ATOM     94  C   UNL A   1      46.388  33.388  30.010  1.00  0.00     0.173 A 
ATOM     95  F   UNL A   1      45.603  33.820  26.483  1.00  0.00    -0.203 F 
ATOM     96  C   UNL A   1      46.014  35.420  28.160  1.00  0.00     0.198 A 
ATOM     97  C   UNL A   1      46.480  34.719  30.407  1.00  0.00     0.198 A 
ATOM     98  F   UNL A   1      46.578  32.429  30.929  1.00  0.00    -0.203 F 
ATOM     99  F   UNL A   1      45.873  36.400  27.256  1.00  0.00    -0.200 F 
ATOM    100  C   UNL A   1      46.302  35.733  29.480  1.00  0.00     0.200 A 
ATOM    101  F   UNL A   1      46.736  35.018  31.688  1.00  0.00    -0.200 F 
ATOM    102  F   UNL A   1      46.415  37.014  29.858  1.00  0.00    -0.200 F 
ENDBRANCH  69  92
ENDBRANCH  43  44
ENDBRANCH  36  38
ENDBRANCH  35  36
ENDBRANCH  34  35
ENDBRANCH  33  34
ENDBRANCH  32  33
ENDBRANCH  31  32
ENDBRANCH  30  31
ENDBRANCH  29  30
ENDBRANCH  28  29
ENDBRANCH   1  28
TORSDOF 26
ENDMDL
MODEL 2
REMARK VINA RESULT:      -9.8      1.067      2.019
REMARK SMILES [NH3+]CCOCC(=O)N1C[C@@H](C(=O)OCCOCCOCCOCCOC(=O)c2ccc(-c3c4nc(c(-c5c(F)c(F)c(F)c(F)c5F)c5ccc([nH]5)c(-c5c(F)c(F)c(F)c(F)c5F)c5nc(c(-c6c(F)c(F)c(F)c(F)c6F)c6ccc3[nH]6)C=C5)C=C4)cc2)Oc2ccccc21
REMARK SMILES IDX 17 1 16 2 15 3 14 4 13 5 11 6 12 7 10 8 8 9 9 10 97 11 92 12
REMARK SMILES IDX 96 13 91 14 93 15 95 16 94 17 6 18 7 19 5 20 4 21 3 22 2 23
REMARK SMILES IDX 1 24 18 28 19 29 20 30 21 31 22 32 23 33 24 34 25 35 26 36
REMARK SMILES IDX 27 37 28 38 29 39 90 40 30 41 89 42 31 43 32 44 33 45 83 46
REMARK SMILES IDX 34 47 88 48 82 49 84 50 35 51 87 52 81 53 80 54 36 56 68 57
REMARK SMILES IDX 48 58 67 59 49 60 52 61 66 62 85 63 50 64 51 65 65 67 86 68
REMARK SMILES IDX 53 69 37 70 38 71 46 72 39 73 40 74 44 75 47 76 41 77 42 78
REMARK SMILES IDX 45 79 43 80 69 81 70 82 78 83 71 84 72 85 76 86 79 87 73 88
REMARK SMILES IDX 74 89 77 90 75 91 54 92 55 93 63 94 56 95 57 96 61 97 64 98
REMARK SMILES IDX 58 99 59 100 62 101 60 102
REMARK H PARENT 1 25 1 26 1 27 84 55 52 66
REMARK Flexibility Score: inf
ROOT
ATOM      1  C   UNL A   1      36.603  23.839  25.388  1.00  0.00     0.188 C 
ENDROOT
BRANCH   1   2
ATOM      2  O   UNL A   1      35.518  22.966  25.150  1.00  0.00    -0.376 OA
BRANCH   2   3
ATOM      3  C   UNL A   1      34.211  23.462  24.951  1.00  0.00     0.202 C 
BRANCH   3   4
ATOM      4  C   UNL A   1      32.985  22.537  24.847  1.00  0.00     0.261 C 
BRANCH   4   5
ATOM      5  O   UNL A   1      31.745  23.056  25.377  1.00  0.00    -0.460 OA
BRANCH   5   6
ATOM      6  C   UNL A   1      31.135  24.062  24.693  1.00  0.00     0.349 C 
ATOM      7  O   UNL A   1      31.078  24.098  23.467  1.00  0.00    -0.248 OA
BRANCH   6   8
ATOM      8  C   UNL A   1      30.508  25.181  25.586  1.00  0.00     0.302 C 
ATOM      9  N   UNL A   1      30.174  27.221  24.217  1.00  0.00    -0.303 N 
ATOM     10  C   UNL A   1      29.528  26.049  24.811  1.00  0.00     0.183 C 
ATOM     11  C   UNL A   1      31.025  27.922  25.114  1.00  0.00     0.086 A 
ATOM     12  C   UNL A   1      31.410  27.285  26.304  1.00  0.00     0.144 A 
ATOM     13  C   UNL A   1      31.423  29.249  24.894  1.00  0.00     0.030 A 
ATOM     14  O   UNL A   1      31.296  25.926  26.516  1.00  0.00    -0.475 OA
ATOM     15  C   UNL A   1      32.075  28.007  27.302  1.00  0.00     0.049 A 
ATOM     16  C   UNL A   1      32.117  29.956  25.879  1.00  0.00     0.002 A 
ATOM     17  C   UNL A   1      32.409  29.349  27.096  1.00  0.00     0.004 A 
BRANCH   9  18
ATOM     18  C   UNL A   1      29.841  27.720  22.965  1.00  0.00     0.253 C 
ATOM     19  O   UNL A   1      30.615  27.770  22.007  1.00  0.00    -0.272 OA
BRANCH  18  20
ATOM     20  C   UNL A   1      28.433  28.327  22.849  1.00  0.00     0.260 C 
BRANCH  20  21
ATOM     21  O   UNL A   1      28.136  29.549  23.489  1.00  0.00    -0.366 OA
BRANCH  21  22
ATOM     22  C   UNL A   1      27.691  30.599  22.629  1.00  0.00     0.222 C 
BRANCH  22  23
ATOM     23  C   UNL A   1      28.436  30.678  21.295  1.00  0.00     0.287 C 
BRANCH  23  24
ATOM     24  N   UNL A   1      28.750  32.037  20.855  1.00  0.00    -0.356 N 
ATOM     25  H   UNL A   1      29.566  32.015  20.242  1.00  0.00     0.344 HD
ATOM     26  H   UNL A   1      28.949  32.620  21.667  1.00  0.00     0.344 HD
ATOM     27  H   UNL A   1      27.954  32.422  20.346  1.00  0.00     0.344 HD
ENDBRANCH  23  24
ENDBRANCH  22  23
ENDBRANCH  21  22
ENDBRANCH  20  21
ENDBRANCH  18  20
ENDBRANCH   9  18
ENDBRANCH   6   8
ENDBRANCH   5   6
ENDBRANCH   4   5
ENDBRANCH   3   4
ENDBRANCH   2   3
ENDBRANCH   1   2
BRANCH   1  28
ATOM     28  C   UNL A   1      37.853  23.374  26.161  1.00  0.00     0.188 C 
BRANCH  28  29
ATOM     29  O   UNL A   1      38.611  22.198  25.992  1.00  0.00    -0.377 OA
BRANCH  29  30
ATOM     30  C   UNL A   1      39.933  22.156  26.445  1.00  0.00     0.188 C 
BRANCH  30  31
ATOM     31  C   UNL A   1      40.407  20.736  26.730  1.00  0.00     0.188 C 
BRANCH  31  32
ATOM     32  O   UNL A   1      41.639  20.441  26.104  1.00  0.00    -0.376 OA
BRANCH  32  33
ATOM     33  C   UNL A   1      42.043  19.086  25.942  1.00  0.00     0.202 C 
BRANCH  33  34
ATOM     34  C   UNL A   1      43.409  18.631  25.384  1.00  0.00     0.261 C 
BRANCH  34  35
ATOM     35  O   UNL A   1      43.881  19.200  24.163  1.00  0.00    -0.460 OA
BRANCH  35  36
ATOM     36  C   UNL A   1      45.101  19.764  24.154  1.00  0.00     0.338 C 
ATOM     37  O   UNL A   1      46.091  19.383  23.575  1.00  0.00    -0.246 OA
BRANCH  36  38
ATOM     38  C   UNL A   1      44.951  21.072  24.826  1.00  0.00     0.060 A 
ATOM     39  C   UNL A   1      44.540  22.155  24.043  1.00  0.00     0.016 A 
ATOM     40  C   UNL A   1      45.175  21.226  26.199  1.00  0.00     0.016 A 
ATOM     41  C   UNL A   1      44.367  23.405  24.625  1.00  0.00     0.010 A 
ATOM     42  C   UNL A   1      45.044  22.493  26.775  1.00  0.00     0.010 A 
ATOM     43  C   UNL A   1      44.672  23.589  25.979  1.00  0.00    -0.014 A 
BRANCH  43  44
ATOM     44  C   UNL A   1      44.832  24.979  26.458  1.00  0.00     0.031 A 
ATOM     45  C   UNL A   1      46.185  25.614  26.308  1.00  0.00     0.074 A 
ATOM     46  C   UNL A   1      43.779  25.688  26.896  1.00  0.00     0.049 A 
ATOM     47  N   UNL A   1      46.567  26.836  26.575  1.00  0.00    -0.248 NA
ATOM     48  C   UNL A   1      47.252  24.754  25.768  1.00  0.00     0.031 C 
ATOM     49  C   UNL A   1      42.413  25.182  27.017  1.00  0.00     0.029 A 
ATOM     50  N   UNL A   1      43.696  26.994  27.307  1.00  0.00    -0.354 N 
ATOM     51  C   UNL A   1      47.913  26.888  26.234  1.00  0.00     0.074 A 
ATOM     52  C   UNL A   1      48.291  25.573  25.772  1.00  0.00     0.031 C 
ATOM     53  C   UNL A   1      41.625  26.170  27.477  1.00  0.00     0.029 A 
ATOM     54  C   UNL A   1      42.436  27.363  27.707  1.00  0.00     0.049 A 
ATOM     55  H   UNL A   1      44.466  27.607  27.313  1.00  0.00     0.167 HD
ATOM     56  C   UNL A   1      48.752  27.947  26.292  1.00  0.00     0.037 A 
ATOM     57  C   UNL A   1      42.002  28.532  28.219  1.00  0.00     0.037 A 
ATOM     58  C   UNL A   1      48.364  29.248  26.766  1.00  0.00     0.049 A 
ATOM     59  C   UNL A   1      42.982  29.670  28.362  1.00  0.00     0.074 A 
ATOM     60  C   UNL A   1      49.131  30.393  26.875  1.00  0.00     0.029 A 
ATOM     61  N   UNL A   1      47.094  29.569  27.226  1.00  0.00    -0.354 N 
ATOM     62  N   UNL A   1      44.249  29.724  28.021  1.00  0.00    -0.248 NA
ATOM     63  C   UNL A   1      42.471  30.913  28.955  1.00  0.00     0.031 C 
ATOM     64  C   UNL A   1      48.344  31.388  27.464  1.00  0.00     0.029 A 
ATOM     65  C   UNL A   1      47.065  30.887  27.652  1.00  0.00     0.049 A 
ATOM     66  H   UNL A   1      46.327  28.952  27.247  1.00  0.00     0.167 HD
ATOM     67  C   UNL A   1      44.677  31.009  28.329  1.00  0.00     0.074 A 
ATOM     68  C   UNL A   1      43.529  31.708  28.870  1.00  0.00     0.031 C 
ATOM     69  C   UNL A   1      45.906  31.563  28.179  1.00  0.00     0.037 A 
BRANCH  56  70
ATOM     70  C   UNL A   1      50.179  27.725  25.880  1.00  0.00     0.064 A 
ATOM     71  C   UNL A   1      50.567  27.695  24.531  1.00  0.00     0.173 A 
ATOM     72  C   UNL A   1      51.176  27.552  26.852  1.00  0.00     0.173 A 
ATOM     73  F   UNL A   1      49.651  27.834  23.560  1.00  0.00    -0.203 F 
ATOM     74  C   UNL A   1      51.895  27.471  24.172  1.00  0.00     0.198 A 
ATOM     75  C   UNL A   1      52.506  27.364  26.490  1.00  0.00     0.198 A 
ATOM     76  F   UNL A   1      50.860  27.570  28.155  1.00  0.00    -0.203 F 
ATOM     77  F   UNL A   1      52.233  27.391  22.878  1.00  0.00    -0.200 F 
ATOM     78  C   UNL A   1      52.864  27.314  25.151  1.00  0.00     0.200 A 
ATOM     79  F   UNL A   1      53.443  27.224  27.438  1.00  0.00    -0.200 F 
ATOM     80  F   UNL A   1      54.142  27.106  24.805  1.00  0.00    -0.200 F 
ENDBRANCH  56  70
BRANCH  57  81
ATOM     81  C   UNL A   1      40.587  28.680  28.651  1.00  0.00     0.064 A 
ATOM     82  C   UNL A   1      40.184  28.370  29.957  1.00  0.00     0.173 A 
ATOM     83  C   UNL A   1      39.599  29.114  27.753  1.00  0.00     0.173 A 
ATOM     84  F   UNL A   1      41.083  27.925  30.848  1.00  0.00    -0.203 F 
ATOM     85  C   UNL A   1      38.847  28.467  30.342  1.00  0.00     0.198 A 
ATOM     86  C   UNL A   1      38.269  29.243  28.148  1.00  0.00     0.198 A 
ATOM     87  F   UNL A   1      39.927  29.418  26.489  1.00  0.00    -0.203 F 
ATOM     88  F   UNL A   1      38.481  28.112  31.581  1.00  0.00    -0.200 F 
ATOM     89  C   UNL A   1      37.893  28.911  29.439  1.00  0.00     0.200 A 
ATOM     90  F   UNL A   1      37.352  29.681  27.274  1.00  0.00    -0.200 F 
ATOM     91  F   UNL A   1      36.608  29.005  29.810  1.00  0.00    -0.200 F 
ENDBRANCH  57  81
BRANCH  69  92
ATOM     92  C   UNL A   1      46.064  33.008  28.562  1.00  0.00     0.064 A 
ATOM     93  C   UNL A   1      46.483  33.394  29.844  1.00  0.00     0.173 A 
ATOM     94  C   UNL A   1      45.839  34.018  27.614  1.00  0.00     0.173 A 
ATOM     95  F   UNL A   1      46.701  32.468  30.791  1.00  0.00    -0.203 F 
ATOM     96  C   UNL A   1      46.639  34.738  30.170  1.00  0.00     0.198 A 
ATOM     97  C   UNL A   1      46.032  35.359  27.934  1.00  0.00     0.198 A 
ATOM     98  F   UNL A   1      45.448  33.705  26.369  1.00  0.00    -0.203 F 
ATOM     99  F   UNL A   1      46.986  35.085  31.418  1.00  0.00    -0.200 F 
ATOM    100  C   UNL A   1      46.423  35.718  29.213  1.00  0.00     0.200 A 
ATOM    101  F   UNL A   1      45.844  36.302  27.000  1.00  0.00    -0.200 F 
ATOM    102  F   UNL A   1      46.585  37.011  29.527  1.00  0.00    -0.200 F 
ENDBRANCH  69  92
ENDBRANCH  43  44
ENDBRANCH  36  38
ENDBRANCH  35  36
ENDBRANCH  34  35
ENDBRANCH  33  34
ENDBRANCH  32  33
ENDBRANCH  31  32
ENDBRANCH  30  31
ENDBRANCH  29  30
ENDBRANCH  28  29
ENDBRANCH   1  28
TORSDOF 26
ENDMDL
MODEL 3
REMARK VINA RESULT:      -9.6      5.953     11.591
REMARK SMILES [NH3+]CCOCC(=O)N1C[C@@H](C(=O)OCCOCCOCCOCCOC(=O)c2ccc(-c3c4nc(c(-c5c(F)c(F)c(F)c(F)c5F)c5ccc([nH]5)c(-c5c(F)c(F)c(F)c(F)c5F)c5nc(c(-c6c(F)c(F)c(F)c(F)c6F)c6ccc3[nH]6)C=C5)C=C4)cc2)Oc2ccccc21
REMARK SMILES IDX 17 1 16 2 15 3 14 4 13 5 11 6 12 7 10 8 8 9 9 10 97 11 92 12
REMARK SMILES IDX 96 13 91 14 93 15 95 16 94 17 6 18 7 19 5 20 4 21 3 22 2 23
REMARK SMILES IDX 1 24 18 28 19 29 20 30 21 31 22 32 23 33 24 34 25 35 26 36
REMARK SMILES IDX 27 37 28 38 29 39 90 40 30 41 89 42 31 43 32 44 33 45 83 46
REMARK SMILES IDX 34 47 88 48 82 49 84 50 35 51 87 52 81 53 80 54 36 56 68 57
REMARK SMILES IDX 48 58 67 59 49 60 52 61 66 62 85 63 50 64 51 65 65 67 86 68
REMARK SMILES IDX 53 69 37 70 38 71 46 72 39 73 40 74 44 75 47 76 41 77 42 78
REMARK SMILES IDX 45 79 43 80 69 81 70 82 78 83 71 84 72 85 76 86 79 87 73 88
REMARK SMILES IDX 74 89 77 90 75 91 54 92 55 93 63 94 56 95 57 96 61 97 64 98
REMARK SMILES IDX 58 99 59 100 62 101 60 102
REMARK H PARENT 1 25 1 26 1 27 84 55 52 66
REMARK Flexibility Score: inf
ROOT
ATOM      1  C   UNL A   1      33.283  28.990  26.425  1.00  0.00     0.188 C 
ENDROOT
BRANCH   1   2
ATOM      2  O   UNL A   1      34.174  28.595  25.401  1.00  0.00    -0.376 OA
BRANCH   2   3
ATOM      3  C   UNL A   1      33.703  28.250  24.116  1.00  0.00     0.202 C 
BRANCH   3   4
ATOM      4  C   UNL A   1      32.593  27.206  23.897  1.00  0.00     0.261 C 
BRANCH   4   5
ATOM      5  O   UNL A   1      33.014  25.825  23.851  1.00  0.00    -0.460 OA
BRANCH   5   6
ATOM      6  C   UNL A   1      32.470  25.028  22.890  1.00  0.00     0.349 C 
ATOM      7  O   UNL A   1      31.343  25.205  22.435  1.00  0.00    -0.248 OA
BRANCH   6   8
ATOM      8  C   UNL A   1      33.388  23.860  22.405  1.00  0.00     0.302 C 
ATOM      9  N   UNL A   1      33.085  21.912  23.908  1.00  0.00    -0.303 N 
ATOM     10  C   UNL A   1      32.738  22.499  22.613  1.00  0.00     0.183 C 
ATOM     11  C   UNL A   1      34.472  21.973  24.212  1.00  0.00     0.086 A 
ATOM     12  C   UNL A   1      35.283  22.832  23.454  1.00  0.00     0.144 A 
ATOM     13  C   UNL A   1      35.069  21.151  25.180  1.00  0.00     0.030 A 
ATOM     14  O   UNL A   1      34.792  23.852  22.666  1.00  0.00    -0.475 OA
ATOM     15  C   UNL A   1      36.677  22.774  23.583  1.00  0.00     0.049 A 
ATOM     16  C   UNL A   1      36.458  21.121  25.328  1.00  0.00     0.002 A 
ATOM     17  C   UNL A   1      37.263  21.903  24.506  1.00  0.00     0.004 A 
BRANCH   9  18
ATOM     18  C   UNL A   1      32.187  21.186  24.679  1.00  0.00     0.253 C 
ATOM     19  O   UNL A   1      32.148  19.955  24.730  1.00  0.00    -0.272 OA
BRANCH  18  20
ATOM     20  C   UNL A   1      31.130  22.020  25.422  1.00  0.00     0.260 C 
BRANCH  20  21
ATOM     21  O   UNL A   1      31.139  23.428  25.316  1.00  0.00    -0.366 OA
BRANCH  21  22
ATOM     22  C   UNL A   1      30.818  24.136  26.514  1.00  0.00     0.222 C 
BRANCH  22  23
ATOM     23  C   UNL A   1      30.007  25.414  26.290  1.00  0.00     0.287 C 
BRANCH  23  24
ATOM     24  N   UNL A   1      30.704  26.646  26.658  1.00  0.00    -0.356 N 
ATOM     25  H   UNL A   1      30.912  27.184  25.816  1.00  0.00     0.344 HD
ATOM     26  H   UNL A   1      31.573  26.415  27.139  1.00  0.00     0.344 HD
ATOM     27  H   UNL A   1      30.111  27.201  27.276  1.00  0.00     0.344 HD
ENDBRANCH  23  24
ENDBRANCH  22  23
ENDBRANCH  21  22
ENDBRANCH  20  21
ENDBRANCH  18  20
ENDBRANCH   9  18
ENDBRANCH   6   8
ENDBRANCH   5   6
ENDBRANCH   4   5
ENDBRANCH   3   4
ENDBRANCH   2   3
ENDBRANCH   1   2
BRANCH   1  28
ATOM     28  C   UNL A   1      33.386  30.377  27.089  1.00  0.00     0.188 C 
BRANCH  28  29
ATOM     29  O   UNL A   1      34.540  31.097  27.458  1.00  0.00    -0.377 OA
BRANCH  29  30
ATOM     30  C   UNL A   1      34.435  32.150  28.373  1.00  0.00     0.188 C 
BRANCH  30  31
ATOM     31  C   UNL A   1      35.386  33.298  28.053  1.00  0.00     0.188 C 
BRANCH  31  32
ATOM     32  O   UNL A   1      34.719  34.538  27.947  1.00  0.00    -0.376 OA
BRANCH  32  33
ATOM     33  C   UNL A   1      33.383  34.665  28.420  1.00  0.00     0.202 C 
BRANCH  33  34
ATOM     34  C   UNL A   1      32.912  35.692  29.474  1.00  0.00     0.261 C 
BRANCH  34  35
ATOM     35  O   UNL A   1      32.308  35.219  30.678  1.00  0.00    -0.460 OA
BRANCH  35  36
ATOM     36  C   UNL A   1      32.925  35.481  31.843  1.00  0.00     0.338 C 
ATOM     37  O   UNL A   1      32.492  36.091  32.792  1.00  0.00    -0.246 OA
BRANCH  36  38
ATOM     38  C   UNL A   1      34.176  34.692  31.829  1.00  0.00     0.060 A 
ATOM     39  C   UNL A   1      34.114  33.378  32.302  1.00  0.00     0.016 A 
ATOM     40  C   UNL A   1      35.373  35.219  31.332  1.00  0.00     0.016 A 
ATOM     41  C   UNL A   1      35.255  32.586  32.297  1.00  0.00     0.010 A 
ATOM     42  C   UNL A   1      36.531  34.436  31.369  1.00  0.00     0.010 A 
ATOM     43  C   UNL A   1      36.477  33.129  31.883  1.00  0.00    -0.014 A 
BRANCH  43  44
ATOM     44  C   UNL A   1      37.707  32.389  32.240  1.00  0.00     0.031 A 
ATOM     45  C   UNL A   1      38.337  32.689  33.570  1.00  0.00     0.074 A 
ATOM     46  C   UNL A   1      38.174  31.401  31.460  1.00  0.00     0.049 A 
ATOM     47  N   UNL A   1      39.367  32.131  34.150  1.00  0.00    -0.248 NA
ATOM     48  C   UNL A   1      37.708  33.760  34.362  1.00  0.00     0.031 C 
ATOM     49  C   UNL A   1      37.595  30.990  30.182  1.00  0.00     0.029 A 
ATOM     50  N   UNL A   1      39.236  30.553  31.640  1.00  0.00    -0.354 N 
ATOM     51  C   UNL A   1      39.505  32.779  35.371  1.00  0.00     0.074 A 
ATOM     52  C   UNL A   1      38.478  33.793  35.438  1.00  0.00     0.031 C 
ATOM     53  C   UNL A   1      38.314  29.967  29.690  1.00  0.00     0.029 A 
ATOM     54  C   UNL A   1      39.417  29.672  30.604  1.00  0.00     0.049 A 
ATOM     55  H   UNL A   1      39.813  30.574  32.437  1.00  0.00     0.167 HD
ATOM     56  C   UNL A   1      40.405  32.538  36.352  1.00  0.00     0.037 A 
ATOM     57  C   UNL A   1      40.379  28.748  30.415  1.00  0.00     0.037 A 
ATOM     58  C   UNL A   1      41.429  31.533  36.266  1.00  0.00     0.049 A 
ATOM     59  C   UNL A   1      41.428  28.564  31.483  1.00  0.00     0.074 A 
ATOM     60  C   UNL A   1      42.398  31.205  37.195  1.00  0.00     0.029 A 
ATOM     61  N   UNL A   1      41.623  30.702  35.171  1.00  0.00    -0.354 N 
ATOM     62  N   UNL A   1      41.545  29.165  32.645  1.00  0.00    -0.248 NA
ATOM     63  C   UNL A   1      42.475  27.569  31.219  1.00  0.00     0.031 C 
ATOM     64  C   UNL A   1      43.220  30.222  36.636  1.00  0.00     0.029 A 
ATOM     65  C   UNL A   1      42.719  29.883  35.389  1.00  0.00     0.049 A 
ATOM     66  H   UNL A   1      41.065  30.695  34.359  1.00  0.00     0.167 HD
ATOM     67  C   UNL A   1      42.656  28.601  33.260  1.00  0.00     0.074 A 
ATOM     68  C   UNL A   1      43.169  27.599  32.349  1.00  0.00     0.031 C 
ATOM     69  C   UNL A   1      43.205  28.885  34.468  1.00  0.00     0.037 A 
BRANCH  56  70
ATOM     70  C   UNL A   1      40.347  33.409  37.575  1.00  0.00     0.064 A 
ATOM     71  C   UNL A   1      39.446  33.161  38.622  1.00  0.00     0.173 A 
ATOM     72  C   UNL A   1      41.218  34.501  37.705  1.00  0.00     0.173 A 
ATOM     73  F   UNL A   1      38.577  32.142  38.541  1.00  0.00    -0.203 F 
ATOM     74  C   UNL A   1      39.400  33.993  39.740  1.00  0.00     0.198 A 
ATOM     75  C   UNL A   1      41.194  35.308  38.837  1.00  0.00     0.198 A 
ATOM     76  F   UNL A   1      42.098  34.784  36.733  1.00  0.00    -0.203 F 
ATOM     77  F   UNL A   1      38.495  33.771  40.701  1.00  0.00    -0.200 F 
ATOM     78  C   UNL A   1      40.279  35.060  39.850  1.00  0.00     0.200 A 
ATOM     79  F   UNL A   1      42.052  36.332  38.948  1.00  0.00    -0.200 F 
ATOM     80  F   UNL A   1      40.239  35.854  40.929  1.00  0.00    -0.200 F 
ENDBRANCH  56  70
BRANCH  57  81
ATOM     81  C   UNL A   1      40.410  27.945  29.163  1.00  0.00     0.064 A 
ATOM     82  C   UNL A   1      41.130  28.370  28.038  1.00  0.00     0.173 A 
ATOM     83  C   UNL A   1      39.697  26.741  29.060  1.00  0.00     0.173 A 
ATOM     84  F   UNL A   1      41.807  29.527  28.074  1.00  0.00    -0.203 F 
ATOM     85  C   UNL A   1      41.116  27.635  26.853  1.00  0.00     0.198 A 
ATOM     86  C   UNL A   1      39.711  25.989  27.887  1.00  0.00     0.198 A 
ATOM     87  F   UNL A   1      38.985  26.289  30.104  1.00  0.00    -0.203 F 
ATOM     88  F   UNL A   1      41.768  28.093  25.776  1.00  0.00    -0.200 F 
ATOM     89  C   UNL A   1      40.413  26.442  26.782  1.00  0.00     0.200 A 
ATOM     90  F   UNL A   1      39.038  24.832  27.826  1.00  0.00    -0.200 F 
ATOM     91  F   UNL A   1      40.402  25.735  25.643  1.00  0.00    -0.200 F 
ENDBRANCH  57  81
BRANCH  69  92
ATOM     92  C   UNL A   1      44.394  28.071  34.895  1.00  0.00     0.064 A 
ATOM     93  C   UNL A   1      45.708  28.508  34.677  1.00  0.00     0.173 A 
ATOM     94  C   UNL A   1      44.211  26.859  35.578  1.00  0.00     0.173 A 
ATOM     95  F   UNL A   1      45.939  29.655  34.019  1.00  0.00    -0.203 F 
ATOM     96  C   UNL A   1      46.794  27.746  35.097  1.00  0.00     0.198 A 
ATOM     97  C   UNL A   1      45.299  26.118  36.030  1.00  0.00     0.198 A 
ATOM     98  F   UNL A   1      42.974  26.399  35.824  1.00  0.00    -0.203 F 
ATOM     99  F   UNL A   1      48.042  28.156  34.827  1.00  0.00    -0.200 F 
ATOM    100  C   UNL A   1      46.589  26.557  35.781  1.00  0.00     0.200 A 
ATOM    101  F   UNL A   1      45.097  24.980  36.710  1.00  0.00    -0.200 F 
ATOM    102  F   UNL A   1      47.636  25.830  36.195  1.00  0.00    -0.200 F 
ENDBRANCH  69  92
ENDBRANCH  43  44
ENDBRANCH  36  38
ENDBRANCH  35  36
ENDBRANCH  34  35
ENDBRANCH  33  34
ENDBRANCH  32  33
ENDBRANCH  31  32
ENDBRANCH  30  31
ENDBRANCH  29  30
ENDBRANCH  28  29
ENDBRANCH   1  28
TORSDOF 26
ENDMDL
