MODEL 1
REMARK VINA RESULT:     -11.0      0.000      0.000
REMARK SMILES O=C(OCCOCCOCCOCCOC(=O)c1nccnc1C(=O)Nc1ccc2c(c1)OCO2)c1ccc(-c2c3nc(c(-c4c(F)c(F)c(F)c(F)c4F)c4ccc([nH]4)c(-c4c(F)c(F)c(F)c(F)c4F)c4nc(c(-c5c(F)c(F)c(F)c(F)c5F)c5ccc2[nH]5)C=C4)C=C3)cc1
REMARK SMILES IDX 9 1 8 2 7 3 6 4 5 5 4 6 3 7 2 8 1 9 36 10 37 11 98 12 38 13
REMARK SMILES IDX 97 14 39 15 40 16 41 17 91 18 42 19 96 20 90 21 92 22 43 23
REMARK SMILES IDX 95 24 89 25 88 26 44 28 76 29 56 30 75 31 57 32 60 33 74 34
REMARK SMILES IDX 93 35 58 36 59 37 73 39 94 40 61 41 45 42 46 43 54 44 47 45
REMARK SMILES IDX 48 46 52 47 55 48 49 49 50 50 53 51 51 52 77 53 78 54 86 55
REMARK SMILES IDX 79 56 80 57 84 58 87 59 81 60 82 61 85 62 83 63 62 64 63 65
REMARK SMILES IDX 71 66 64 67 65 68 69 69 72 70 66 71 67 72 70 73 68 74 10 75
REMARK SMILES IDX 11 76 12 77 13 78 14 79 15 80 16 81 17 82 18 83 19 84 23 85
REMARK SMILES IDX 20 86 22 87 21 88 24 89 25 90 26 91 27 93 28 94 32 95 29 96
REMARK SMILES IDX 31 97 30 98 33 99 35 100 34 101
REMARK H PARENT 92 27 60 38 26 92
REMARK Flexibility Score: inf
ROOT
ATOM      1  O   UNL A   1      39.976  21.046  27.221  1.00  0.00    -0.377 OA
ENDROOT
BRANCH   1   2
ATOM      2  C   UNL A   1      41.230  21.079  27.892  1.00  0.00     0.188 C 
BRANCH   2   3
ATOM      3  C   UNL A   1      42.370  20.363  27.176  1.00  0.00     0.188 C 
BRANCH   3   4
ATOM      4  O   UNL A   1      42.313  18.994  27.547  1.00  0.00    -0.376 OA
BRANCH   4   5
ATOM      5  C   UNL A   1      43.025  18.085  26.733  1.00  0.00     0.202 C 
BRANCH   5   6
ATOM      6  C   UNL A   1      43.050  18.535  25.276  1.00  0.00     0.261 C 
BRANCH   6   7
ATOM      7  O   UNL A   1      44.349  18.311  24.684  1.00  0.00    -0.460 OA
BRANCH   7   8
ATOM      8  C   UNL A   1      45.200  19.253  24.203  1.00  0.00     0.338 C 
ATOM      9  O   UNL A   1      46.025  18.963  23.342  1.00  0.00    -0.246 OA
BRANCH   8  10
ATOM     10  C   UNL A   1      45.150  20.663  24.667  1.00  0.00     0.060 A 
ATOM     11  C   UNL A   1      44.530  21.658  23.921  1.00  0.00     0.016 A 
ATOM     12  C   UNL A   1      45.622  20.991  25.937  1.00  0.00     0.016 A 
ATOM     13  C   UNL A   1      44.495  22.983  24.334  1.00  0.00     0.010 A 
ATOM     14  C   UNL A   1      45.530  22.311  26.402  1.00  0.00     0.010 A 
ATOM     15  C   UNL A   1      45.003  23.326  25.581  1.00  0.00    -0.014 A 
BRANCH  15  16
ATOM     16  C   UNL A   1      45.121  24.761  25.936  1.00  0.00     0.031 A 
ATOM     17  C   UNL A   1      46.420  25.450  25.633  1.00  0.00     0.074 A 
ATOM     18  C   UNL A   1      44.067  25.461  26.401  1.00  0.00     0.049 A 
ATOM     19  N   UNL A   1      46.849  26.625  26.005  1.00  0.00    -0.248 NA
ATOM     20  C   UNL A   1      47.370  24.703  24.790  1.00  0.00     0.031 C 
ATOM     21  C   UNL A   1      42.715  24.932  26.594  1.00  0.00     0.029 A 
ATOM     22  N   UNL A   1      43.961  26.777  26.774  1.00  0.00    -0.354 N 
ATOM     23  C   UNL A   1      48.138  26.731  25.496  1.00  0.00     0.074 A 
ATOM     24  C   UNL A   1      48.423  25.503  24.788  1.00  0.00     0.031 C 
ATOM     25  C   UNL A   1      41.911  25.919  27.024  1.00  0.00     0.029 A 
ATOM     26  C   UNL A   1      42.709  27.122  27.229  1.00  0.00     0.049 A 
ATOM     27  H   UNL A   1      44.709  27.415  26.721  1.00  0.00     0.167 HD
ATOM     28  C   UNL A   1      49.001  27.763  25.617  1.00  0.00     0.037 A 
ATOM     29  C   UNL A   1      42.280  28.265  27.799  1.00  0.00     0.037 A 
ATOM     30  C   UNL A   1      48.673  28.987  26.296  1.00  0.00     0.049 A 
ATOM     31  C   UNL A   1      43.285  29.373  27.996  1.00  0.00     0.074 A 
ATOM     32  C   UNL A   1      49.478  30.078  26.564  1.00  0.00     0.029 A 
ATOM     33  N   UNL A   1      47.410  29.283  26.794  1.00  0.00    -0.354 N 
ATOM     34  N   UNL A   1      44.546  29.423  27.632  1.00  0.00    -0.248 NA
ATOM     35  C   UNL A   1      42.818  30.573  28.703  1.00  0.00     0.031 C 
ATOM     36  C   UNL A   1      48.707  31.023  27.253  1.00  0.00     0.029 A 
ATOM     37  C   UNL A   1      47.412  30.540  27.371  1.00  0.00     0.049 A 
ATOM     38  H   UNL A   1      46.629  28.686  26.744  1.00  0.00     0.167 HD
ATOM     39  C   UNL A   1      45.019  30.658  28.056  1.00  0.00     0.074 A 
ATOM     40  C   UNL A   1      43.898  31.339  28.673  1.00  0.00     0.031 C 
ATOM     41  C   UNL A   1      46.267  31.182  27.963  1.00  0.00     0.037 A 
BRANCH  28  42
ATOM     42  C   UNL A   1      50.382  27.575  25.062  1.00  0.00     0.064 A 
ATOM     43  C   UNL A   1      51.465  27.194  25.868  1.00  0.00     0.173 A 
ATOM     44  C   UNL A   1      50.633  27.818  23.702  1.00  0.00     0.173 A 
ATOM     45  F   UNL A   1      51.286  26.984  27.181  1.00  0.00    -0.203 F 
ATOM     46  C   UNL A   1      52.750  27.089  25.341  1.00  0.00     0.198 A 
ATOM     47  C   UNL A   1      51.913  27.686  23.172  1.00  0.00     0.198 A 
ATOM     48  F   UNL A   1      49.636  28.197  22.888  1.00  0.00    -0.203 F 
ATOM     49  F   UNL A   1      53.779  26.785  26.144  1.00  0.00    -0.200 F 
ATOM     50  C   UNL A   1      52.972  27.331  23.993  1.00  0.00     0.200 A 
ATOM     51  F   UNL A   1      52.125  27.919  21.869  1.00  0.00    -0.200 F 
ATOM     52  F   UNL A   1      54.211  27.238  23.489  1.00  0.00    -0.200 F 
ENDBRANCH  28  42
BRANCH  29  53
ATOM     53  C   UNL A   1      40.881  28.397  28.301  1.00  0.00     0.064 A 
ATOM     54  C   UNL A   1      39.865  28.942  27.502  1.00  0.00     0.173 A 
ATOM     55  C   UNL A   1      40.540  28.025  29.612  1.00  0.00     0.173 A 
ATOM     56  F   UNL A   1      40.137  29.340  26.252  1.00  0.00    -0.203 F 
ATOM     57  C   UNL A   1      38.577  29.137  28.003  1.00  0.00     0.198 A 
ATOM     58  C   UNL A   1      39.243  28.185  30.098  1.00  0.00     0.198 A 
ATOM     59  F   UNL A   1      41.468  27.504  30.428  1.00  0.00    -0.203 F 
ATOM     60  F   UNL A   1      37.645  29.724  27.239  1.00  0.00    -0.200 F 
ATOM     61  C   UNL A   1      38.265  28.753  29.298  1.00  0.00     0.200 A 
ATOM     62  F   UNL A   1      38.946  27.797  31.347  1.00  0.00    -0.200 F 
ATOM     63  F   UNL A   1      37.030  28.945  29.780  1.00  0.00    -0.200 F 
ENDBRANCH  29  53
BRANCH  41  64
ATOM     64  C   UNL A   1      46.460  32.562  28.513  1.00  0.00     0.064 A 
ATOM     65  C   UNL A   1      46.289  33.700  27.712  1.00  0.00     0.173 A 
ATOM     66  C   UNL A   1      46.790  32.745  29.864  1.00  0.00     0.173 A 
ATOM     67  F   UNL A   1      45.989  33.572  26.411  1.00  0.00    -0.203 F 
ATOM     68  C   UNL A   1      46.472  34.975  28.238  1.00  0.00     0.198 A 
ATOM     69  C   UNL A   1      46.940  34.021  30.394  1.00  0.00     0.198 A 
ATOM     70  F   UNL A   1      46.955  31.685  30.669  1.00  0.00    -0.203 F 
ATOM     71  F   UNL A   1      46.357  36.049  27.445  1.00  0.00    -0.200 F 
ATOM     72  C   UNL A   1      46.789  35.134  29.580  1.00  0.00     0.200 A 
ATOM     73  F   UNL A   1      47.232  34.175  31.692  1.00  0.00    -0.200 F 
ATOM     74  F   UNL A   1      46.961  36.362  30.087  1.00  0.00    -0.200 F 
ENDBRANCH  41  64
ENDBRANCH  15  16
ENDBRANCH   8  10
ENDBRANCH   7   8
ENDBRANCH   6   7
ENDBRANCH   5   6
ENDBRANCH   4   5
ENDBRANCH   3   4
ENDBRANCH   2   3
ENDBRANCH   1   2
BRANCH   1  75
ATOM     75  C   UNL A   1      39.674  22.028  26.224  1.00  0.00     0.188 C 
BRANCH  75  76
ATOM     76  C   UNL A   1      39.301  23.467  26.646  1.00  0.00     0.188 C 
BRANCH  76  77
ATOM     77  O   UNL A   1      37.965  23.935  26.520  1.00  0.00    -0.376 OA
BRANCH  77  78
ATOM     78  C   UNL A   1      37.120  23.401  25.508  1.00  0.00     0.202 C 
BRANCH  78  79
ATOM     79  C   UNL A   1      36.668  21.794  25.512  1.00  0.00     0.261 C 
BRANCH  79  80
ATOM     80  O   UNL A   1      34.832  20.944  25.498  1.00  0.00    -0.458 OA
BRANCH  80  81
ATOM     81  C   UNL A   1      33.405  20.756  25.225  1.00  0.00     0.359 C 
ATOM     82  O   UNL A   1      32.994  19.648  24.887  1.00  0.00    -0.244 OA
BRANCH  81  83
ATOM     83  C   UNL A   1      32.385  21.916  25.294  1.00  0.00     0.179 A 
ATOM     84  N   UNL A   1      31.937  22.149  26.574  1.00  0.00    -0.245 NA
ATOM     85  C   UNL A   1      31.792  22.595  24.211  1.00  0.00     0.161 A 
ATOM     86  C   UNL A   1      30.904  23.018  26.711  1.00  0.00     0.132 A 
ATOM     87  N   UNL A   1      30.746  23.472  24.382  1.00  0.00    -0.247 NA
ATOM     88  C   UNL A   1      30.314  23.658  25.639  1.00  0.00     0.132 A 
BRANCH  85  89
ATOM     89  C   UNL A   1      32.067  22.377  22.762  1.00  0.00     0.276 C 
ATOM     90  O   UNL A   1      31.859  21.290  22.226  1.00  0.00    -0.267 OA
ATOM     91  N   UNL A   1      32.569  23.399  22.016  1.00  0.00    -0.320 N 
ATOM     92  H   UNL A   1      32.700  23.245  21.053  1.00  0.00     0.170 HD
BRANCH  91  93
ATOM     93  C   UNL A   1      32.908  24.639  22.527  1.00  0.00     0.045 A 
ATOM     94  C   UNL A   1      34.148  24.869  23.863  1.00  0.00     0.030 A 
ATOM     95  C   UNL A   1      31.669  25.924  22.206  1.00  0.00     0.076 A 
ATOM     96  C   UNL A   1      34.033  26.342  24.922  1.00  0.00     0.053 A 
ATOM     97  C   UNL A   1      31.647  27.341  23.254  1.00  0.00     0.167 A 
ATOM     98  C   UNL A   1      32.778  27.537  24.572  1.00  0.00     0.165 A 
ATOM     99  O   UNL A   1      30.917  28.478  23.170  1.00  0.00    -0.454 OA
ATOM    100  O   UNL A   1      32.573  28.773  25.090  1.00  0.00    -0.454 OA
ATOM    101  C   UNL A   1      31.547  29.331  24.191  1.00  0.00     0.468 C 
ENDBRANCH  91  93
ENDBRANCH  85  89
ENDBRANCH  81  83
ENDBRANCH  80  81
ENDBRANCH  79  80
ENDBRANCH  78  79
ENDBRANCH  77  78
ENDBRANCH  76  77
ENDBRANCH  75  76
ENDBRANCH   1  75
TORSDOF 22
ENDMDL
MODEL 2
REMARK VINA RESULT:     -10.9      1.178      2.379
REMARK SMILES O=C(OCCOCCOCCOCCOC(=O)c1nccnc1C(=O)Nc1ccc2c(c1)OCO2)c1ccc(-c2c3nc(c(-c4c(F)c(F)c(F)c(F)c4F)c4ccc([nH]4)c(-c4c(F)c(F)c(F)c(F)c4F)c4nc(c(-c5c(F)c(F)c(F)c(F)c5F)c5ccc2[nH]5)C=C4)C=C3)cc1
REMARK SMILES IDX 9 1 8 2 7 3 6 4 5 5 4 6 3 7 2 8 1 9 36 10 37 11 98 12 38 13
REMARK SMILES IDX 97 14 39 15 40 16 41 17 91 18 42 19 96 20 90 21 92 22 43 23
REMARK SMILES IDX 95 24 89 25 88 26 44 28 76 29 56 30 75 31 57 32 60 33 74 34
REMARK SMILES IDX 93 35 58 36 59 37 73 39 94 40 61 41 45 42 46 43 54 44 47 45
REMARK SMILES IDX 48 46 52 47 55 48 49 49 50 50 53 51 51 52 77 53 78 54 86 55
REMARK SMILES IDX 79 56 80 57 84 58 87 59 81 60 82 61 85 62 83 63 62 64 63 65
REMARK SMILES IDX 71 66 64 67 65 68 69 69 72 70 66 71 67 72 70 73 68 74 10 75
REMARK SMILES IDX 11 76 12 77 13 78 14 79 15 80 16 81 17 82 18 83 19 84 23 85
REMARK SMILES IDX 20 86 22 87 21 88 24 89 25 90 26 91 27 93 28 94 32 95 29 96
REMARK SMILES IDX 31 97 30 98 33 99 35 100 34 101
REMARK H PARENT 92 27 60 38 26 92
REMARK Flexibility Score: inf
ROOT
ATOM      1  O   UNL A   1      40.113  21.178  27.330  1.00  0.00    -0.377 OA
ENDROOT
BRANCH   1   2
ATOM      2  C   UNL A   1      41.421  21.361  27.857  1.00  0.00     0.188 C 
BRANCH   2   3
ATOM      3  C   UNL A   1      42.520  20.561  27.166  1.00  0.00     0.188 C 
BRANCH   3   4
ATOM      4  O   UNL A   1      42.328  19.195  27.503  1.00  0.00    -0.376 OA
BRANCH   4   5
ATOM      5  C   UNL A   1      42.868  18.239  26.614  1.00  0.00     0.202 C 
BRANCH   5   6
ATOM      6  C   UNL A   1      42.928  18.770  25.185  1.00  0.00     0.261 C 
BRANCH   6   7
ATOM      7  O   UNL A   1      44.198  18.467  24.570  1.00  0.00    -0.460 OA
BRANCH   7   8
ATOM      8  C   UNL A   1      45.181  19.348  24.247  1.00  0.00     0.338 C 
ATOM      9  O   UNL A   1      46.111  19.004  23.523  1.00  0.00    -0.246 OA
BRANCH   8  10
ATOM     10  C   UNL A   1      45.157  20.755  24.722  1.00  0.00     0.060 A 
ATOM     11  C   UNL A   1      44.574  21.770  23.973  1.00  0.00     0.016 A 
ATOM     12  C   UNL A   1      45.613  21.061  26.002  1.00  0.00     0.016 A 
ATOM     13  C   UNL A   1      44.564  23.092  24.395  1.00  0.00     0.010 A 
ATOM     14  C   UNL A   1      45.545  22.380  26.475  1.00  0.00     0.010 A 
ATOM     15  C   UNL A   1      45.058  23.414  25.654  1.00  0.00    -0.014 A 
BRANCH  15  16
ATOM     16  C   UNL A   1      45.204  24.843  26.022  1.00  0.00     0.031 A 
ATOM     17  C   UNL A   1      46.521  25.505  25.737  1.00  0.00     0.074 A 
ATOM     18  C   UNL A   1      44.162  25.562  26.484  1.00  0.00     0.049 A 
ATOM     19  N   UNL A   1      46.973  26.667  26.124  1.00  0.00    -0.248 NA
ATOM     20  C   UNL A   1      47.463  24.744  24.897  1.00  0.00     0.031 C 
ATOM     21  C   UNL A   1      42.796  25.061  26.660  1.00  0.00     0.029 A 
ATOM     22  N   UNL A   1      44.082  26.877  26.867  1.00  0.00    -0.354 N 
ATOM     23  C   UNL A   1      48.269  26.748  25.627  1.00  0.00     0.074 A 
ATOM     24  C   UNL A   1      48.533  25.520  24.912  1.00  0.00     0.031 C 
ATOM     25  C   UNL A   1      42.011  26.062  27.090  1.00  0.00     0.029 A 
ATOM     26  C   UNL A   1      42.834  27.246  27.314  1.00  0.00     0.049 A 
ATOM     27  H   UNL A   1      44.844  27.498  26.827  1.00  0.00     0.167 HD
ATOM     28  C   UNL A   1      49.154  27.760  25.766  1.00  0.00     0.037 A 
ATOM     29  C   UNL A   1      42.425  28.393  27.889  1.00  0.00     0.037 A 
ATOM     30  C   UNL A   1      48.846  28.985  26.452  1.00  0.00     0.049 A 
ATOM     31  C   UNL A   1      43.452  29.477  28.105  1.00  0.00     0.074 A 
ATOM     32  C   UNL A   1      49.673  30.055  26.737  1.00  0.00     0.029 A 
ATOM     33  N   UNL A   1      47.585  29.305  26.941  1.00  0.00    -0.354 N 
ATOM     34  N   UNL A   1      44.717  29.502  27.753  1.00  0.00    -0.248 NA
ATOM     35  C   UNL A   1      43.005  30.681  28.818  1.00  0.00     0.031 C 
ATOM     36  C   UNL A   1      48.917  31.011  27.427  1.00  0.00     0.029 A 
ATOM     37  C   UNL A   1      47.610  30.556  27.529  1.00  0.00     0.049 A 
ATOM     38  H   UNL A   1      46.792  28.726  26.878  1.00  0.00     0.167 HD
ATOM     39  C   UNL A   1      45.214  30.722  28.192  1.00  0.00     0.074 A 
ATOM     40  C   UNL A   1      44.103  31.423  28.805  1.00  0.00     0.031 C 
ATOM     41  C   UNL A   1      46.473  31.218  28.115  1.00  0.00     0.037 A 
BRANCH  28  42
ATOM     42  C   UNL A   1      50.535  27.546  25.222  1.00  0.00     0.064 A 
ATOM     43  C   UNL A   1      50.838  27.724  23.864  1.00  0.00     0.173 A 
ATOM     44  C   UNL A   1      51.567  27.116  26.071  1.00  0.00     0.173 A 
ATOM     45  F   UNL A   1      49.879  28.099  23.003  1.00  0.00    -0.203 F 
ATOM     46  C   UNL A   1      52.113  27.455  23.371  1.00  0.00     0.198 A 
ATOM     47  C   UNL A   1      52.848  26.874  25.582  1.00  0.00     0.198 A 
ATOM     48  F   UNL A   1      51.330  26.918  27.376  1.00  0.00    -0.203 F 
ATOM     49  F   UNL A   1      52.361  27.572  22.060  1.00  0.00    -0.200 F 
ATOM     50  C   UNL A   1      53.118  27.035  24.231  1.00  0.00     0.200 A 
ATOM     51  F   UNL A   1      53.817  26.469  26.414  1.00  0.00    -0.200 F 
ATOM     52  F   UNL A   1      54.342  26.768  23.754  1.00  0.00    -0.200 F 
ENDBRANCH  28  42
BRANCH  29  53
ATOM     53  C   UNL A   1      41.025  28.552  28.379  1.00  0.00     0.064 A 
ATOM     54  C   UNL A   1      40.661  28.198  29.687  1.00  0.00     0.173 A 
ATOM     55  C   UNL A   1      40.005  29.016  27.531  1.00  0.00     0.173 A 
ATOM     56  F   UNL A   1      41.586  27.723  30.533  1.00  0.00    -0.203 F 
ATOM     57  C   UNL A   1      39.335  28.273  30.115  1.00  0.00     0.198 A 
ATOM     58  C   UNL A   1      38.687  29.128  27.973  1.00  0.00     0.198 A 
ATOM     59  F   UNL A   1      40.286  29.365  26.267  1.00  0.00    -0.203 F 
ATOM     60  F   UNL A   1      39.007  27.862  31.348  1.00  0.00    -0.200 F 
ATOM     61  C   UNL A   1      38.350  28.743  29.260  1.00  0.00     0.200 A 
ATOM     62  F   UNL A   1      37.744  29.597  27.144  1.00  0.00    -0.200 F 
ATOM     63  F   UNL A   1      37.076  28.811  29.670  1.00  0.00    -0.200 F 
ENDBRANCH  29  53
BRANCH  41  64
ATOM     64  C   UNL A   1      46.693  32.590  28.679  1.00  0.00     0.064 A 
ATOM     65  C   UNL A   1      46.532  33.739  27.892  1.00  0.00     0.173 A 
ATOM     66  C   UNL A   1      47.036  32.752  30.029  1.00  0.00     0.173 A 
ATOM     67  F   UNL A   1      46.220  33.630  26.592  1.00  0.00    -0.203 F 
ATOM     68  C   UNL A   1      46.739  35.005  28.431  1.00  0.00     0.198 A 
ATOM     69  C   UNL A   1      47.210  34.020  30.572  1.00  0.00     0.198 A 
ATOM     70  F   UNL A   1      47.191  31.681  30.821  1.00  0.00    -0.203 F 
ATOM     71  F   UNL A   1      46.634  36.089  27.651  1.00  0.00    -0.200 F 
ATOM     72  C   UNL A   1      47.070  35.144  29.772  1.00  0.00     0.200 A 
ATOM     73  F   UNL A   1      47.515  34.154  31.870  1.00  0.00    -0.200 F 
ATOM     74  F   UNL A   1      47.264  36.364  30.291  1.00  0.00    -0.200 F 
ENDBRANCH  41  64
ENDBRANCH  15  16
ENDBRANCH   8  10
ENDBRANCH   7   8
ENDBRANCH   6   7
ENDBRANCH   5   6
ENDBRANCH   4   5
ENDBRANCH   3   4
ENDBRANCH   2   3
ENDBRANCH   1   2
BRANCH   1  75
ATOM     75  C   UNL A   1      39.608  22.085  26.344  1.00  0.00     0.188 C 
BRANCH  75  76
ATOM     76  C   UNL A   1      38.960  23.418  26.780  1.00  0.00     0.188 C 
BRANCH  76  77
ATOM     77  O   UNL A   1      37.643  23.753  26.364  1.00  0.00    -0.376 OA
BRANCH  77  78
ATOM     78  C   UNL A   1      37.290  23.660  24.989  1.00  0.00     0.202 C 
BRANCH  78  79
ATOM     79  C   UNL A   1      36.244  22.483  24.437  1.00  0.00     0.261 C 
BRANCH  79  80
ATOM     80  O   UNL A   1      34.659  22.612  23.188  1.00  0.00    -0.458 OA
BRANCH  80  81
ATOM     81  C   UNL A   1      33.609  23.203  22.352  1.00  0.00     0.359 C 
ATOM     82  O   UNL A   1      33.682  23.103  21.129  1.00  0.00    -0.244 OA
BRANCH  81  83
ATOM     83  C   UNL A   1      32.426  24.002  22.944  1.00  0.00     0.179 A 
ATOM     84  N   UNL A   1      31.602  23.224  23.724  1.00  0.00    -0.245 NA
ATOM     85  C   UNL A   1      32.053  25.325  22.638  1.00  0.00     0.161 A 
ATOM     86  C   UNL A   1      30.437  23.787  24.133  1.00  0.00     0.132 A 
ATOM     87  N   UNL A   1      30.865  25.869  23.069  1.00  0.00    -0.247 NA
ATOM     88  C   UNL A   1      30.071  25.077  23.806  1.00  0.00     0.132 A 
BRANCH  85  89
ATOM     89  C   UNL A   1      32.759  26.262  21.717  1.00  0.00     0.276 C 
ATOM     90  O   UNL A   1      33.127  25.906  20.599  1.00  0.00    -0.267 OA
ATOM     91  N   UNL A   1      33.012  27.535  22.123  1.00  0.00    -0.320 N 
ATOM     92  H   UNL A   1      33.439  28.148  21.482  1.00  0.00     0.170 HD
BRANCH  91  93
ATOM     93  C   UNL A   1      32.709  28.023  23.382  1.00  0.00     0.045 A 
ATOM     94  C   UNL A   1      31.319  29.182  23.701  1.00  0.00     0.030 A 
ATOM     95  C   UNL A   1      34.081  27.902  24.562  1.00  0.00     0.076 A 
ATOM     96  C   UNL A   1      31.408  30.280  25.148  1.00  0.00     0.053 A 
ATOM     97  C   UNL A   1      34.074  28.976  25.960  1.00  0.00     0.167 A 
ATOM     98  C   UNL A   1      32.793  30.132  26.236  1.00  0.00     0.165 A 
ATOM     99  O   UNL A   1      34.899  29.018  27.032  1.00  0.00    -0.454 OA
ATOM    100  O   UNL A   1      33.025  30.701  27.444  1.00  0.00    -0.454 OA
ATOM    101  C   UNL A   1      34.207  29.962  27.925  1.00  0.00     0.468 C 
ENDBRANCH  91  93
ENDBRANCH  85  89
ENDBRANCH  81  83
ENDBRANCH  80  81
ENDBRANCH  79  80
ENDBRANCH  78  79
ENDBRANCH  77  78
ENDBRANCH  76  77
ENDBRANCH  75  76
ENDBRANCH   1  75
TORSDOF 22
ENDMDL
MODEL 3
REMARK VINA RESULT:     -10.4      1.374      7.245
REMARK SMILES O=C(OCCOCCOCCOCCOC(=O)c1nccnc1C(=O)Nc1ccc2c(c1)OCO2)c1ccc(-c2c3nc(c(-c4c(F)c(F)c(F)c(F)c4F)c4ccc([nH]4)c(-c4c(F)c(F)c(F)c(F)c4F)c4nc(c(-c5c(F)c(F)c(F)c(F)c5F)c5ccc2[nH]5)C=C4)C=C3)cc1
REMARK SMILES IDX 9 1 8 2 7 3 6 4 5 5 4 6 3 7 2 8 1 9 36 10 37 11 98 12 38 13
REMARK SMILES IDX 97 14 39 15 40 16 41 17 91 18 42 19 96 20 90 21 92 22 43 23
REMARK SMILES IDX 95 24 89 25 88 26 44 28 76 29 56 30 75 31 57 32 60 33 74 34
REMARK SMILES IDX 93 35 58 36 59 37 73 39 94 40 61 41 45 42 46 43 54 44 47 45
REMARK SMILES IDX 48 46 52 47 55 48 49 49 50 50 53 51 51 52 77 53 78 54 86 55
REMARK SMILES IDX 79 56 80 57 84 58 87 59 81 60 82 61 85 62 83 63 62 64 63 65
REMARK SMILES IDX 71 66 64 67 65 68 69 69 72 70 66 71 67 72 70 73 68 74 10 75
REMARK SMILES IDX 11 76 12 77 13 78 14 79 15 80 16 81 17 82 18 83 19 84 23 85
REMARK SMILES IDX 20 86 22 87 21 88 24 89 25 90 26 91 27 93 28 94 32 95 29 96
REMARK SMILES IDX 31 97 30 98 33 99 35 100 34 101
REMARK H PARENT 92 27 60 38 26 92
REMARK Flexibility Score: inf
ROOT
ATOM      1  O   UNL A   1      40.045  21.554  27.620  1.00  0.00    -0.377 OA
ENDROOT
BRANCH   1   2
ATOM      2  C   UNL A   1      41.334  21.828  28.155  1.00  0.00     0.188 C 
BRANCH   2   3
ATOM      3  C   UNL A   1      42.474  21.008  27.560  1.00  0.00     0.188 C 
BRANCH   3   4
ATOM      4  O   UNL A   1      42.078  19.645  27.589  1.00  0.00    -0.376 OA
BRANCH   4   5
ATOM      5  C   UNL A   1      42.657  18.794  26.620  1.00  0.00     0.202 C 
BRANCH   5   6
ATOM      6  C   UNL A   1      42.698  19.455  25.245  1.00  0.00     0.261 C 
BRANCH   6   7
ATOM      7  O   UNL A   1      43.877  19.056  24.512  1.00  0.00    -0.460 OA
BRANCH   7   8
ATOM      8  C   UNL A   1      44.946  19.834  24.198  1.00  0.00     0.338 C 
ATOM      9  O   UNL A   1      45.804  19.427  23.421  1.00  0.00    -0.246 OA
BRANCH   8  10
ATOM     10  C   UNL A   1      45.104  21.205  24.749  1.00  0.00     0.060 A 
ATOM     11  C   UNL A   1      44.671  22.327  24.054  1.00  0.00     0.016 A 
ATOM     12  C   UNL A   1      45.582  21.378  26.047  1.00  0.00     0.016 A 
ATOM     13  C   UNL A   1      44.833  23.614  24.548  1.00  0.00     0.010 A 
ATOM     14  C   UNL A   1      45.686  22.667  26.591  1.00  0.00     0.010 A 
ATOM     15  C   UNL A   1      45.350  23.799  25.825  1.00  0.00    -0.014 A 
BRANCH  15  16
ATOM     16  C   UNL A   1      45.682  25.173  26.272  1.00  0.00     0.031 A 
ATOM     17  C   UNL A   1      44.590  25.982  26.911  1.00  0.00     0.074 A 
ATOM     18  C   UNL A   1      46.943  25.646  26.220  1.00  0.00     0.049 A 
ATOM     19  N   UNL A   1      44.557  27.251  27.212  1.00  0.00    -0.248 NA
ATOM     20  C   UNL A   1      43.359  25.251  27.258  1.00  0.00     0.031 C 
ATOM     21  C   UNL A   1      48.113  24.895  25.757  1.00  0.00     0.029 A 
ATOM     22  N   UNL A   1      47.458  26.864  26.586  1.00  0.00    -0.354 N 
ATOM     23  C   UNL A   1      43.286  27.481  27.724  1.00  0.00     0.074 A 
ATOM     24  C   UNL A   1      42.575  26.223  27.694  1.00  0.00     0.031 C 
ATOM     25  C   UNL A   1      49.209  25.659  25.891  1.00  0.00     0.029 A 
ATOM     26  C   UNL A   1      48.809  26.982  26.355  1.00  0.00     0.049 A 
ATOM     27  H   UNL A   1      46.913  27.585  26.976  1.00  0.00     0.167 HD
ATOM     28  C   UNL A   1      42.765  28.645  28.173  1.00  0.00     0.037 A 
ATOM     29  C   UNL A   1      49.613  28.059  26.457  1.00  0.00     0.037 A 
ATOM     30  C   UNL A   1      43.511  29.872  28.226  1.00  0.00     0.049 A 
ATOM     31  C   UNL A   1      48.989  29.365  26.883  1.00  0.00     0.074 A 
ATOM     32  C   UNL A   1      43.083  31.138  28.579  1.00  0.00     0.029 A 
ATOM     33  N   UNL A   1      44.866  29.969  27.933  1.00  0.00    -0.354 N 
ATOM     34  N   UNL A   1      47.751  29.614  27.242  1.00  0.00    -0.248 NA
ATOM     35  C   UNL A   1      49.865  30.544  26.897  1.00  0.00     0.031 C 
ATOM     36  C   UNL A   1      44.175  32.008  28.469  1.00  0.00     0.029 A 
ATOM     37  C   UNL A   1      45.292  31.275  28.095  1.00  0.00     0.049 A 
ATOM     38  H   UNL A   1      45.438  29.219  27.652  1.00  0.00     0.167 HD
ATOM     39  C   UNL A   1      47.700  30.971  27.531  1.00  0.00     0.074 A 
ATOM     40  C   UNL A   1      49.043  31.484  27.340  1.00  0.00     0.031 C 
ATOM     41  C   UNL A   1      46.644  31.735  27.905  1.00  0.00     0.037 A 
BRANCH  28  42
ATOM     42  C   UNL A   1      41.319  28.642  28.573  1.00  0.00     0.064 A 
ATOM     43  C   UNL A   1      40.300  29.020  27.687  1.00  0.00     0.173 A 
ATOM     44  C   UNL A   1      40.951  28.291  29.882  1.00  0.00     0.173 A 
ATOM     45  F   UNL A   1      40.601  29.400  26.435  1.00  0.00    -0.203 F 
ATOM     46  C   UNL A   1      38.970  29.073  28.102  1.00  0.00     0.198 A 
ATOM     47  C   UNL A   1      39.620  28.317  30.286  1.00  0.00     0.198 A 
ATOM     48  F   UNL A   1      41.887  27.933  30.773  1.00  0.00    -0.203 F 
ATOM     49  F   UNL A   1      38.023  29.498  27.256  1.00  0.00    -0.200 F 
ATOM     50  C   UNL A   1      38.631  28.717  29.399  1.00  0.00     0.200 A 
ATOM     51  F   UNL A   1      39.294  27.972  31.539  1.00  0.00    -0.200 F 
ATOM     52  F   UNL A   1      37.353  28.776  29.800  1.00  0.00    -0.200 F 
ENDBRANCH  28  42
BRANCH  29  53
ATOM     53  C   UNL A   1      51.053  27.983  26.073  1.00  0.00     0.064 A 
ATOM     54  C   UNL A   1      51.462  28.092  24.736  1.00  0.00     0.173 A 
ATOM     55  C   UNL A   1      52.051  27.750  27.034  1.00  0.00     0.173 A 
ATOM     56  F   UNL A   1      50.551  28.287  23.772  1.00  0.00    -0.203 F 
ATOM     57  C   UNL A   1      52.801  27.940  24.373  1.00  0.00     0.198 A 
ATOM     58  C   UNL A   1      53.393  27.638  26.675  1.00  0.00     0.198 A 
ATOM     59  F   UNL A   1      51.724  27.630  28.329  1.00  0.00    -0.203 F 
ATOM     60  F   UNL A   1      53.151  27.979  23.080  1.00  0.00    -0.200 F 
ATOM     61  C   UNL A   1      53.767  27.719  25.343  1.00  0.00     0.200 A 
ATOM     62  F   UNL A   1      54.323  27.439  27.621  1.00  0.00    -0.200 F 
ATOM     63  F   UNL A   1      55.052  27.569  24.995  1.00  0.00    -0.200 F 
ENDBRANCH  29  53
BRANCH  41  64
ATOM     64  C   UNL A   1      46.917  33.186  28.157  1.00  0.00     0.064 A 
ATOM     65  C   UNL A   1      46.760  34.148  27.149  1.00  0.00     0.173 A 
ATOM     66  C   UNL A   1      47.311  33.619  29.432  1.00  0.00     0.173 A 
ATOM     67  F   UNL A   1      46.400  33.776  25.912  1.00  0.00    -0.203 F 
ATOM     68  C   UNL A   1      47.018  35.492  27.401  1.00  0.00     0.198 A 
ATOM     69  C   UNL A   1      47.536  34.968  29.688  1.00  0.00     0.198 A 
ATOM     70  F   UNL A   1      47.465  32.736  30.429  1.00  0.00    -0.203 F 
ATOM     71  F   UNL A   1      46.914  36.389  26.411  1.00  0.00    -0.200 F 
ATOM     72  C   UNL A   1      47.398  35.901  28.671  1.00  0.00     0.200 A 
ATOM     73  F   UNL A   1      47.889  35.363  30.919  1.00  0.00    -0.200 F 
ATOM     74  F   UNL A   1      47.641  37.196  28.913  1.00  0.00    -0.200 F 
ENDBRANCH  41  64
ENDBRANCH  15  16
ENDBRANCH   8  10
ENDBRANCH   7   8
ENDBRANCH   6   7
ENDBRANCH   5   6
ENDBRANCH   4   5
ENDBRANCH   3   4
ENDBRANCH   2   3
ENDBRANCH   1   2
BRANCH   1  75
ATOM     75  C   UNL A   1      39.593  22.255  26.456  1.00  0.00     0.188 C 
BRANCH  75  76
ATOM     76  C   UNL A   1      39.374  23.784  26.512  1.00  0.00     0.188 C 
BRANCH  76  77
ATOM     77  O   UNL A   1      38.069  24.334  26.392  1.00  0.00    -0.376 OA
BRANCH  77  78
ATOM     78  C   UNL A   1      37.116  23.714  25.537  1.00  0.00     0.202 C 
BRANCH  78  79
ATOM     79  C   UNL A   1      35.821  22.860  26.153  1.00  0.00     0.261 C 
BRANCH  79  80
ATOM     80  O   UNL A   1      33.969  22.555  25.400  1.00  0.00    -0.458 OA
BRANCH  80  81
ATOM     81  C   UNL A   1      32.715  22.809  24.684  1.00  0.00     0.359 C 
ATOM     82  O   UNL A   1      32.505  22.242  23.613  1.00  0.00    -0.244 OA
BRANCH  81  83
ATOM     83  C   UNL A   1      31.654  23.809  25.194  1.00  0.00     0.179 A 
ATOM     84  N   UNL A   1      30.959  23.332  26.282  1.00  0.00    -0.245 NA
ATOM     85  C   UNL A   1      31.251  25.012  24.581  1.00  0.00     0.161 A 
ATOM     86  C   UNL A   1      29.882  24.054  26.684  1.00  0.00     0.132 A 
ATOM     87  N   UNL A   1      30.156  25.723  25.013  1.00  0.00    -0.247 NA
ATOM     88  C   UNL A   1      29.483  25.219  26.059  1.00  0.00     0.132 A 
BRANCH  85  89
ATOM     89  C   UNL A   1      31.808  25.608  23.332  1.00  0.00     0.276 C 
ATOM     90  O   UNL A   1      31.894  24.956  22.293  1.00  0.00    -0.267 OA
ATOM     91  N   UNL A   1      32.242  26.897  23.343  1.00  0.00    -0.320 N 
ATOM     92  H   UNL A   1      32.564  27.282  22.497  1.00  0.00     0.170 HD
BRANCH  91  93
ATOM     93  C   UNL A   1      32.261  27.701  24.469  1.00  0.00     0.045 A 
ATOM     94  C   UNL A   1      31.150  29.147  24.689  1.00  0.00     0.030 A 
ATOM     95  C   UNL A   1      33.798  27.583  25.424  1.00  0.00     0.076 A 
ATOM     96  C   UNL A   1      31.677  30.500  25.783  1.00  0.00     0.053 A 
ATOM     97  C   UNL A   1      34.219  28.920  26.493  1.00  0.00     0.167 A 
ATOM     98  C   UNL A   1      33.204  30.333  26.656  1.00  0.00     0.165 A 
ATOM     99  O   UNL A   1      35.231  29.039  27.385  1.00  0.00    -0.454 OA
ATOM    100  O   UNL A   1      33.745  31.099  27.634  1.00  0.00    -0.454 OA
ATOM    101  C   UNL A   1      34.871  30.273  28.104  1.00  0.00     0.468 C 
ENDBRANCH  91  93
ENDBRANCH  85  89
ENDBRANCH  81  83
ENDBRANCH  80  81
ENDBRANCH  79  80
ENDBRANCH  78  79
ENDBRANCH  77  78
ENDBRANCH  76  77
ENDBRANCH  75  76
ENDBRANCH   1  75
TORSDOF 22
ENDMDL
