MODEL 1
REMARK VINA RESULT:      -8.9      0.000      0.000
REMARK SMILES CCOC(=O)c1cccc(Nc2c(-c3ccc(C(=O)OCCOCCOCCOCCOC(=O)c4ccc(-c5c6nc(c(-c7c(F)c(F)c(F)c(F)c7F)c7ccc([nH]7)c(-c7c(F)c(F)c(F)c(F)c7F)c7nc(c(-c8c(F)c(F)c(F)c(F)c8F)c8ccc5[nH]8)C=C7)C=C6)cc4)cc3)nc3cnccn23)c1
REMARK SMILES IDX 24 1 23 2 22 3 21 4 20 5 18 6 19 7 17 8 14 9 15 10 99 11
REMARK SMILES IDX 16 12 98 13 13 14 12 15 106 16 100 17 101 18 105 19 102 20
REMARK SMILES IDX 104 21 103 22 11 23 10 25 6 26 7 27 107 28 8 29 9 30 4 31
REMARK SMILES IDX 5 32 3 33 2 34 1 35 25 36 26 37 27 38 28 39 29 40 30 41
REMARK SMILES IDX 31 42 32 43 33 44 34 45 35 46 36 47 97 48 37 49 96 50 38 51
REMARK SMILES IDX 39 52 40 53 90 54 41 55 95 56 89 57 91 58 42 59 94 60 88 61
REMARK SMILES IDX 87 62 43 64 75 65 55 66 74 67 56 68 59 69 73 70 92 71 57 72
REMARK SMILES IDX 58 73 72 75 93 76 60 77 44 78 45 79 53 80 46 81 47 82 51 83
REMARK SMILES IDX 54 84 48 85 49 86 52 87 50 88 76 89 77 90 85 91 78 92 79 93
REMARK SMILES IDX 83 94 86 95 80 96 81 97 84 98 82 99 61 100 62 101 70 102
REMARK SMILES IDX 63 103 64 104 68 105 71 106 65 107 66 108 69 109 67 110
REMARK H PARENT 11 24 91 63 59 74
REMARK Flexibility Score: inf
ROOT
ATOM      1  C   UNL A   1      34.481  33.423  28.131  1.00  0.00     0.188 C 
ENDROOT
BRANCH   1   2
ATOM      2  O   UNL A   1      35.670  32.831  27.637  1.00  0.00    -0.376 OA
BRANCH   2   3
ATOM      3  C   UNL A   1      35.972  31.497  27.998  1.00  0.00     0.202 C 
BRANCH   3   4
ATOM      4  C   UNL A   1      37.361  31.187  28.579  1.00  0.00     0.261 C 
BRANCH   4   5
ATOM      5  O   UNL A   1      38.087  30.128  27.944  1.00  0.00    -0.460 OA
BRANCH   5   6
ATOM      6  C   UNL A   1      38.682  29.229  28.759  1.00  0.00     0.338 C 
ATOM      7  O   UNL A   1      38.175  28.672  29.716  1.00  0.00    -0.246 OA
BRANCH   6   8
ATOM      8  C   UNL A   1      39.994  28.863  28.172  1.00  0.00     0.060 A 
ATOM      9  C   UNL A   1      42.419  28.130  26.974  1.00  0.00     0.004 A 
ATOM     10  C   UNL A   1      41.375  28.638  26.191  1.00  0.00     0.011 A 
ATOM     11  C   UNL A   1      42.262  28.049  28.366  1.00  0.00     0.011 A 
ATOM     12  C   UNL A   1      40.161  28.990  26.787  1.00  0.00     0.016 A 
ATOM     13  C   UNL A   1      41.059  28.430  28.968  1.00  0.00     0.016 A 
BRANCH   9  14
ATOM     14  C   UNL A   1      43.569  27.504  26.352  1.00  0.00     0.114 A 
ATOM     15  C   UNL A   1      43.675  26.207  25.856  1.00  0.00     0.143 A 
ATOM     16  N   UNL A   1      45.012  26.092  25.509  1.00  0.00    -0.283 N 
ATOM     17  N   UNL A   1      44.791  28.145  26.368  1.00  0.00    -0.225 NA
ATOM     18  C   UNL A   1      45.628  27.250  25.908  1.00  0.00     0.157 A 
ATOM     19  C   UNL A   1      45.767  25.093  24.911  1.00  0.00     0.115 A 
ATOM     20  C   UNL A   1      47.055  27.352  25.788  1.00  0.00     0.158 A 
ATOM     21  C   UNL A   1      47.096  25.273  24.804  1.00  0.00     0.129 A 
ATOM     22  N   UNL A   1      47.770  26.395  25.260  1.00  0.00    -0.259 NA
BRANCH  15  23
ATOM     23  N   UNL A   1      42.760  25.207  25.692  1.00  0.00    -0.339 N 
ATOM     24  H   UNL A   1      42.151  25.273  24.923  1.00  0.00     0.168 HD
BRANCH  23  25
ATOM     25  C   UNL A   1      42.618  24.078  26.543  1.00  0.00     0.040 A 
ATOM     26  C   UNL A   1      42.137  21.704  26.802  1.00  0.00     0.062 A 
ATOM     27  C   UNL A   1      42.238  21.818  28.191  1.00  0.00     0.016 A 
ATOM     28  C   UNL A   1      42.361  22.817  25.976  1.00  0.00     0.041 A 
ATOM     29  C   UNL A   1      42.556  23.044  28.759  1.00  0.00     0.003 A 
ATOM     30  C   UNL A   1      42.732  24.163  27.941  1.00  0.00     0.026 A 
BRANCH  26  31
ATOM     31  C   UNL A   1      41.640  20.424  26.260  1.00  0.00     0.338 C 
ATOM     32  O   UNL A   1      40.649  19.868  26.708  1.00  0.00    -0.246 OA
BRANCH  31  33
ATOM     33  O   UNL A   1      42.438  19.977  25.262  1.00  0.00    -0.462 OA
BRANCH  33  34
ATOM     34  C   UNL A   1      43.687  19.412  25.700  1.00  0.00     0.230 C 
ATOM     35  C   UNL A   1      44.526  18.899  24.540  1.00  0.00     0.049 C 
ENDBRANCH  33  34
ENDBRANCH  31  33
ENDBRANCH  26  31
ENDBRANCH  23  25
ENDBRANCH  15  23
ENDBRANCH   9  14
ENDBRANCH   6   8
ENDBRANCH   5   6
ENDBRANCH   4   5
ENDBRANCH   3   4
ENDBRANCH   2   3
ENDBRANCH   1   2
BRANCH   1  36
ATOM     36  C   UNL A   1      34.403  34.950  27.906  1.00  0.00     0.188 C 
BRANCH  36  37
ATOM     37  O   UNL A   1      34.005  35.797  28.976  1.00  0.00    -0.377 OA
BRANCH  37  38
ATOM     38  C   UNL A   1      33.164  35.292  30.010  1.00  0.00     0.188 C 
BRANCH  38  39
ATOM     39  C   UNL A   1      33.669  35.142  31.466  1.00  0.00     0.188 C 
BRANCH  39  40
ATOM     40  O   UNL A   1      33.791  33.803  31.910  1.00  0.00    -0.376 OA
BRANCH  40  41
ATOM     41  C   UNL A   1      35.083  33.225  31.926  1.00  0.00     0.202 C 
BRANCH  41  42
ATOM     42  C   UNL A   1      35.968  33.517  33.146  1.00  0.00     0.261 C 
BRANCH  42  43
ATOM     43  O   UNL A   1      37.294  32.968  33.116  1.00  0.00    -0.460 OA
BRANCH  43  44
ATOM     44  C   UNL A   1      37.677  32.213  34.166  1.00  0.00     0.338 C 
ATOM     45  O   UNL A   1      37.061  32.020  35.202  1.00  0.00    -0.246 OA
BRANCH  44  46
ATOM     46  C   UNL A   1      38.909  31.499  33.777  1.00  0.00     0.060 A 
ATOM     47  C   UNL A   1      40.128  31.860  34.366  1.00  0.00     0.016 A 
ATOM     48  C   UNL A   1      38.854  30.469  32.835  1.00  0.00     0.016 A 
ATOM     49  C   UNL A   1      41.305  31.217  33.984  1.00  0.00     0.010 A 
ATOM     50  C   UNL A   1      40.037  29.842  32.436  1.00  0.00     0.010 A 
ATOM     51  C   UNL A   1      41.272  30.239  32.981  1.00  0.00    -0.014 A 
BRANCH  51  52
ATOM     52  C   UNL A   1      42.534  29.794  32.342  1.00  0.00     0.031 A 
ATOM     53  C   UNL A   1      43.254  28.619  32.944  1.00  0.00     0.074 A 
ATOM     54  C   UNL A   1      43.023  30.402  31.248  1.00  0.00     0.049 A 
ATOM     55  N   UNL A   1      44.400  28.083  32.614  1.00  0.00    -0.248 NA
ATOM     56  C   UNL A   1      42.587  27.961  34.081  1.00  0.00     0.031 C 
ATOM     57  C   UNL A   1      42.396  31.517  30.546  1.00  0.00     0.029 A 
ATOM     58  N   UNL A   1      44.178  30.163  30.543  1.00  0.00    -0.354 N 
ATOM     59  C   UNL A   1      44.594  27.035  33.505  1.00  0.00     0.074 A 
ATOM     60  C   UNL A   1      43.469  27.031  34.412  1.00  0.00     0.031 C 
ATOM     61  C   UNL A   1      43.180  31.878  29.514  1.00  0.00     0.029 A 
ATOM     62  C   UNL A   1      44.381  31.043  29.507  1.00  0.00     0.049 A 
ATOM     63  H   UNL A   1      44.801  29.431  30.758  1.00  0.00     0.167 HD
ATOM     64  C   UNL A   1      45.617  26.147  33.555  1.00  0.00     0.037 A 
ATOM     65  C   UNL A   1      45.430  31.170  28.671  1.00  0.00     0.037 A 
ATOM     66  C   UNL A   1      46.736  26.157  32.653  1.00  0.00     0.049 A 
ATOM     67  C   UNL A   1      46.599  30.223  28.802  1.00  0.00     0.074 A 
ATOM     68  C   UNL A   1      47.819  25.295  32.612  1.00  0.00     0.029 A 
ATOM     69  N   UNL A   1      46.923  27.083  31.637  1.00  0.00    -0.354 N 
ATOM     70  N   UNL A   1      46.767  29.219  29.630  1.00  0.00    -0.248 NA
ATOM     71  C   UNL A   1      47.723  30.426  27.878  1.00  0.00     0.031 C 
ATOM     72  C   UNL A   1      48.691  25.738  31.613  1.00  0.00     0.029 A 
ATOM     73  C   UNL A   1      48.117  26.832  30.982  1.00  0.00     0.049 A 
ATOM     74  H   UNL A   1      46.299  27.812  31.414  1.00  0.00     0.167 HD
ATOM     75  C   UNL A   1      47.992  28.650  29.301  1.00  0.00     0.074 A 
ATOM     76  C   UNL A   1      48.520  29.414  28.191  1.00  0.00     0.031 C 
ATOM     77  C   UNL A   1      48.624  27.591  29.867  1.00  0.00     0.037 A 
BRANCH  64  78
ATOM     78  C   UNL A   1      45.584  25.113  34.643  1.00  0.00     0.064 A 
ATOM     79  C   UNL A   1      46.063  25.379  35.934  1.00  0.00     0.173 A 
ATOM     80  C   UNL A   1      45.038  23.844  34.396  1.00  0.00     0.173 A 
ATOM     81  F   UNL A   1      46.610  26.571  36.219  1.00  0.00    -0.203 F 
ATOM     82  C   UNL A   1      46.023  24.406  36.930  1.00  0.00     0.198 A 
ATOM     83  C   UNL A   1      44.968  22.884  35.403  1.00  0.00     0.198 A 
ATOM     84  F   UNL A   1      44.564  23.535  33.179  1.00  0.00    -0.203 F 
ATOM     85  F   UNL A   1      46.536  24.667  38.140  1.00  0.00    -0.200 F 
ATOM     86  C   UNL A   1      45.468  23.163  36.666  1.00  0.00     0.200 A 
ATOM     87  F   UNL A   1      44.418  21.689  35.149  1.00  0.00    -0.200 F 
ATOM     88  F   UNL A   1      45.421  22.231  37.627  1.00  0.00    -0.200 F 
ENDBRANCH  64  78
BRANCH  65  89
ATOM     89  C   UNL A   1      45.441  32.243  27.640  1.00  0.00     0.064 A 
ATOM     90  C   UNL A   1      46.254  33.377  27.784  1.00  0.00     0.173 A 
ATOM     91  C   UNL A   1      44.611  32.178  26.511  1.00  0.00     0.173 A 
ATOM     92  F   UNL A   1      47.045  33.501  28.859  1.00  0.00    -0.203 F 
ATOM     93  C   UNL A   1      46.216  34.414  26.852  1.00  0.00     0.198 A 
ATOM     94  C   UNL A   1      44.600  33.199  25.563  1.00  0.00     0.198 A 
ATOM     95  F   UNL A   1      43.809  31.118  26.326  1.00  0.00    -0.203 F 
ATOM     96  F   UNL A   1      46.959  35.512  27.046  1.00  0.00    -0.200 F 
ATOM     97  C   UNL A   1      45.394  34.322  25.741  1.00  0.00     0.200 A 
ATOM     98  F   UNL A   1      43.811  33.100  24.484  1.00  0.00    -0.200 F 
ATOM     99  F   UNL A   1      45.357  35.319  24.847  1.00  0.00    -0.200 F 
ENDBRANCH  65  89
BRANCH  77 100
ATOM    100  C   UNL A   1      49.929  27.155  29.262  1.00  0.00     0.064 A 
ATOM    101  C   UNL A   1      49.996  26.155  28.280  1.00  0.00     0.173 A 
ATOM    102  C   UNL A   1      51.128  27.783  29.638  1.00  0.00     0.173 A 
ATOM    103  F   UNL A   1      48.883  25.515  27.891  1.00  0.00    -0.203 F 
ATOM    104  C   UNL A   1      51.215  25.780  27.722  1.00  0.00     0.198 A 
ATOM    105  C   UNL A   1      52.339  27.431  29.052  1.00  0.00     0.198 A 
ATOM    106  F   UNL A   1      51.121  28.754  30.566  1.00  0.00    -0.203 F 
ATOM    107  F   UNL A   1      51.262  24.785  26.825  1.00  0.00    -0.200 F 
ATOM    108  C   UNL A   1      52.384  26.424  28.101  1.00  0.00     0.200 A 
ATOM    109  F   UNL A   1      53.464  28.069  29.405  1.00  0.00    -0.200 F 
ATOM    110  F   UNL A   1      53.555  26.068  27.554  1.00  0.00    -0.200 F 
ENDBRANCH  77 100
ENDBRANCH  51  52
ENDBRANCH  44  46
ENDBRANCH  43  44
ENDBRANCH  42  43
ENDBRANCH  41  42
ENDBRANCH  40  41
ENDBRANCH  39  40
ENDBRANCH  38  39
ENDBRANCH  37  38
ENDBRANCH  36  37
ENDBRANCH   1  36
TORSDOF 26
ENDMDL
MODEL 2
REMARK VINA RESULT:      -8.8      5.384      8.960
REMARK SMILES CCOC(=O)c1cccc(Nc2c(-c3ccc(C(=O)OCCOCCOCCOCCOC(=O)c4ccc(-c5c6nc(c(-c7c(F)c(F)c(F)c(F)c7F)c7ccc([nH]7)c(-c7c(F)c(F)c(F)c(F)c7F)c7nc(c(-c8c(F)c(F)c(F)c(F)c8F)c8ccc5[nH]8)C=C7)C=C6)cc4)cc3)nc3cnccn23)c1
REMARK SMILES IDX 24 1 23 2 22 3 21 4 20 5 18 6 19 7 17 8 14 9 15 10 99 11
REMARK SMILES IDX 16 12 98 13 13 14 12 15 106 16 100 17 101 18 105 19 102 20
REMARK SMILES IDX 104 21 103 22 11 23 10 25 6 26 7 27 107 28 8 29 9 30 4 31
REMARK SMILES IDX 5 32 3 33 2 34 1 35 25 36 26 37 27 38 28 39 29 40 30 41
REMARK SMILES IDX 31 42 32 43 33 44 34 45 35 46 36 47 97 48 37 49 96 50 38 51
REMARK SMILES IDX 39 52 40 53 90 54 41 55 95 56 89 57 91 58 42 59 94 60 88 61
REMARK SMILES IDX 87 62 43 64 75 65 55 66 74 67 56 68 59 69 73 70 92 71 57 72
REMARK SMILES IDX 58 73 72 75 93 76 60 77 44 78 45 79 53 80 46 81 47 82 51 83
REMARK SMILES IDX 54 84 48 85 49 86 52 87 50 88 76 89 77 90 85 91 78 92 79 93
REMARK SMILES IDX 83 94 86 95 80 96 81 97 84 98 82 99 61 100 62 101 70 102
REMARK SMILES IDX 63 103 64 104 68 105 71 106 65 107 66 108 69 109 67 110
REMARK H PARENT 11 24 91 63 59 74
REMARK Flexibility Score: inf
ROOT
ATOM      1  C   UNL A   1      34.744  33.889  27.941  1.00  0.00     0.188 C 
ENDROOT
BRANCH   1   2
ATOM      2  O   UNL A   1      35.681  32.883  27.599  1.00  0.00    -0.376 OA
BRANCH   2   3
ATOM      3  C   UNL A   1      35.361  31.530  27.860  1.00  0.00     0.202 C 
BRANCH   3   4
ATOM      4  C   UNL A   1      34.303  30.841  26.984  1.00  0.00     0.261 C 
BRANCH   4   5
ATOM      5  O   UNL A   1      33.804  29.589  27.468  1.00  0.00    -0.460 OA
BRANCH   5   6
ATOM      6  C   UNL A   1      32.589  29.206  27.018  1.00  0.00     0.338 C 
ATOM      7  O   UNL A   1      31.629  29.930  26.819  1.00  0.00    -0.246 OA
BRANCH   6   8
ATOM      8  C   UNL A   1      32.671  27.786  26.598  1.00  0.00     0.060 A 
ATOM      9  C   UNL A   1      32.879  25.136  25.711  1.00  0.00     0.004 A 
ATOM     10  C   UNL A   1      33.937  26.030  25.506  1.00  0.00     0.011 A 
ATOM     11  C   UNL A   1      31.743  25.562  26.417  1.00  0.00     0.011 A 
ATOM     12  C   UNL A   1      33.827  27.355  25.935  1.00  0.00     0.016 A 
ATOM     13  C   UNL A   1      31.644  26.878  26.875  1.00  0.00     0.016 A 
BRANCH   9  14
ATOM     14  C   UNL A   1      32.857  23.853  25.036  1.00  0.00     0.114 A 
ATOM     15  C   UNL A   1      32.295  23.546  23.799  1.00  0.00     0.143 A 
ATOM     16  N   UNL A   1      32.432  22.170  23.705  1.00  0.00    -0.283 N 
ATOM     17  N   UNL A   1      33.271  22.720  25.704  1.00  0.00    -0.225 NA
ATOM     18  C   UNL A   1      32.950  21.738  24.899  1.00  0.00     0.157 A 
ATOM     19  C   UNL A   1      32.138  21.241  22.717  1.00  0.00     0.115 A 
ATOM     20  C   UNL A   1      33.077  20.328  25.129  1.00  0.00     0.158 A 
ATOM     21  C   UNL A   1      32.313  19.935  22.995  1.00  0.00     0.129 A 
ATOM     22  N   UNL A   1      32.764  19.451  24.213  1.00  0.00    -0.259 NA
BRANCH  15  23
ATOM     23  N   UNL A   1      31.728  24.320  22.829  1.00  0.00    -0.339 N 
ATOM     24  H   UNL A   1      31.943  24.103  21.894  1.00  0.00     0.168 HD
BRANCH  23  25
ATOM     25  C   UNL A   1      30.851  25.414  23.060  1.00  0.00     0.040 A 
ATOM     26  C   UNL A   1      30.425  27.811  22.951  1.00  0.00     0.062 A 
ATOM     27  C   UNL A   1      29.187  27.636  23.574  1.00  0.00     0.016 A 
ATOM     28  C   UNL A   1      31.241  26.705  22.660  1.00  0.00     0.041 A 
ATOM     29  C   UNL A   1      28.763  26.359  23.915  1.00  0.00     0.003 A 
ATOM     30  C   UNL A   1      29.594  25.263  23.669  1.00  0.00     0.026 A 
BRANCH  26  31
ATOM     31  C   UNL A   1      30.899  29.195  22.757  1.00  0.00     0.338 C 
ATOM     32  O   UNL A   1      31.925  29.452  22.147  1.00  0.00    -0.246 OA
BRANCH  31  33
ATOM     33  O   UNL A   1      30.071  30.081  23.360  1.00  0.00    -0.462 OA
BRANCH  33  34
ATOM     34  C   UNL A   1      29.041  30.614  22.508  1.00  0.00     0.230 C 
ATOM     35  C   UNL A   1      28.026  31.444  23.279  1.00  0.00     0.049 C 
ENDBRANCH  33  34
ENDBRANCH  31  33
ENDBRANCH  26  31
ENDBRANCH  23  25
ENDBRANCH  15  23
ENDBRANCH   9  14
ENDBRANCH   6   8
ENDBRANCH   5   6
ENDBRANCH   4   5
ENDBRANCH   3   4
ENDBRANCH   2   3
ENDBRANCH   1   2
BRANCH   1  36
ATOM     36  C   UNL A   1      34.540  34.064  29.462  1.00  0.00     0.188 C 
BRANCH  36  37
ATOM     37  O   UNL A   1      33.270  34.466  29.959  1.00  0.00    -0.377 OA
BRANCH  37  38
ATOM     38  C   UNL A   1      32.768  35.767  29.663  1.00  0.00     0.188 C 
BRANCH  38  39
ATOM     39  C   UNL A   1      33.519  37.046  30.107  1.00  0.00     0.188 C 
BRANCH  39  40
ATOM     40  O   UNL A   1      32.908  37.745  31.177  1.00  0.00    -0.376 OA
BRANCH  40  41
ATOM     41  C   UNL A   1      33.718  38.117  32.275  1.00  0.00     0.202 C 
BRANCH  41  42
ATOM     42  C   UNL A   1      33.888  37.089  33.402  1.00  0.00     0.261 C 
BRANCH  42  43
ATOM     43  O   UNL A   1      34.858  36.053  33.180  1.00  0.00    -0.460 OA
BRANCH  43  44
ATOM     44  C   UNL A   1      34.416  34.780  33.175  1.00  0.00     0.338 C 
ATOM     45  O   UNL A   1      33.261  34.396  33.275  1.00  0.00    -0.246 OA
BRANCH  44  46
ATOM     46  C   UNL A   1      35.562  33.911  32.842  1.00  0.00     0.060 A 
ATOM     47  C   UNL A   1      35.465  32.530  33.063  1.00  0.00     0.016 A 
ATOM     48  C   UNL A   1      36.728  34.463  32.307  1.00  0.00     0.016 A 
ATOM     49  C   UNL A   1      36.552  31.701  32.785  1.00  0.00     0.010 A 
ATOM     50  C   UNL A   1      37.824  33.635  32.050  1.00  0.00     0.010 A 
ATOM     51  C   UNL A   1      37.753  32.257  32.323  1.00  0.00    -0.014 A 
BRANCH  51  52
ATOM     52  C   UNL A   1      38.995  31.446  32.342  1.00  0.00     0.031 A 
ATOM     53  C   UNL A   1      40.043  31.785  33.367  1.00  0.00     0.074 A 
ATOM     54  C   UNL A   1      39.186  30.427  31.488  1.00  0.00     0.049 A 
ATOM     55  N   UNL A   1      41.233  31.273  33.545  1.00  0.00    -0.248 NA
ATOM     56  C   UNL A   1      39.699  32.853  34.319  1.00  0.00     0.031 C 
ATOM     57  C   UNL A   1      38.228  29.972  30.484  1.00  0.00     0.029 A 
ATOM     58  N   UNL A   1      40.267  29.594  31.328  1.00  0.00    -0.354 N 
ATOM     59  C   UNL A   1      41.781  31.962  34.619  1.00  0.00     0.074 A 
ATOM     60  C   UNL A   1      40.811  32.951  35.031  1.00  0.00     0.031 C 
ATOM     61  C   UNL A   1      38.770  28.948  29.800  1.00  0.00     0.029 A 
ATOM     62  C   UNL A   1      40.124  28.700  30.294  1.00  0.00     0.049 A 
ATOM     63  H   UNL A   1      41.067  29.632  31.900  1.00  0.00     0.167 HD
ATOM     64  C   UNL A   1      42.983  31.779  35.217  1.00  0.00     0.037 A 
ATOM     65  C   UNL A   1      41.000  27.807  29.793  1.00  0.00     0.037 A 
ATOM     66  C   UNL A   1      43.946  30.795  34.801  1.00  0.00     0.049 A 
ATOM     67  C   UNL A   1      42.367  27.681  30.422  1.00  0.00     0.074 A 
ATOM     68  C   UNL A   1      45.188  30.521  35.346  1.00  0.00     0.029 A 
ATOM     69  N   UNL A   1      43.779  29.930  33.729  1.00  0.00    -0.354 N 
ATOM     70  N   UNL A   1      42.871  28.318  31.452  1.00  0.00    -0.248 NA
ATOM     71  C   UNL A   1      43.287  26.707  29.816  1.00  0.00     0.031 C 
ATOM     72  C   UNL A   1      45.799  29.535  34.566  1.00  0.00     0.029 A 
ATOM     73  C   UNL A   1      44.908  29.142  33.579  1.00  0.00     0.049 A 
ATOM     74  H   UNL A   1      42.978  29.884  33.160  1.00  0.00     0.167 HD
ATOM     75  C   UNL A   1      44.146  27.795  31.641  1.00  0.00     0.074 A 
ATOM     76  C   UNL A   1      44.334  26.781  30.626  1.00  0.00     0.031 C 
ATOM     77  C   UNL A   1      45.077  28.125  32.572  1.00  0.00     0.037 A 
BRANCH  64  78
ATOM     78  C   UNL A   1      43.332  32.683  36.363  1.00  0.00     0.064 A 
ATOM     79  C   UNL A   1      43.041  32.342  37.692  1.00  0.00     0.173 A 
ATOM     80  C   UNL A   1      43.996  33.897  36.129  1.00  0.00     0.173 A 
ATOM     81  F   UNL A   1      42.393  31.201  37.970  1.00  0.00    -0.203 F 
ATOM     82  C   UNL A   1      43.375  33.195  38.742  1.00  0.00     0.198 A 
ATOM     83  C   UNL A   1      44.360  34.731  37.183  1.00  0.00     0.198 A 
ATOM     84  F   UNL A   1      44.301  34.273  34.878  1.00  0.00    -0.203 F 
ATOM     85  F   UNL A   1      43.037  32.873  39.998  1.00  0.00    -0.200 F 
ATOM     86  C   UNL A   1      44.041  34.384  38.487  1.00  0.00     0.200 A 
ATOM     87  F   UNL A   1      45.016  35.873  36.935  1.00  0.00    -0.200 F 
ATOM     88  F   UNL A   1      44.371  35.199  39.498  1.00  0.00    -0.200 F 
ENDBRANCH  64  78
BRANCH  65  89
ATOM     89  C   UNL A   1      40.627  26.968  28.623  1.00  0.00     0.064 A 
ATOM     90  C   UNL A   1      39.640  25.977  28.726  1.00  0.00     0.173 A 
ATOM     91  C   UNL A   1      41.277  27.111  27.387  1.00  0.00     0.173 A 
ATOM     92  F   UNL A   1      39.010  25.780  29.892  1.00  0.00    -0.203 F 
ATOM     93  C   UNL A   1      39.337  25.146  27.648  1.00  0.00     0.198 A 
ATOM     94  C   UNL A   1      40.949  26.303  26.301  1.00  0.00     0.198 A 
ATOM     95  F   UNL A   1      42.233  28.039  27.234  1.00  0.00    -0.203 F 
ATOM     96  F   UNL A   1      38.433  24.169  27.794  1.00  0.00    -0.200 F 
ATOM     97  C   UNL A   1      39.987  25.313  26.436  1.00  0.00     0.200 A 
ATOM     98  F   UNL A   1      41.572  26.476  25.127  1.00  0.00    -0.200 F 
ATOM     99  F   UNL A   1      39.696  24.513  25.401  1.00  0.00    -0.200 F 
ENDBRANCH  65  89
BRANCH  77 100
ATOM    100  C   UNL A   1      46.362  27.345  32.577  1.00  0.00     0.064 A 
ATOM    101  C   UNL A   1      46.498  26.141  33.282  1.00  0.00     0.173 A 
ATOM    102  C   UNL A   1      47.460  27.789  31.822  1.00  0.00     0.173 A 
ATOM    103  F   UNL A   1      45.484  25.676  34.027  1.00  0.00    -0.203 F 
ATOM    104  C   UNL A   1      47.694  25.427  33.258  1.00  0.00     0.198 A 
ATOM    105  C   UNL A   1      48.641  27.055  31.770  1.00  0.00     0.198 A 
ATOM    106  F   UNL A   1      47.382  28.930  31.120  1.00  0.00    -0.203 F 
ATOM    107  F   UNL A   1      47.819  24.307  33.982  1.00  0.00    -0.200 F 
ATOM    108  C   UNL A   1      48.761  25.880  32.495  1.00  0.00     0.200 A 
ATOM    109  F   UNL A   1      49.663  27.484  31.017  1.00  0.00    -0.200 F 
ATOM    110  F   UNL A   1      49.907  25.186  32.464  1.00  0.00    -0.200 F 
ENDBRANCH  77 100
ENDBRANCH  51  52
ENDBRANCH  44  46
ENDBRANCH  43  44
ENDBRANCH  42  43
ENDBRANCH  41  42
ENDBRANCH  40  41
ENDBRANCH  39  40
ENDBRANCH  38  39
ENDBRANCH  37  38
ENDBRANCH  36  37
ENDBRANCH   1  36
TORSDOF 26
ENDMDL
MODEL 3
REMARK VINA RESULT:      -8.7      5.376      9.430
REMARK SMILES CCOC(=O)c1cccc(Nc2c(-c3ccc(C(=O)OCCOCCOCCOCCOC(=O)c4ccc(-c5c6nc(c(-c7c(F)c(F)c(F)c(F)c7F)c7ccc([nH]7)c(-c7c(F)c(F)c(F)c(F)c7F)c7nc(c(-c8c(F)c(F)c(F)c(F)c8F)c8ccc5[nH]8)C=C7)C=C6)cc4)cc3)nc3cnccn23)c1
REMARK SMILES IDX 24 1 23 2 22 3 21 4 20 5 18 6 19 7 17 8 14 9 15 10 99 11
REMARK SMILES IDX 16 12 98 13 13 14 12 15 106 16 100 17 101 18 105 19 102 20
REMARK SMILES IDX 104 21 103 22 11 23 10 25 6 26 7 27 107 28 8 29 9 30 4 31
REMARK SMILES IDX 5 32 3 33 2 34 1 35 25 36 26 37 27 38 28 39 29 40 30 41
REMARK SMILES IDX 31 42 32 43 33 44 34 45 35 46 36 47 97 48 37 49 96 50 38 51
REMARK SMILES IDX 39 52 40 53 90 54 41 55 95 56 89 57 91 58 42 59 94 60 88 61
REMARK SMILES IDX 87 62 43 64 75 65 55 66 74 67 56 68 59 69 73 70 92 71 57 72
REMARK SMILES IDX 58 73 72 75 93 76 60 77 44 78 45 79 53 80 46 81 47 82 51 83
REMARK SMILES IDX 54 84 48 85 49 86 52 87 50 88 76 89 77 90 85 91 78 92 79 93
REMARK SMILES IDX 83 94 86 95 80 96 81 97 84 98 82 99 61 100 62 101 70 102
REMARK SMILES IDX 63 103 64 104 68 105 71 106 65 107 66 108 69 109 67 110
REMARK H PARENT 11 24 91 63 59 74
REMARK Flexibility Score: inf
ROOT
ATOM      1  C   UNL A   1      34.497  34.022  27.904  1.00  0.00     0.188 C 
ENDROOT
BRANCH   1   2
ATOM      2  O   UNL A   1      35.512  33.047  27.735  1.00  0.00    -0.376 OA
BRANCH   2   3
ATOM      3  C   UNL A   1      35.162  31.678  27.776  1.00  0.00     0.202 C 
BRANCH   3   4
ATOM      4  C   UNL A   1      33.791  31.251  27.229  1.00  0.00     0.261 C 
BRANCH   4   5
ATOM      5  O   UNL A   1      33.672  29.881  26.828  1.00  0.00    -0.460 OA
BRANCH   5   6
ATOM      6  C   UNL A   1      32.476  29.289  27.043  1.00  0.00     0.338 C 
ATOM      7  O   UNL A   1      31.439  29.845  27.357  1.00  0.00    -0.246 OA
BRANCH   6   8
ATOM      8  C   UNL A   1      32.575  27.869  26.625  1.00  0.00     0.060 A 
ATOM      9  C   UNL A   1      32.818  25.221  25.742  1.00  0.00     0.004 A 
ATOM     10  C   UNL A   1      33.877  26.119  25.565  1.00  0.00     0.011 A 
ATOM     11  C   UNL A   1      31.662  25.641  26.418  1.00  0.00     0.011 A 
ATOM     12  C   UNL A   1      33.750  27.444  25.992  1.00  0.00     0.016 A 
ATOM     13  C   UNL A   1      31.545  26.957  26.874  1.00  0.00     0.016 A 
BRANCH   9  14
ATOM     14  C   UNL A   1      32.819  23.938  25.066  1.00  0.00     0.114 A 
ATOM     15  C   UNL A   1      32.285  23.628  23.818  1.00  0.00     0.143 A 
ATOM     16  N   UNL A   1      32.434  22.252  23.725  1.00  0.00    -0.283 N 
ATOM     17  N   UNL A   1      33.226  22.807  25.742  1.00  0.00    -0.225 NA
ATOM     18  C   UNL A   1      32.930  21.824  24.930  1.00  0.00     0.157 A 
ATOM     19  C   UNL A   1      32.167  21.322  22.732  1.00  0.00     0.115 A 
ATOM     20  C   UNL A   1      33.062  20.414  25.162  1.00  0.00     0.158 A 
ATOM     21  C   UNL A   1      32.345  20.018  23.012  1.00  0.00     0.129 A 
ATOM     22  N   UNL A   1      32.774  19.535  24.239  1.00  0.00    -0.259 NA
BRANCH  15  23
ATOM     23  N   UNL A   1      31.733  24.398  22.836  1.00  0.00    -0.339 N 
ATOM     24  H   UNL A   1      32.002  24.210  21.908  1.00  0.00     0.168 HD
BRANCH  23  25
ATOM     25  C   UNL A   1      30.800  25.450  23.045  1.00  0.00     0.040 A 
ATOM     26  C   UNL A   1      30.249  27.818  22.886  1.00  0.00     0.062 A 
ATOM     27  C   UNL A   1      29.022  27.592  23.515  1.00  0.00     0.016 A 
ATOM     28  C   UNL A   1      31.121  26.750  22.617  1.00  0.00     0.041 A 
ATOM     29  C   UNL A   1      28.667  26.302  23.884  1.00  0.00     0.003 A 
ATOM     30  C   UNL A   1      29.553  25.246  23.660  1.00  0.00     0.026 A 
BRANCH  26  31
ATOM     31  C   UNL A   1      30.650  29.220  22.661  1.00  0.00     0.338 C 
ATOM     32  O   UNL A   1      31.589  29.522  21.941  1.00  0.00    -0.246 OA
BRANCH  31  33
ATOM     33  O   UNL A   1      29.868  30.068  23.371  1.00  0.00    -0.462 OA
BRANCH  33  34
ATOM     34  C   UNL A   1      29.053  30.944  22.571  1.00  0.00     0.230 C 
ATOM     35  C   UNL A   1      28.110  31.786  23.416  1.00  0.00     0.049 C 
ENDBRANCH  33  34
ENDBRANCH  31  33
ENDBRANCH  26  31
ENDBRANCH  23  25
ENDBRANCH  15  23
ENDBRANCH   9  14
ENDBRANCH   6   8
ENDBRANCH   5   6
ENDBRANCH   4   5
ENDBRANCH   3   4
ENDBRANCH   2   3
ENDBRANCH   1   2
BRANCH   1  36
ATOM     36  C   UNL A   1      34.184  34.348  29.382  1.00  0.00     0.188 C 
BRANCH  36  37
ATOM     37  O   UNL A   1      32.877  34.773  29.745  1.00  0.00    -0.377 OA
BRANCH  37  38
ATOM     38  C   UNL A   1      32.533  36.154  29.682  1.00  0.00     0.188 C 
BRANCH  38  39
ATOM     39  C   UNL A   1      33.324  37.224  30.476  1.00  0.00     0.188 C 
BRANCH  39  40
ATOM     40  O   UNL A   1      32.860  37.437  31.797  1.00  0.00    -0.376 OA
BRANCH  40  41
ATOM     41  C   UNL A   1      33.804  37.379  32.848  1.00  0.00     0.202 C 
BRANCH  41  42
ATOM     42  C   UNL A   1      33.929  36.051  33.609  1.00  0.00     0.261 C 
BRANCH  42  43
ATOM     43  O   UNL A   1      35.060  35.231  33.276  1.00  0.00    -0.460 OA
BRANCH  43  44
ATOM     44  C   UNL A   1      34.835  33.916  33.079  1.00  0.00     0.338 C 
ATOM     45  O   UNL A   1      33.767  33.329  33.147  1.00  0.00    -0.246 OA
BRANCH  44  46
ATOM     46  C   UNL A   1      36.090  33.319  32.581  1.00  0.00     0.060 A 
ATOM     47  C   UNL A   1      36.897  32.583  33.459  1.00  0.00     0.016 A 
ATOM     48  C   UNL A   1      36.463  33.483  31.245  1.00  0.00     0.016 A 
ATOM     49  C   UNL A   1      38.103  32.042  33.012  1.00  0.00     0.010 A 
ATOM     50  C   UNL A   1      37.681  32.960  30.804  1.00  0.00     0.010 A 
ATOM     51  C   UNL A   1      38.523  32.269  31.695  1.00  0.00    -0.014 A 
BRANCH  51  52
ATOM     52  C   UNL A   1      39.928  31.990  31.311  1.00  0.00     0.031 A 
ATOM     53  C   UNL A   1      40.967  33.029  31.631  1.00  0.00     0.074 A 
ATOM     54  C   UNL A   1      40.280  30.841  30.710  1.00  0.00     0.049 A 
ATOM     55  N   UNL A   1      42.243  33.051  31.343  1.00  0.00    -0.248 NA
ATOM     56  C   UNL A   1      40.498  34.208  32.377  1.00  0.00     0.031 C 
ATOM     57  C   UNL A   1      39.376  29.740  30.390  1.00  0.00     0.029 A 
ATOM     58  N   UNL A   1      41.505  30.418  30.252  1.00  0.00    -0.354 N 
ATOM     59  C   UNL A   1      42.723  34.246  31.863  1.00  0.00     0.074 A 
ATOM     60  C   UNL A   1      41.600  34.938  32.452  1.00  0.00     0.031 C 
ATOM     61  C   UNL A   1      40.075  28.769  29.774  1.00  0.00     0.029 A 
ATOM     62  C   UNL A   1      41.465  29.197  29.624  1.00  0.00     0.049 A 
ATOM     63  H   UNL A   1      42.332  30.940  30.364  1.00  0.00     0.167 HD
ATOM     64  C   UNL A   1      43.993  34.719  31.859  1.00  0.00     0.037 A 
ATOM     65  C   UNL A   1      42.438  28.521  28.981  1.00  0.00     0.037 A 
ATOM     66  C   UNL A   1      45.107  34.028  31.268  1.00  0.00     0.049 A 
ATOM     67  C   UNL A   1      43.827  29.110  28.914  1.00  0.00     0.074 A 
ATOM     68  C   UNL A   1      46.435  34.416  31.220  1.00  0.00     0.029 A 
ATOM     69  N   UNL A   1      45.023  32.809  30.613  1.00  0.00    -0.354 N 
ATOM     70  N   UNL A   1      44.281  30.228  29.428  1.00  0.00    -0.248 NA
ATOM     71  C   UNL A   1      44.839  28.338  28.179  1.00  0.00     0.031 C 
ATOM     72  C   UNL A   1      47.141  33.463  30.480  1.00  0.00     0.029 A 
ATOM     73  C   UNL A   1      46.269  32.444  30.131  1.00  0.00     0.049 A 
ATOM     74  H   UNL A   1      44.198  32.281  30.505  1.00  0.00     0.167 HD
ATOM     75  C   UNL A   1      45.635  30.274  29.113  1.00  0.00     0.074 A 
ATOM     76  C   UNL A   1      45.930  29.065  28.373  1.00  0.00     0.031 C 
ATOM     77  C   UNL A   1      46.552  31.229  29.409  1.00  0.00     0.037 A 
BRANCH  64  78
ATOM     78  C   UNL A   1      44.234  36.062  32.485  1.00  0.00     0.064 A 
ATOM     79  C   UNL A   1      44.625  36.196  33.826  1.00  0.00     0.173 A 
ATOM     80  C   UNL A   1      44.100  37.232  31.722  1.00  0.00     0.173 A 
ATOM     81  F   UNL A   1      44.752  35.110  34.603  1.00  0.00    -0.203 F 
ATOM     82  C   UNL A   1      44.845  37.452  34.387  1.00  0.00     0.198 A 
ATOM     83  C   UNL A   1      44.355  38.484  32.278  1.00  0.00     0.198 A 
ATOM     84  F   UNL A   1      43.730  37.164  30.435  1.00  0.00    -0.203 F 
ATOM     85  F   UNL A   1      45.165  37.556  35.685  1.00  0.00    -0.200 F 
ATOM     86  C   UNL A   1      44.718  38.593  33.611  1.00  0.00     0.200 A 
ATOM     87  F   UNL A   1      44.245  39.585  31.521  1.00  0.00    -0.200 F 
ATOM     88  F   UNL A   1      44.940  39.800  34.150  1.00  0.00    -0.200 F 
ENDBRANCH  64  78
BRANCH  65  89
ATOM     89  C   UNL A   1      42.139  27.216  28.330  1.00  0.00     0.064 A 
ATOM     90  C   UNL A   1      41.477  27.157  27.096  1.00  0.00     0.173 A 
ATOM     91  C   UNL A   1      42.475  26.002  28.947  1.00  0.00     0.173 A 
ATOM     92  F   UNL A   1      41.109  28.288  26.479  1.00  0.00    -0.203 F 
ATOM     93  C   UNL A   1      41.138  25.934  26.518  1.00  0.00     0.198 A 
ATOM     94  C   UNL A   1      42.167  24.780  28.352  1.00  0.00     0.198 A 
ATOM     95  F   UNL A   1      43.105  26.000  30.131  1.00  0.00    -0.203 F 
ATOM     96  F   UNL A   1      40.452  25.907  25.368  1.00  0.00    -0.200 F 
ATOM     97  C   UNL A   1      41.488  24.747  27.143  1.00  0.00     0.200 A 
ATOM     98  F   UNL A   1      42.517  23.636  28.954  1.00  0.00    -0.200 F 
ATOM     99  F   UNL A   1      41.162  23.573  26.587  1.00  0.00    -0.200 F 
ENDBRANCH  65  89
BRANCH  77 100
ATOM    100  C   UNL A   1      47.973  30.985  28.986  1.00  0.00     0.064 A 
ATOM    101  C   UNL A   1      48.839  30.166  29.726  1.00  0.00     0.173 A 
ATOM    102  C   UNL A   1      48.461  31.542  27.792  1.00  0.00     0.173 A 
ATOM    103  F   UNL A   1      48.428  29.617  30.879  1.00  0.00    -0.203 F 
ATOM    104  C   UNL A   1      50.147  29.941  29.305  1.00  0.00     0.198 A 
ATOM    105  C   UNL A   1      49.757  31.285  27.356  1.00  0.00     0.198 A 
ATOM    106  F   UNL A   1      47.673  32.325  27.039  1.00  0.00    -0.203 F 
ATOM    107  F   UNL A   1      50.973  29.199  30.056  1.00  0.00    -0.200 F 
ATOM    108  C   UNL A   1      50.603  30.492  28.116  1.00  0.00     0.200 A 
ATOM    109  F   UNL A   1      50.187  31.803  26.197  1.00  0.00    -0.200 F 
ATOM    110  F   UNL A   1      51.858  30.265  27.708  1.00  0.00    -0.200 F 
ENDBRANCH  77 100
ENDBRANCH  51  52
ENDBRANCH  44  46
ENDBRANCH  43  44
ENDBRANCH  42  43
ENDBRANCH  41  42
ENDBRANCH  40  41
ENDBRANCH  39  40
ENDBRANCH  38  39
ENDBRANCH  37  38
ENDBRANCH  36  37
ENDBRANCH   1  36
TORSDOF 26
ENDMDL
