MODEL 1
REMARK VINA RESULT:      -9.0      0.000      0.000
REMARK SMILES CC(C)C[C@H](NC(=O)CNC(=O)[C@@H](NC(=O)OCc1ccccc1)C(C)C)C(=O)N[C@@H](C)C(=O)OCCOCCOCCOCCOC(=O)c1ccc(-c2c3nc(c(-c4c(F)c(F)c(F)c(F)c4F)c4ccc([nH]4)c(-c4c(F)c(F)c(F)c(F)c4F)c4nc(c(-c5c(F)c(F)c(F)c(F)c5F)c5ccc2[nH]5)C=C4)C=C3)cc1
REMARK SMILES IDX 37 1 36 2 35 3 33 4 34 5 31 6 32 7 30 8 28 9 29 10 5 12 4 13
REMARK SMILES IDX 2 14 1 15 3 16 6 17 7 18 8 20 9 21 10 22 11 23 12 25 13 26
REMARK SMILES IDX 14 27 15 28 16 30 17 31 18 32 19 33 20 34 24 35 21 36 23 37
REMARK SMILES IDX 22 38 25 39 26 40 27 41 38 42 39 43 40 44 41 45 42 46 43 47
REMARK SMILES IDX 44 48 45 49 46 50 47 51 48 52 49 53 50 54 51 55 112 56 52 57
REMARK SMILES IDX 111 58 53 59 54 60 55 61 105 62 56 63 110 64 104 65 106 66
REMARK SMILES IDX 57 67 109 68 103 69 102 70 58 72 90 73 70 74 89 75 71 76
REMARK SMILES IDX 74 77 88 78 107 79 72 80 73 81 87 83 108 84 75 85 59 86
REMARK SMILES IDX 60 87 68 88 61 89 62 90 66 91 69 92 63 93 64 94 67 95 65 96
REMARK SMILES IDX 91 97 92 98 100 99 93 100 94 101 98 102 101 103 95 104
REMARK SMILES IDX 96 105 99 106 97 107 76 108 77 109 85 110 78 111 79 112
REMARK SMILES IDX 83 113 86 114 80 115 81 116 84 117 82 118
REMARK H PARENT 30 11 6 19 10 24 14 29 106 71 74 82
REMARK Flexibility Score: inf
ROOT
ATOM      1  C   UNL A   1      33.303  21.256  25.240  1.00  0.00     0.202 C 
ENDROOT
BRANCH   1   2
ATOM      2  C   UNL A   1      31.924  21.906  25.486  1.00  0.00     0.261 C 
BRANCH   2   3
ATOM      3  O   UNL A   1      31.968  23.324  25.790  1.00  0.00    -0.462 OA
BRANCH   3   4
ATOM      4  C   UNL A   1      32.081  24.186  24.750  1.00  0.00     0.328 C 
ATOM      5  O   UNL A   1      31.769  23.909  23.598  1.00  0.00    -0.250 OA
BRANCH   4   6
ATOM      6  C   UNL A   1      32.723  25.535  25.165  1.00  0.00     0.189 C 
ATOM      7  C   UNL A   1      34.216  25.323  25.367  1.00  0.00     0.043 C 
BRANCH   6   8
ATOM      8  N   UNL A   1      32.229  26.198  26.388  1.00  0.00    -0.341 N 
ATOM      9  C   UNL A   1      31.943  27.515  26.640  1.00  0.00     0.243 C 
ATOM     10  O   UNL A   1      31.639  27.809  27.801  1.00  0.00    -0.273 OA
ATOM     11  H   UNL A   1      32.079  25.593  27.151  1.00  0.00     0.164 HD
BRANCH   9  12
ATOM     12  C   UNL A   1      31.780  28.560  25.505  1.00  0.00     0.171 C 
BRANCH  12  13
ATOM     13  C   UNL A   1      33.033  28.578  24.661  1.00  0.00     0.038 C 
BRANCH  13  14
ATOM     14  C   UNL A   1      32.962  28.757  23.151  1.00  0.00    -0.015 C 
ATOM     15  C   UNL A   1      33.730  27.749  22.298  1.00  0.00     0.007 C 
ATOM     16  C   UNL A   1      31.488  28.885  22.737  1.00  0.00     0.007 C 
ENDBRANCH  13  14
ENDBRANCH  12  13
BRANCH  12  17
ATOM     17  N   UNL A   1      31.466  29.898  26.037  1.00  0.00    -0.343 N 
ATOM     18  C   UNL A   1      32.126  30.825  26.781  1.00  0.00     0.240 C 
ATOM     19  H   UNL A   1      30.559  30.192  25.793  1.00  0.00     0.164 HD
ATOM     20  O   UNL A   1      31.519  31.894  26.935  1.00  0.00    -0.273 OA
BRANCH  18  21
ATOM     21  C   UNL A   1      33.570  30.697  27.344  1.00  0.00     0.216 C 
BRANCH  21  22
ATOM     22  N   UNL A   1      34.513  31.808  27.289  1.00  0.00    -0.345 N 
ATOM     23  C   UNL A   1      35.486  32.271  28.123  1.00  0.00     0.243 C 
ATOM     24  H   UNL A   1      34.428  32.342  26.466  1.00  0.00     0.164 HD
ATOM     25  O   UNL A   1      36.208  33.148  27.626  1.00  0.00    -0.273 OA
BRANCH  23  26
ATOM     26  C   UNL A   1      35.778  31.801  29.603  1.00  0.00     0.177 C 
BRANCH  26  27
ATOM     27  N   UNL A   1      37.174  31.763  30.034  1.00  0.00    -0.309 N 
ATOM     28  C   UNL A   1      38.086  30.772  30.078  1.00  0.00     0.408 C 
ATOM     29  H   UNL A   1      37.514  32.630  30.353  1.00  0.00     0.167 HD
ATOM     30  O   UNL A   1      39.077  30.893  30.797  1.00  0.00    -0.225 OA
BRANCH  28  31
ATOM     31  O   UNL A   1      37.764  29.702  29.328  1.00  0.00    -0.445 OA
BRANCH  31  32
ATOM     32  C   UNL A   1      38.191  29.753  27.963  1.00  0.00     0.270 C 
BRANCH  32  33
ATOM     33  C   UNL A   1      39.260  28.732  27.664  1.00  0.00    -0.011 A 
ATOM     34  C   UNL A   1      39.206  27.447  28.221  1.00  0.00     0.007 A 
ATOM     35  C   UNL A   1      40.291  29.038  26.762  1.00  0.00     0.007 A 
ATOM     36  C   UNL A   1      40.174  26.497  27.890  1.00  0.00     0.000 A 
ATOM     37  C   UNL A   1      41.249  28.085  26.425  1.00  0.00     0.000 A 
ATOM     38  C   UNL A   1      41.193  26.815  26.994  1.00  0.00     0.000 A 
ENDBRANCH  32  33
ENDBRANCH  31  32
ENDBRANCH  28  31
ENDBRANCH  26  27
BRANCH  26  39
ATOM     39  C   UNL A   1      34.788  32.331  30.659  1.00  0.00     0.015 C 
ATOM     40  C   UNL A   1      35.378  32.232  32.073  1.00  0.00     0.010 C 
ATOM     41  C   UNL A   1      34.435  33.810  30.419  1.00  0.00     0.010 C 
ENDBRANCH  26  39
ENDBRANCH  23  26
ENDBRANCH  21  22
ENDBRANCH  18  21
ENDBRANCH  12  17
ENDBRANCH   9  12
ENDBRANCH   6   8
ENDBRANCH   4   6
ENDBRANCH   3   4
ENDBRANCH   2   3
ENDBRANCH   1   2
BRANCH   1  42
ATOM     42  O   UNL A   1      34.368  21.583  26.138  1.00  0.00    -0.376 OA
BRANCH  42  43
ATOM     43  C   UNL A   1      35.643  21.822  25.560  1.00  0.00     0.188 C 
BRANCH  43  44
ATOM     44  C   UNL A   1      36.401  20.617  24.995  1.00  0.00     0.188 C 
BRANCH  44  45
ATOM     45  O   UNL A   1      37.816  20.706  25.109  1.00  0.00    -0.377 OA
BRANCH  45  46
ATOM     46  C   UNL A   1      38.266  21.904  25.730  1.00  0.00     0.188 C 
BRANCH  46  47
ATOM     47  C   UNL A   1      39.555  21.842  26.587  1.00  0.00     0.188 C 
BRANCH  47  48
ATOM     48  O   UNL A   1      40.448  22.944  26.462  1.00  0.00    -0.376 OA
BRANCH  48  49
ATOM     49  C   UNL A   1      41.428  23.087  27.493  1.00  0.00     0.202 C 
BRANCH  49  50
ATOM     50  C   UNL A   1      42.630  22.129  27.397  1.00  0.00     0.261 C 
BRANCH  50  51
ATOM     51  O   UNL A   1      43.902  22.777  27.352  1.00  0.00    -0.460 OA
BRANCH  51  52
ATOM     52  C   UNL A   1      44.355  23.097  26.124  1.00  0.00     0.338 C 
ATOM     53  O   UNL A   1      44.097  22.542  25.071  1.00  0.00    -0.246 OA
BRANCH  52  54
ATOM     54  C   UNL A   1      45.008  24.411  26.241  1.00  0.00     0.060 A 
ATOM     55  C   UNL A   1      45.113  25.191  25.081  1.00  0.00     0.016 A 
ATOM     56  C   UNL A   1      45.433  24.898  27.480  1.00  0.00     0.016 A 
ATOM     57  C   UNL A   1      45.627  26.477  25.160  1.00  0.00     0.010 A 
ATOM     58  C   UNL A   1      46.007  26.164  27.550  1.00  0.00     0.010 A 
ATOM     59  C   UNL A   1      46.127  26.936  26.382  1.00  0.00    -0.014 A 
BRANCH  59  60
ATOM     60  C   UNL A   1      47.064  28.072  26.349  1.00  0.00     0.031 A 
ATOM     61  C   UNL A   1      46.477  29.429  26.587  1.00  0.00     0.074 A 
ATOM     62  C   UNL A   1      48.379  27.890  26.169  1.00  0.00     0.049 A 
ATOM     63  N   UNL A   1      47.057  30.598  26.607  1.00  0.00    -0.248 NA
ATOM     64  C   UNL A   1      45.025  29.471  26.839  1.00  0.00     0.031 C 
ATOM     65  C   UNL A   1      49.037  26.601  25.977  1.00  0.00     0.029 A 
ATOM     66  N   UNL A   1      49.394  28.806  26.113  1.00  0.00    -0.354 N 
ATOM     67  C   UNL A   1      46.043  31.508  26.874  1.00  0.00     0.074 A 
ATOM     68  C   UNL A   1      44.807  30.768  26.963  1.00  0.00     0.031 C 
ATOM     69  C   UNL A   1      50.353  26.811  25.797  1.00  0.00     0.029 A 
ATOM     70  C   UNL A   1      50.614  28.250  25.831  1.00  0.00     0.049 A 
ATOM     71  H   UNL A   1      49.261  29.771  26.259  1.00  0.00     0.167 HD
ATOM     72  C   UNL A   1      46.142  32.846  27.038  1.00  0.00     0.037 A 
ATOM     73  C   UNL A   1      51.795  28.852  25.599  1.00  0.00     0.037 A 
ATOM     74  C   UNL A   1      47.379  33.564  26.909  1.00  0.00     0.049 A 
ATOM     75  C   UNL A   1      51.873  30.354  25.699  1.00  0.00     0.074 A 
ATOM     76  C   UNL A   1      47.612  34.919  27.042  1.00  0.00     0.029 A 
ATOM     77  N   UNL A   1      48.596  32.974  26.591  1.00  0.00    -0.354 N 
ATOM     78  N   UNL A   1      50.922  31.217  25.975  1.00  0.00    -0.248 NA
ATOM     79  C   UNL A   1      53.185  30.967  25.464  1.00  0.00     0.031 C 
ATOM     80  C   UNL A   1      48.956  35.156  26.738  1.00  0.00     0.029 A 
ATOM     81  C   UNL A   1      49.581  33.942  26.491  1.00  0.00     0.049 A 
ATOM     82  H   UNL A   1      48.739  32.009  26.455  1.00  0.00     0.167 HD
ATOM     83  C   UNL A   1      51.522  32.469  25.972  1.00  0.00     0.074 A 
ATOM     84  C   UNL A   1      52.926  32.249  25.679  1.00  0.00     0.031 C 
ATOM     85  C   UNL A   1      50.969  33.689  26.192  1.00  0.00     0.037 A 
BRANCH  72  86
ATOM     86  C   UNL A   1      44.869  33.595  27.312  1.00  0.00     0.064 A 
ATOM     87  C   UNL A   1      44.133  34.208  26.285  1.00  0.00     0.173 A 
ATOM     88  C   UNL A   1      44.403  33.739  28.627  1.00  0.00     0.173 A 
ATOM     89  F   UNL A   1      44.547  34.125  25.012  1.00  0.00    -0.203 F 
ATOM     90  C   UNL A   1      43.005  34.975  26.571  1.00  0.00     0.198 A 
ATOM     91  C   UNL A   1      43.254  34.474  28.904  1.00  0.00     0.198 A 
ATOM     92  F   UNL A   1      45.069  33.180  29.647  1.00  0.00    -0.203 F 
ATOM     93  F   UNL A   1      42.366  35.617  25.583  1.00  0.00    -0.200 F 
ATOM     94  C   UNL A   1      42.563  35.103  27.879  1.00  0.00     0.200 A 
ATOM     95  F   UNL A   1      42.822  34.586  30.168  1.00  0.00    -0.200 F 
ATOM     96  F   UNL A   1      41.483  35.845  28.154  1.00  0.00    -0.200 F 
ENDBRANCH  72  86
BRANCH  73  97
ATOM     97  C   UNL A   1      52.977  28.030  25.235  1.00  0.00     0.064 A 
ATOM     98  C   UNL A   1      53.329  27.806  23.898  1.00  0.00     0.173 A 
ATOM     99  C   UNL A   1      53.802  27.474  26.227  1.00  0.00     0.173 A 
ATOM    100  F   UNL A   1      52.564  28.299  22.913  1.00  0.00    -0.203 F 
ATOM    101  C   UNL A   1      54.456  27.055  23.566  1.00  0.00     0.198 A 
ATOM    102  C   UNL A   1      54.942  26.748  25.895  1.00  0.00     0.198 A 
ATOM    103  F   UNL A   1      53.509  27.659  27.524  1.00  0.00    -0.203 F 
ATOM    104  F   UNL A   1      54.753  26.831  22.279  1.00  0.00    -0.200 F 
ATOM    105  C   UNL A   1      55.267  26.535  24.565  1.00  0.00     0.200 A 
ATOM    106  F   UNL A   1      55.731  26.264  26.864  1.00  0.00    -0.200 F 
ATOM    107  F   UNL A   1      56.359  25.828  24.244  1.00  0.00    -0.200 F 
ENDBRANCH  73  97
BRANCH  85 108
ATOM    108  C   UNL A   1      51.890  34.877  26.157  1.00  0.00     0.064 A 
ATOM    109  C   UNL A   1      52.092  35.623  24.988  1.00  0.00     0.173 A 
ATOM    110  C   UNL A   1      52.537  35.301  27.329  1.00  0.00     0.173 A 
ATOM    111  F   UNL A   1      51.507  35.252  23.839  1.00  0.00    -0.203 F 
ATOM    112  C   UNL A   1      52.934  36.732  24.985  1.00  0.00     0.198 A 
ATOM    113  C   UNL A   1      53.346  36.433  27.330  1.00  0.00     0.198 A 
ATOM    114  F   UNL A   1      52.368  34.630  28.478  1.00  0.00    -0.203 F 
ATOM    115  F   UNL A   1      53.156  37.397  23.843  1.00  0.00    -0.200 F 
ATOM    116  C   UNL A   1      53.551  37.142  26.157  1.00  0.00     0.200 A 
ATOM    117  F   UNL A   1      53.924  36.840  28.469  1.00  0.00    -0.200 F 
ATOM    118  F   UNL A   1      54.351  38.217  26.154  1.00  0.00    -0.200 F 
ENDBRANCH  85 108
ENDBRANCH  59  60
ENDBRANCH  52  54
ENDBRANCH  51  52
ENDBRANCH  50  51
ENDBRANCH  49  50
ENDBRANCH  48  49
ENDBRANCH  47  48
ENDBRANCH  46  47
ENDBRANCH  45  46
ENDBRANCH  44  45
ENDBRANCH  43  44
ENDBRANCH  42  43
ENDBRANCH   1  42
TORSDOF 33
ENDMDL
MODEL 2
REMARK VINA RESULT:      -8.6      1.817      3.841
REMARK SMILES CC(C)C[C@H](NC(=O)CNC(=O)[C@@H](NC(=O)OCc1ccccc1)C(C)C)C(=O)N[C@@H](C)C(=O)OCCOCCOCCOCCOC(=O)c1ccc(-c2c3nc(c(-c4c(F)c(F)c(F)c(F)c4F)c4ccc([nH]4)c(-c4c(F)c(F)c(F)c(F)c4F)c4nc(c(-c5c(F)c(F)c(F)c(F)c5F)c5ccc2[nH]5)C=C4)C=C3)cc1
REMARK SMILES IDX 37 1 36 2 35 3 33 4 34 5 31 6 32 7 30 8 28 9 29 10 5 12 4 13
REMARK SMILES IDX 2 14 1 15 3 16 6 17 7 18 8 20 9 21 10 22 11 23 12 25 13 26
REMARK SMILES IDX 14 27 15 28 16 30 17 31 18 32 19 33 20 34 24 35 21 36 23 37
REMARK SMILES IDX 22 38 25 39 26 40 27 41 38 42 39 43 40 44 41 45 42 46 43 47
REMARK SMILES IDX 44 48 45 49 46 50 47 51 48 52 49 53 50 54 51 55 112 56 52 57
REMARK SMILES IDX 111 58 53 59 54 60 55 61 105 62 56 63 110 64 104 65 106 66
REMARK SMILES IDX 57 67 109 68 103 69 102 70 58 72 90 73 70 74 89 75 71 76
REMARK SMILES IDX 74 77 88 78 107 79 72 80 73 81 87 83 108 84 75 85 59 86
REMARK SMILES IDX 60 87 68 88 61 89 62 90 66 91 69 92 63 93 64 94 67 95 65 96
REMARK SMILES IDX 91 97 92 98 100 99 93 100 94 101 98 102 101 103 95 104
REMARK SMILES IDX 96 105 99 106 97 107 76 108 77 109 85 110 78 111 79 112
REMARK SMILES IDX 83 113 86 114 80 115 81 116 84 117 82 118
REMARK H PARENT 30 11 6 19 10 24 14 29 106 71 74 82
REMARK Flexibility Score: inf
ROOT
ATOM      1  C   UNL A   1      34.944  21.447  26.676  1.00  0.00     0.202 C 
ENDROOT
BRANCH   1   2
ATOM      2  C   UNL A   1      33.506  20.902  26.825  1.00  0.00     0.261 C 
BRANCH   2   3
ATOM      3  O   UNL A   1      32.589  21.319  25.781  1.00  0.00    -0.462 OA
BRANCH   3   4
ATOM      4  C   UNL A   1      32.335  20.440  24.781  1.00  0.00     0.328 C 
ATOM      5  O   UNL A   1      32.200  19.234  24.952  1.00  0.00    -0.250 OA
BRANCH   4   6
ATOM      6  C   UNL A   1      32.311  21.118  23.387  1.00  0.00     0.189 C 
ATOM      7  C   UNL A   1      32.016  20.061  22.334  1.00  0.00     0.043 C 
BRANCH   6   8
ATOM      8  N   UNL A   1      33.524  21.829  22.934  1.00  0.00    -0.341 N 
ATOM      9  C   UNL A   1      33.787  23.169  22.821  1.00  0.00     0.243 C 
ATOM     10  O   UNL A   1      34.866  23.485  22.308  1.00  0.00    -0.273 OA
ATOM     11  H   UNL A   1      34.269  21.241  22.670  1.00  0.00     0.164 HD
BRANCH   9  12
ATOM     12  C   UNL A   1      32.901  24.248  23.495  1.00  0.00     0.171 C 
BRANCH  12  13
ATOM     13  C   UNL A   1      33.523  25.609  23.284  1.00  0.00     0.038 C 
BRANCH  13  14
ATOM     14  C   UNL A   1      32.888  26.629  22.349  1.00  0.00    -0.015 C 
ATOM     15  C   UNL A   1      33.704  27.881  22.035  1.00  0.00     0.007 C 
ATOM     16  C   UNL A   1      32.401  25.905  21.085  1.00  0.00     0.007 C 
ENDBRANCH  13  14
ENDBRANCH  12  13
BRANCH  12  17
ATOM     17  N   UNL A   1      32.691  23.966  24.926  1.00  0.00    -0.343 N 
ATOM     18  C   UNL A   1      32.575  24.715  26.055  1.00  0.00     0.240 C 
ATOM     19  H   UNL A   1      32.617  23.001  25.108  1.00  0.00     0.164 HD
ATOM     20  O   UNL A   1      32.303  24.071  27.078  1.00  0.00    -0.273 OA
BRANCH  18  21
ATOM     21  C   UNL A   1      32.646  26.265  26.144  1.00  0.00     0.216 C 
BRANCH  21  22
ATOM     22  N   UNL A   1      31.860  27.011  27.119  1.00  0.00    -0.345 N 
ATOM     23  C   UNL A   1      31.770  28.329  27.460  1.00  0.00     0.243 C 
ATOM     24  H   UNL A   1      31.261  26.437  27.649  1.00  0.00     0.164 HD
ATOM     25  O   UNL A   1      30.832  28.593  28.227  1.00  0.00    -0.273 OA
BRANCH  23  26
ATOM     26  C   UNL A   1      32.706  29.506  26.976  1.00  0.00     0.177 C 
BRANCH  26  27
ATOM     27  N   UNL A   1      34.144  29.246  26.929  1.00  0.00    -0.309 N 
ATOM     28  C   UNL A   1      35.182  29.753  27.622  1.00  0.00     0.408 C 
ATOM     29  H   UNL A   1      34.403  28.572  26.261  1.00  0.00     0.167 HD
ATOM     30  O   UNL A   1      36.322  29.641  27.173  1.00  0.00    -0.225 OA
BRANCH  28  31
ATOM     31  O   UNL A   1      34.824  30.387  28.754  1.00  0.00    -0.445 OA
BRANCH  31  32
ATOM     32  C   UNL A   1      35.596  31.548  29.083  1.00  0.00     0.270 C 
BRANCH  32  33
ATOM     33  C   UNL A   1      34.731  32.768  29.276  1.00  0.00    -0.011 A 
ATOM     34  C   UNL A   1      34.798  33.519  30.457  1.00  0.00     0.007 A 
ATOM     35  C   UNL A   1      33.897  33.208  28.237  1.00  0.00     0.007 A 
ATOM     36  C   UNL A   1      34.031  34.677  30.597  1.00  0.00     0.000 A 
ATOM     37  C   UNL A   1      33.141  34.370  28.374  1.00  0.00     0.000 A 
ATOM     38  C   UNL A   1      33.204  35.101  29.558  1.00  0.00     0.000 A 
ENDBRANCH  32  33
ENDBRANCH  31  32
ENDBRANCH  28  31
ENDBRANCH  26  27
BRANCH  26  39
ATOM     39  C   UNL A   1      32.156  30.327  25.792  1.00  0.00     0.015 C 
ATOM     40  C   UNL A   1      31.278  29.463  24.876  1.00  0.00     0.010 C 
ATOM     41  C   UNL A   1      31.288  31.506  26.271  1.00  0.00     0.010 C 
ENDBRANCH  26  39
ENDBRANCH  23  26
ENDBRANCH  21  22
ENDBRANCH  18  21
ENDBRANCH  12  17
ENDBRANCH   9  12
ENDBRANCH   6   8
ENDBRANCH   4   6
ENDBRANCH   3   4
ENDBRANCH   2   3
ENDBRANCH   1   2
BRANCH   1  42
ATOM     42  O   UNL A   1      35.260  22.191  25.495  1.00  0.00    -0.376 OA
BRANCH  42  43
ATOM     43  C   UNL A   1      36.467  21.852  24.829  1.00  0.00     0.188 C 
BRANCH  43  44
ATOM     44  C   UNL A   1      37.780  22.329  25.457  1.00  0.00     0.188 C 
BRANCH  44  45
ATOM     45  O   UNL A   1      38.554  21.299  26.059  1.00  0.00    -0.377 OA
BRANCH  45  46
ATOM     46  C   UNL A   1      39.841  21.727  26.486  1.00  0.00     0.188 C 
BRANCH  46  47
ATOM     47  C   UNL A   1      40.866  20.645  26.911  1.00  0.00     0.188 C 
BRANCH  47  48
ATOM     48  O   UNL A   1      42.208  20.843  26.477  1.00  0.00    -0.376 OA
BRANCH  48  49
ATOM     49  C   UNL A   1      42.488  22.088  25.831  1.00  0.00     0.202 C 
BRANCH  49  50
ATOM     50  C   UNL A   1      43.639  22.056  24.809  1.00  0.00     0.261 C 
BRANCH  50  51
ATOM     51  O   UNL A   1      44.548  23.153  24.905  1.00  0.00    -0.460 OA
BRANCH  51  52
ATOM     52  C   UNL A   1      45.462  23.074  25.891  1.00  0.00     0.338 C 
ATOM     53  O   UNL A   1      45.896  22.068  26.421  1.00  0.00    -0.246 OA
BRANCH  52  54
ATOM     54  C   UNL A   1      46.051  24.416  26.032  1.00  0.00     0.060 A 
ATOM     55  C   UNL A   1      45.961  25.285  24.935  1.00  0.00     0.016 A 
ATOM     56  C   UNL A   1      46.607  24.837  27.243  1.00  0.00     0.016 A 
ATOM     57  C   UNL A   1      46.409  26.593  25.053  1.00  0.00     0.010 A 
ATOM     58  C   UNL A   1      47.115  26.129  27.343  1.00  0.00     0.010 A 
ATOM     59  C   UNL A   1      47.039  26.992  26.236  1.00  0.00    -0.014 A 
BRANCH  59  60
ATOM     60  C   UNL A   1      47.900  28.185  26.177  1.00  0.00     0.031 A 
ATOM     61  C   UNL A   1      47.234  29.502  26.434  1.00  0.00     0.074 A 
ATOM     62  C   UNL A   1      49.218  28.088  25.960  1.00  0.00     0.049 A 
ATOM     63  N   UNL A   1      47.737  30.706  26.439  1.00  0.00    -0.248 NA
ATOM     64  C   UNL A   1      45.789  29.450  26.727  1.00  0.00     0.031 C 
ATOM     65  C   UNL A   1      49.952  26.844  25.749  1.00  0.00     0.029 A 
ATOM     66  N   UNL A   1      50.170  29.068  25.877  1.00  0.00    -0.354 N 
ATOM     67  C   UNL A   1      46.675  31.549  26.736  1.00  0.00     0.074 A 
ATOM     68  C   UNL A   1      45.492  30.731  26.859  1.00  0.00     0.031 C 
ATOM     69  C   UNL A   1      51.246  27.138  25.531  1.00  0.00     0.029 A 
ATOM     70  C   UNL A   1      51.415  28.591  25.560  1.00  0.00     0.049 A 
ATOM     71  H   UNL A   1      49.979  30.022  26.028  1.00  0.00     0.167 HD
ATOM     72  C   UNL A   1      46.693  32.891  26.898  1.00  0.00     0.037 A 
ATOM     73  C   UNL A   1      52.548  29.268  25.295  1.00  0.00     0.037 A 
ATOM     74  C   UNL A   1      47.877  33.687  26.735  1.00  0.00     0.049 A 
ATOM     75  C   UNL A   1      52.531  30.771  25.395  1.00  0.00     0.074 A 
ATOM     76  C   UNL A   1      48.026  35.053  26.864  1.00  0.00     0.029 A 
ATOM     77  N   UNL A   1      49.120  33.176  26.382  1.00  0.00    -0.354 N 
ATOM     78  N   UNL A   1      51.535  31.572  25.699  1.00  0.00    -0.248 NA
ATOM     79  C   UNL A   1      53.795  31.468  25.124  1.00  0.00     0.031 C 
ATOM     80  C   UNL A   1      49.343  35.377  26.522  1.00  0.00     0.029 A 
ATOM     81  C   UNL A   1      50.037  34.205  26.256  1.00  0.00     0.049 A 
ATOM     82  H   UNL A   1      49.320  32.221  26.241  1.00  0.00     0.167 HD
ATOM     83  C   UNL A   1      52.054  32.860  25.680  1.00  0.00     0.074 A 
ATOM     84  C   UNL A   1      53.460  32.731  25.347  1.00  0.00     0.031 C 
ATOM     85  C   UNL A   1      51.430  34.042  25.918  1.00  0.00     0.037 A 
BRANCH  72  86
ATOM     86  C   UNL A   1      45.382  33.556  27.209  1.00  0.00     0.064 A 
ATOM     87  C   UNL A   1      44.531  34.030  26.197  1.00  0.00     0.173 A 
ATOM     88  C   UNL A   1      44.993  33.764  28.540  1.00  0.00     0.173 A 
ATOM     89  F   UNL A   1      44.867  33.882  24.906  1.00  0.00    -0.203 F 
ATOM     90  C   UNL A   1      43.365  34.726  26.508  1.00  0.00     0.198 A 
ATOM     91  C   UNL A   1      43.807  34.425  28.846  1.00  0.00     0.198 A 
ATOM     92  F   UNL A   1      45.769  33.338  29.548  1.00  0.00    -0.203 F 
ATOM     93  F   UNL A   1      42.611  35.238  25.525  1.00  0.00    -0.200 F 
ATOM     94  C   UNL A   1      43.001  34.918  27.832  1.00  0.00     0.200 A 
ATOM     95  F   UNL A   1      43.452  34.600  30.127  1.00  0.00    -0.200 F 
ATOM     96  F   UNL A   1      41.883  35.592  28.130  1.00  0.00    -0.200 F 
ENDBRANCH  72  86
BRANCH  73  97
ATOM     97  C   UNL A   1      53.769  28.523  24.897  1.00  0.00     0.064 A 
ATOM     98  C   UNL A   1      54.677  28.044  25.850  1.00  0.00     0.173 A 
ATOM     99  C   UNL A   1      54.037  28.247  23.546  1.00  0.00     0.173 A 
ATOM    100  F   UNL A   1      54.477  28.297  27.152  1.00  0.00    -0.203 F 
ATOM    101  C   UNL A   1      55.808  27.323  25.469  1.00  0.00     0.198 A 
ATOM    102  C   UNL A   1      55.151  27.502  23.169  1.00  0.00     0.198 A 
ATOM    103  F   UNL A   1      53.199  28.683  22.593  1.00  0.00    -0.203 F 
ATOM    104  F   UNL A   1      56.675  26.901  26.399  1.00  0.00    -0.200 F 
ATOM    105  C   UNL A   1      56.038  27.044  24.130  1.00  0.00     0.200 A 
ATOM    106  F   UNL A   1      55.359  27.220  21.875  1.00  0.00    -0.200 F 
ATOM    107  F   UNL A   1      57.116  26.335  23.766  1.00  0.00    -0.200 F 
ENDBRANCH  73  97
BRANCH  85 108
ATOM    108  C   UNL A   1      52.270  35.286  25.858  1.00  0.00     0.064 A 
ATOM    109  C   UNL A   1      52.942  35.781  26.985  1.00  0.00     0.173 A 
ATOM    110  C   UNL A   1      52.445  35.960  24.638  1.00  0.00     0.173 A 
ATOM    111  F   UNL A   1      52.798  35.181  28.175  1.00  0.00    -0.203 F 
ATOM    112  C   UNL A   1      53.732  36.924  26.900  1.00  0.00     0.198 A 
ATOM    113  C   UNL A   1      53.268  37.079  24.551  1.00  0.00     0.198 A 
ATOM    114  F   UNL A   1      51.835  35.522  23.528  1.00  0.00    -0.203 F 
ATOM    115  F   UNL A   1      54.320  37.412  28.001  1.00  0.00    -0.200 F 
ATOM    116  C   UNL A   1      53.903  37.566  25.683  1.00  0.00     0.200 A 
ATOM    117  F   UNL A   1      53.447  37.685  23.368  1.00  0.00    -0.200 F 
ATOM    118  F   UNL A   1      54.674  38.659  25.601  1.00  0.00    -0.200 F 
ENDBRANCH  85 108
ENDBRANCH  59  60
ENDBRANCH  52  54
ENDBRANCH  51  52
ENDBRANCH  50  51
ENDBRANCH  49  50
ENDBRANCH  48  49
ENDBRANCH  47  48
ENDBRANCH  46  47
ENDBRANCH  45  46
ENDBRANCH  44  45
ENDBRANCH  43  44
ENDBRANCH  42  43
ENDBRANCH   1  42
TORSDOF 33
ENDMDL
MODEL 3
REMARK VINA RESULT:      -8.1      4.466      8.904
REMARK SMILES CC(C)C[C@H](NC(=O)CNC(=O)[C@@H](NC(=O)OCc1ccccc1)C(C)C)C(=O)N[C@@H](C)C(=O)OCCOCCOCCOCCOC(=O)c1ccc(-c2c3nc(c(-c4c(F)c(F)c(F)c(F)c4F)c4ccc([nH]4)c(-c4c(F)c(F)c(F)c(F)c4F)c4nc(c(-c5c(F)c(F)c(F)c(F)c5F)c5ccc2[nH]5)C=C4)C=C3)cc1
REMARK SMILES IDX 37 1 36 2 35 3 33 4 34 5 31 6 32 7 30 8 28 9 29 10 5 12 4 13
REMARK SMILES IDX 2 14 1 15 3 16 6 17 7 18 8 20 9 21 10 22 11 23 12 25 13 26
REMARK SMILES IDX 14 27 15 28 16 30 17 31 18 32 19 33 20 34 24 35 21 36 23 37
REMARK SMILES IDX 22 38 25 39 26 40 27 41 38 42 39 43 40 44 41 45 42 46 43 47
REMARK SMILES IDX 44 48 45 49 46 50 47 51 48 52 49 53 50 54 51 55 112 56 52 57
REMARK SMILES IDX 111 58 53 59 54 60 55 61 105 62 56 63 110 64 104 65 106 66
REMARK SMILES IDX 57 67 109 68 103 69 102 70 58 72 90 73 70 74 89 75 71 76
REMARK SMILES IDX 74 77 88 78 107 79 72 80 73 81 87 83 108 84 75 85 59 86
REMARK SMILES IDX 60 87 68 88 61 89 62 90 66 91 69 92 63 93 64 94 67 95 65 96
REMARK SMILES IDX 91 97 92 98 100 99 93 100 94 101 98 102 101 103 95 104
REMARK SMILES IDX 96 105 99 106 97 107 76 108 77 109 85 110 78 111 79 112
REMARK SMILES IDX 83 113 86 114 80 115 81 116 84 117 82 118
REMARK H PARENT 30 11 6 19 10 24 14 29 106 71 74 82
REMARK Flexibility Score: inf
ROOT
ATOM      1  C   UNL A   1      34.008  27.581  24.592  1.00  0.00     0.202 C 
ENDROOT
BRANCH   1   2
ATOM      2  C   UNL A   1      33.601  26.178  25.095  1.00  0.00     0.261 C 
BRANCH   2   3
ATOM      3  O   UNL A   1      32.170  25.946  25.149  1.00  0.00    -0.462 OA
BRANCH   3   4
ATOM      4  C   UNL A   1      31.573  25.439  24.043  1.00  0.00     0.328 C 
ATOM      5  O   UNL A   1      30.424  25.700  23.708  1.00  0.00    -0.250 OA
BRANCH   4   6
ATOM      6  C   UNL A   1      32.479  24.429  23.292  1.00  0.00     0.189 C 
ATOM      7  C   UNL A   1      32.563  24.841  21.830  1.00  0.00     0.043 C 
BRANCH   6   8
ATOM      8  N   UNL A   1      32.094  23.004  23.300  1.00  0.00    -0.341 N 
ATOM      9  C   UNL A   1      32.816  21.882  23.617  1.00  0.00     0.243 C 
ATOM     10  O   UNL A   1      32.264  20.792  23.434  1.00  0.00    -0.273 OA
ATOM     11  H   UNL A   1      31.162  22.829  23.034  1.00  0.00     0.164 HD
BRANCH   9  12
ATOM     12  C   UNL A   1      34.165  21.953  24.379  1.00  0.00     0.171 C 
BRANCH  12  13
ATOM     13  C   UNL A   1      33.982  22.758  25.645  1.00  0.00     0.038 C 
BRANCH  13  14
ATOM     14  C   UNL A   1      33.197  22.201  26.824  1.00  0.00    -0.015 C 
ATOM     15  C   UNL A   1      33.897  22.202  28.182  1.00  0.00     0.007 C 
ATOM     16  C   UNL A   1      31.820  22.878  26.866  1.00  0.00     0.007 C 
ENDBRANCH  13  14
ENDBRANCH  12  13
BRANCH  12  17
ATOM     17  N   UNL A   1      35.239  22.508  23.535  1.00  0.00    -0.343 N 
ATOM     18  C   UNL A   1      36.582  22.675  23.662  1.00  0.00     0.240 C 
ATOM     19  H   UNL A   1      34.901  22.838  22.671  1.00  0.00     0.164 HD
ATOM     20  O   UNL A   1      37.148  23.112  22.650  1.00  0.00    -0.273 OA
BRANCH  18  21
ATOM     21  C   UNL A   1      37.449  22.276  24.889  1.00  0.00     0.216 C 
BRANCH  21  22
ATOM     22  N   UNL A   1      38.198  23.269  25.651  1.00  0.00    -0.345 N 
ATOM     23  C   UNL A   1      39.446  23.304  26.199  1.00  0.00     0.243 C 
ATOM     24  H   UNL A   1      37.689  24.098  25.804  1.00  0.00     0.164 HD
ATOM     25  O   UNL A   1      39.787  24.420  26.619  1.00  0.00    -0.273 OA
BRANCH  23  26
ATOM     26  C   UNL A   1      40.465  22.105  26.330  1.00  0.00     0.177 C 
BRANCH  26  27
ATOM     27  N   UNL A   1      41.638  22.120  25.457  1.00  0.00    -0.309 N 
ATOM     28  C   UNL A   1      42.531  23.082  25.151  1.00  0.00     0.408 C 
ATOM     29  H   UNL A   1      41.808  21.262  25.006  1.00  0.00     0.167 HD
ATOM     30  O   UNL A   1      43.219  22.969  24.138  1.00  0.00    -0.225 OA
BRANCH  28  31
ATOM     31  O   UNL A   1      42.531  24.118  26.010  1.00  0.00    -0.445 OA
BRANCH  31  32
ATOM     32  C   UNL A   1      42.896  25.385  25.450  1.00  0.00     0.270 C 
BRANCH  32  33
ATOM     33  C   UNL A   1      42.352  26.539  26.255  1.00  0.00    -0.011 A 
ATOM     34  C   UNL A   1      41.803  27.662  25.624  1.00  0.00     0.007 A 
ATOM     35  C   UNL A   1      42.328  26.466  27.656  1.00  0.00     0.007 A 
ATOM     36  C   UNL A   1      41.254  28.697  26.384  1.00  0.00     0.000 A 
ATOM     37  C   UNL A   1      41.769  27.494  28.412  1.00  0.00     0.000 A 
ATOM     38  C   UNL A   1      41.238  28.613  27.776  1.00  0.00     0.000 A 
ENDBRANCH  32  33
ENDBRANCH  31  32
ENDBRANCH  28  31
ENDBRANCH  26  27
BRANCH  26  39
ATOM     39  C   UNL A   1      40.737  21.638  27.774  1.00  0.00     0.015 C 
ATOM     40  C   UNL A   1      41.212  20.179  27.807  1.00  0.00     0.010 C 
ATOM     41  C   UNL A   1      41.832  22.485  28.449  1.00  0.00     0.010 C 
ENDBRANCH  26  39
ENDBRANCH  23  26
ENDBRANCH  21  22
ENDBRANCH  18  21
ENDBRANCH  12  17
ENDBRANCH   9  12
ENDBRANCH   6   8
ENDBRANCH   4   6
ENDBRANCH   3   4
ENDBRANCH   2   3
ENDBRANCH   1   2
BRANCH   1  42
ATOM     42  O   UNL A   1      34.010  27.813  23.180  1.00  0.00    -0.376 OA
BRANCH  42  43
ATOM     43  C   UNL A   1      32.802  28.295  22.609  1.00  0.00     0.188 C 
BRANCH  43  44
ATOM     44  C   UNL A   1      32.101  29.459  23.314  1.00  0.00     0.188 C 
BRANCH  44  45
ATOM     45  O   UNL A   1      31.270  29.075  24.403  1.00  0.00    -0.377 OA
BRANCH  45  46
ATOM     46  C   UNL A   1      31.361  29.945  25.525  1.00  0.00     0.188 C 
BRANCH  46  47
ATOM     47  C   UNL A   1      31.841  29.348  26.873  1.00  0.00     0.188 C 
BRANCH  47  48
ATOM     48  O   UNL A   1      33.053  29.878  27.400  1.00  0.00    -0.376 OA
BRANCH  48  49
ATOM     49  C   UNL A   1      33.427  31.181  26.944  1.00  0.00     0.202 C 
BRANCH  49  50
ATOM     50  C   UNL A   1      33.832  32.175  28.048  1.00  0.00     0.261 C 
BRANCH  50  51
ATOM     51  O   UNL A   1      34.722  31.640  29.029  1.00  0.00    -0.460 OA
BRANCH  51  52
ATOM     52  C   UNL A   1      35.252  32.532  29.889  1.00  0.00     0.338 C 
ATOM     53  O   UNL A   1      34.661  33.370  30.544  1.00  0.00    -0.246 OA
BRANCH  52  54
ATOM     54  C   UNL A   1      36.652  32.132  30.105  1.00  0.00     0.060 A 
ATOM     55  C   UNL A   1      37.227  32.420  31.351  1.00  0.00     0.016 A 
ATOM     56  C   UNL A   1      37.358  31.419  29.132  1.00  0.00     0.016 A 
ATOM     57  C   UNL A   1      38.508  31.973  31.639  1.00  0.00     0.010 A 
ATOM     58  C   UNL A   1      38.666  31.025  29.396  1.00  0.00     0.010 A 
ATOM     59  C   UNL A   1      39.245  31.330  30.639  1.00  0.00    -0.014 A 
BRANCH  59  60
ATOM     60  C   UNL A   1      40.708  31.288  30.796  1.00  0.00     0.031 A 
ATOM     61  C   UNL A   1      41.450  32.550  30.476  1.00  0.00     0.074 A 
ATOM     62  C   UNL A   1      41.334  30.196  31.253  1.00  0.00     0.049 A 
ATOM     63  N   UNL A   1      42.730  32.800  30.516  1.00  0.00    -0.248 NA
ATOM     64  C   UNL A   1      40.625  33.695  30.049  1.00  0.00     0.031 C 
ATOM     65  C   UNL A   1      40.684  28.944  31.632  1.00  0.00     0.029 A 
ATOM     66  N   UNL A   1      42.667  29.970  31.469  1.00  0.00    -0.354 N 
ATOM     67  C   UNL A   1      42.860  34.124  30.121  1.00  0.00     0.074 A 
ATOM     68  C   UNL A   1      41.541  34.615  29.803  1.00  0.00     0.031 C 
ATOM     69  C   UNL A   1      41.629  28.065  32.011  1.00  0.00     0.029 A 
ATOM     70  C   UNL A   1      42.943  28.689  31.870  1.00  0.00     0.049 A 
ATOM     71  H   UNL A   1      43.359  30.660  31.346  1.00  0.00     0.167 HD
ATOM     72  C   UNL A   1      43.988  34.866  30.042  1.00  0.00     0.037 A 
ATOM     73  C   UNL A   1      44.135  28.094  32.066  1.00  0.00     0.037 A 
ATOM     74  C   UNL A   1      45.294  34.344  30.330  1.00  0.00     0.049 A 
ATOM     75  C   UNL A   1      45.389  28.910  31.889  1.00  0.00     0.074 A 
ATOM     76  C   UNL A   1      46.514  34.988  30.280  1.00  0.00     0.029 A 
ATOM     77  N   UNL A   1      45.545  33.029  30.705  1.00  0.00    -0.354 N 
ATOM     78  N   UNL A   1      45.516  30.170  31.540  1.00  0.00    -0.248 NA
ATOM     79  C   UNL A   1      46.664  28.229  32.139  1.00  0.00     0.031 C 
ATOM     80  C   UNL A   1      47.510  34.047  30.558  1.00  0.00     0.029 A 
ATOM     81  C   UNL A   1      46.907  32.833  30.858  1.00  0.00     0.049 A 
ATOM     82  H   UNL A   1      44.857  32.338  30.841  1.00  0.00     0.167 HD
ATOM     83  C   UNL A   1      46.878  30.440  31.552  1.00  0.00     0.074 A 
ATOM     84  C   UNL A   1      47.535  29.212  31.957  1.00  0.00     0.031 C 
ATOM     85  C   UNL A   1      47.529  31.595  31.258  1.00  0.00     0.037 A 
BRANCH  72  86
ATOM     86  C   UNL A   1      43.837  36.284  29.572  1.00  0.00     0.064 A 
ATOM     87  C   UNL A   1      43.822  37.367  30.468  1.00  0.00     0.173 A 
ATOM     88  C   UNL A   1      43.659  36.563  28.209  1.00  0.00     0.173 A 
ATOM     89  F   UNL A   1      43.960  37.156  31.786  1.00  0.00    -0.203 F 
ATOM     90  C   UNL A   1      43.588  38.665  30.020  1.00  0.00     0.198 A 
ATOM     91  C   UNL A   1      43.466  37.866  27.762  1.00  0.00     0.198 A 
ATOM     92  F   UNL A   1      43.659  35.568  27.309  1.00  0.00    -0.203 F 
ATOM     93  F   UNL A   1      43.498  39.670  30.903  1.00  0.00    -0.200 F 
ATOM     94  C   UNL A   1      43.416  38.915  28.668  1.00  0.00     0.200 A 
ATOM     95  F   UNL A   1      43.311  38.106  26.452  1.00  0.00    -0.200 F 
ATOM     96  F   UNL A   1      43.186  40.163  28.239  1.00  0.00    -0.200 F 
ENDBRANCH  72  86
BRANCH  73  97
ATOM     97  C   UNL A   1      44.182  26.655  32.432  1.00  0.00     0.064 A 
ATOM     98  C   UNL A   1      44.342  25.658  31.461  1.00  0.00     0.173 A 
ATOM     99  C   UNL A   1      44.100  26.249  33.774  1.00  0.00     0.173 A 
ATOM    100  F   UNL A   1      44.407  25.992  30.163  1.00  0.00    -0.203 F 
ATOM    101  C   UNL A   1      44.412  24.312  31.816  1.00  0.00     0.198 A 
ATOM    102  C   UNL A   1      44.199  24.908  34.130  1.00  0.00     0.198 A 
ATOM    103  F   UNL A   1      43.947  27.165  34.743  1.00  0.00    -0.203 F 
ATOM    104  F   UNL A   1      44.535  23.377  30.865  1.00  0.00    -0.200 F 
ATOM    105  C   UNL A   1      44.351  23.939  33.151  1.00  0.00     0.200 A 
ATOM    106  F   UNL A   1      44.156  24.554  35.422  1.00  0.00    -0.200 F 
ATOM    107  F   UNL A   1      44.436  22.646  33.492  1.00  0.00    -0.200 F 
ENDBRANCH  73  97
BRANCH  85 108
ATOM    108  C   UNL A   1      49.026  31.593  31.396  1.00  0.00     0.064 A 
ATOM    109  C   UNL A   1      49.658  31.892  32.611  1.00  0.00     0.173 A 
ATOM    110  C   UNL A   1      49.833  31.234  30.304  1.00  0.00     0.173 A 
ATOM    111  F   UNL A   1      48.933  32.252  33.680  1.00  0.00    -0.203 F 
ATOM    112  C   UNL A   1      51.046  31.863  32.720  1.00  0.00     0.198 A 
ATOM    113  C   UNL A   1      51.218  31.169  30.429  1.00  0.00     0.198 A 
ATOM    114  F   UNL A   1      49.279  30.927  29.123  1.00  0.00    -0.203 F 
ATOM    115  F   UNL A   1      51.632  32.206  33.875  1.00  0.00    -0.200 F 
ATOM    116  C   UNL A   1      51.824  31.492  31.633  1.00  0.00     0.200 A 
ATOM    117  F   UNL A   1      51.965  30.790  29.383  1.00  0.00    -0.200 F 
ATOM    118  F   UNL A   1      53.158  31.454  31.743  1.00  0.00    -0.200 F 
ENDBRANCH  85 108
ENDBRANCH  59  60
ENDBRANCH  52  54
ENDBRANCH  51  52
ENDBRANCH  50  51
ENDBRANCH  49  50
ENDBRANCH  48  49
ENDBRANCH  47  48
ENDBRANCH  46  47
ENDBRANCH  45  46
ENDBRANCH  44  45
ENDBRANCH  43  44
ENDBRANCH  42  43
ENDBRANCH   1  42
TORSDOF 33
ENDMDL
