MODEL 1
REMARK VINA RESULT:     -10.6      0.000      0.000
REMARK SMILES O=C(OCCOCCOCCOCCOC(=O)c1cc2ncc(Cl)cn2n1)c1ccc(-c2c3nc(c(-c4c(F)c(F)c(F)c(F)c4F)c4ccc([nH]4)c(-c4c(F)c(F)c(F)c(F)c4F)c4nc(c(-c5c(F)c(F)c(F)c(F)c5F)c5ccc2[nH]5)C=C4)C=C3)cc1
REMARK SMILES IDX 8 1 7 2 6 3 5 4 4 5 3 6 2 7 1 8 28 9 29 10 90 11 30 12 89 13
REMARK SMILES IDX 31 14 32 15 33 16 83 17 34 18 88 19 82 20 84 21 35 22 87 23
REMARK SMILES IDX 81 24 80 25 36 27 68 28 48 29 67 30 49 31 52 32 66 33 85 34
REMARK SMILES IDX 50 35 51 36 65 38 86 39 53 40 37 41 38 42 46 43 39 44 40 45
REMARK SMILES IDX 44 46 47 47 41 48 42 49 45 50 43 51 69 52 70 53 78 54 71 55
REMARK SMILES IDX 72 56 76 57 79 58 73 59 74 60 77 61 75 62 54 63 55 64 63 65
REMARK SMILES IDX 56 66 57 67 61 68 64 69 58 70 59 71 62 72 60 73 9 74 10 75
REMARK SMILES IDX 11 76 12 77 13 78 14 79 15 80 16 81 17 82 18 83 19 84 27 85
REMARK SMILES IDX 20 86 26 87 21 88 25 89 22 90 23 91 24 92
REMARK H PARENT 84 26 52 37
REMARK Flexibility Score: inf
ROOT
ATOM      1  C   UNL A   1      40.412  21.396  26.998  1.00  0.00     0.188 C 
ENDROOT
BRANCH   1   2
ATOM      2  C   UNL A   1      40.552  19.957  26.477  1.00  0.00     0.188 C 
BRANCH   2   3
ATOM      3  O   UNL A   1      41.647  19.444  25.729  1.00  0.00    -0.376 OA
BRANCH   3   4
ATOM      4  C   UNL A   1      42.672  18.577  26.164  1.00  0.00     0.202 C 
BRANCH   4   5
ATOM      5  C   UNL A   1      44.028  18.465  25.463  1.00  0.00     0.261 C 
BRANCH   5   6
ATOM      6  O   UNL A   1      44.804  19.656  25.415  1.00  0.00    -0.460 OA
BRANCH   6   7
ATOM      7  C   UNL A   1      44.678  20.722  24.601  1.00  0.00     0.338 C 
ATOM      8  O   UNL A   1      44.550  20.515  23.396  1.00  0.00    -0.246 OA
BRANCH   7   9
ATOM      9  C   UNL A   1      44.763  22.141  25.056  1.00  0.00     0.060 A 
ATOM     10  C   UNL A   1      45.711  22.679  25.930  1.00  0.00     0.016 A 
ATOM     11  C   UNL A   1      43.772  22.996  24.537  1.00  0.00     0.016 A 
ATOM     12  C   UNL A   1      45.580  23.968  26.408  1.00  0.00     0.010 A 
ATOM     13  C   UNL A   1      43.650  24.301  24.986  1.00  0.00     0.010 A 
ATOM     14  C   UNL A   1      44.504  24.739  25.991  1.00  0.00    -0.014 A 
BRANCH  14  15
ATOM     15  C   UNL A   1      44.251  25.945  26.756  1.00  0.00     0.031 A 
ATOM     16  C   UNL A   1      45.209  27.067  26.592  1.00  0.00     0.074 A 
ATOM     17  C   UNL A   1      43.194  25.994  27.588  1.00  0.00     0.049 A 
ATOM     18  N   UNL A   1      45.912  27.667  27.501  1.00  0.00    -0.248 NA
ATOM     19  C   UNL A   1      45.458  27.544  25.224  1.00  0.00     0.031 C 
ATOM     20  C   UNL A   1      42.065  25.062  27.677  1.00  0.00     0.029 A 
ATOM     21  N   UNL A   1      42.862  26.968  28.473  1.00  0.00    -0.354 N 
ATOM     22  C   UNL A   1      46.579  28.700  26.847  1.00  0.00     0.074 A 
ATOM     23  C   UNL A   1      46.337  28.523  25.436  1.00  0.00     0.031 C 
ATOM     24  C   UNL A   1      41.071  25.641  28.381  1.00  0.00     0.029 A 
ATOM     25  C   UNL A   1      41.547  26.910  28.898  1.00  0.00     0.049 A 
ATOM     26  H   UNL A   1      43.498  27.653  28.784  1.00  0.00     0.167 HD
ATOM     27  C   UNL A   1      47.140  29.745  27.514  1.00  0.00     0.037 A 
ATOM     28  C   UNL A   1      40.876  27.895  29.537  1.00  0.00     0.037 A 
ATOM     29  C   UNL A   1      47.416  29.437  28.887  1.00  0.00     0.049 A 
ATOM     30  C   UNL A   1      41.880  28.804  30.143  1.00  0.00     0.074 A 
ATOM     31  C   UNL A   1      48.237  28.526  29.525  1.00  0.00     0.029 A 
ATOM     32  N   UNL A   1      46.571  29.909  29.858  1.00  0.00    -0.354 N 
ATOM     33  N   UNL A   1      42.659  28.477  31.138  1.00  0.00    -0.248 NA
ATOM     34  C   UNL A   1      42.315  29.953  29.361  1.00  0.00     0.031 C 
ATOM     35  C   UNL A   1      47.524  28.141  30.697  1.00  0.00     0.029 A 
ATOM     36  C   UNL A   1      46.329  28.862  30.711  1.00  0.00     0.049 A 
ATOM     37  H   UNL A   1      46.208  30.821  29.929  1.00  0.00     0.167 HD
ATOM     38  C   UNL A   1      43.865  29.109  30.868  1.00  0.00     0.074 A 
ATOM     39  C   UNL A   1      43.562  30.077  29.818  1.00  0.00     0.031 C 
ATOM     40  C   UNL A   1      45.048  28.601  31.319  1.00  0.00     0.037 A 
BRANCH  27  41
ATOM     41  C   UNL A   1      47.170  31.145  26.969  1.00  0.00     0.064 A 
ATOM     42  C   UNL A   1      48.383  31.854  26.887  1.00  0.00     0.173 A 
ATOM     43  C   UNL A   1      45.997  31.907  26.779  1.00  0.00     0.173 A 
ATOM     44  F   UNL A   1      49.552  31.233  27.102  1.00  0.00    -0.203 F 
ATOM     45  C   UNL A   1      48.412  33.233  26.660  1.00  0.00     0.198 A 
ATOM     46  C   UNL A   1      46.032  33.271  26.501  1.00  0.00     0.198 A 
ATOM     47  F   UNL A   1      44.779  31.379  26.963  1.00  0.00    -0.203 F 
ATOM     48  F   UNL A   1      49.580  33.888  26.689  1.00  0.00    -0.200 F 
ATOM     49  C   UNL A   1      47.238  33.939  26.464  1.00  0.00     0.200 A 
ATOM     50  F   UNL A   1      44.882  33.942  26.342  1.00  0.00    -0.200 F 
ATOM     51  F   UNL A   1      47.262  35.267  26.292  1.00  0.00    -0.200 F 
ENDBRANCH  27  41
BRANCH  28  52
ATOM     52  C   UNL A   1      39.463  28.280  29.319  1.00  0.00     0.064 A 
ATOM     53  C   UNL A   1      38.566  28.349  30.395  1.00  0.00     0.173 A 
ATOM     54  C   UNL A   1      39.028  28.845  28.102  1.00  0.00     0.173 A 
ATOM     55  F   UNL A   1      38.921  27.878  31.598  1.00  0.00    -0.203 F 
ATOM     56  C   UNL A   1      37.317  28.965  30.266  1.00  0.00     0.198 A 
ATOM     57  C   UNL A   1      37.778  29.445  27.970  1.00  0.00     0.198 A 
ATOM     58  F   UNL A   1      39.842  28.912  27.038  1.00  0.00    -0.203 F 
ATOM     59  F   UNL A   1      36.513  29.070  31.332  1.00  0.00    -0.200 F 
ATOM     60  C   UNL A   1      36.929  29.520  29.057  1.00  0.00     0.200 A 
ATOM     61  F   UNL A   1      37.429  30.007  26.804  1.00  0.00    -0.200 F 
ATOM     62  F   UNL A   1      35.757  30.161  28.950  1.00  0.00    -0.200 F 
ENDBRANCH  28  52
BRANCH  40  63
ATOM     63  C   UNL A   1      44.992  27.483  32.321  1.00  0.00     0.064 A 
ATOM     64  C   UNL A   1      44.935  27.694  33.710  1.00  0.00     0.173 A 
ATOM     65  C   UNL A   1      44.825  26.171  31.860  1.00  0.00     0.173 A 
ATOM     66  F   UNL A   1      44.975  28.930  34.220  1.00  0.00    -0.203 F 
ATOM     67  C   UNL A   1      44.764  26.632  34.596  1.00  0.00     0.198 A 
ATOM     68  C   UNL A   1      44.619  25.116  32.745  1.00  0.00     0.198 A 
ATOM     69  F   UNL A   1      44.806  25.920  30.542  1.00  0.00    -0.203 F 
ATOM     70  F   UNL A   1      44.716  26.859  35.917  1.00  0.00    -0.200 F 
ATOM     71  C   UNL A   1      44.599  25.345  34.112  1.00  0.00     0.200 A 
ATOM     72  F   UNL A   1      44.405  23.880  32.271  1.00  0.00    -0.200 F 
ATOM     73  F   UNL A   1      44.385  24.330  34.961  1.00  0.00    -0.200 F 
ENDBRANCH  40  63
ENDBRANCH  14  15
ENDBRANCH   7   9
ENDBRANCH   6   7
ENDBRANCH   5   6
ENDBRANCH   4   5
ENDBRANCH   3   4
ENDBRANCH   2   3
ENDBRANCH   1   2
BRANCH   1  74
ATOM     74  O   UNL A   1      39.792  22.321  26.123  1.00  0.00    -0.377 OA
BRANCH  74  75
ATOM     75  C   UNL A   1      38.395  22.176  26.015  1.00  0.00     0.188 C 
BRANCH  75  76
ATOM     76  C   UNL A   1      37.666  23.449  25.543  1.00  0.00     0.188 C 
BRANCH  76  77
ATOM     77  O   UNL A   1      36.387  23.814  26.040  1.00  0.00    -0.376 OA
BRANCH  77  78
ATOM     78  C   UNL A   1      35.270  22.952  25.906  1.00  0.00     0.202 C 
BRANCH  78  79
ATOM     79  C   UNL A   1      33.846  23.529  25.837  1.00  0.00     0.261 C 
BRANCH  79  80
ATOM     80  O   UNL A   1      32.779  22.634  26.161  1.00  0.00    -0.458 OA
BRANCH  80  81
ATOM     81  C   UNL A   1      32.104  22.101  25.091  1.00  0.00     0.359 C 
ATOM     82  O   UNL A   1      31.445  22.750  24.298  1.00  0.00    -0.244 OA
BRANCH  81  83
ATOM     83  C   UNL A   1      32.417  20.681  24.885  1.00  0.00     0.173 A 
ATOM     84  C   UNL A   1      32.682  20.084  23.625  1.00  0.00     0.087 A 
ATOM     85  N   UNL A   1      32.499  19.775  25.877  1.00  0.00    -0.159 NA
ATOM     86  C   UNL A   1      32.929  18.761  23.878  1.00  0.00     0.155 A 
ATOM     87  N   UNL A   1      32.712  18.590  25.249  1.00  0.00    -0.220 N 
ATOM     88  N   UNL A   1      33.248  17.727  23.042  1.00  0.00    -0.235 NA
ATOM     89  C   UNL A   1      32.692  17.315  25.800  1.00  0.00     0.137 A 
ATOM     90  C   UNL A   1      33.227  16.545  23.589  1.00  0.00     0.135 A 
ATOM     91  C   UNL A   1      32.908  16.253  25.015  1.00  0.00     0.077 A 
ATOM     92  Cl  UNL A   1      32.837  14.633  25.538  1.00  0.00    -0.081 Cl
ENDBRANCH  81  83
ENDBRANCH  80  81
ENDBRANCH  79  80
ENDBRANCH  78  79
ENDBRANCH  77  78
ENDBRANCH  76  77
ENDBRANCH  75  76
ENDBRANCH  74  75
ENDBRANCH   1  74
TORSDOF 20
ENDMDL
MODEL 2
REMARK VINA RESULT:     -10.5      2.292      3.592
REMARK SMILES O=C(OCCOCCOCCOCCOC(=O)c1cc2ncc(Cl)cn2n1)c1ccc(-c2c3nc(c(-c4c(F)c(F)c(F)c(F)c4F)c4ccc([nH]4)c(-c4c(F)c(F)c(F)c(F)c4F)c4nc(c(-c5c(F)c(F)c(F)c(F)c5F)c5ccc2[nH]5)C=C4)C=C3)cc1
REMARK SMILES IDX 8 1 7 2 6 3 5 4 4 5 3 6 2 7 1 8 28 9 29 10 90 11 30 12 89 13
REMARK SMILES IDX 31 14 32 15 33 16 83 17 34 18 88 19 82 20 84 21 35 22 87 23
REMARK SMILES IDX 81 24 80 25 36 27 68 28 48 29 67 30 49 31 52 32 66 33 85 34
REMARK SMILES IDX 50 35 51 36 65 38 86 39 53 40 37 41 38 42 46 43 39 44 40 45
REMARK SMILES IDX 44 46 47 47 41 48 42 49 45 50 43 51 69 52 70 53 78 54 71 55
REMARK SMILES IDX 72 56 76 57 79 58 73 59 74 60 77 61 75 62 54 63 55 64 63 65
REMARK SMILES IDX 56 66 57 67 61 68 64 69 58 70 59 71 62 72 60 73 9 74 10 75
REMARK SMILES IDX 11 76 12 77 13 78 14 79 15 80 16 81 17 82 18 83 19 84 27 85
REMARK SMILES IDX 20 86 26 87 21 88 25 89 22 90 23 91 24 92
REMARK H PARENT 84 26 52 37
REMARK Flexibility Score: inf
ROOT
ATOM      1  C   UNL A   1      37.198  21.418  24.564  1.00  0.00     0.188 C 
ENDROOT
BRANCH   1   2
ATOM      2  C   UNL A   1      38.128  21.763  25.738  1.00  0.00     0.188 C 
BRANCH   2   3
ATOM      3  O   UNL A   1      39.544  21.635  25.745  1.00  0.00    -0.376 OA
BRANCH   3   4
ATOM      4  C   UNL A   1      40.340  20.768  26.526  1.00  0.00     0.202 C 
BRANCH   4   5
ATOM      5  C   UNL A   1      41.821  20.508  26.243  1.00  0.00     0.261 C 
BRANCH   5   6
ATOM      6  O   UNL A   1      42.683  21.635  26.352  1.00  0.00    -0.460 OA
BRANCH   6   7
ATOM      7  C   UNL A   1      42.577  22.847  25.773  1.00  0.00     0.338 C 
ATOM      8  O   UNL A   1      43.002  22.976  24.626  1.00  0.00    -0.246 OA
BRANCH   7   9
ATOM      9  C   UNL A   1      42.052  24.063  26.459  1.00  0.00     0.060 A 
ATOM     10  C   UNL A   1      41.330  25.104  25.871  1.00  0.00     0.016 A 
ATOM     11  C   UNL A   1      42.333  24.141  27.837  1.00  0.00     0.016 A 
ATOM     12  C   UNL A   1      41.049  26.257  26.578  1.00  0.00     0.010 A 
ATOM     13  C   UNL A   1      42.029  25.281  28.564  1.00  0.00     0.010 A 
ATOM     14  C   UNL A   1      41.472  26.364  27.896  1.00  0.00    -0.014 A 
BRANCH  14  15
ATOM     15  C   UNL A   1      41.427  27.694  28.471  1.00  0.00     0.031 A 
ATOM     16  C   UNL A   1      42.572  28.596  28.189  1.00  0.00     0.074 A 
ATOM     17  C   UNL A   1      40.384  28.048  29.244  1.00  0.00     0.049 A 
ATOM     18  N   UNL A   1      43.357  29.192  29.031  1.00  0.00    -0.248 NA
ATOM     19  C   UNL A   1      42.922  28.817  26.778  1.00  0.00     0.031 C 
ATOM     20  C   UNL A   1      39.106  27.350  29.419  1.00  0.00     0.029 A 
ATOM     21  N   UNL A   1      40.218  29.184  29.969  1.00  0.00    -0.354 N 
ATOM     22  C   UNL A   1      44.207  29.986  28.264  1.00  0.00     0.074 A 
ATOM     23  C   UNL A   1      43.958  29.649  26.885  1.00  0.00     0.031 C 
ATOM     24  C   UNL A   1      38.221  28.190  29.994  1.00  0.00     0.029 A 
ATOM     25  C   UNL A   1      38.907  29.419  30.344  1.00  0.00     0.049 A 
ATOM     26  H   UNL A   1      40.961  29.786  30.205  1.00  0.00     0.167 HD
ATOM     27  C   UNL A   1      44.935  31.003  28.799  1.00  0.00     0.037 A 
ATOM     28  C   UNL A   1      38.413  30.588  30.809  1.00  0.00     0.037 A 
ATOM     29  C   UNL A   1      45.132  30.856  30.212  1.00  0.00     0.049 A 
ATOM     30  C   UNL A   1      39.554  31.387  31.320  1.00  0.00     0.074 A 
ATOM     31  C   UNL A   1      45.768  29.921  31.005  1.00  0.00     0.029 A 
ATOM     32  N   UNL A   1      44.371  31.606  31.071  1.00  0.00    -0.354 N 
ATOM     33  N   UNL A   1      40.248  31.080  32.382  1.00  0.00    -0.248 NA
ATOM     34  C   UNL A   1      40.197  32.316  30.402  1.00  0.00     0.031 C 
ATOM     35  C   UNL A   1      44.980  29.841  32.190  1.00  0.00     0.029 A 
ATOM     36  C   UNL A   1      43.933  30.754  32.054  1.00  0.00     0.049 A 
ATOM     37  H   UNL A   1      44.174  32.567  30.998  1.00  0.00     0.167 HD
ATOM     38  C   UNL A   1      41.550  31.445  32.074  1.00  0.00     0.074 A 
ATOM     39  C   UNL A   1      41.440  32.287  30.887  1.00  0.00     0.031 C 
ATOM     40  C   UNL A   1      42.617  30.810  32.640  1.00  0.00     0.037 A 
BRANCH  27  41
ATOM     41  C   UNL A   1      45.222  32.282  28.064  1.00  0.00     0.064 A 
ATOM     42  C   UNL A   1      44.190  33.201  27.799  1.00  0.00     0.173 A 
ATOM     43  C   UNL A   1      46.433  32.501  27.373  1.00  0.00     0.173 A 
ATOM     44  F   UNL A   1      42.983  33.053  28.366  1.00  0.00    -0.203 F 
ATOM     45  C   UNL A   1      44.354  34.245  26.885  1.00  0.00     0.198 A 
ATOM     46  C   UNL A   1      46.611  33.573  26.503  1.00  0.00     0.198 A 
ATOM     47  F   UNL A   1      47.445  31.624  27.436  1.00  0.00    -0.203 F 
ATOM     48  F   UNL A   1      43.317  35.038  26.585  1.00  0.00    -0.200 F 
ATOM     49  C   UNL A   1      45.565  34.432  26.240  1.00  0.00     0.200 A 
ATOM     50  F   UNL A   1      47.783  33.720  25.868  1.00  0.00    -0.200 F 
ATOM     51  F   UNL A   1      45.710  35.405  25.331  1.00  0.00    -0.200 F 
ENDBRANCH  27  41
BRANCH  28  52
ATOM     52  C   UNL A   1      37.094  31.177  30.482  1.00  0.00     0.064 A 
ATOM     53  C   UNL A   1      36.199  31.536  31.499  1.00  0.00     0.173 A 
ATOM     54  C   UNL A   1      36.793  31.646  29.186  1.00  0.00     0.173 A 
ATOM     55  F   UNL A   1      36.439  31.171  32.767  1.00  0.00    -0.203 F 
ATOM     56  C   UNL A   1      35.080  32.334  31.240  1.00  0.00     0.198 A 
ATOM     57  C   UNL A   1      35.670  32.428  28.925  1.00  0.00     0.198 A 
ATOM     58  F   UNL A   1      37.630  31.435  28.160  1.00  0.00    -0.203 F 
ATOM     59  F   UNL A   1      34.282  32.712  32.248  1.00  0.00    -0.200 F 
ATOM     60  C   UNL A   1      34.823  32.786  29.955  1.00  0.00     0.200 A 
ATOM     61  F   UNL A   1      35.452  32.885  27.684  1.00  0.00    -0.200 F 
ATOM     62  F   UNL A   1      33.784  33.599  29.717  1.00  0.00    -0.200 F 
ENDBRANCH  28  52
BRANCH  40  63
ATOM     63  C   UNL A   1      42.349  29.878  33.788  1.00  0.00     0.064 A 
ATOM     64  C   UNL A   1      41.932  28.546  33.618  1.00  0.00     0.173 A 
ATOM     65  C   UNL A   1      42.681  30.291  35.084  1.00  0.00     0.173 A 
ATOM     66  F   UNL A   1      41.702  28.046  32.398  1.00  0.00    -0.203 F 
ATOM     67  C   UNL A   1      41.810  27.684  34.706  1.00  0.00     0.198 A 
ATOM     68  C   UNL A   1      42.594  29.417  36.164  1.00  0.00     0.198 A 
ATOM     69  F   UNL A   1      43.147  31.531  35.295  1.00  0.00    -0.203 F 
ATOM     70  F   UNL A   1      41.407  26.418  34.519  1.00  0.00    -0.200 F 
ATOM     71  C   UNL A   1      42.149  28.117  35.977  1.00  0.00     0.200 A 
ATOM     72  F   UNL A   1      42.974  29.823  37.383  1.00  0.00    -0.200 F 
ATOM     73  F   UNL A   1      42.080  27.273  37.016  1.00  0.00    -0.200 F 
ENDBRANCH  40  63
ENDBRANCH  14  15
ENDBRANCH   7   9
ENDBRANCH   6   7
ENDBRANCH   5   6
ENDBRANCH   4   5
ENDBRANCH   3   4
ENDBRANCH   2   3
ENDBRANCH   1   2
BRANCH   1  74
ATOM     74  O   UNL A   1      36.074  22.261  24.387  1.00  0.00    -0.377 OA
BRANCH  74  75
ATOM     75  C   UNL A   1      35.716  23.002  25.530  1.00  0.00     0.188 C 
BRANCH  75  76
ATOM     76  C   UNL A   1      34.905  24.276  25.223  1.00  0.00     0.188 C 
BRANCH  76  77
ATOM     77  O   UNL A   1      33.995  24.836  26.159  1.00  0.00    -0.376 OA
BRANCH  77  78
ATOM     78  C   UNL A   1      32.650  25.113  25.805  1.00  0.00     0.202 C 
BRANCH  78  79
ATOM     79  C   UNL A   1      31.563  24.039  25.982  1.00  0.00     0.261 C 
BRANCH  79  80
ATOM     80  O   UNL A   1      31.976  22.680  25.810  1.00  0.00    -0.458 OA
BRANCH  80  81
ATOM     81  C   UNL A   1      31.786  22.154  24.556  1.00  0.00     0.359 C 
ATOM     82  O   UNL A   1      31.482  22.807  23.574  1.00  0.00    -0.244 OA
BRANCH  81  83
ATOM     83  C   UNL A   1      32.182  20.743  24.478  1.00  0.00     0.173 A 
ATOM     84  C   UNL A   1      32.523  20.062  23.280  1.00  0.00     0.087 A 
ATOM     85  N   UNL A   1      32.275  19.926  25.543  1.00  0.00    -0.159 NA
ATOM     86  C   UNL A   1      32.830  18.779  23.649  1.00  0.00     0.155 A 
ATOM     87  N   UNL A   1      32.573  18.707  25.022  1.00  0.00    -0.220 N 
ATOM     88  N   UNL A   1      33.233  17.700  22.913  1.00  0.00    -0.235 NA
ATOM     89  C   UNL A   1      32.601  17.481  25.676  1.00  0.00     0.137 A 
ATOM     90  C   UNL A   1      33.255  16.567  23.554  1.00  0.00     0.135 A 
ATOM     91  C   UNL A   1      32.900  16.374  24.988  1.00  0.00     0.077 A 
ATOM     92  Cl  UNL A   1      32.897  14.799  25.641  1.00  0.00    -0.081 Cl
ENDBRANCH  81  83
ENDBRANCH  80  81
ENDBRANCH  79  80
ENDBRANCH  78  79
ENDBRANCH  77  78
ENDBRANCH  76  77
ENDBRANCH  75  76
ENDBRANCH  74  75
ENDBRANCH   1  74
TORSDOF 20
ENDMDL
MODEL 3
REMARK VINA RESULT:     -10.4      3.635      5.184
REMARK SMILES O=C(OCCOCCOCCOCCOC(=O)c1cc2ncc(Cl)cn2n1)c1ccc(-c2c3nc(c(-c4c(F)c(F)c(F)c(F)c4F)c4ccc([nH]4)c(-c4c(F)c(F)c(F)c(F)c4F)c4nc(c(-c5c(F)c(F)c(F)c(F)c5F)c5ccc2[nH]5)C=C4)C=C3)cc1
REMARK SMILES IDX 8 1 7 2 6 3 5 4 4 5 3 6 2 7 1 8 28 9 29 10 90 11 30 12 89 13
REMARK SMILES IDX 31 14 32 15 33 16 83 17 34 18 88 19 82 20 84 21 35 22 87 23
REMARK SMILES IDX 81 24 80 25 36 27 68 28 48 29 67 30 49 31 52 32 66 33 85 34
REMARK SMILES IDX 50 35 51 36 65 38 86 39 53 40 37 41 38 42 46 43 39 44 40 45
REMARK SMILES IDX 44 46 47 47 41 48 42 49 45 50 43 51 69 52 70 53 78 54 71 55
REMARK SMILES IDX 72 56 76 57 79 58 73 59 74 60 77 61 75 62 54 63 55 64 63 65
REMARK SMILES IDX 56 66 57 67 61 68 64 69 58 70 59 71 62 72 60 73 9 74 10 75
REMARK SMILES IDX 11 76 12 77 13 78 14 79 15 80 16 81 17 82 18 83 19 84 27 85
REMARK SMILES IDX 20 86 26 87 21 88 25 89 22 90 23 91 24 92
REMARK H PARENT 84 26 52 37
REMARK Flexibility Score: inf
ROOT
ATOM      1  C   UNL A   1      36.950  21.833  24.287  1.00  0.00     0.188 C 
ENDROOT
BRANCH   1   2
ATOM      2  C   UNL A   1      37.896  21.401  25.419  1.00  0.00     0.188 C 
BRANCH   2   3
ATOM      3  O   UNL A   1      39.013  22.140  25.899  1.00  0.00    -0.376 OA
BRANCH   3   4
ATOM      4  C   UNL A   1      40.071  21.690  26.718  1.00  0.00     0.202 C 
BRANCH   4   5
ATOM      5  C   UNL A   1      41.411  21.203  26.163  1.00  0.00     0.261 C 
BRANCH   5   6
ATOM      6  O   UNL A   1      42.483  22.136  26.215  1.00  0.00    -0.460 OA
BRANCH   6   7
ATOM      7  C   UNL A   1      42.544  23.391  25.727  1.00  0.00     0.338 C 
ATOM      8  O   UNL A   1      43.153  23.569  24.674  1.00  0.00    -0.246 OA
BRANCH   7   9
ATOM      9  C   UNL A   1      41.991  24.590  26.421  1.00  0.00     0.060 A 
ATOM     10  C   UNL A   1      41.243  25.617  25.840  1.00  0.00     0.016 A 
ATOM     11  C   UNL A   1      42.273  24.668  27.799  1.00  0.00     0.016 A 
ATOM     12  C   UNL A   1      40.936  26.759  26.553  1.00  0.00     0.010 A 
ATOM     13  C   UNL A   1      41.942  25.796  28.532  1.00  0.00     0.010 A 
ATOM     14  C   UNL A   1      41.359  26.869  27.871  1.00  0.00    -0.014 A 
BRANCH  14  15
ATOM     15  C   UNL A   1      41.283  28.195  28.454  1.00  0.00     0.031 A 
ATOM     16  C   UNL A   1      42.400  29.130  28.164  1.00  0.00     0.074 A 
ATOM     17  C   UNL A   1      40.238  28.516  29.239  1.00  0.00     0.049 A 
ATOM     18  N   UNL A   1      43.176  29.742  29.001  1.00  0.00    -0.248 NA
ATOM     19  C   UNL A   1      42.728  29.367  26.751  1.00  0.00     0.031 C 
ATOM     20  C   UNL A   1      38.982  27.781  29.423  1.00  0.00     0.029 A 
ATOM     21  N   UNL A   1      40.048  29.643  29.971  1.00  0.00    -0.354 N 
ATOM     22  C   UNL A   1      43.996  30.563  28.231  1.00  0.00     0.074 A 
ATOM     23  C   UNL A   1      43.742  30.226  26.852  1.00  0.00     0.031 C 
ATOM     24  C   UNL A   1      38.080  28.593  30.011  1.00  0.00     0.029 A 
ATOM     25  C   UNL A   1      38.736  29.839  30.361  1.00  0.00     0.049 A 
ATOM     26  H   UNL A   1      40.776  30.264  30.203  1.00  0.00     0.167 HD
ATOM     27  C   UNL A   1      44.701  31.598  28.763  1.00  0.00     0.037 A 
ATOM     28  C   UNL A   1      38.213  30.992  30.837  1.00  0.00     0.037 A 
ATOM     29  C   UNL A   1      44.916  31.450  30.173  1.00  0.00     0.049 A 
ATOM     30  C   UNL A   1      39.337  31.820  31.341  1.00  0.00     0.074 A 
ATOM     31  C   UNL A   1      45.586  30.528  30.955  1.00  0.00     0.029 A 
ATOM     32  N   UNL A   1      44.143  32.174  31.044  1.00  0.00    -0.354 N 
ATOM     33  N   UNL A   1      40.050  31.527  32.394  1.00  0.00    -0.248 NA
ATOM     34  C   UNL A   1      39.945  32.771  30.421  1.00  0.00     0.031 C 
ATOM     35  C   UNL A   1      44.813  30.421  32.147  1.00  0.00     0.029 A 
ATOM     36  C   UNL A   1      43.740  31.305  32.026  1.00  0.00     0.049 A 
ATOM     37  H   UNL A   1      43.920  33.129  30.978  1.00  0.00     0.167 HD
ATOM     38  C   UNL A   1      41.339  31.930  32.074  1.00  0.00     0.074 A 
ATOM     39  C   UNL A   1      41.193  32.774  30.893  1.00  0.00     0.031 C 
ATOM     40  C   UNL A   1      42.429  31.322  32.626  1.00  0.00     0.037 A 
BRANCH  27  41
ATOM     41  C   UNL A   1      44.945  32.887  28.031  1.00  0.00     0.064 A 
ATOM     42  C   UNL A   1      46.233  33.215  27.571  1.00  0.00     0.173 A 
ATOM     43  C   UNL A   1      43.998  33.934  28.009  1.00  0.00     0.173 A 
ATOM     44  F   UNL A   1      47.219  32.307  27.599  1.00  0.00    -0.203 F 
ATOM     45  C   UNL A   1      46.554  34.509  27.148  1.00  0.00     0.198 A 
ATOM     46  C   UNL A   1      44.306  35.207  27.537  1.00  0.00     0.198 A 
ATOM     47  F   UNL A   1      42.777  33.788  28.542  1.00  0.00    -0.203 F 
ATOM     48  F   UNL A   1      47.816  34.807  26.814  1.00  0.00    -0.200 F 
ATOM     49  C   UNL A   1      45.589  35.502  27.129  1.00  0.00     0.200 A 
ATOM     50  F   UNL A   1      43.365  36.162  27.552  1.00  0.00    -0.200 F 
ATOM     51  F   UNL A   1      45.906  36.752  26.767  1.00  0.00    -0.200 F 
ENDBRANCH  27  41
BRANCH  28  52
ATOM     52  C   UNL A   1      36.876  31.546  30.527  1.00  0.00     0.064 A 
ATOM     53  C   UNL A   1      36.002  31.924  31.555  1.00  0.00     0.173 A 
ATOM     54  C   UNL A   1      36.532  31.963  29.224  1.00  0.00     0.173 A 
ATOM     55  F   UNL A   1      36.282  31.607  32.827  1.00  0.00    -0.203 F 
ATOM     56  C   UNL A   1      34.862  32.692  31.300  1.00  0.00     0.198 A 
ATOM     57  C   UNL A   1      35.388  32.716  28.968  1.00  0.00     0.198 A 
ATOM     58  F   UNL A   1      37.344  31.732  28.183  1.00  0.00    -0.203 F 
ATOM     59  F   UNL A   1      34.084  33.090  32.315  1.00  0.00    -0.200 F 
ATOM     60  C   UNL A   1      34.561  33.095  30.008  1.00  0.00     0.200 A 
ATOM     61  F   UNL A   1      35.128  33.127  27.718  1.00  0.00    -0.200 F 
ATOM     62  F   UNL A   1      33.501  33.880  29.771  1.00  0.00    -0.200 F 
ENDBRANCH  28  52
BRANCH  40  63
ATOM     63  C   UNL A   1      42.198  30.377  33.772  1.00  0.00     0.064 A 
ATOM     64  C   UNL A   1      41.847  29.027  33.599  1.00  0.00     0.173 A 
ATOM     65  C   UNL A   1      42.502  30.804  35.070  1.00  0.00     0.173 A 
ATOM     66  F   UNL A   1      41.650  28.517  32.377  1.00  0.00    -0.203 F 
ATOM     67  C   UNL A   1      41.760  28.159  34.685  1.00  0.00     0.198 A 
ATOM     68  C   UNL A   1      42.449  29.926  36.149  1.00  0.00     0.198 A 
ATOM     69  F   UNL A   1      42.906  32.066  35.285  1.00  0.00    -0.203 F 
ATOM     70  F   UNL A   1      41.420  26.875  34.495  1.00  0.00    -0.200 F 
ATOM     71  C   UNL A   1      42.069  28.607  35.959  1.00  0.00     0.200 A 
ATOM     72  F   UNL A   1      42.802  30.350  37.372  1.00  0.00    -0.200 F 
ATOM     73  F   UNL A   1      42.034  27.760  36.997  1.00  0.00    -0.200 F 
ENDBRANCH  40  63
ENDBRANCH  14  15
ENDBRANCH   7   9
ENDBRANCH   6   7
ENDBRANCH   5   6
ENDBRANCH   4   5
ENDBRANCH   3   4
ENDBRANCH   2   3
ENDBRANCH   1   2
BRANCH   1  74
ATOM     74  O   UNL A   1      35.752  22.476  24.684  1.00  0.00    -0.377 OA
BRANCH  74  75
ATOM     75  C   UNL A   1      35.555  22.534  26.078  1.00  0.00     0.188 C 
BRANCH  75  76
ATOM     76  C   UNL A   1      34.406  21.641  26.587  1.00  0.00     0.188 C 
BRANCH  76  77
ATOM     77  O   UNL A   1      33.776  20.676  25.757  1.00  0.00    -0.376 OA
BRANCH  77  78
ATOM     78  C   UNL A   1      32.529  20.939  25.137  1.00  0.00     0.202 C 
BRANCH  78  79
ATOM     79  C   UNL A   1      32.103  22.385  24.830  1.00  0.00     0.261 C 
BRANCH  79  80
ATOM     80  O   UNL A   1      30.901  22.842  25.457  1.00  0.00    -0.458 OA
BRANCH  80  81
ATOM     81  C   UNL A   1      31.043  23.908  26.310  1.00  0.00     0.359 C 
ATOM     82  O   UNL A   1      31.397  23.818  27.473  1.00  0.00    -0.244 OA
BRANCH  81  83
ATOM     83  C   UNL A   1      30.911  25.197  25.620  1.00  0.00     0.173 A 
ATOM     84  C   UNL A   1      31.475  26.419  26.070  1.00  0.00     0.087 A 
ATOM     85  N   UNL A   1      30.242  25.368  24.465  1.00  0.00    -0.159 NA
ATOM     86  C   UNL A   1      31.122  27.362  25.142  1.00  0.00     0.155 A 
ATOM     87  N   UNL A   1      30.289  26.705  24.231  1.00  0.00    -0.220 N 
ATOM     88  N   UNL A   1      31.397  28.699  25.065  1.00  0.00    -0.235 NA
ATOM     89  C   UNL A   1      29.600  27.429  23.265  1.00  0.00     0.137 A 
ATOM     90  C   UNL A   1      30.742  29.349  24.147  1.00  0.00     0.135 A 
ATOM     91  C   UNL A   1      29.759  28.755  23.196  1.00  0.00     0.077 A 
ATOM     92  Cl  UNL A   1      28.923  29.775  22.117  1.00  0.00    -0.081 Cl
ENDBRANCH  81  83
ENDBRANCH  80  81
ENDBRANCH  79  80
ENDBRANCH  78  79
ENDBRANCH  77  78
ENDBRANCH  76  77
ENDBRANCH  75  76
ENDBRANCH  74  75
ENDBRANCH   1  74
TORSDOF 20
ENDMDL
