MODEL 1
REMARK VINA RESULT:      -9.0      0.000      0.000
REMARK SMILES C[C@H](CC(=O)OCCOCCOCCOCCOC(=O)c1ccc(-c2c3nc(c(-c4c(F)c(F)c(F)c(F)c4F)c4ccc([nH]4)c(-c4c(F)c(F)c(F)c(F)c4F)c4nc(c(-c5c(F)c(F)c(F)c(F)c5F)c5ccc2[nH]5)C=C4)C=C3)cc1)NC(=O)[C@H]1CC(=O)N(C2CC2)C1
REMARK SMILES IDX 11 1 10 2 9 3 8 4 7 5 6 6 4 7 5 8 3 9 2 10 1 11 84 12 85 13
REMARK SMILES IDX 86 15 87 16 88 17 95 18 89 19 91 20 90 21 92 22 93 23 94 24
REMARK SMILES IDX 12 25 13 26 14 27 15 28 16 29 17 30 18 31 19 32 20 33 21 34
REMARK SMILES IDX 22 35 83 36 23 37 82 38 24 39 25 40 26 41 76 42 27 43 81 44
REMARK SMILES IDX 75 45 77 46 28 47 80 48 74 49 73 50 29 52 61 53 41 54 60 55
REMARK SMILES IDX 42 56 45 57 59 58 78 59 43 60 44 61 58 63 79 64 46 65 30 66
REMARK SMILES IDX 31 67 39 68 32 69 33 70 37 71 40 72 34 73 35 74 38 75 36 76
REMARK SMILES IDX 62 77 63 78 71 79 64 80 65 81 69 82 72 83 66 84 67 85 70 86
REMARK SMILES IDX 68 87 47 88 48 89 56 90 49 91 50 92 54 93 57 94 51 95 52 96
REMARK SMILES IDX 55 97 53 98
REMARK H PARENT 84 14 77 51 45 62
REMARK Flexibility Score: inf
ROOT
ATOM      1  C   UNL A   1      36.303  30.680  28.021  1.00  0.00     0.188 C 
ENDROOT
BRANCH   1   2
ATOM      2  C   UNL A   1      35.493  29.631  27.250  1.00  0.00     0.188 C 
BRANCH   2   3
ATOM      3  O   UNL A   1      34.226  29.281  27.801  1.00  0.00    -0.376 OA
BRANCH   3   4
ATOM      4  C   UNL A   1      33.058  29.854  27.214  1.00  0.00     0.202 C 
BRANCH   4   5
ATOM      5  C   UNL A   1      32.417  29.116  26.022  1.00  0.00     0.261 C 
BRANCH   5   6
ATOM      6  O   UNL A   1      32.631  27.684  26.061  1.00  0.00    -0.463 OA
BRANCH   6   7
ATOM      7  C   UNL A   1      32.885  27.080  24.874  1.00  0.00     0.307 C 
ATOM      8  O   UNL A   1      33.963  27.139  24.291  1.00  0.00    -0.252 OA
BRANCH   7   9
ATOM      9  C   UNL A   1      31.786  26.138  24.425  1.00  0.00     0.147 C 
BRANCH   9  10
ATOM     10  C   UNL A   1      31.622  25.689  22.972  1.00  0.00     0.090 C 
ATOM     11  C   UNL A   1      31.191  26.772  21.994  1.00  0.00     0.031 C 
BRANCH  10  12
ATOM     12  N   UNL A   1      32.768  25.005  22.405  1.00  0.00    -0.353 N 
ATOM     13  C   UNL A   1      32.984  23.658  22.356  1.00  0.00     0.225 C 
ATOM     14  H   UNL A   1      33.466  25.576  22.011  1.00  0.00     0.163 HD
ATOM     15  O   UNL A   1      33.717  23.239  21.460  1.00  0.00    -0.275 OA
BRANCH  13  16
ATOM     16  C   UNL A   1      32.446  22.753  23.453  1.00  0.00     0.107 C 
ATOM     17  C   UNL A   1      32.317  21.250  23.207  1.00  0.00     0.115 C 
ATOM     18  C   UNL A   1      33.417  22.779  24.624  1.00  0.00     0.133 C 
ATOM     19  C   UNL A   1      32.444  20.665  24.601  1.00  0.00     0.223 C 
ATOM     20  N   UNL A   1      33.058  21.626  25.401  1.00  0.00    -0.339 N 
ATOM     21  O   UNL A   1      32.083  19.539  24.906  1.00  0.00    -0.275 OA
BRANCH  20  22
ATOM     22  C   UNL A   1      33.464  21.532  26.767  1.00  0.00     0.085 C 
ATOM     23  C   UNL A   1      34.330  22.525  27.482  1.00  0.00     0.027 C 
ATOM     24  C   UNL A   1      32.868  22.430  27.815  1.00  0.00     0.027 C 
ENDBRANCH  20  22
ENDBRANCH  13  16
ENDBRANCH  10  12
ENDBRANCH   9  10
ENDBRANCH   7   9
ENDBRANCH   6   7
ENDBRANCH   5   6
ENDBRANCH   4   5
ENDBRANCH   3   4
ENDBRANCH   2   3
ENDBRANCH   1   2
BRANCH   1  25
ATOM     25  O   UNL A   1      35.472  31.596  28.716  1.00  0.00    -0.377 OA
BRANCH  25  26
ATOM     26  C   UNL A   1      35.561  31.752  30.129  1.00  0.00     0.188 C 
BRANCH  26  27
ATOM     27  C   UNL A   1      34.830  32.929  30.766  1.00  0.00     0.188 C 
BRANCH  27  28
ATOM     28  O   UNL A   1      34.132  32.663  31.983  1.00  0.00    -0.376 OA
BRANCH  28  29
ATOM     29  C   UNL A   1      34.489  33.401  33.150  1.00  0.00     0.202 C 
BRANCH  29  30
ATOM     30  C   UNL A   1      35.970  33.363  33.525  1.00  0.00     0.261 C 
BRANCH  30  31
ATOM     31  O   UNL A   1      36.510  32.034  33.474  1.00  0.00    -0.460 OA
BRANCH  31  32
ATOM     32  C   UNL A   1      37.558  31.801  34.292  1.00  0.00     0.338 C 
ATOM     33  O   UNL A   1      37.548  31.680  35.510  1.00  0.00    -0.246 OA
BRANCH  32  34
ATOM     34  C   UNL A   1      38.759  31.578  33.475  1.00  0.00     0.060 A 
ATOM     35  C   UNL A   1      38.676  31.732  32.084  1.00  0.00     0.016 A 
ATOM     36  C   UNL A   1      39.935  31.135  34.080  1.00  0.00     0.016 A 
ATOM     37  C   UNL A   1      39.766  31.399  31.284  1.00  0.00     0.010 A 
ATOM     38  C   UNL A   1      41.020  30.792  33.278  1.00  0.00     0.010 A 
ATOM     39  C   UNL A   1      40.925  30.887  31.878  1.00  0.00    -0.014 A 
BRANCH  39  40
ATOM     40  C   UNL A   1      41.984  30.262  31.056  1.00  0.00     0.031 A 
ATOM     41  C   UNL A   1      43.250  31.034  30.828  1.00  0.00     0.074 A 
ATOM     42  C   UNL A   1      41.789  29.065  30.480  1.00  0.00     0.049 A 
ATOM     43  N   UNL A   1      44.234  30.795  30.002  1.00  0.00    -0.248 NA
ATOM     44  C   UNL A   1      43.419  32.256  31.633  1.00  0.00     0.031 C 
ATOM     45  C   UNL A   1      40.616  28.216  30.673  1.00  0.00     0.029 A 
ATOM     46  N   UNL A   1      42.568  28.374  29.588  1.00  0.00    -0.354 N 
ATOM     47  C   UNL A   1      45.126  31.846  30.170  1.00  0.00     0.074 A 
ATOM     48  C   UNL A   1      44.557  32.737  31.157  1.00  0.00     0.031 C 
ATOM     49  C   UNL A   1      40.737  27.128  29.893  1.00  0.00     0.029 A 
ATOM     50  C   UNL A   1      41.970  27.231  29.117  1.00  0.00     0.049 A 
ATOM     51  H   UNL A   1      43.466  28.668  29.312  1.00  0.00     0.167 HD
ATOM     52  C   UNL A   1      46.313  32.044  29.552  1.00  0.00     0.037 A 
ATOM     53  C   UNL A   1      42.362  26.395  28.136  1.00  0.00     0.037 A 
ATOM     54  C   UNL A   1      46.860  31.147  28.568  1.00  0.00     0.049 A 
ATOM     55  C   UNL A   1      43.651  26.678  27.406  1.00  0.00     0.074 A 
ATOM     56  C   UNL A   1      48.064  31.235  27.893  1.00  0.00     0.029 A 
ATOM     57  N   UNL A   1      46.227  29.999  28.114  1.00  0.00    -0.354 N 
ATOM     58  N   UNL A   1      44.504  27.658  27.579  1.00  0.00    -0.248 NA
ATOM     59  C   UNL A   1      44.030  25.738  26.342  1.00  0.00     0.031 C 
ATOM     60  C   UNL A   1      48.130  30.174  26.985  1.00  0.00     0.029 A 
ATOM     61  C   UNL A   1      47.002  29.384  27.146  1.00  0.00     0.049 A 
ATOM     62  H   UNL A   1      45.356  29.669  28.433  1.00  0.00     0.167 HD
ATOM     63  C   UNL A   1      45.537  27.434  26.676  1.00  0.00     0.074 A 
ATOM     64  C   UNL A   1      45.204  26.220  25.961  1.00  0.00     0.031 C 
ATOM     65  C   UNL A   1      46.660  28.163  26.461  1.00  0.00     0.037 A 
BRANCH  52  66
ATOM     66  C   UNL A   1      47.079  33.290  29.893  1.00  0.00     0.064 A 
ATOM     67  C   UNL A   1      48.030  33.317  30.924  1.00  0.00     0.173 A 
ATOM     68  C   UNL A   1      46.877  34.469  29.159  1.00  0.00     0.173 A 
ATOM     69  F   UNL A   1      48.252  32.222  31.667  1.00  0.00    -0.203 F 
ATOM     70  C   UNL A   1      48.729  34.483  31.225  1.00  0.00     0.198 A 
ATOM     71  C   UNL A   1      47.602  35.624  29.439  1.00  0.00     0.198 A 
ATOM     72  F   UNL A   1      45.980  34.500  28.161  1.00  0.00    -0.203 F 
ATOM     73  F   UNL A   1      49.594  34.499  32.248  1.00  0.00    -0.200 F 
ATOM     74  C   UNL A   1      48.520  35.633  30.478  1.00  0.00     0.200 A 
ATOM     75  F   UNL A   1      47.408  36.730  28.707  1.00  0.00    -0.200 F 
ATOM     76  F   UNL A   1      49.199  36.753  30.763  1.00  0.00    -0.200 F 
ENDBRANCH  52  66
BRANCH  53  77
ATOM     77  C   UNL A   1      41.519  25.225  27.775  1.00  0.00     0.064 A 
ATOM     78  C   UNL A   1      40.410  25.371  26.931  1.00  0.00     0.173 A 
ATOM     79  C   UNL A   1      41.794  23.942  28.272  1.00  0.00     0.173 A 
ATOM     80  F   UNL A   1      40.091  26.582  26.448  1.00  0.00    -0.203 F 
ATOM     81  C   UNL A   1      39.596  24.286  26.616  1.00  0.00     0.198 A 
ATOM     82  C   UNL A   1      40.998  22.851  27.930  1.00  0.00     0.198 A 
ATOM     83  F   UNL A   1      42.845  23.746  29.082  1.00  0.00    -0.203 F 
ATOM     84  F   UNL A   1      38.512  24.465  25.848  1.00  0.00    -0.200 F 
ATOM     85  C   UNL A   1      39.894  23.025  27.110  1.00  0.00     0.200 A 
ATOM     86  F   UNL A   1      41.299  21.632  28.399  1.00  0.00    -0.200 F 
ATOM     87  F   UNL A   1      39.113  21.980  26.804  1.00  0.00    -0.200 F 
ENDBRANCH  53  77
BRANCH  65  88
ATOM     88  C   UNL A   1      47.645  27.641  25.454  1.00  0.00     0.064 A 
ATOM     89  C   UNL A   1      47.516  27.906  24.083  1.00  0.00     0.173 A 
ATOM     90  C   UNL A   1      48.774  26.925  25.881  1.00  0.00     0.173 A 
ATOM     91  F   UNL A   1      46.448  28.576  23.623  1.00  0.00    -0.203 F 
ATOM     92  C   UNL A   1      48.471  27.457  23.176  1.00  0.00     0.198 A 
ATOM     93  C   UNL A   1      49.744  26.508  24.976  1.00  0.00     0.198 A 
ATOM     94  F   UNL A   1      48.950  26.652  27.183  1.00  0.00    -0.203 F 
ATOM     95  F   UNL A   1      48.307  27.686  21.865  1.00  0.00    -0.200 F 
ATOM     96  C   UNL A   1      49.589  26.769  23.623  1.00  0.00     0.200 A 
ATOM     97  F   UNL A   1      50.833  25.859  25.413  1.00  0.00    -0.200 F 
ATOM     98  F   UNL A   1      50.517  26.353  22.750  1.00  0.00    -0.200 F 
ENDBRANCH  65  88
ENDBRANCH  39  40
ENDBRANCH  32  34
ENDBRANCH  31  32
ENDBRANCH  30  31
ENDBRANCH  29  30
ENDBRANCH  28  29
ENDBRANCH  27  28
ENDBRANCH  26  27
ENDBRANCH  25  26
ENDBRANCH   1  25
TORSDOF 24
ENDMDL
MODEL 2
REMARK VINA RESULT:      -8.9      4.751     10.232
REMARK SMILES C[C@H](CC(=O)OCCOCCOCCOCCOC(=O)c1ccc(-c2c3nc(c(-c4c(F)c(F)c(F)c(F)c4F)c4ccc([nH]4)c(-c4c(F)c(F)c(F)c(F)c4F)c4nc(c(-c5c(F)c(F)c(F)c(F)c5F)c5ccc2[nH]5)C=C4)C=C3)cc1)NC(=O)[C@H]1CC(=O)N(C2CC2)C1
REMARK SMILES IDX 11 1 10 2 9 3 8 4 7 5 6 6 4 7 5 8 3 9 2 10 1 11 84 12 85 13
REMARK SMILES IDX 86 15 87 16 88 17 95 18 89 19 91 20 90 21 92 22 93 23 94 24
REMARK SMILES IDX 12 25 13 26 14 27 15 28 16 29 17 30 18 31 19 32 20 33 21 34
REMARK SMILES IDX 22 35 83 36 23 37 82 38 24 39 25 40 26 41 76 42 27 43 81 44
REMARK SMILES IDX 75 45 77 46 28 47 80 48 74 49 73 50 29 52 61 53 41 54 60 55
REMARK SMILES IDX 42 56 45 57 59 58 78 59 43 60 44 61 58 63 79 64 46 65 30 66
REMARK SMILES IDX 31 67 39 68 32 69 33 70 37 71 40 72 34 73 35 74 38 75 36 76
REMARK SMILES IDX 62 77 63 78 71 79 64 80 65 81 69 82 72 83 66 84 67 85 70 86
REMARK SMILES IDX 68 87 47 88 48 89 56 90 49 91 50 92 54 93 57 94 51 95 52 96
REMARK SMILES IDX 55 97 53 98
REMARK H PARENT 84 14 77 51 45 62
REMARK Flexibility Score: inf
ROOT
ATOM      1  C   UNL A   1      33.939  35.805  32.293  1.00  0.00     0.188 C 
ENDROOT
BRANCH   1   2
ATOM      2  C   UNL A   1      34.210  34.353  32.705  1.00  0.00     0.188 C 
BRANCH   2   3
ATOM      3  O   UNL A   1      35.226  33.669  31.976  1.00  0.00    -0.376 OA
BRANCH   3   4
ATOM      4  C   UNL A   1      35.888  32.577  32.615  1.00  0.00     0.202 C 
BRANCH   4   5
ATOM      5  C   UNL A   1      37.269  32.159  32.073  1.00  0.00     0.261 C 
BRANCH   5   6
ATOM      6  O   UNL A   1      38.347  32.415  33.007  1.00  0.00    -0.463 OA
BRANCH   6   7
ATOM      7  C   UNL A   1      39.167  31.372  33.281  1.00  0.00     0.307 C 
ATOM      8  O   UNL A   1      40.298  31.490  33.743  1.00  0.00    -0.252 OA
BRANCH   7   9
ATOM      9  C   UNL A   1      38.487  30.021  33.174  1.00  0.00     0.147 C 
BRANCH   9  10
ATOM     10  C   UNL A   1      39.260  28.701  33.200  1.00  0.00     0.090 C 
ATOM     11  C   UNL A   1      38.491  27.479  32.722  1.00  0.00     0.031 C 
BRANCH  10  12
ATOM     12  N   UNL A   1      40.537  28.722  32.515  1.00  0.00    -0.353 N 
ATOM     13  C   UNL A   1      41.706  28.151  32.931  1.00  0.00     0.225 C 
ATOM     14  H   UNL A   1      40.565  29.199  31.655  1.00  0.00     0.163 HD
ATOM     15  O   UNL A   1      42.525  27.849  32.062  1.00  0.00    -0.275 OA
BRANCH  13  16
ATOM     16  C   UNL A   1      42.019  28.032  34.415  1.00  0.00     0.107 C 
ATOM     17  C   UNL A   1      41.610  26.775  35.182  1.00  0.00     0.115 C 
ATOM     18  C   UNL A   1      43.530  28.010  34.592  1.00  0.00     0.133 C 
ATOM     19  C   UNL A   1      42.630  26.714  36.304  1.00  0.00     0.223 C 
ATOM     20  N   UNL A   1      43.718  27.495  35.920  1.00  0.00    -0.339 N 
ATOM     21  O   UNL A   1      42.484  26.061  37.325  1.00  0.00    -0.275 OA
BRANCH  20  22
ATOM     22  C   UNL A   1      44.959  27.700  36.595  1.00  0.00     0.085 C 
ATOM     23  C   UNL A   1      45.907  28.833  36.338  1.00  0.00     0.027 C 
ATOM     24  C   UNL A   1      45.115  28.793  37.614  1.00  0.00     0.027 C 
ENDBRANCH  20  22
ENDBRANCH  13  16
ENDBRANCH  10  12
ENDBRANCH   9  10
ENDBRANCH   7   9
ENDBRANCH   6   7
ENDBRANCH   5   6
ENDBRANCH   4   5
ENDBRANCH   3   4
ENDBRANCH   2   3
ENDBRANCH   1   2
BRANCH   1  25
ATOM     25  O   UNL A   1      32.705  35.948  31.608  1.00  0.00    -0.377 OA
BRANCH  25  26
ATOM     26  C   UNL A   1      32.607  35.723  30.204  1.00  0.00     0.188 C 
BRANCH  26  27
ATOM     27  C   UNL A   1      33.804  36.092  29.337  1.00  0.00     0.188 C 
BRANCH  27  28
ATOM     28  O   UNL A   1      34.107  35.207  28.258  1.00  0.00    -0.376 OA
BRANCH  28  29
ATOM     29  C   UNL A   1      33.859  33.813  28.427  1.00  0.00     0.202 C 
BRANCH  29  30
ATOM     30  C   UNL A   1      35.086  32.908  28.309  1.00  0.00     0.261 C 
BRANCH  30  31
ATOM     31  O   UNL A   1      34.925  31.677  29.029  1.00  0.00    -0.460 OA
BRANCH  31  32
ATOM     32  C   UNL A   1      34.986  30.555  28.281  1.00  0.00     0.338 C 
ATOM     33  O   UNL A   1      34.122  30.091  27.549  1.00  0.00    -0.246 OA
BRANCH  32  34
ATOM     34  C   UNL A   1      36.344  30.000  28.367  1.00  0.00     0.060 A 
ATOM     35  C   UNL A   1      36.774  29.432  29.575  1.00  0.00     0.016 A 
ATOM     36  C   UNL A   1      37.212  30.121  27.282  1.00  0.00     0.016 A 
ATOM     37  C   UNL A   1      38.097  29.020  29.715  1.00  0.00     0.010 A 
ATOM     38  C   UNL A   1      38.537  29.720  27.427  1.00  0.00     0.010 A 
ATOM     39  C   UNL A   1      38.991  29.204  28.654  1.00  0.00    -0.014 A 
BRANCH  39  40
ATOM     40  C   UNL A   1      40.447  29.046  28.857  1.00  0.00     0.031 A 
ATOM     41  C   UNL A   1      41.091  27.769  28.402  1.00  0.00     0.074 A 
ATOM     42  C   UNL A   1      41.159  29.995  29.487  1.00  0.00     0.049 A 
ATOM     43  N   UNL A   1      42.293  27.313  28.635  1.00  0.00    -0.248 NA
ATOM     44  C   UNL A   1      40.252  26.875  27.586  1.00  0.00     0.031 C 
ATOM     45  C   UNL A   1      40.640  31.287  29.928  1.00  0.00     0.029 A 
ATOM     46  N   UNL A   1      42.469  29.996  29.891  1.00  0.00    -0.354 N 
ATOM     47  C   UNL A   1      42.348  26.071  28.015  1.00  0.00     0.074 A 
ATOM     48  C   UNL A   1      41.052  25.834  27.418  1.00  0.00     0.031 C 
ATOM     49  C   UNL A   1      41.617  31.947  30.574  1.00  0.00     0.029 A 
ATOM     50  C   UNL A   1      42.808  31.103  30.630  1.00  0.00     0.049 A 
ATOM     51  H   UNL A   1      43.104  29.276  29.675  1.00  0.00     0.167 HD
ATOM     52  C   UNL A   1      43.390  25.212  27.953  1.00  0.00     0.037 A 
ATOM     53  C   UNL A   1      43.940  31.374  31.308  1.00  0.00     0.037 A 
ATOM     54  C   UNL A   1      44.671  25.465  28.559  1.00  0.00     0.049 A 
ATOM     55  C   UNL A   1      45.061  30.365  31.291  1.00  0.00     0.074 A 
ATOM     56  C   UNL A   1      45.806  24.676  28.542  1.00  0.00     0.029 A 
ATOM     57  N   UNL A   1      44.979  26.598  29.300  1.00  0.00    -0.354 N 
ATOM     58  N   UNL A   1      45.121  29.202  30.688  1.00  0.00    -0.248 NA
ATOM     59  C   UNL A   1      46.271  30.707  32.050  1.00  0.00     0.031 C 
ATOM     60  C   UNL A   1      46.781  25.301  29.325  1.00  0.00     0.029 A 
ATOM     61  C   UNL A   1      46.278  26.514  29.770  1.00  0.00     0.049 A 
ATOM     62  H   UNL A   1      44.365  27.349  29.467  1.00  0.00     0.167 HD
ATOM     63  C   UNL A   1      46.384  28.691  30.962  1.00  0.00     0.074 A 
ATOM     64  C   UNL A   1      47.059  29.676  31.782  1.00  0.00     0.031 C 
ATOM     65  C   UNL A   1      46.937  27.517  30.569  1.00  0.00     0.037 A 
BRANCH  52  66
ATOM     66  C   UNL A   1      43.178  23.906  27.241  1.00  0.00     0.064 A 
ATOM     67  C   UNL A   1      43.561  23.720  25.905  1.00  0.00     0.173 A 
ATOM     68  C   UNL A   1      42.606  22.816  27.916  1.00  0.00     0.173 A 
ATOM     69  F   UNL A   1      44.098  24.734  25.208  1.00  0.00    -0.203 F 
ATOM     70  C   UNL A   1      43.354  22.502  25.262  1.00  0.00     0.198 A 
ATOM     71  C   UNL A   1      42.432  21.590  27.281  1.00  0.00     0.198 A 
ATOM     72  F   UNL A   1      42.222  22.938  29.196  1.00  0.00    -0.203 F 
ATOM     73  F   UNL A   1      43.679  22.364  23.970  1.00  0.00    -0.200 F 
ATOM     74  C   UNL A   1      42.797  21.436  25.952  1.00  0.00     0.200 A 
ATOM     75  F   UNL A   1      41.906  20.557  27.955  1.00  0.00    -0.200 F 
ATOM     76  F   UNL A   1      42.606  20.261  25.336  1.00  0.00    -0.200 F 
ENDBRANCH  52  66
BRANCH  53  77
ATOM     77  C   UNL A   1      44.063  32.642  32.073  1.00  0.00     0.064 A 
ATOM     78  C   UNL A   1      43.769  32.686  33.443  1.00  0.00     0.173 A 
ATOM     79  C   UNL A   1      44.466  33.836  31.455  1.00  0.00     0.173 A 
ATOM     80  F   UNL A   1      43.358  31.577  34.076  1.00  0.00    -0.203 F 
ATOM     81  C   UNL A   1      43.849  33.878  34.159  1.00  0.00     0.198 A 
ATOM     82  C   UNL A   1      44.577  35.021  32.180  1.00  0.00     0.198 A 
ATOM     83  F   UNL A   1      44.761  33.849  30.147  1.00  0.00    -0.203 F 
ATOM     84  F   UNL A   1      43.513  33.902  35.456  1.00  0.00    -0.200 F 
ATOM     85  C   UNL A   1      44.260  35.043  33.529  1.00  0.00     0.200 A 
ATOM     86  F   UNL A   1      44.988  36.141  31.569  1.00  0.00    -0.200 F 
ATOM     87  F   UNL A   1      44.341  36.189  34.219  1.00  0.00    -0.200 F 
ENDBRANCH  53  77
BRANCH  65  88
ATOM     88  C   UNL A   1      48.362  27.252  30.965  1.00  0.00     0.064 A 
ATOM     89  C   UNL A   1      48.688  26.534  32.124  1.00  0.00     0.173 A 
ATOM     90  C   UNL A   1      49.412  27.665  30.130  1.00  0.00     0.173 A 
ATOM     91  F   UNL A   1      47.721  26.129  32.962  1.00  0.00    -0.203 F 
ATOM     92  C   UNL A   1      50.014  26.255  32.442  1.00  0.00     0.198 A 
ATOM     93  C   UNL A   1      50.734  27.353  30.433  1.00  0.00     0.198 A 
ATOM     94  F   UNL A   1      49.153  28.348  29.005  1.00  0.00    -0.203 F 
ATOM     95  F   UNL A   1      50.306  25.603  33.577  1.00  0.00    -0.200 F 
ATOM     96  C   UNL A   1      51.034  26.655  31.592  1.00  0.00     0.200 A 
ATOM     97  F   UNL A   1      51.716  27.725  29.600  1.00  0.00    -0.200 F 
ATOM     98  F   UNL A   1      52.309  26.368  31.890  1.00  0.00    -0.200 F 
ENDBRANCH  65  88
ENDBRANCH  39  40
ENDBRANCH  32  34
ENDBRANCH  31  32
ENDBRANCH  30  31
ENDBRANCH  29  30
ENDBRANCH  28  29
ENDBRANCH  27  28
ENDBRANCH  26  27
ENDBRANCH  25  26
ENDBRANCH   1  25
TORSDOF 24
ENDMDL
MODEL 3
REMARK VINA RESULT:      -8.7      1.313      7.474
REMARK SMILES C[C@H](CC(=O)OCCOCCOCCOCCOC(=O)c1ccc(-c2c3nc(c(-c4c(F)c(F)c(F)c(F)c4F)c4ccc([nH]4)c(-c4c(F)c(F)c(F)c(F)c4F)c4nc(c(-c5c(F)c(F)c(F)c(F)c5F)c5ccc2[nH]5)C=C4)C=C3)cc1)NC(=O)[C@H]1CC(=O)N(C2CC2)C1
REMARK SMILES IDX 11 1 10 2 9 3 8 4 7 5 6 6 4 7 5 8 3 9 2 10 1 11 84 12 85 13
REMARK SMILES IDX 86 15 87 16 88 17 95 18 89 19 91 20 90 21 92 22 93 23 94 24
REMARK SMILES IDX 12 25 13 26 14 27 15 28 16 29 17 30 18 31 19 32 20 33 21 34
REMARK SMILES IDX 22 35 83 36 23 37 82 38 24 39 25 40 26 41 76 42 27 43 81 44
REMARK SMILES IDX 75 45 77 46 28 47 80 48 74 49 73 50 29 52 61 53 41 54 60 55
REMARK SMILES IDX 42 56 45 57 59 58 78 59 43 60 44 61 58 63 79 64 46 65 30 66
REMARK SMILES IDX 31 67 39 68 32 69 33 70 37 71 40 72 34 73 35 74 38 75 36 76
REMARK SMILES IDX 62 77 63 78 71 79 64 80 65 81 69 82 72 83 66 84 67 85 70 86
REMARK SMILES IDX 68 87 47 88 48 89 56 90 49 91 50 92 54 93 57 94 51 95 52 96
REMARK SMILES IDX 55 97 53 98
REMARK H PARENT 84 14 77 51 45 62
REMARK Flexibility Score: inf
ROOT
ATOM      1  C   UNL A   1      34.360  33.781  29.645  1.00  0.00     0.188 C 
ENDROOT
BRANCH   1   2
ATOM      2  C   UNL A   1      34.938  32.365  29.746  1.00  0.00     0.188 C 
BRANCH   2   3
ATOM      3  O   UNL A   1      35.165  31.686  28.514  1.00  0.00    -0.376 OA
BRANCH   3   4
ATOM      4  C   UNL A   1      34.034  31.393  27.693  1.00  0.00     0.202 C 
BRANCH   4   5
ATOM      5  C   UNL A   1      33.986  30.015  27.003  1.00  0.00     0.261 C 
BRANCH   5   6
ATOM      6  O   UNL A   1      32.831  29.850  26.144  1.00  0.00    -0.463 OA
BRANCH   6   7
ATOM      7  C   UNL A   1      32.836  28.767  25.329  1.00  0.00     0.307 C 
ATOM      8  O   UNL A   1      33.428  27.722  25.580  1.00  0.00    -0.252 OA
BRANCH   7   9
ATOM      9  C   UNL A   1      31.863  28.875  24.172  1.00  0.00     0.147 C 
BRANCH   9  10
ATOM     10  C   UNL A   1      31.491  27.681  23.290  1.00  0.00     0.090 C 
ATOM     11  C   UNL A   1      30.231  27.849  22.453  1.00  0.00     0.031 C 
BRANCH  10  12
ATOM     12  N   UNL A   1      32.547  27.206  22.418  1.00  0.00    -0.353 N 
ATOM     13  C   UNL A   1      33.029  25.931  22.323  1.00  0.00     0.225 C 
ATOM     14  H   UNL A   1      32.962  27.876  21.829  1.00  0.00     0.163 HD
ATOM     15  O   UNL A   1      33.548  25.605  21.255  1.00  0.00    -0.275 OA
BRANCH  13  16
ATOM     16  C   UNL A   1      33.037  25.020  23.540  1.00  0.00     0.107 C 
ATOM     17  C   UNL A   1      31.774  24.253  23.928  1.00  0.00     0.115 C 
ATOM     18  C   UNL A   1      34.011  23.879  23.286  1.00  0.00     0.133 C 
ATOM     19  C   UNL A   1      32.322  23.034  24.647  1.00  0.00     0.223 C 
ATOM     20  N   UNL A   1      33.654  22.890  24.264  1.00  0.00    -0.339 N 
ATOM     21  O   UNL A   1      31.664  22.327  25.393  1.00  0.00    -0.275 OA
BRANCH  20  22
ATOM     22  C   UNL A   1      34.581  21.859  24.607  1.00  0.00     0.085 C 
ATOM     23  C   UNL A   1      35.864  22.063  25.355  1.00  0.00     0.027 C 
ATOM     24  C   UNL A   1      34.709  21.373  26.023  1.00  0.00     0.027 C 
ENDBRANCH  20  22
ENDBRANCH  13  16
ENDBRANCH  10  12
ENDBRANCH   9  10
ENDBRANCH   7   9
ENDBRANCH   6   7
ENDBRANCH   5   6
ENDBRANCH   4   5
ENDBRANCH   3   4
ENDBRANCH   2   3
ENDBRANCH   1   2
BRANCH   1  25
ATOM     25  O   UNL A   1      34.868  34.642  30.653  1.00  0.00    -0.377 OA
BRANCH  25  26
ATOM     26  C   UNL A   1      34.008  35.503  31.393  1.00  0.00     0.188 C 
BRANCH  26  27
ATOM     27  C   UNL A   1      33.002  34.864  32.343  1.00  0.00     0.188 C 
BRANCH  27  28
ATOM     28  O   UNL A   1      33.350  33.584  32.873  1.00  0.00    -0.376 OA
BRANCH  28  29
ATOM     29  C   UNL A   1      34.504  33.478  33.703  1.00  0.00     0.202 C 
BRANCH  29  30
ATOM     30  C   UNL A   1      35.523  32.420  33.281  1.00  0.00     0.261 C 
BRANCH  30  31
ATOM     31  O   UNL A   1      36.856  32.751  33.696  1.00  0.00    -0.460 OA
BRANCH  31  32
ATOM     32  C   UNL A   1      37.550  33.538  32.846  1.00  0.00     0.338 C 
ATOM     33  O   UNL A   1      37.534  34.759  32.770  1.00  0.00    -0.246 OA
BRANCH  32  34
ATOM     34  C   UNL A   1      38.470  32.699  32.066  1.00  0.00     0.060 A 
ATOM     35  C   UNL A   1      39.379  31.872  32.741  1.00  0.00     0.016 A 
ATOM     36  C   UNL A   1      38.487  32.799  30.674  1.00  0.00     0.016 A 
ATOM     37  C   UNL A   1      40.344  31.171  32.023  1.00  0.00     0.010 A 
ATOM     38  C   UNL A   1      39.459  32.106  29.959  1.00  0.00     0.010 A 
ATOM     39  C   UNL A   1      40.411  31.322  30.633  1.00  0.00    -0.014 A 
BRANCH  39  40
ATOM     40  C   UNL A   1      41.581  30.827  29.875  1.00  0.00     0.031 A 
ATOM     41  C   UNL A   1      41.508  29.452  29.279  1.00  0.00     0.074 A 
ATOM     42  C   UNL A   1      42.698  31.566  29.777  1.00  0.00     0.049 A 
ATOM     43  N   UNL A   1      42.452  28.724  28.744  1.00  0.00    -0.248 NA
ATOM     44  C   UNL A   1      40.187  28.801  29.310  1.00  0.00     0.031 C 
ATOM     45  C   UNL A   1      42.856  32.928  30.281  1.00  0.00     0.029 A 
ATOM     46  N   UNL A   1      43.923  31.254  29.245  1.00  0.00    -0.354 N 
ATOM     47  C   UNL A   1      41.847  27.524  28.396  1.00  0.00     0.074 A 
ATOM     48  C   UNL A   1      40.461  27.609  28.802  1.00  0.00     0.031 C 
ATOM     49  C   UNL A   1      44.122  33.325  30.062  1.00  0.00     0.029 A 
ATOM     50  C   UNL A   1      44.868  32.229  29.449  1.00  0.00     0.049 A 
ATOM     51  H   UNL A   1      44.107  30.414  28.766  1.00  0.00     0.167 HD
ATOM     52  C   UNL A   1      42.404  26.450  27.791  1.00  0.00     0.037 A 
ATOM     53  C   UNL A   1      46.192  32.210  29.204  1.00  0.00     0.037 A 
ATOM     54  C   UNL A   1      43.787  26.383  27.399  1.00  0.00     0.049 A 
ATOM     55  C   UNL A   1      46.807  30.972  28.602  1.00  0.00     0.074 A 
ATOM     56  C   UNL A   1      44.455  25.355  26.759  1.00  0.00     0.029 A 
ATOM     57  N   UNL A   1      44.716  27.390  27.620  1.00  0.00    -0.354 N 
ATOM     58  N   UNL A   1      46.232  29.846  28.253  1.00  0.00    -0.248 NA
ATOM     59  C   UNL A   1      48.256  31.002  28.360  1.00  0.00     0.031 C 
ATOM     60  C   UNL A   1      45.802  25.713  26.651  1.00  0.00     0.029 A 
ATOM     61  C   UNL A   1      45.960  26.995  27.156  1.00  0.00     0.049 A 
ATOM     62  H   UNL A   1      44.522  28.256  28.045  1.00  0.00     0.167 HD
ATOM     63  C   UNL A   1      47.237  29.050  27.718  1.00  0.00     0.074 A 
ATOM     64  C   UNL A   1      48.458  29.826  27.783  1.00  0.00     0.031 C 
ATOM     65  C   UNL A   1      47.158  27.793  27.214  1.00  0.00     0.037 A 
BRANCH  52  66
ATOM     66  C   UNL A   1      41.531  25.252  27.552  1.00  0.00     0.064 A 
ATOM     67  C   UNL A   1      40.515  25.256  26.584  1.00  0.00     0.173 A 
ATOM     68  C   UNL A   1      41.731  24.071  28.284  1.00  0.00     0.173 A 
ATOM     69  F   UNL A   1      40.271  26.363  25.866  1.00  0.00    -0.203 F 
ATOM     70  C   UNL A   1      39.715  24.135  26.379  1.00  0.00     0.198 A 
ATOM     71  C   UNL A   1      40.952  22.941  28.052  1.00  0.00     0.198 A 
ATOM     72  F   UNL A   1      42.689  24.011  29.222  1.00  0.00    -0.203 F 
ATOM     73  F   UNL A   1      38.717  24.181  25.486  1.00  0.00    -0.200 F 
ATOM     74  C   UNL A   1      39.939  22.977  27.107  1.00  0.00     0.200 A 
ATOM     75  F   UNL A   1      41.180  21.818  28.748  1.00  0.00    -0.200 F 
ATOM     76  F   UNL A   1      39.174  21.895  26.902  1.00  0.00    -0.200 F 
ENDBRANCH  52  66
BRANCH  53  77
ATOM     77  C   UNL A   1      47.028  33.391  29.546  1.00  0.00     0.064 A 
ATOM     78  C   UNL A   1      47.605  33.520  30.817  1.00  0.00     0.173 A 
ATOM     79  C   UNL A   1      47.260  34.418  28.619  1.00  0.00     0.173 A 
ATOM     80  F   UNL A   1      47.395  32.576  31.747  1.00  0.00    -0.203 F 
ATOM     81  C   UNL A   1      48.361  34.640  31.155  1.00  0.00     0.198 A 
ATOM     82  C   UNL A   1      48.044  35.522  28.948  1.00  0.00     0.198 A 
ATOM     83  F   UNL A   1      46.733  34.344  27.388  1.00  0.00    -0.203 F 
ATOM     84  F   UNL A   1      48.858  34.761  32.394  1.00  0.00    -0.200 F 
ATOM     85  C   UNL A   1      48.585  35.637  30.218  1.00  0.00     0.200 A 
ATOM     86  F   UNL A   1      48.269  36.477  28.034  1.00  0.00    -0.200 F 
ATOM     87  F   UNL A   1      49.316  36.713  30.542  1.00  0.00    -0.200 F 
ENDBRANCH  53  77
BRANCH  65  88
ATOM     88  C   UNL A   1      48.409  27.196  26.637  1.00  0.00     0.064 A 
ATOM     89  C   UNL A   1      49.276  26.405  27.404  1.00  0.00     0.173 A 
ATOM     90  C   UNL A   1      48.704  27.361  25.274  1.00  0.00     0.173 A 
ATOM     91  F   UNL A   1      49.046  26.227  28.714  1.00  0.00    -0.203 F 
ATOM     92  C   UNL A   1      50.402  25.818  26.833  1.00  0.00     0.198 A 
ATOM     93  C   UNL A   1      49.810  26.744  24.699  1.00  0.00     0.198 A 
ATOM     94  F   UNL A   1      47.902  28.101  24.493  1.00  0.00    -0.203 F 
ATOM     95  F   UNL A   1      51.240  25.100  27.594  1.00  0.00    -0.200 F 
ATOM     96  C   UNL A   1      50.662  25.978  25.480  1.00  0.00     0.200 A 
ATOM     97  F   UNL A   1      50.048  26.885  23.387  1.00  0.00    -0.200 F 
ATOM     98  F   UNL A   1      51.735  25.396  24.928  1.00  0.00    -0.200 F 
ENDBRANCH  65  88
ENDBRANCH  39  40
ENDBRANCH  32  34
ENDBRANCH  31  32
ENDBRANCH  30  31
ENDBRANCH  29  30
ENDBRANCH  28  29
ENDBRANCH  27  28
ENDBRANCH  26  27
ENDBRANCH  25  26
ENDBRANCH   1  25
TORSDOF 24
ENDMDL
