MODEL 1
REMARK VINA RESULT:     -10.3      0.000      0.000
REMARK SMILES O=C(OCCOCCOCCOCCOC(=O)c1nsc2c1N=C(O)C[C@@H]2c1ccc(F)cc1Cl)c1ccc(-c2c3nc(c(-c4c(F)c(F)c(F)c(F)c4F)c4ccc([nH]4)c(-c4c(F)c(F)c(F)c(F)c4F)c4nc(c(-c5c(F)c(F)c(F)c(F)c5F)c5ccc2[nH]5)C=C4)C=C3)cc1
REMARK SMILES IDX 8 1 7 2 6 3 5 4 4 5 3 6 2 7 1 8 36 9 37 10 98 11 38 12 97 13
REMARK SMILES IDX 39 14 40 15 41 16 91 17 42 18 96 19 90 20 92 21 43 22 95 23
REMARK SMILES IDX 89 24 88 25 44 27 76 28 56 29 75 30 57 31 60 32 74 33 93 34
REMARK SMILES IDX 58 35 59 36 73 38 94 39 61 40 45 41 46 42 54 43 47 44 48 45
REMARK SMILES IDX 52 46 55 47 49 48 50 49 53 50 51 51 77 52 78 53 86 54 79 55
REMARK SMILES IDX 80 56 84 57 87 58 81 59 82 60 85 61 83 62 62 63 63 64 71 65
REMARK SMILES IDX 64 66 65 67 69 68 72 69 66 70 67 71 70 72 68 73 9 74 10 75
REMARK SMILES IDX 11 76 12 77 13 78 14 79 15 80 16 81 17 82 18 83 19 84 22 85
REMARK SMILES IDX 20 86 21 87 23 88 27 89 24 90 26 91 28 92 29 93 34 94 30 95
REMARK SMILES IDX 33 96 35 97 31 98 32 99 25 100
REMARK H PARENT 92 26 60 37 25 101
REMARK Flexibility Score: inf
ROOT
ATOM      1  C   UNL A   1      41.298  22.554  26.831  1.00  0.00     0.188 C 
ENDROOT
BRANCH   1   2
ATOM      2  C   UNL A   1      42.530  21.899  26.180  1.00  0.00     0.188 C 
BRANCH   2   3
ATOM      3  O   UNL A   1      43.007  22.174  24.861  1.00  0.00    -0.376 OA
BRANCH   3   4
ATOM      4  C   UNL A   1      43.928  23.186  24.527  1.00  0.00     0.202 C 
BRANCH   4   5
ATOM      5  C   UNL A   1      44.151  24.287  25.567  1.00  0.00     0.261 C 
BRANCH   5   6
ATOM      6  O   UNL A   1      43.461  25.516  25.323  1.00  0.00    -0.460 OA
BRANCH   6   7
ATOM      7  C   UNL A   1      42.142  25.792  25.377  1.00  0.00     0.338 C 
ATOM      8  O   UNL A   1      41.390  25.169  24.626  1.00  0.00    -0.246 OA
BRANCH   7   9
ATOM      9  C   UNL A   1      41.520  26.811  26.266  1.00  0.00     0.060 A 
ATOM     10  C   UNL A   1      41.649  28.195  26.142  1.00  0.00     0.016 A 
ATOM     11  C   UNL A   1      40.806  26.293  27.366  1.00  0.00     0.016 A 
ATOM     12  C   UNL A   1      41.251  29.029  27.166  1.00  0.00     0.010 A 
ATOM     13  C   UNL A   1      40.388  27.121  28.390  1.00  0.00     0.010 A 
ATOM     14  C   UNL A   1      40.703  28.471  28.314  1.00  0.00    -0.014 A 
BRANCH  14  15
ATOM     15  C   UNL A   1      40.520  29.362  29.438  1.00  0.00     0.031 A 
ATOM     16  C   UNL A   1      39.316  30.219  29.372  1.00  0.00     0.074 A 
ATOM     17  C   UNL A   1      41.406  29.357  30.453  1.00  0.00     0.049 A 
ATOM     18  N   UNL A   1      39.254  31.510  29.399  1.00  0.00    -0.248 NA
ATOM     19  C   UNL A   1      38.025  29.558  29.128  1.00  0.00     0.031 C 
ATOM     20  C   UNL A   1      42.481  28.389  30.687  1.00  0.00     0.029 A 
ATOM     21  N   UNL A   1      41.459  30.150  31.556  1.00  0.00    -0.354 N 
ATOM     22  C   UNL A   1      37.897  31.823  29.367  1.00  0.00     0.074 A 
ATOM     23  C   UNL A   1      37.205  30.604  29.043  1.00  0.00     0.031 C 
ATOM     24  C   UNL A   1      42.903  28.500  31.964  1.00  0.00     0.029 A 
ATOM     25  C   UNL A   1      42.213  29.615  32.588  1.00  0.00     0.049 A 
ATOM     26  H   UNL A   1      41.004  31.021  31.616  1.00  0.00     0.167 HD
ATOM     27  C   UNL A   1      37.447  32.994  29.893  1.00  0.00     0.037 A 
ATOM     28  C   UNL A   1      42.185  29.999  33.887  1.00  0.00     0.037 A 
ATOM     29  C   UNL A   1      38.490  33.993  29.895  1.00  0.00     0.049 A 
ATOM     30  C   UNL A   1      41.593  31.359  33.940  1.00  0.00     0.074 A 
ATOM     31  C   UNL A   1      39.278  34.579  28.922  1.00  0.00     0.029 A 
ATOM     32  N   UNL A   1      39.088  34.310  31.088  1.00  0.00    -0.354 N 
ATOM     33  N   UNL A   1      42.183  32.433  33.492  1.00  0.00    -0.248 NA
ATOM     34  C   UNL A   1      40.151  31.471  34.111  1.00  0.00     0.031 C 
ATOM     35  C   UNL A   1      40.539  34.809  29.548  1.00  0.00     0.029 A 
ATOM     36  C   UNL A   1      40.437  34.391  30.874  1.00  0.00     0.049 A 
ATOM     37  H   UNL A   1      38.628  34.454  31.947  1.00  0.00     0.167 HD
ATOM     38  C   UNL A   1      41.167  33.179  32.917  1.00  0.00     0.074 A 
ATOM     39  C   UNL A   1      39.931  32.598  33.430  1.00  0.00     0.031 C 
ATOM     40  C   UNL A   1      41.419  34.003  31.857  1.00  0.00     0.037 A 
BRANCH  27  41
ATOM     41  C   UNL A   1      36.252  33.067  30.829  1.00  0.00     0.064 A 
ATOM     42  C   UNL A   1      35.193  33.935  30.491  1.00  0.00     0.173 A 
ATOM     43  C   UNL A   1      36.260  32.624  32.171  1.00  0.00     0.173 A 
ATOM     44  F   UNL A   1      35.062  34.398  29.239  1.00  0.00    -0.203 F 
ATOM     45  C   UNL A   1      34.326  34.452  31.456  1.00  0.00     0.198 A 
ATOM     46  C   UNL A   1      35.363  33.107  33.121  1.00  0.00     0.198 A 
ATOM     47  F   UNL A   1      37.186  31.793  32.657  1.00  0.00    -0.203 F 
ATOM     48  F   UNL A   1      33.450  35.408  31.117  1.00  0.00    -0.200 F 
ATOM     49  C   UNL A   1      34.429  34.057  32.776  1.00  0.00     0.200 A 
ATOM     50  F   UNL A   1      35.480  32.708  34.396  1.00  0.00    -0.200 F 
ATOM     51  F   UNL A   1      33.664  34.620  33.719  1.00  0.00    -0.200 F 
ENDBRANCH  27  41
BRANCH  28  52
ATOM     52  C   UNL A   1      42.343  29.141  35.085  1.00  0.00     0.064 A 
ATOM     53  C   UNL A   1      41.597  27.961  35.229  1.00  0.00     0.173 A 
ATOM     54  C   UNL A   1      43.405  29.323  35.996  1.00  0.00     0.173 A 
ATOM     55  F   UNL A   1      40.602  27.685  34.375  1.00  0.00    -0.203 F 
ATOM     56  C   UNL A   1      41.905  27.014  36.211  1.00  0.00     0.198 A 
ATOM     57  C   UNL A   1      43.701  28.386  36.986  1.00  0.00     0.198 A 
ATOM     58  F   UNL A   1      44.239  30.366  35.890  1.00  0.00    -0.203 F 
ATOM     59  F   UNL A   1      41.213  25.868  36.275  1.00  0.00    -0.200 F 
ATOM     60  C   UNL A   1      42.961  27.224  37.084  1.00  0.00     0.200 A 
ATOM     61  F   UNL A   1      44.746  28.588  37.800  1.00  0.00    -0.200 F 
ATOM     62  F   UNL A   1      43.290  26.292  37.988  1.00  0.00    -0.200 F 
ENDBRANCH  28  52
BRANCH  40  63
ATOM     63  C   UNL A   1      42.851  34.326  31.555  1.00  0.00     0.064 A 
ATOM     64  C   UNL A   1      43.655  33.585  30.671  1.00  0.00     0.173 A 
ATOM     65  C   UNL A   1      43.396  35.499  32.095  1.00  0.00     0.173 A 
ATOM     66  F   UNL A   1      43.169  32.515  30.029  1.00  0.00    -0.203 F 
ATOM     67  C   UNL A   1      44.965  33.970  30.394  1.00  0.00     0.198 A 
ATOM     68  C   UNL A   1      44.691  35.902  31.785  1.00  0.00     0.198 A 
ATOM     69  F   UNL A   1      42.653  36.278  32.897  1.00  0.00    -0.203 F 
ATOM     70  F   UNL A   1      45.721  33.234  29.566  1.00  0.00    -0.200 F 
ATOM     71  C   UNL A   1      45.480  35.131  30.948  1.00  0.00     0.200 A 
ATOM     72  F   UNL A   1      45.166  37.053  32.281  1.00  0.00    -0.200 F 
ATOM     73  F   UNL A   1      46.728  35.520  30.653  1.00  0.00    -0.200 F 
ENDBRANCH  40  63
ENDBRANCH  14  15
ENDBRANCH   7   9
ENDBRANCH   6   7
ENDBRANCH   5   6
ENDBRANCH   4   5
ENDBRANCH   3   4
ENDBRANCH   2   3
ENDBRANCH   1   2
BRANCH   1  74
ATOM     74  O   UNL A   1      40.042  22.076  26.377  1.00  0.00    -0.377 OA
BRANCH  74  75
ATOM     75  C   UNL A   1      38.985  23.005  26.460  1.00  0.00     0.188 C 
BRANCH  75  76
ATOM     76  C   UNL A   1      37.751  22.625  25.617  1.00  0.00     0.188 C 
BRANCH  76  77
ATOM     77  O   UNL A   1      36.798  21.668  26.064  1.00  0.00    -0.376 OA
BRANCH  77  78
ATOM     78  C   UNL A   1      35.404  21.926  26.032  1.00  0.00     0.202 C 
BRANCH  78  79
ATOM     79  C   UNL A   1      34.491  21.162  25.063  1.00  0.00     0.261 C 
BRANCH  79  80
ATOM     80  O   UNL A   1      34.137  21.852  23.866  1.00  0.00    -0.458 OA
BRANCH  80  81
ATOM     81  C   UNL A   1      32.810  21.882  23.551  1.00  0.00     0.360 C 
ATOM     82  O   UNL A   1      32.218  20.981  22.956  1.00  0.00    -0.244 OA
BRANCH  81  83
ATOM     83  C   UNL A   1      32.143  23.056  24.123  1.00  0.00     0.188 A 
ATOM     84  N   UNL A   1      31.319  22.923  25.178  1.00  0.00    -0.183 NA
ATOM     85  C   UNL A   1      32.303  24.401  23.676  1.00  0.00     0.116 A 
ATOM     86  S   UNL A   1      30.749  24.415  25.629  1.00  0.00    -0.038 S 
ATOM     87  C   UNL A   1      31.570  25.287  24.427  1.00  0.00     0.060 A 
ATOM     88  N   UNL A   1      33.033  24.778  22.542  1.00  0.00    -0.214 NA
ATOM     89  C   UNL A   1      31.373  26.721  24.097  1.00  0.00     0.074 C 
ATOM     90  C   UNL A   1      32.693  25.927  22.062  1.00  0.00     0.187 C 
ATOM     91  C   UNL A   1      31.611  26.854  22.570  1.00  0.00     0.111 C 
BRANCH  89  92
ATOM     92  C   UNL A   1      32.084  27.825  24.891  1.00  0.00    -0.020 A 
ATOM     93  C   UNL A   1      33.228  27.384  25.612  1.00  0.00     0.009 A 
ATOM     94  C   UNL A   1      31.771  29.195  24.978  1.00  0.00     0.047 A 
ATOM     95  C   UNL A   1      33.998  28.244  26.394  1.00  0.00     0.039 A 
ATOM     96  C   UNL A   1      32.565  30.064  25.749  1.00  0.00     0.060 A 
ATOM     97  Cl  UNL A   1      30.431  29.941  24.191  1.00  0.00    -0.084 Cl
ATOM     98  C   UNL A   1      33.660  29.582  26.451  1.00  0.00     0.124 A 
ATOM     99  F   UNL A   1      34.399  30.418  27.190  1.00  0.00    -0.207 F 
ENDBRANCH  89  92
BRANCH  90 100
ATOM    100  O   UNL A   1      33.277  26.329  20.917  1.00  0.00    -0.496 OA
ATOM    101  H   UNL A   1      33.562  27.217  20.824  1.00  0.00     0.294 HD
ENDBRANCH  90 100
ENDBRANCH  81  83
ENDBRANCH  80  81
ENDBRANCH  79  80
ENDBRANCH  78  79
ENDBRANCH  77  78
ENDBRANCH  76  77
ENDBRANCH  75  76
ENDBRANCH  74  75
ENDBRANCH   1  74
TORSDOF 22
ENDMDL
MODEL 2
REMARK VINA RESULT:     -10.0      5.699     11.376
REMARK SMILES O=C(OCCOCCOCCOCCOC(=O)c1nsc2c1N=C(O)C[C@@H]2c1ccc(F)cc1Cl)c1ccc(-c2c3nc(c(-c4c(F)c(F)c(F)c(F)c4F)c4ccc([nH]4)c(-c4c(F)c(F)c(F)c(F)c4F)c4nc(c(-c5c(F)c(F)c(F)c(F)c5F)c5ccc2[nH]5)C=C4)C=C3)cc1
REMARK SMILES IDX 8 1 7 2 6 3 5 4 4 5 3 6 2 7 1 8 36 9 37 10 98 11 38 12 97 13
REMARK SMILES IDX 39 14 40 15 41 16 91 17 42 18 96 19 90 20 92 21 43 22 95 23
REMARK SMILES IDX 89 24 88 25 44 27 76 28 56 29 75 30 57 31 60 32 74 33 93 34
REMARK SMILES IDX 58 35 59 36 73 38 94 39 61 40 45 41 46 42 54 43 47 44 48 45
REMARK SMILES IDX 52 46 55 47 49 48 50 49 53 50 51 51 77 52 78 53 86 54 79 55
REMARK SMILES IDX 80 56 84 57 87 58 81 59 82 60 85 61 83 62 62 63 63 64 71 65
REMARK SMILES IDX 64 66 65 67 69 68 72 69 66 70 67 71 70 72 68 73 9 74 10 75
REMARK SMILES IDX 11 76 12 77 13 78 14 79 15 80 16 81 17 82 18 83 19 84 22 85
REMARK SMILES IDX 20 86 21 87 23 88 27 89 24 90 26 91 28 92 29 93 34 94 30 95
REMARK SMILES IDX 33 96 35 97 31 98 32 99 25 100
REMARK H PARENT 92 26 60 37 25 101
REMARK Flexibility Score: inf
ROOT
ATOM      1  C   UNL A   1      45.538  21.392  24.834  1.00  0.00     0.188 C 
ENDROOT
BRANCH   1   2
ATOM      2  C   UNL A   1      44.410  20.346  24.905  1.00  0.00     0.188 C 
BRANCH   2   3
ATOM      3  O   UNL A   1      43.085  20.596  25.376  1.00  0.00    -0.376 OA
BRANCH   3   4
ATOM      4  C   UNL A   1      42.362  19.757  26.247  1.00  0.00     0.202 C 
BRANCH   4   5
ATOM      5  C   UNL A   1      40.843  19.944  26.282  1.00  0.00     0.261 C 
BRANCH   5   6
ATOM      6  O   UNL A   1      40.371  21.018  27.100  1.00  0.00    -0.460 OA
BRANCH   6   7
ATOM      7  C   UNL A   1      39.834  22.203  26.747  1.00  0.00     0.338 C 
ATOM      8  O   UNL A   1      38.791  22.192  26.090  1.00  0.00    -0.246 OA
BRANCH   7   9
ATOM      9  C   UNL A   1      40.412  23.534  27.077  1.00  0.00     0.060 A 
ATOM     10  C   UNL A   1      41.491  23.769  27.932  1.00  0.00     0.016 A 
ATOM     11  C   UNL A   1      39.739  24.638  26.517  1.00  0.00     0.016 A 
ATOM     12  C   UNL A   1      41.772  25.047  28.367  1.00  0.00     0.010 A 
ATOM     13  C   UNL A   1      40.024  25.925  26.933  1.00  0.00     0.010 A 
ATOM     14  C   UNL A   1      40.978  26.098  27.927  1.00  0.00    -0.014 A 
BRANCH  14  15
ATOM     15  C   UNL A   1      41.169  27.370  28.589  1.00  0.00     0.031 A 
ATOM     16  C   UNL A   1      42.386  28.111  28.188  1.00  0.00     0.074 A 
ATOM     17  C   UNL A   1      40.263  27.806  29.484  1.00  0.00     0.049 A 
ATOM     18  N   UNL A   1      43.358  28.511  28.940  1.00  0.00    -0.248 NA
ATOM     19  C   UNL A   1      42.602  28.333  26.751  1.00  0.00     0.031 C 
ATOM     20  C   UNL A   1      38.940  27.236  29.757  1.00  0.00     0.029 A 
ATOM     21  N   UNL A   1      40.284  28.922  30.259  1.00  0.00    -0.354 N 
ATOM     22  C   UNL A   1      44.223  29.206  28.097  1.00  0.00     0.074 A 
ATOM     23  C   UNL A   1      43.794  28.929  26.753  1.00  0.00     0.031 C 
ATOM     24  C   UNL A   1      38.201  28.142  30.432  1.00  0.00     0.029 A 
ATOM     25  C   UNL A   1      39.035  29.292  30.735  1.00  0.00     0.049 A 
ATOM     26  H   UNL A   1      41.107  29.421  30.464  1.00  0.00     0.167 HD
ATOM     27  C   UNL A   1      45.038  30.175  28.594  1.00  0.00     0.037 A 
ATOM     28  C   UNL A   1      38.693  30.500  31.242  1.00  0.00     0.037 A 
ATOM     29  C   UNL A   1      45.303  29.958  29.996  1.00  0.00     0.049 A 
ATOM     30  C   UNL A   1      39.946  31.190  31.641  1.00  0.00     0.074 A 
ATOM     31  C   UNL A   1      45.859  28.928  30.733  1.00  0.00     0.029 A 
ATOM     32  N   UNL A   1      44.679  30.766  30.913  1.00  0.00    -0.354 N 
ATOM     33  N   UNL A   1      40.694  30.827  32.645  1.00  0.00    -0.248 NA
ATOM     34  C   UNL A   1      40.601  32.041  30.657  1.00  0.00     0.031 C 
ATOM     35  C   UNL A   1      45.148  28.924  31.970  1.00  0.00     0.029 A 
ATOM     36  C   UNL A   1      44.231  29.974  31.935  1.00  0.00     0.049 A 
ATOM     37  H   UNL A   1      44.573  31.742  30.847  1.00  0.00     0.167 HD
ATOM     38  C   UNL A   1      41.994  31.021  32.204  1.00  0.00     0.074 A 
ATOM     39  C   UNL A   1      41.872  31.877  31.028  1.00  0.00     0.031 C 
ATOM     40  C   UNL A   1      43.012  30.235  32.661  1.00  0.00     0.037 A 
BRANCH  27  41
ATOM     41  C   UNL A   1      45.175  31.543  27.945  1.00  0.00     0.064 A 
ATOM     42  C   UNL A   1      46.472  32.027  27.678  1.00  0.00     0.173 A 
ATOM     43  C   UNL A   1      44.152  32.518  27.913  1.00  0.00     0.173 A 
ATOM     44  F   UNL A   1      47.521  31.191  27.650  1.00  0.00    -0.203 F 
ATOM     45  C   UNL A   1      46.742  33.393  27.567  1.00  0.00     0.198 A 
ATOM     46  C   UNL A   1      44.421  33.875  27.754  1.00  0.00     0.198 A 
ATOM     47  F   UNL A   1      42.866  32.231  28.135  1.00  0.00    -0.203 F 
ATOM     48  F   UNL A   1      48.012  33.814  27.490  1.00  0.00    -0.200 F 
ATOM     49  C   UNL A   1      45.718  34.318  27.630  1.00  0.00     0.200 A 
ATOM     50  F   UNL A   1      43.411  34.756  27.818  1.00  0.00    -0.200 F 
ATOM     51  F   UNL A   1      45.982  35.630  27.620  1.00  0.00    -0.200 F 
ENDBRANCH  27  41
BRANCH  28  52
ATOM     52  C   UNL A   1      37.395  31.202  31.106  1.00  0.00     0.064 A 
ATOM     53  C   UNL A   1      36.621  31.508  32.236  1.00  0.00     0.173 A 
ATOM     54  C   UNL A   1      37.000  31.811  29.896  1.00  0.00     0.173 A 
ATOM     55  F   UNL A   1      36.954  31.013  33.436  1.00  0.00    -0.203 F 
ATOM     56  C   UNL A   1      35.531  32.382  32.164  1.00  0.00     0.198 A 
ATOM     57  C   UNL A   1      35.903  32.668  29.821  1.00  0.00     0.198 A 
ATOM     58  F   UNL A   1      37.723  31.663  28.777  1.00  0.00    -0.203 F 
ATOM     59  F   UNL A   1      34.857  32.703  33.276  1.00  0.00    -0.200 F 
ATOM     60  C   UNL A   1      35.178  32.966  30.958  1.00  0.00     0.200 A 
ATOM     61  F   UNL A   1      35.595  33.252  28.654  1.00  0.00    -0.200 F 
ATOM     62  F   UNL A   1      34.169  33.846  30.899  1.00  0.00    -0.200 F 
ENDBRANCH  28  52
BRANCH  40  63
ATOM     63  C   UNL A   1      42.749  29.396  33.876  1.00  0.00     0.064 A 
ATOM     64  C   UNL A   1      42.058  28.172  33.851  1.00  0.00     0.173 A 
ATOM     65  C   UNL A   1      43.319  29.792  35.093  1.00  0.00     0.173 A 
ATOM     66  F   UNL A   1      41.582  27.671  32.704  1.00  0.00    -0.203 F 
ATOM     67  C   UNL A   1      41.893  27.414  35.009  1.00  0.00     0.198 A 
ATOM     68  C   UNL A   1      43.186  29.014  36.239  1.00  0.00     0.198 A 
ATOM     69  F   UNL A   1      44.041  30.921  35.161  1.00  0.00    -0.203 F 
ATOM     70  F   UNL A   1      41.209  26.262  34.966  1.00  0.00    -0.200 F 
ATOM     71  C   UNL A   1      42.461  27.834  36.201  1.00  0.00     0.200 A 
ATOM     72  F   UNL A   1      43.781  29.397  37.377  1.00  0.00    -0.200 F 
ATOM     73  F   UNL A   1      42.332  27.088  37.306  1.00  0.00    -0.200 F 
ENDBRANCH  40  63
ENDBRANCH  14  15
ENDBRANCH   7   9
ENDBRANCH   6   7
ENDBRANCH   5   6
ENDBRANCH   4   5
ENDBRANCH   3   4
ENDBRANCH   2   3
ENDBRANCH   1   2
BRANCH   1  74
ATOM     74  O   UNL A   1      46.029  21.845  26.084  1.00  0.00    -0.377 OA
BRANCH  74  75
ATOM     75  C   UNL A   1      45.477  23.062  26.535  1.00  0.00     0.188 C 
BRANCH  75  76
ATOM     76  C   UNL A   1      46.531  24.118  26.929  1.00  0.00     0.188 C 
BRANCH  76  77
ATOM     77  O   UNL A   1      46.224  25.201  27.799  1.00  0.00    -0.376 OA
BRANCH  77  78
ATOM     78  C   UNL A   1      46.552  26.541  27.473  1.00  0.00     0.202 C 
BRANCH  78  79
ATOM     79  C   UNL A   1      47.933  26.889  26.900  1.00  0.00     0.261 C 
BRANCH  79  80
ATOM     80  O   UNL A   1      47.976  27.160  25.500  1.00  0.00    -0.458 OA
BRANCH  80  81
ATOM     81  C   UNL A   1      49.005  26.596  24.803  1.00  0.00     0.360 C 
ATOM     82  O   UNL A   1      49.737  25.710  25.244  1.00  0.00    -0.244 OA
BRANCH  81  83
ATOM     83  C   UNL A   1      49.050  27.077  23.419  1.00  0.00     0.188 A 
ATOM     84  N   UNL A   1      47.916  27.420  22.781  1.00  0.00    -0.183 NA
ATOM     85  C   UNL A   1      50.232  27.256  22.640  1.00  0.00     0.116 A 
ATOM     86  S   UNL A   1      48.279  27.963  21.255  1.00  0.00    -0.038 S 
ATOM     87  C   UNL A   1      49.957  27.747  21.387  1.00  0.00     0.060 A 
ATOM     88  N   UNL A   1      51.516  26.882  23.052  1.00  0.00    -0.214 NA
ATOM     89  C   UNL A   1      50.943  27.857  20.282  1.00  0.00     0.074 C 
ATOM     90  C   UNL A   1      52.345  26.705  22.078  1.00  0.00     0.187 C 
ATOM     91  C   UNL A   1      52.066  26.834  20.597  1.00  0.00     0.111 C 
BRANCH  89  92
ATOM     92  C   UNL A   1      51.506  29.218  19.852  1.00  0.00    -0.020 A 
ATOM     93  C   UNL A   1      51.512  30.201  20.880  1.00  0.00     0.009 A 
ATOM     94  C   UNL A   1      52.027  29.606  18.602  1.00  0.00     0.047 A 
ATOM     95  C   UNL A   1      51.981  31.498  20.673  1.00  0.00     0.039 A 
ATOM     96  C   UNL A   1      52.522  30.908  18.405  1.00  0.00     0.060 A 
ATOM     97  Cl  UNL A   1      52.112  28.579  17.220  1.00  0.00    -0.084 Cl
ATOM     98  C   UNL A   1      52.489  31.838  19.434  1.00  0.00     0.124 A 
ATOM     99  F   UNL A   1      52.952  33.077  19.228  1.00  0.00    -0.207 F 
ENDBRANCH  89  92
BRANCH  90 100
ATOM    100  O   UNL A   1      53.578  26.252  22.374  1.00  0.00    -0.496 OA
ATOM    101  H   UNL A   1      54.136  25.935  21.692  1.00  0.00     0.294 HD
ENDBRANCH  90 100
ENDBRANCH  81  83
ENDBRANCH  80  81
ENDBRANCH  79  80
ENDBRANCH  78  79
ENDBRANCH  77  78
ENDBRANCH  76  77
ENDBRANCH  75  76
ENDBRANCH  74  75
ENDBRANCH   1  74
TORSDOF 22
ENDMDL
MODEL 3
REMARK VINA RESULT:      -9.7      2.658      6.574
REMARK SMILES O=C(OCCOCCOCCOCCOC(=O)c1nsc2c1N=C(O)C[C@@H]2c1ccc(F)cc1Cl)c1ccc(-c2c3nc(c(-c4c(F)c(F)c(F)c(F)c4F)c4ccc([nH]4)c(-c4c(F)c(F)c(F)c(F)c4F)c4nc(c(-c5c(F)c(F)c(F)c(F)c5F)c5ccc2[nH]5)C=C4)C=C3)cc1
REMARK SMILES IDX 8 1 7 2 6 3 5 4 4 5 3 6 2 7 1 8 36 9 37 10 98 11 38 12 97 13
REMARK SMILES IDX 39 14 40 15 41 16 91 17 42 18 96 19 90 20 92 21 43 22 95 23
REMARK SMILES IDX 89 24 88 25 44 27 76 28 56 29 75 30 57 31 60 32 74 33 93 34
REMARK SMILES IDX 58 35 59 36 73 38 94 39 61 40 45 41 46 42 54 43 47 44 48 45
REMARK SMILES IDX 52 46 55 47 49 48 50 49 53 50 51 51 77 52 78 53 86 54 79 55
REMARK SMILES IDX 80 56 84 57 87 58 81 59 82 60 85 61 83 62 62 63 63 64 71 65
REMARK SMILES IDX 64 66 65 67 69 68 72 69 66 70 67 71 70 72 68 73 9 74 10 75
REMARK SMILES IDX 11 76 12 77 13 78 14 79 15 80 16 81 17 82 18 83 19 84 22 85
REMARK SMILES IDX 20 86 21 87 23 88 27 89 24 90 26 91 28 92 29 93 34 94 30 95
REMARK SMILES IDX 33 96 35 97 31 98 32 99 25 100
REMARK H PARENT 92 26 60 37 25 101
REMARK Flexibility Score: inf
ROOT
ATOM      1  C   UNL A   1      42.450  22.689  27.099  1.00  0.00     0.188 C 
ENDROOT
BRANCH   1   2
ATOM      2  C   UNL A   1      42.402  22.282  25.615  1.00  0.00     0.188 C 
BRANCH   2   3
ATOM      3  O   UNL A   1      43.368  22.650  24.629  1.00  0.00    -0.376 OA
BRANCH   3   4
ATOM      4  C   UNL A   1      44.527  21.913  24.313  1.00  0.00     0.202 C 
BRANCH   4   5
ATOM      5  C   UNL A   1      45.516  21.662  25.454  1.00  0.00     0.261 C 
BRANCH   5   6
ATOM      6  O   UNL A   1      46.499  22.681  25.655  1.00  0.00    -0.460 OA
BRANCH   6   7
ATOM      7  C   UNL A   1      46.655  23.867  25.032  1.00  0.00     0.338 C 
ATOM      8  O   UNL A   1      47.061  23.859  23.869  1.00  0.00    -0.246 OA
BRANCH   7   9
ATOM      9  C   UNL A   1      46.388  25.195  25.647  1.00  0.00     0.060 A 
ATOM     10  C   UNL A   1      47.040  25.728  26.761  1.00  0.00     0.016 A 
ATOM     11  C   UNL A   1      45.323  25.921  25.074  1.00  0.00     0.016 A 
ATOM     12  C   UNL A   1      46.537  26.842  27.399  1.00  0.00     0.010 A 
ATOM     13  C   UNL A   1      44.821  27.048  25.697  1.00  0.00     0.010 A 
ATOM     14  C   UNL A   1      45.382  27.436  26.906  1.00  0.00    -0.014 A 
BRANCH  14  15
ATOM     15  C   UNL A   1      44.773  28.449  27.740  1.00  0.00     0.031 A 
ATOM     16  C   UNL A   1      45.444  29.768  27.718  1.00  0.00     0.074 A 
ATOM     17  C   UNL A   1      43.666  28.161  28.449  1.00  0.00     0.049 A 
ATOM     18  N   UNL A   1      45.941  30.425  28.714  1.00  0.00    -0.248 NA
ATOM     19  C   UNL A   1      45.695  30.381  26.406  1.00  0.00     0.031 C 
ATOM     20  C   UNL A   1      42.831  26.960  28.343  1.00  0.00     0.029 A 
ATOM     21  N   UNL A   1      42.983  28.934  29.335  1.00  0.00    -0.354 N 
ATOM     22  C   UNL A   1      46.402  31.626  28.180  1.00  0.00     0.074 A 
ATOM     23  C   UNL A   1      46.370  31.476  26.750  1.00  0.00     0.031 C 
ATOM     24  C   UNL A   1      41.641  27.198  28.933  1.00  0.00     0.029 A 
ATOM     25  C   UNL A   1      41.681  28.511  29.553  1.00  0.00     0.049 A 
ATOM     26  H   UNL A   1      43.376  29.719  29.780  1.00  0.00     0.167 HD
ATOM     27  C   UNL A   1      46.497  32.736  28.961  1.00  0.00     0.037 A 
ATOM     28  C   UNL A   1      40.682  29.238  30.108  1.00  0.00     0.037 A 
ATOM     29  C   UNL A   1      46.650  32.377  30.351  1.00  0.00     0.049 A 
ATOM     30  C   UNL A   1      41.305  30.355  30.861  1.00  0.00     0.074 A 
ATOM     31  C   UNL A   1      47.568  31.632  31.069  1.00  0.00     0.029 A 
ATOM     32  N   UNL A   1      45.577  32.537  31.190  1.00  0.00    -0.354 N 
ATOM     33  N   UNL A   1      41.991  30.204  31.960  1.00  0.00    -0.248 NA
ATOM     34  C   UNL A   1      41.525  31.612  30.161  1.00  0.00     0.031 C 
ATOM     35  C   UNL A   1      46.814  30.998  32.101  1.00  0.00     0.029 A 
ATOM     36  C   UNL A   1      45.492  31.423  31.981  1.00  0.00     0.049 A 
ATOM     37  H   UNL A   1      44.973  33.314  31.217  1.00  0.00     0.167 HD
ATOM     38  C   UNL A   1      43.029  31.117  31.854  1.00  0.00     0.074 A 
ATOM     39  C   UNL A   1      42.625  32.031  30.791  1.00  0.00     0.031 C 
ATOM     40  C   UNL A   1      44.240  30.869  32.435  1.00  0.00     0.037 A 
BRANCH  27  41
ATOM     41  C   UNL A   1      45.965  34.092  28.527  1.00  0.00     0.064 A 
ATOM     42  C   UNL A   1      46.755  35.231  28.784  1.00  0.00     0.173 A 
ATOM     43  C   UNL A   1      44.611  34.357  28.221  1.00  0.00     0.173 A 
ATOM     44  F   UNL A   1      48.063  35.108  29.057  1.00  0.00    -0.203 F 
ATOM     45  C   UNL A   1      46.198  36.506  28.897  1.00  0.00     0.198 A 
ATOM     46  C   UNL A   1      44.068  35.638  28.289  1.00  0.00     0.198 A 
ATOM     47  F   UNL A   1      43.726  33.395  27.945  1.00  0.00    -0.203 F 
ATOM     48  F   UNL A   1      46.958  37.528  29.314  1.00  0.00    -0.200 F 
ATOM     49  C   UNL A   1      44.849  36.704  28.674  1.00  0.00     0.200 A 
ATOM     50  F   UNL A   1      42.756  35.807  28.067  1.00  0.00    -0.200 F 
ATOM     51  F   UNL A   1      44.292  37.905  28.874  1.00  0.00    -0.200 F 
ENDBRANCH  27  41
BRANCH  28  52
ATOM     52  C   UNL A   1      39.241  29.203  29.762  1.00  0.00     0.064 A 
ATOM     53  C   UNL A   1      38.260  29.220  30.766  1.00  0.00     0.173 A 
ATOM     54  C   UNL A   1      38.786  29.406  28.443  1.00  0.00     0.173 A 
ATOM     55  F   UNL A   1      38.610  29.084  32.053  1.00  0.00    -0.203 F 
ATOM     56  C   UNL A   1      36.911  29.443  30.470  1.00  0.00     0.198 A 
ATOM     57  C   UNL A   1      37.439  29.611  28.146  1.00  0.00     0.198 A 
ATOM     58  F   UNL A   1      39.646  29.504  27.420  1.00  0.00    -0.203 F 
ATOM     59  F   UNL A   1      36.013  29.518  31.462  1.00  0.00    -0.200 F 
ATOM     60  C   UNL A   1      36.504  29.645  29.161  1.00  0.00     0.200 A 
ATOM     61  F   UNL A   1      37.065  29.839  26.879  1.00  0.00    -0.200 F 
ATOM     62  F   UNL A   1      35.221  29.913  28.884  1.00  0.00    -0.200 F 
ENDBRANCH  28  52
BRANCH  40  63
ATOM     63  C   UNL A   1      44.310  29.767  33.449  1.00  0.00     0.064 A 
ATOM     64  C   UNL A   1      44.019  29.935  34.815  1.00  0.00     0.173 A 
ATOM     65  C   UNL A   1      44.571  28.466  32.999  1.00  0.00     0.173 A 
ATOM     66  F   UNL A   1      43.650  31.126  35.300  1.00  0.00    -0.203 F 
ATOM     67  C   UNL A   1      44.053  28.855  35.696  1.00  0.00     0.198 A 
ATOM     68  C   UNL A   1      44.565  27.385  33.875  1.00  0.00     0.198 A 
ATOM     69  F   UNL A   1      44.796  28.238  31.695  1.00  0.00    -0.203 F 
ATOM     70  F   UNL A   1      43.795  29.043  36.999  1.00  0.00    -0.200 F 
ATOM     71  C   UNL A   1      44.321  27.581  35.224  1.00  0.00     0.200 A 
ATOM     72  F   UNL A   1      44.774  26.147  33.405  1.00  0.00    -0.200 F 
ATOM     73  F   UNL A   1      44.319  26.538  36.066  1.00  0.00    -0.200 F 
ENDBRANCH  40  63
ENDBRANCH  14  15
ENDBRANCH   7   9
ENDBRANCH   6   7
ENDBRANCH   5   6
ENDBRANCH   4   5
ENDBRANCH   3   4
ENDBRANCH   2   3
ENDBRANCH   1   2
BRANCH   1  74
ATOM     74  O   UNL A   1      41.190  22.910  27.711  1.00  0.00    -0.377 OA
BRANCH  74  75
ATOM     75  C   UNL A   1      40.195  23.429  26.858  1.00  0.00     0.188 C 
BRANCH  75  76
ATOM     76  C   UNL A   1      39.078  22.422  26.516  1.00  0.00     0.188 C 
BRANCH  76  77
ATOM     77  O   UNL A   1      38.090  22.699  25.529  1.00  0.00    -0.376 OA
BRANCH  77  78
ATOM     78  C   UNL A   1      37.343  21.667  24.906  1.00  0.00     0.202 C 
BRANCH  78  79
ATOM     79  C   UNL A   1      35.939  21.947  24.352  1.00  0.00     0.261 C 
BRANCH  79  80
ATOM     80  O   UNL A   1      34.862  21.790  25.274  1.00  0.00    -0.458 OA
BRANCH  80  81
ATOM     81  C   UNL A   1      33.618  21.632  24.736  1.00  0.00     0.360 C 
ATOM     82  O   UNL A   1      33.242  20.621  24.145  1.00  0.00    -0.244 OA
BRANCH  81  83
ATOM     83  C   UNL A   1      32.740  22.760  25.063  1.00  0.00     0.188 A 
ATOM     84  N   UNL A   1      31.889  22.680  26.102  1.00  0.00    -0.183 NA
ATOM     85  C   UNL A   1      32.706  24.011  24.379  1.00  0.00     0.116 A 
ATOM     86  S   UNL A   1      31.061  24.111  26.254  1.00  0.00    -0.038 S 
ATOM     87  C   UNL A   1      31.798  24.880  24.933  1.00  0.00     0.060 A 
ATOM     88  N   UNL A   1      33.428  24.298  23.215  1.00  0.00    -0.214 NA
ATOM     89  C   UNL A   1      31.390  26.178  24.338  1.00  0.00     0.074 C 
ATOM     90  C   UNL A   1      32.935  25.268  22.521  1.00  0.00     0.187 C 
ATOM     91  C   UNL A   1      31.690  26.074  22.819  1.00  0.00     0.111 C 
BRANCH  89  92
ATOM     92  C   UNL A   1      31.868  27.510  24.931  1.00  0.00    -0.020 A 
ATOM     93  C   UNL A   1      32.972  27.393  25.820  1.00  0.00     0.009 A 
ATOM     94  C   UNL A   1      31.379  28.810  24.698  1.00  0.00     0.047 A 
ATOM     95  C   UNL A   1      33.539  28.494  26.460  1.00  0.00     0.039 A 
ATOM     96  C   UNL A   1      31.970  29.922  25.326  1.00  0.00     0.060 A 
ATOM     97  Cl  UNL A   1      30.051  29.181  23.664  1.00  0.00    -0.084 Cl
ATOM     98  C   UNL A   1      33.034  29.754  26.201  1.00  0.00     0.124 A 
ATOM     99  F   UNL A   1      33.578  30.819  26.801  1.00  0.00    -0.207 F 
ENDBRANCH  89  92
BRANCH  90 100
ATOM    100  O   UNL A   1      33.510  25.552  21.337  1.00  0.00    -0.496 OA
ATOM    101  H   UNL A   1      34.441  25.643  21.278  1.00  0.00     0.294 HD
ENDBRANCH  90 100
ENDBRANCH  81  83
ENDBRANCH  80  81
ENDBRANCH  79  80
ENDBRANCH  78  79
ENDBRANCH  77  78
ENDBRANCH  76  77
ENDBRANCH  75  76
ENDBRANCH  74  75
ENDBRANCH   1  74
TORSDOF 22
ENDMDL
