MODEL 1
REMARK VINA RESULT:     -10.3      0.000      0.000
REMARK SMILES O=C(OCCOCCOCCOCCOC(=O)c1cncc(Oc2cc(F)ccc2F)n1)c1ccc(-c2c3nc(c(-c4c(F)c(F)c(F)c(F)c4F)c4ccc([nH]4)c(-c4c(F)c(F)c(F)c(F)c4F)c4nc(c(-c5c(F)c(F)c(F)c(F)c5F)c5ccc2[nH]5)C=C4)C=C3)cc1
REMARK SMILES IDX 9 1 8 2 7 3 6 4 5 5 4 6 3 7 2 8 1 9 33 10 34 11 95 12 35 13
REMARK SMILES IDX 94 14 36 15 37 16 38 17 88 18 39 19 93 20 87 21 89 22 40 23
REMARK SMILES IDX 92 24 86 25 85 26 41 28 73 29 53 30 72 31 54 32 57 33 71 34
REMARK SMILES IDX 90 35 55 36 56 37 70 39 91 40 58 41 42 42 43 43 51 44 44 45
REMARK SMILES IDX 45 46 49 47 52 48 46 49 47 50 50 51 48 52 74 53 75 54 83 55
REMARK SMILES IDX 76 56 77 57 81 58 84 59 78 60 79 61 82 62 80 63 59 64 60 65
REMARK SMILES IDX 68 66 61 67 62 68 66 69 69 70 63 71 64 72 67 73 65 74 10 75
REMARK SMILES IDX 11 76 12 77 13 78 14 79 15 80 16 81 17 82 18 83 19 84 32 85
REMARK SMILES IDX 20 86 22 87 21 88 23 89 24 90 25 91 30 92 26 93 29 94 31 95
REMARK SMILES IDX 27 96 28 97
REMARK H PARENT 89 27 57 38
REMARK Flexibility Score: inf
ROOT
ATOM      1  O   UNL A   1      39.381  22.075  26.302  1.00  0.00    -0.377 OA
ENDROOT
BRANCH   1   2
ATOM      2  C   UNL A   1      39.945  20.768  26.167  1.00  0.00     0.188 C 
BRANCH   2   3
ATOM      3  C   UNL A   1      41.474  20.718  26.138  1.00  0.00     0.188 C 
BRANCH   3   4
ATOM      4  O   UNL A   1      41.916  19.511  25.521  1.00  0.00    -0.376 OA
BRANCH   4   5
ATOM      5  C   UNL A   1      42.567  18.554  26.349  1.00  0.00     0.202 C 
BRANCH   5   6
ATOM      6  C   UNL A   1      43.898  18.011  25.830  1.00  0.00     0.261 C 
BRANCH   6   7
ATOM      7  O   UNL A   1      44.291  18.516  24.540  1.00  0.00    -0.460 OA
BRANCH   7   8
ATOM      8  C   UNL A   1      45.155  19.514  24.239  1.00  0.00     0.338 C 
ATOM      9  O   UNL A   1      46.096  19.285  23.483  1.00  0.00    -0.246 OA
BRANCH   8  10
ATOM     10  C   UNL A   1      44.990  20.902  24.743  1.00  0.00     0.060 A 
ATOM     11  C   UNL A   1      44.510  21.959  23.979  1.00  0.00     0.016 A 
ATOM     12  C   UNL A   1      45.238  21.134  26.103  1.00  0.00     0.016 A 
ATOM     13  C   UNL A   1      44.467  23.252  24.471  1.00  0.00     0.010 A 
ATOM     14  C   UNL A   1      45.101  22.419  26.640  1.00  0.00     0.010 A 
ATOM     15  C   UNL A   1      44.782  23.497  25.803  1.00  0.00    -0.014 A 
BRANCH  15  16
ATOM     16  C   UNL A   1      44.957  24.899  26.232  1.00  0.00     0.031 A 
ATOM     17  C   UNL A   1      46.269  25.559  25.925  1.00  0.00     0.074 A 
ATOM     18  C   UNL A   1      43.920  25.599  26.730  1.00  0.00     0.049 A 
ATOM     19  N   UNL A   1      46.711  26.735  26.282  1.00  0.00    -0.248 NA
ATOM     20  C   UNL A   1      47.219  24.790  25.100  1.00  0.00     0.031 C 
ATOM     21  C   UNL A   1      42.565  25.079  26.927  1.00  0.00     0.029 A 
ATOM     22  N   UNL A   1      43.829  26.911  27.116  1.00  0.00    -0.354 N 
ATOM     23  C   UNL A   1      48.005  26.812  25.781  1.00  0.00     0.074 A 
ATOM     24  C   UNL A   1      48.284  25.575  25.097  1.00  0.00     0.031 C 
ATOM     25  C   UNL A   1      41.767  26.075  27.344  1.00  0.00     0.029 A 
ATOM     26  C   UNL A   1      42.572  27.275  27.538  1.00  0.00     0.049 A 
ATOM     27  H   UNL A   1      44.591  27.534  27.094  1.00  0.00     0.167 HD
ATOM     28  C   UNL A   1      48.876  27.839  25.891  1.00  0.00     0.037 A 
ATOM     29  C   UNL A   1      42.141  28.439  28.059  1.00  0.00     0.037 A 
ATOM     30  C   UNL A   1      48.543  29.083  26.526  1.00  0.00     0.049 A 
ATOM     31  C   UNL A   1      43.149  29.544  28.235  1.00  0.00     0.074 A 
ATOM     32  C   UNL A   1      49.345  30.183  26.748  1.00  0.00     0.029 A 
ATOM     33  N   UNL A   1      47.281  29.388  27.021  1.00  0.00    -0.354 N 
ATOM     34  N   UNL A   1      44.407  29.578  27.861  1.00  0.00    -0.248 NA
ATOM     35  C   UNL A   1      42.697  30.754  28.932  1.00  0.00     0.031 C 
ATOM     36  C   UNL A   1      48.576  31.146  27.408  1.00  0.00     0.029 A 
ATOM     37  C   UNL A   1      47.285  30.661  27.560  1.00  0.00     0.049 A 
ATOM     38  H   UNL A   1      46.501  28.789  26.992  1.00  0.00     0.167 HD
ATOM     39  C   UNL A   1      44.898  30.807  28.274  1.00  0.00     0.074 A 
ATOM     40  C   UNL A   1      43.792  31.503  28.904  1.00  0.00     0.031 C 
ATOM     41  C   UNL A   1      46.150  31.314  28.161  1.00  0.00     0.037 A 
BRANCH  28  42
ATOM     42  C   UNL A   1      50.263  27.633  25.367  1.00  0.00     0.064 A 
ATOM     43  C   UNL A   1      51.293  27.249  26.241  1.00  0.00     0.173 A 
ATOM     44  C   UNL A   1      50.583  27.809  24.013  1.00  0.00     0.173 A 
ATOM     45  F   UNL A   1      51.035  27.057  27.543  1.00  0.00    -0.203 F 
ATOM     46  C   UNL A   1      52.592  27.058  25.780  1.00  0.00     0.198 A 
ATOM     47  C   UNL A   1      51.879  27.592  23.550  1.00  0.00     0.198 A 
ATOM     48  F   UNL A   1      49.628  28.143  23.131  1.00  0.00    -0.203 F 
ATOM     49  F   UNL A   1      53.560  26.706  26.637  1.00  0.00    -0.200 F 
ATOM     50  C   UNL A   1      52.883  27.225  24.435  1.00  0.00     0.200 A 
ATOM     51  F   UNL A   1      52.154  27.720  22.245  1.00  0.00    -0.200 F 
ATOM     52  F   UNL A   1      54.130  27.020  23.989  1.00  0.00    -0.200 F 
ENDBRANCH  28  42
BRANCH  29  53
ATOM     53  C   UNL A   1      40.726  28.590  28.497  1.00  0.00     0.064 A 
ATOM     54  C   UNL A   1      40.334  28.301  29.815  1.00  0.00     0.173 A 
ATOM     55  C   UNL A   1      39.730  29.021  27.609  1.00  0.00     0.173 A 
ATOM     56  F   UNL A   1      41.244  27.893  30.712  1.00  0.00    -0.203 F 
ATOM     57  C   UNL A   1      39.003  28.404  30.217  1.00  0.00     0.198 A 
ATOM     58  C   UNL A   1      38.403  29.157  28.022  1.00  0.00     0.198 A 
ATOM     59  F   UNL A   1      40.049  29.337  26.346  1.00  0.00    -0.203 F 
ATOM     60  F   UNL A   1      38.657  28.081  31.470  1.00  0.00    -0.200 F 
ATOM     61  C   UNL A   1      38.040  28.839  29.322  1.00  0.00     0.200 A 
ATOM     62  F   UNL A   1      37.479  29.606  27.162  1.00  0.00    -0.200 F 
ATOM     63  F   UNL A   1      36.764  28.958  29.713  1.00  0.00    -0.200 F 
ENDBRANCH  29  53
BRANCH  41  64
ATOM     64  C   UNL A   1      46.388  32.682  28.717  1.00  0.00     0.064 A 
ATOM     65  C   UNL A   1      46.742  32.847  30.063  1.00  0.00     0.173 A 
ATOM     66  C   UNL A   1      46.147  33.828  27.946  1.00  0.00     0.173 A 
ATOM     67  F   UNL A   1      46.970  31.776  30.838  1.00  0.00    -0.203 F 
ATOM     68  C   UNL A   1      46.822  34.115  30.626  1.00  0.00     0.198 A 
ATOM     69  C   UNL A   1      46.254  35.094  28.507  1.00  0.00     0.198 A 
ATOM     70  F   UNL A   1      45.815  33.713  26.651  1.00  0.00    -0.203 F 
ATOM     71  F   UNL A   1      47.118  34.251  31.926  1.00  0.00    -0.200 F 
ATOM     72  C   UNL A   1      46.578  35.237  29.848  1.00  0.00     0.200 A 
ATOM     73  F   UNL A   1      46.035  36.179  27.751  1.00  0.00    -0.200 F 
ATOM     74  F   UNL A   1      46.651  36.459  30.393  1.00  0.00    -0.200 F 
ENDBRANCH  41  64
ENDBRANCH  15  16
ENDBRANCH   8  10
ENDBRANCH   7   8
ENDBRANCH   6   7
ENDBRANCH   5   6
ENDBRANCH   4   5
ENDBRANCH   3   4
ENDBRANCH   2   3
ENDBRANCH   1   2
BRANCH   1  75
ATOM     75  C   UNL A   1      38.055  22.235  25.811  1.00  0.00     0.188 C 
BRANCH  75  76
ATOM     76  C   UNL A   1      37.416  21.079  25.012  1.00  0.00     0.188 C 
BRANCH  76  77
ATOM     77  O   UNL A   1      36.225  21.440  24.323  1.00  0.00    -0.376 OA
BRANCH  77  78
ATOM     78  C   UNL A   1      35.564  22.604  24.807  1.00  0.00     0.202 C 
BRANCH  78  79
ATOM     79  C   UNL A   1      35.344  23.750  23.804  1.00  0.00     0.261 C 
BRANCH  79  80
ATOM     80  O   UNL A   1      34.075  24.417  23.889  1.00  0.00    -0.458 OA
BRANCH  80  81
ATOM     81  C   UNL A   1      33.606  25.071  22.792  1.00  0.00     0.358 C 
ATOM     82  O   UNL A   1      33.333  24.581  21.724  1.00  0.00    -0.244 OA
BRANCH  81  83
ATOM     83  C   UNL A   1      33.328  26.471  23.232  1.00  0.00     0.170 A 
ATOM     84  C   UNL A   1      33.811  26.907  24.461  1.00  0.00     0.147 A 
ATOM     85  N   UNL A   1      32.446  27.205  22.481  1.00  0.00    -0.203 NA
ATOM     86  N   UNL A   1      33.465  28.108  24.993  1.00  0.00    -0.257 NA
ATOM     87  C   UNL A   1      32.079  28.387  23.038  1.00  0.00     0.238 A 
ATOM     88  C   UNL A   1      32.592  28.833  24.253  1.00  0.00     0.179 A 
BRANCH  87  89
ATOM     89  O   UNL A   1      31.214  29.246  22.379  1.00  0.00    -0.434 OA
BRANCH  89  90
ATOM     90  C   UNL A   1      29.863  29.047  22.534  1.00  0.00     0.168 A 
ATOM     91  C   UNL A   1      29.348  27.921  23.179  1.00  0.00     0.089 A 
ATOM     92  C   UNL A   1      29.012  30.108  22.221  1.00  0.00     0.166 A 
ATOM     93  C   UNL A   1      27.983  27.867  23.469  1.00  0.00     0.127 A 
ATOM     94  C   UNL A   1      27.649  30.049  22.516  1.00  0.00     0.046 A 
ATOM     95  F   UNL A   1      29.506  31.224  21.670  1.00  0.00    -0.203 F 
ATOM     96  F   UNL A   1      27.486  26.796  24.103  1.00  0.00    -0.207 F 
ATOM     97  C   UNL A   1      27.130  28.919  23.144  1.00  0.00     0.042 A 
ENDBRANCH  89  90
ENDBRANCH  87  89
ENDBRANCH  81  83
ENDBRANCH  80  81
ENDBRANCH  79  80
ENDBRANCH  78  79
ENDBRANCH  77  78
ENDBRANCH  76  77
ENDBRANCH  75  76
ENDBRANCH   1  75
TORSDOF 22
ENDMDL
MODEL 2
REMARK VINA RESULT:     -10.1      2.112      7.610
REMARK SMILES O=C(OCCOCCOCCOCCOC(=O)c1cncc(Oc2cc(F)ccc2F)n1)c1ccc(-c2c3nc(c(-c4c(F)c(F)c(F)c(F)c4F)c4ccc([nH]4)c(-c4c(F)c(F)c(F)c(F)c4F)c4nc(c(-c5c(F)c(F)c(F)c(F)c5F)c5ccc2[nH]5)C=C4)C=C3)cc1
REMARK SMILES IDX 9 1 8 2 7 3 6 4 5 5 4 6 3 7 2 8 1 9 33 10 34 11 95 12 35 13
REMARK SMILES IDX 94 14 36 15 37 16 38 17 88 18 39 19 93 20 87 21 89 22 40 23
REMARK SMILES IDX 92 24 86 25 85 26 41 28 73 29 53 30 72 31 54 32 57 33 71 34
REMARK SMILES IDX 90 35 55 36 56 37 70 39 91 40 58 41 42 42 43 43 51 44 44 45
REMARK SMILES IDX 45 46 49 47 52 48 46 49 47 50 50 51 48 52 74 53 75 54 83 55
REMARK SMILES IDX 76 56 77 57 81 58 84 59 78 60 79 61 82 62 80 63 59 64 60 65
REMARK SMILES IDX 68 66 61 67 62 68 66 69 69 70 63 71 64 72 67 73 65 74 10 75
REMARK SMILES IDX 11 76 12 77 13 78 14 79 15 80 16 81 17 82 18 83 19 84 32 85
REMARK SMILES IDX 20 86 22 87 21 88 23 89 24 90 25 91 30 92 26 93 29 94 31 95
REMARK SMILES IDX 27 96 28 97
REMARK H PARENT 89 27 57 38
REMARK Flexibility Score: inf
ROOT
ATOM      1  O   UNL A   1      40.022  22.833  27.512  1.00  0.00    -0.377 OA
ENDROOT
BRANCH   1   2
ATOM      2  C   UNL A   1      41.100  22.512  26.629  1.00  0.00     0.188 C 
BRANCH   2   3
ATOM      3  C   UNL A   1      41.106  21.075  26.104  1.00  0.00     0.188 C 
BRANCH   3   4
ATOM      4  O   UNL A   1      42.081  20.301  26.798  1.00  0.00    -0.376 OA
BRANCH   4   5
ATOM      5  C   UNL A   1      42.129  18.906  26.518  1.00  0.00     0.202 C 
BRANCH   5   6
ATOM      6  C   UNL A   1      43.403  18.399  25.845  1.00  0.00     0.261 C 
BRANCH   6   7
ATOM      7  O   UNL A   1      43.740  19.067  24.614  1.00  0.00    -0.460 OA
BRANCH   7   8
ATOM      8  C   UNL A   1      44.756  19.924  24.357  1.00  0.00     0.338 C 
ATOM      9  O   UNL A   1      45.686  19.556  23.643  1.00  0.00    -0.246 OA
BRANCH   8  10
ATOM     10  C   UNL A   1      44.777  21.323  24.859  1.00  0.00     0.060 A 
ATOM     11  C   UNL A   1      44.248  22.408  24.170  1.00  0.00     0.016 A 
ATOM     12  C   UNL A   1      45.269  21.543  26.152  1.00  0.00     0.016 A 
ATOM     13  C   UNL A   1      44.381  23.703  24.641  1.00  0.00     0.010 A 
ATOM     14  C   UNL A   1      45.316  22.836  26.684  1.00  0.00     0.010 A 
ATOM     15  C   UNL A   1      44.935  23.930  25.895  1.00  0.00    -0.014 A 
BRANCH  15  16
ATOM     16  C   UNL A   1      45.278  25.318  26.265  1.00  0.00     0.031 A 
ATOM     17  C   UNL A   1      44.214  26.141  26.932  1.00  0.00     0.074 A 
ATOM     18  C   UNL A   1      46.543  25.766  26.154  1.00  0.00     0.049 A 
ATOM     19  N   UNL A   1      44.224  27.405  27.258  1.00  0.00    -0.248 NA
ATOM     20  C   UNL A   1      42.962  25.444  27.282  1.00  0.00     0.031 C 
ATOM     21  C   UNL A   1      47.675  24.985  25.652  1.00  0.00     0.029 A 
ATOM     22  N   UNL A   1      47.100  26.969  26.502  1.00  0.00    -0.354 N 
ATOM     23  C   UNL A   1      42.966  27.661  27.787  1.00  0.00     0.074 A 
ATOM     24  C   UNL A   1      42.213  26.432  27.742  1.00  0.00     0.031 C 
ATOM     25  C   UNL A   1      48.799  25.709  25.775  1.00  0.00     0.029 A 
ATOM     26  C   UNL A   1      48.454  27.036  26.271  1.00  0.00     0.049 A 
ATOM     27  H   UNL A   1      46.580  27.715  26.880  1.00  0.00     0.167 HD
ATOM     28  C   UNL A   1      42.491  28.832  28.268  1.00  0.00     0.037 A 
ATOM     29  C   UNL A   1      49.302  28.072  26.410  1.00  0.00     0.037 A 
ATOM     30  C   UNL A   1      43.289  30.021  28.356  1.00  0.00     0.049 A 
ATOM     31  C   UNL A   1      48.733  29.385  26.881  1.00  0.00     0.074 A 
ATOM     32  C   UNL A   1      42.918  31.282  28.776  1.00  0.00     0.029 A 
ATOM     33  N   UNL A   1      44.639  30.077  28.033  1.00  0.00    -0.354 N 
ATOM     34  N   UNL A   1      47.511  29.658  27.277  1.00  0.00    -0.248 NA
ATOM     35  C   UNL A   1      49.641  30.538  26.892  1.00  0.00     0.031 C 
ATOM     36  C   UNL A   1      44.039  32.113  28.676  1.00  0.00     0.029 A 
ATOM     37  C   UNL A   1      45.116  31.359  28.233  1.00  0.00     0.049 A 
ATOM     38  H   UNL A   1      45.175  29.318  27.709  1.00  0.00     0.167 HD
ATOM     39  C   UNL A   1      47.501  31.010  27.586  1.00  0.00     0.074 A 
ATOM     40  C   UNL A   1      48.849  31.496  27.357  1.00  0.00     0.031 C 
ATOM     41  C   UNL A   1      46.473  31.786  28.005  1.00  0.00     0.037 A 
BRANCH  28  42
ATOM     42  C   UNL A   1      41.051  28.883  28.674  1.00  0.00     0.064 A 
ATOM     43  C   UNL A   1      40.696  28.697  30.020  1.00  0.00     0.173 A 
ATOM     44  C   UNL A   1      40.022  29.114  27.750  1.00  0.00     0.173 A 
ATOM     45  F   UNL A   1      41.644  28.483  30.944  1.00  0.00    -0.203 F 
ATOM     46  C   UNL A   1      39.364  28.732  30.422  1.00  0.00     0.198 A 
ATOM     47  C   UNL A   1      38.692  29.174  28.160  1.00  0.00     0.198 A 
ATOM     48  F   UNL A   1      40.311  29.331  26.458  1.00  0.00    -0.203 F 
ATOM     49  F   UNL A   1      39.050  28.537  31.710  1.00  0.00    -0.200 F 
ATOM     50  C   UNL A   1      38.364  28.975  29.494  1.00  0.00     0.200 A 
ATOM     51  F   UNL A   1      37.728  29.443  27.269  1.00  0.00    -0.200 F 
ATOM     52  F   UNL A   1      37.083  29.030  29.886  1.00  0.00    -0.200 F 
ENDBRANCH  28  42
BRANCH  29  53
ATOM     53  C   UNL A   1      50.739  27.924  26.047  1.00  0.00     0.064 A 
ATOM     54  C   UNL A   1      51.166  27.994  24.710  1.00  0.00     0.173 A 
ATOM     55  C   UNL A   1      51.718  27.702  27.026  1.00  0.00     0.173 A 
ATOM     56  F   UNL A   1      50.276  28.213  23.731  1.00  0.00    -0.203 F 
ATOM     57  C   UNL A   1      52.505  27.817  24.365  1.00  0.00     0.198 A 
ATOM     58  C   UNL A   1      53.064  27.559  26.682  1.00  0.00     0.198 A 
ATOM     59  F   UNL A   1      51.373  27.652  28.320  1.00  0.00    -0.203 F 
ATOM     60  F   UNL A   1      52.872  27.849  23.077  1.00  0.00    -0.200 F 
ATOM     61  C   UNL A   1      53.454  27.606  25.352  1.00  0.00     0.200 A 
ATOM     62  F   UNL A   1      53.983  27.384  27.641  1.00  0.00    -0.200 F 
ATOM     63  F   UNL A   1      54.744  27.456  25.022  1.00  0.00    -0.200 F 
ENDBRANCH  29  53
BRANCH  41  64
ATOM     64  C   UNL A   1      46.763  33.233  28.252  1.00  0.00     0.064 A 
ATOM     65  C   UNL A   1      47.141  33.670  29.529  1.00  0.00     0.173 A 
ATOM     66  C   UNL A   1      46.549  34.194  27.255  1.00  0.00     0.173 A 
ATOM     67  F   UNL A   1      47.344  32.783  30.515  1.00  0.00    -0.203 F 
ATOM     68  C   UNL A   1      47.270  35.026  29.806  1.00  0.00     0.198 A 
ATOM     69  C   UNL A   1      46.704  35.548  27.530  1.00  0.00     0.198 A 
ATOM     70  F   UNL A   1      46.196  33.816  26.018  1.00  0.00    -0.203 F 
ATOM     71  F   UNL A   1      47.587  35.427  31.046  1.00  0.00    -0.200 F 
ATOM     72  C   UNL A   1      47.051  35.963  28.808  1.00  0.00     0.200 A 
ATOM     73  F   UNL A   1      46.510  36.452  26.561  1.00  0.00    -0.200 F 
ATOM     74  F   UNL A   1      47.171  37.270  29.078  1.00  0.00    -0.200 F 
ENDBRANCH  41  64
ENDBRANCH  15  16
ENDBRANCH   8  10
ENDBRANCH   7   8
ENDBRANCH   6   7
ENDBRANCH   5   6
ENDBRANCH   4   5
ENDBRANCH   3   4
ENDBRANCH   2   3
ENDBRANCH   1   2
BRANCH   1  75
ATOM     75  C   UNL A   1      39.364  24.071  27.270  1.00  0.00     0.188 C 
BRANCH  75  76
ATOM     76  C   UNL A   1      38.139  24.087  26.330  1.00  0.00     0.188 C 
BRANCH  76  77
ATOM     77  O   UNL A   1      37.499  22.825  26.192  1.00  0.00    -0.376 OA
BRANCH  77  78
ATOM     78  C   UNL A   1      37.729  22.151  24.959  1.00  0.00     0.202 C 
BRANCH  78  79
ATOM     79  C   UNL A   1      36.763  21.008  24.597  1.00  0.00     0.261 C 
BRANCH  79  80
ATOM     80  O   UNL A   1      35.800  20.664  25.605  1.00  0.00    -0.458 OA
BRANCH  80  81
ATOM     81  C   UNL A   1      34.498  20.514  25.240  1.00  0.00     0.358 C 
ATOM     82  O   UNL A   1      34.020  19.577  24.648  1.00  0.00    -0.244 OA
BRANCH  81  83
ATOM     83  C   UNL A   1      33.756  21.644  25.875  1.00  0.00     0.170 A 
ATOM     84  C   UNL A   1      33.640  21.688  27.261  1.00  0.00     0.147 A 
ATOM     85  N   UNL A   1      33.063  22.488  25.047  1.00  0.00    -0.203 NA
ATOM     86  N   UNL A   1      32.852  22.594  27.895  1.00  0.00    -0.257 NA
ATOM     87  C   UNL A   1      32.251  23.365  25.689  1.00  0.00     0.238 A 
ATOM     88  C   UNL A   1      32.164  23.427  27.077  1.00  0.00     0.179 A 
BRANCH  87  89
ATOM     89  O   UNL A   1      31.509  24.298  24.981  1.00  0.00    -0.434 OA
BRANCH  89  90
ATOM     90  C   UNL A   1      32.177  25.133  24.117  1.00  0.00     0.168 A 
ATOM     91  C   UNL A   1      32.144  24.950  22.733  1.00  0.00     0.089 A 
ATOM     92  C   UNL A   1      32.719  26.308  24.641  1.00  0.00     0.166 A 
ATOM     93  C   UNL A   1      32.685  25.934  21.903  1.00  0.00     0.127 A 
ATOM     94  C   UNL A   1      33.255  27.289  23.806  1.00  0.00     0.046 A 
ATOM     95  F   UNL A   1      32.689  26.529  25.962  1.00  0.00    -0.203 F 
ATOM     96  F   UNL A   1      32.642  25.770  20.574  1.00  0.00    -0.207 F 
ATOM     97  C   UNL A   1      33.239  27.100  22.426  1.00  0.00     0.042 A 
ENDBRANCH  89  90
ENDBRANCH  87  89
ENDBRANCH  81  83
ENDBRANCH  80  81
ENDBRANCH  79  80
ENDBRANCH  78  79
ENDBRANCH  77  78
ENDBRANCH  76  77
ENDBRANCH  75  76
ENDBRANCH   1  75
TORSDOF 22
ENDMDL
MODEL 3
REMARK VINA RESULT:     -10.0      1.564      7.527
REMARK SMILES O=C(OCCOCCOCCOCCOC(=O)c1cncc(Oc2cc(F)ccc2F)n1)c1ccc(-c2c3nc(c(-c4c(F)c(F)c(F)c(F)c4F)c4ccc([nH]4)c(-c4c(F)c(F)c(F)c(F)c4F)c4nc(c(-c5c(F)c(F)c(F)c(F)c5F)c5ccc2[nH]5)C=C4)C=C3)cc1
REMARK SMILES IDX 9 1 8 2 7 3 6 4 5 5 4 6 3 7 2 8 1 9 33 10 34 11 95 12 35 13
REMARK SMILES IDX 94 14 36 15 37 16 38 17 88 18 39 19 93 20 87 21 89 22 40 23
REMARK SMILES IDX 92 24 86 25 85 26 41 28 73 29 53 30 72 31 54 32 57 33 71 34
REMARK SMILES IDX 90 35 55 36 56 37 70 39 91 40 58 41 42 42 43 43 51 44 44 45
REMARK SMILES IDX 45 46 49 47 52 48 46 49 47 50 50 51 48 52 74 53 75 54 83 55
REMARK SMILES IDX 76 56 77 57 81 58 84 59 78 60 79 61 82 62 80 63 59 64 60 65
REMARK SMILES IDX 68 66 61 67 62 68 66 69 69 70 63 71 64 72 67 73 65 74 10 75
REMARK SMILES IDX 11 76 12 77 13 78 14 79 15 80 16 81 17 82 18 83 19 84 32 85
REMARK SMILES IDX 20 86 22 87 21 88 23 89 24 90 25 91 30 92 26 93 29 94 31 95
REMARK SMILES IDX 27 96 28 97
REMARK H PARENT 89 27 57 38
REMARK Flexibility Score: inf
ROOT
ATOM      1  O   UNL A   1      34.888  21.653  26.700  1.00  0.00    -0.377 OA
ENDROOT
BRANCH   1   2
ATOM      2  C   UNL A   1      35.216  22.495  25.593  1.00  0.00     0.188 C 
BRANCH   2   3
ATOM      3  C   UNL A   1      36.476  22.096  24.821  1.00  0.00     0.188 C 
BRANCH   3   4
ATOM      4  O   UNL A   1      37.635  22.330  25.618  1.00  0.00    -0.376 OA
BRANCH   4   5
ATOM      5  C   UNL A   1      38.783  21.530  25.353  1.00  0.00     0.202 C 
BRANCH   5   6
ATOM      6  C   UNL A   1      39.265  20.645  26.501  1.00  0.00     0.261 C 
BRANCH   6   7
ATOM      7  O   UNL A   1      40.211  19.629  26.120  1.00  0.00    -0.460 OA
BRANCH   7   8
ATOM      8  C   UNL A   1      41.563  19.691  26.080  1.00  0.00     0.338 C 
ATOM      9  O   UNL A   1      42.200  18.692  25.754  1.00  0.00    -0.246 OA
BRANCH   8  10
ATOM     10  C   UNL A   1      42.322  20.936  26.363  1.00  0.00     0.060 A 
ATOM     11  C   UNL A   1      42.695  21.352  27.636  1.00  0.00     0.016 A 
ATOM     12  C   UNL A   1      42.778  21.683  25.269  1.00  0.00     0.016 A 
ATOM     13  C   UNL A   1      43.318  22.570  27.850  1.00  0.00     0.010 A 
ATOM     14  C   UNL A   1      43.499  22.866  25.466  1.00  0.00     0.010 A 
ATOM     15  C   UNL A   1      43.708  23.348  26.766  1.00  0.00    -0.014 A 
BRANCH  15  16
ATOM     16  C   UNL A   1      44.150  24.733  27.025  1.00  0.00     0.031 A 
ATOM     17  C   UNL A   1      43.146  25.682  27.614  1.00  0.00     0.074 A 
ATOM     18  C   UNL A   1      45.444  25.078  26.890  1.00  0.00     0.049 A 
ATOM     19  N   UNL A   1      43.247  26.964  27.837  1.00  0.00    -0.248 NA
ATOM     20  C   UNL A   1      41.847  25.107  28.008  1.00  0.00     0.031 C 
ATOM     21  C   UNL A   1      46.518  24.180  26.462  1.00  0.00     0.029 A 
ATOM     22  N   UNL A   1      46.086  26.262  27.143  1.00  0.00    -0.354 N 
ATOM     23  C   UNL A   1      42.009  27.353  28.332  1.00  0.00     0.074 A 
ATOM     24  C   UNL A   1      41.170  26.181  28.381  1.00  0.00     0.031 C 
ATOM     25  C   UNL A   1      47.691  24.828  26.536  1.00  0.00     0.029 A 
ATOM     26  C   UNL A   1      47.442  26.212  26.919  1.00  0.00     0.049 A 
ATOM     27  H   UNL A   1      45.621  27.072  27.455  1.00  0.00     0.167 HD
ATOM     28  C   UNL A   1      41.619  28.589  28.712  1.00  0.00     0.037 A 
ATOM     29  C   UNL A   1      48.362  27.193  26.981  1.00  0.00     0.037 A 
ATOM     30  C   UNL A   1      42.500  29.722  28.710  1.00  0.00     0.049 A 
ATOM     31  C   UNL A   1      47.888  28.577  27.339  1.00  0.00     0.074 A 
ATOM     32  C   UNL A   1      42.221  31.036  29.023  1.00  0.00     0.029 A 
ATOM     33  N   UNL A   1      43.852  29.654  28.395  1.00  0.00    -0.354 N 
ATOM     34  N   UNL A   1      46.689  28.969  27.702  1.00  0.00    -0.248 NA
ATOM     35  C   UNL A   1      48.877  29.659  27.265  1.00  0.00     0.031 C 
ATOM     36  C   UNL A   1      43.399  31.773  28.866  1.00  0.00     0.029 A 
ATOM     37  C   UNL A   1      44.420  30.910  28.495  1.00  0.00     0.049 A 
ATOM     38  H   UNL A   1      44.333  28.834  28.139  1.00  0.00     0.167 HD
ATOM     39  C   UNL A   1      46.776  30.339  27.899  1.00  0.00     0.074 A 
ATOM     40  C   UNL A   1      48.155  30.706  27.644  1.00  0.00     0.031 C 
ATOM     41  C   UNL A   1      45.805  31.219  28.245  1.00  0.00     0.037 A 
BRANCH  28  42
ATOM     42  C   UNL A   1      40.185  28.777  29.100  1.00  0.00     0.064 A 
ATOM     43  C   UNL A   1      39.794  28.608  30.438  1.00  0.00     0.173 A 
ATOM     44  C   UNL A   1      39.198  29.123  28.166  1.00  0.00     0.173 A 
ATOM     45  F   UNL A   1      40.702  28.288  31.371  1.00  0.00    -0.203 F 
ATOM     46  C   UNL A   1      38.466  28.769  30.823  1.00  0.00     0.198 A 
ATOM     47  C   UNL A   1      37.874  29.308  28.560  1.00  0.00     0.198 A 
ATOM     48  F   UNL A   1      39.526  29.328  26.881  1.00  0.00    -0.203 F 
ATOM     49  F   UNL A   1      38.115  28.587  32.104  1.00  0.00    -0.200 F 
ATOM     50  C   UNL A   1      37.508  29.123  29.886  1.00  0.00     0.200 A 
ATOM     51  F   UNL A   1      36.955  29.684  27.660  1.00  0.00    -0.200 F 
ATOM     52  F   UNL A   1      36.234  29.299  30.262  1.00  0.00    -0.200 F 
ENDBRANCH  28  42
BRANCH  29  53
ATOM     53  C   UNL A   1      49.786  26.912  26.645  1.00  0.00     0.064 A 
ATOM     54  C   UNL A   1      50.246  26.964  25.318  1.00  0.00     0.173 A 
ATOM     55  C   UNL A   1      50.718  26.579  27.638  1.00  0.00     0.173 A 
ATOM     56  F   UNL A   1      49.403  27.286  24.326  1.00  0.00    -0.203 F 
ATOM     57  C   UNL A   1      51.569  26.664  24.996  1.00  0.00     0.198 A 
ATOM     58  C   UNL A   1      52.050  26.313  27.318  1.00  0.00     0.198 A 
ATOM     59  F   UNL A   1      50.341  26.540  28.924  1.00  0.00    -0.203 F 
ATOM     60  F   UNL A   1      51.965  26.684  23.716  1.00  0.00    -0.200 F 
ATOM     61  C   UNL A   1      52.472  26.346  25.997  1.00  0.00     0.200 A 
ATOM     62  F   UNL A   1      52.928  26.033  28.291  1.00  0.00    -0.200 F 
ATOM     63  F   UNL A   1      53.748  26.077  25.691  1.00  0.00    -0.200 F 
ENDBRANCH  29  53
BRANCH  41  64
ATOM     64  C   UNL A   1      46.199  32.656  28.376  1.00  0.00     0.064 A 
ATOM     65  C   UNL A   1      46.607  33.167  29.616  1.00  0.00     0.173 A 
ATOM     66  C   UNL A   1      46.054  33.547  27.304  1.00  0.00     0.173 A 
ATOM     67  F   UNL A   1      46.746  32.350  30.671  1.00  0.00    -0.203 F 
ATOM     68  C   UNL A   1      46.833  34.528  29.784  1.00  0.00     0.198 A 
ATOM     69  C   UNL A   1      46.306  34.903  27.470  1.00  0.00     0.198 A 
ATOM     70  F   UNL A   1      45.674  33.096  26.099  1.00  0.00    -0.203 F 
ATOM     71  F   UNL A   1      47.178  35.004  30.988  1.00  0.00    -0.200 F 
ATOM     72  C   UNL A   1      46.682  35.395  28.712  1.00  0.00     0.200 A 
ATOM     73  F   UNL A   1      46.178  35.738  26.429  1.00  0.00    -0.200 F 
ATOM     74  F   UNL A   1      46.896  36.707  28.876  1.00  0.00    -0.200 F 
ENDBRANCH  41  64
ENDBRANCH  15  16
ENDBRANCH   8  10
ENDBRANCH   7   8
ENDBRANCH   6   7
ENDBRANCH   5   6
ENDBRANCH   4   5
ENDBRANCH   3   4
ENDBRANCH   2   3
ENDBRANCH   1   2
BRANCH   1  75
ATOM     75  C   UNL A   1      33.581  21.088  26.688  1.00  0.00     0.188 C 
BRANCH  75  76
ATOM     76  C   UNL A   1      33.274  19.954  25.685  1.00  0.00     0.188 C 
BRANCH  76  77
ATOM     77  O   UNL A   1      32.176  20.227  24.823  1.00  0.00    -0.376 OA
BRANCH  77  78
ATOM     78  C   UNL A   1      32.519  20.674  23.516  1.00  0.00     0.202 C 
BRANCH  78  79
ATOM     79  C   UNL A   1      32.013  22.067  23.099  1.00  0.00     0.261 C 
BRANCH  79  80
ATOM     80  O   UNL A   1      32.398  23.152  23.958  1.00  0.00    -0.458 OA
BRANCH  80  81
ATOM     81  C   UNL A   1      31.447  23.744  24.730  1.00  0.00     0.358 C 
ATOM     82  O   UNL A   1      30.755  23.204  25.558  1.00  0.00    -0.244 OA
BRANCH  81  83
ATOM     83  C   UNL A   1      31.561  25.211  24.476  1.00  0.00     0.170 A 
ATOM     84  C   UNL A   1      32.136  26.027  25.445  1.00  0.00     0.147 A 
ATOM     85  N   UNL A   1      30.919  25.712  23.373  1.00  0.00    -0.203 NA
ATOM     86  N   UNL A   1      32.131  27.381  25.351  1.00  0.00    -0.257 NA
ATOM     87  C   UNL A   1      30.888  27.067  23.307  1.00  0.00     0.238 A 
ATOM     88  C   UNL A   1      31.495  27.878  24.262  1.00  0.00     0.179 A 
BRANCH  87  89
ATOM     89  O   UNL A   1      30.297  27.714  22.234  1.00  0.00    -0.434 OA
BRANCH  89  90
ATOM     90  C   UNL A   1      29.505  28.807  22.494  1.00  0.00     0.168 A 
ATOM     91  C   UNL A   1      29.809  30.078  22.003  1.00  0.00     0.089 A 
ATOM     92  C   UNL A   1      28.262  28.580  23.087  1.00  0.00     0.166 A 
ATOM     93  C   UNL A   1      28.873  31.105  22.144  1.00  0.00     0.127 A 
ATOM     94  C   UNL A   1      27.330  29.610  23.223  1.00  0.00     0.046 A 
ATOM     95  F   UNL A   1      27.929  27.349  23.496  1.00  0.00    -0.203 F 
ATOM     96  F   UNL A   1      29.153  32.322  21.660  1.00  0.00    -0.207 F 
ATOM     97  C   UNL A   1      27.639  30.883  22.748  1.00  0.00     0.042 A 
ENDBRANCH  89  90
ENDBRANCH  87  89
ENDBRANCH  81  83
ENDBRANCH  80  81
ENDBRANCH  79  80
ENDBRANCH  78  79
ENDBRANCH  77  78
ENDBRANCH  76  77
ENDBRANCH  75  76
ENDBRANCH   1  75
TORSDOF 22
ENDMDL
