MODEL 1
REMARK VINA RESULT:     -10.7      0.000      0.000
REMARK SMILES CCOC(=O)c1c(NC(=O)[C@@H]2[C@@H](C(=O)OCCOCCOCCOCCOC(=O)c3ccc(-c4c5nc(c(-c6c(F)c(F)c(F)c(F)c6F)c6ccc([nH]6)c(-c6c(F)c(F)c(F)c(F)c6F)c6nc(c(-c7c(F)c(F)c(F)c(F)c7F)c7ccc4[nH]7)C=C6)C=C5)cc3)[C@@H]3C=C[C@H]2CC3)sc2c1CCC2
REMARK SMILES IDX 19 1 18 2 17 3 16 4 15 5 13 6 14 7 12 8 11 9 96 10 93 11
REMARK SMILES IDX 95 12 97 13 94 14 98 15 9 16 8 17 10 19 7 20 6 21 101 22
REMARK SMILES IDX 99 23 100 24 102 25 104 26 103 27 4 28 5 29 3 30 2 31 1 32
REMARK SMILES IDX 20 33 21 34 22 35 23 36 24 37 25 38 26 39 27 40 28 41 29 42
REMARK SMILES IDX 30 43 31 44 92 45 32 46 91 47 33 48 34 49 35 50 85 51 36 52
REMARK SMILES IDX 90 53 84 54 86 55 37 56 89 57 83 58 82 59 38 61 70 62 50 63
REMARK SMILES IDX 69 64 51 65 54 66 68 67 87 68 52 69 53 70 67 72 88 73 55 74
REMARK SMILES IDX 39 75 40 76 48 77 41 78 42 79 46 80 49 81 43 82 44 83 47 84
REMARK SMILES IDX 45 85 71 86 72 87 80 88 73 89 74 90 78 91 81 92 75 93 76 94
REMARK SMILES IDX 79 95 77 96 56 97 57 98 65 99 58 100 59 101 63 102 66 103
REMARK SMILES IDX 60 104 61 105 64 106 62 107
REMARK H PARENT 8 18 86 60 54 71
REMARK Flexibility Score: inf
ROOT
ATOM      1  C   UNL A   1      39.701  21.447  26.064  1.00  0.00     0.188 C 
ENDROOT
BRANCH   1   2
ATOM      2  O   UNL A   1      38.611  21.220  25.169  1.00  0.00    -0.376 OA
BRANCH   2   3
ATOM      3  C   UNL A   1      37.287  21.439  25.661  1.00  0.00     0.202 C 
BRANCH   3   4
ATOM      4  C   UNL A   1      36.751  22.872  25.550  1.00  0.00     0.261 C 
BRANCH   4   5
ATOM      5  O   UNL A   1      35.333  22.969  25.793  1.00  0.00    -0.463 OA
BRANCH   5   6
ATOM      6  C   UNL A   1      34.766  24.167  25.545  1.00  0.00     0.310 C 
ATOM      7  O   UNL A   1      35.252  25.242  25.886  1.00  0.00    -0.252 OA
BRANCH   6   8
ATOM      8  C   UNL A   1      33.454  24.114  24.776  1.00  0.00     0.119 C 
ATOM      9  C   UNL A   1      32.451  23.315  25.622  1.00  0.00     0.100 C 
ATOM     10  C   UNL A   1      31.683  22.292  24.744  1.00  0.00     0.025 C 
ATOM     11  C   UNL A   1      33.412  23.597  23.305  1.00  0.00     0.026 C 
ATOM     12  C   UNL A   1      31.077  22.988  23.553  1.00  0.00    -0.027 C 
ATOM     13  C   UNL A   1      32.742  21.317  24.128  1.00  0.00     0.009 C 
ATOM     14  C   UNL A   1      31.973  23.637  22.792  1.00  0.00    -0.027 C 
ATOM     15  C   UNL A   1      33.735  22.096  23.225  1.00  0.00     0.009 C 
BRANCH   9  16
ATOM     16  C   UNL A   1      31.645  24.128  26.647  1.00  0.00     0.229 C 
ATOM     17  N   UNL A   1      31.464  25.468  26.772  1.00  0.00    -0.317 N 
ATOM     18  H   UNL A   1      31.000  25.709  27.605  1.00  0.00     0.170 HD
ATOM     19  O   UNL A   1      30.978  23.461  27.461  1.00  0.00    -0.274 OA
BRANCH  17  20
ATOM     20  C   UNL A   1      31.779  26.567  26.004  1.00  0.00     0.110 A 
ATOM     21  C   UNL A   1      31.110  27.009  24.856  1.00  0.00     0.098 A 
ATOM     22  C   UNL A   1      31.988  27.878  24.147  1.00  0.00    -0.017 A 
ATOM     23  S   UNL A   1      32.859  27.782  26.515  1.00  0.00    -0.122 S 
ATOM     24  C   UNL A   1      33.020  28.297  24.942  1.00  0.00     0.011 A 
ATOM     25  C   UNL A   1      32.087  28.515  22.810  1.00  0.00     0.038 C 
ATOM     26  C   UNL A   1      34.005  29.179  24.285  1.00  0.00     0.047 C 
ATOM     27  C   UNL A   1      33.571  29.023  22.798  1.00  0.00     0.010 C 
BRANCH  21  28
ATOM     28  C   UNL A   1      29.781  26.537  24.510  1.00  0.00     0.341 C 
ATOM     29  O   UNL A   1      29.138  25.820  25.273  1.00  0.00    -0.246 OA
BRANCH  28  30
ATOM     30  O   UNL A   1      29.313  27.015  23.326  1.00  0.00    -0.462 OA
BRANCH  30  31
ATOM     31  C   UNL A   1      28.293  28.024  23.419  1.00  0.00     0.230 C 
ATOM     32  C   UNL A   1      28.479  29.194  22.464  1.00  0.00     0.049 C 
ENDBRANCH  30  31
ENDBRANCH  28  30
ENDBRANCH  21  28
ENDBRANCH  17  20
ENDBRANCH   9  16
ENDBRANCH   6   8
ENDBRANCH   5   6
ENDBRANCH   4   5
ENDBRANCH   3   4
ENDBRANCH   2   3
ENDBRANCH   1   2
BRANCH   1  33
ATOM     33  C   UNL A   1      40.385  20.183  26.567  1.00  0.00     0.188 C 
BRANCH  33  34
ATOM     34  O   UNL A   1      41.749  20.165  26.155  1.00  0.00    -0.377 OA
BRANCH  34  35
ATOM     35  C   UNL A   1      42.508  18.972  26.295  1.00  0.00     0.188 C 
BRANCH  35  36
ATOM     36  C   UNL A   1      43.582  18.710  25.246  1.00  0.00     0.188 C 
BRANCH  36  37
ATOM     37  O   UNL A   1      44.947  18.812  25.670  1.00  0.00    -0.376 OA
BRANCH  37  38
ATOM     38  C   UNL A   1      45.861  19.658  24.966  1.00  0.00     0.202 C 
BRANCH  38  39
ATOM     39  C   UNL A   1      45.198  20.720  24.107  1.00  0.00     0.261 C 
BRANCH  39  40
ATOM     40  O   UNL A   1      45.965  21.904  24.244  1.00  0.00    -0.460 OA
BRANCH  40  41
ATOM     41  C   UNL A   1      45.724  22.592  25.380  1.00  0.00     0.338 C 
ATOM     42  O   UNL A   1      46.543  22.992  26.188  1.00  0.00    -0.246 OA
BRANCH  41  43
ATOM     43  C   UNL A   1      44.252  22.750  25.524  1.00  0.00     0.060 A 
ATOM     44  C   UNL A   1      43.797  23.813  24.744  1.00  0.00     0.016 A 
ATOM     45  C   UNL A   1      43.780  22.536  26.823  1.00  0.00     0.016 A 
ATOM     46  C   UNL A   1      43.396  24.929  25.429  1.00  0.00     0.010 A 
ATOM     47  C   UNL A   1      43.454  23.661  27.526  1.00  0.00     0.010 A 
ATOM     48  C   UNL A   1      43.371  24.863  26.826  1.00  0.00    -0.014 A 
BRANCH  48  49
ATOM     49  C   UNL A   1      43.143  26.088  27.543  1.00  0.00     0.031 A 
ATOM     50  C   UNL A   1      44.175  27.092  27.235  1.00  0.00     0.074 A 
ATOM     51  C   UNL A   1      42.053  26.296  28.299  1.00  0.00     0.049 A 
ATOM     52  N   UNL A   1      45.128  27.512  27.996  1.00  0.00    -0.248 NA
ATOM     53  C   UNL A   1      44.291  27.501  25.826  1.00  0.00     0.031 C 
ATOM     54  C   UNL A   1      40.830  25.494  28.377  1.00  0.00     0.029 A 
ATOM     55  N   UNL A   1      41.777  27.362  29.090  1.00  0.00    -0.354 N 
ATOM     56  C   UNL A   1      45.848  28.392  27.198  1.00  0.00     0.074 A 
ATOM     57  C   UNL A   1      45.459  28.135  25.842  1.00  0.00     0.031 C 
ATOM     58  C   UNL A   1      39.867  26.223  28.988  1.00  0.00     0.029 A 
ATOM     59  C   UNL A   1      40.443  27.482  29.439  1.00  0.00     0.049 A 
ATOM     60  H   UNL A   1      42.466  27.999  29.389  1.00  0.00     0.167 HD
ATOM     61  C   UNL A   1      46.459  29.480  27.734  1.00  0.00     0.037 A 
ATOM     62  C   UNL A   1      39.868  28.596  29.953  1.00  0.00     0.037 A 
ATOM     63  C   UNL A   1      46.638  29.328  29.155  1.00  0.00     0.049 A 
ATOM     64  C   UNL A   1      40.961  29.485  30.437  1.00  0.00     0.074 A 
ATOM     65  C   UNL A   1      47.315  28.429  29.956  1.00  0.00     0.029 A 
ATOM     66  N   UNL A   1      45.756  29.981  29.980  1.00  0.00    -0.354 N 
ATOM     67  N   UNL A   1      41.720  29.226  31.466  1.00  0.00    -0.248 NA
ATOM     68  C   UNL A   1      41.498  30.469  29.506  1.00  0.00     0.031 C 
ATOM     69  C   UNL A   1      46.512  28.285  31.124  1.00  0.00     0.029 A 
ATOM     70  C   UNL A   1      45.406  29.126  30.991  1.00  0.00     0.049 A 
ATOM     71  H   UNL A   1      45.431  30.903  29.865  1.00  0.00     0.167 HD
ATOM     72  C   UNL A   1      42.979  29.690  31.111  1.00  0.00     0.074 A 
ATOM     73  C   UNL A   1      42.759  30.533  29.943  1.00  0.00     0.031 C 
ATOM     74  C   UNL A   1      44.107  29.118  31.625  1.00  0.00     0.037 A 
BRANCH  61  75
ATOM     75  C   UNL A   1      46.507  30.823  27.043  1.00  0.00     0.064 A 
ATOM     76  C   UNL A   1      47.741  31.494  26.969  1.00  0.00     0.173 A 
ATOM     77  C   UNL A   1      45.373  31.604  26.710  1.00  0.00     0.173 A 
ATOM     78  F   UNL A   1      48.881  30.858  27.277  1.00  0.00    -0.203 F 
ATOM     79  C   UNL A   1      47.823  32.856  26.675  1.00  0.00     0.198 A 
ATOM     80  C   UNL A   1      45.466  32.945  26.355  1.00  0.00     0.198 A 
ATOM     81  F   UNL A   1      44.120  31.152  26.819  1.00  0.00    -0.203 F 
ATOM     82  F   UNL A   1      49.005  33.479  26.753  1.00  0.00    -0.200 F 
ATOM     83  C   UNL A   1      46.685  33.582  26.374  1.00  0.00     0.200 A 
ATOM     84  F   UNL A   1      44.346  33.631  26.081  1.00  0.00    -0.200 F 
ATOM     85  F   UNL A   1      46.755  34.900  26.153  1.00  0.00    -0.200 F 
ENDBRANCH  61  75
BRANCH  62  86
ATOM     86  C   UNL A   1      38.488  29.085  29.731  1.00  0.00     0.064 A 
ATOM     87  C   UNL A   1      37.670  29.462  30.807  1.00  0.00     0.173 A 
ATOM     88  C   UNL A   1      38.031  29.433  28.444  1.00  0.00     0.173 A 
ATOM     89  F   UNL A   1      38.060  29.215  32.066  1.00  0.00    -0.203 F 
ATOM     90  C   UNL A   1      36.472  30.154  30.609  1.00  0.00     0.198 A 
ATOM     91  C   UNL A   1      36.829  30.115  28.246  1.00  0.00     0.198 A 
ATOM     92  F   UNL A   1      38.784  29.203  27.359  1.00  0.00    -0.203 F 
ATOM     93  F   UNL A   1      35.744  30.548  31.663  1.00  0.00    -0.200 F 
ATOM     94  C   UNL A   1      36.056  30.485  29.329  1.00  0.00     0.200 A 
ATOM     95  F   UNL A   1      36.459  30.460  27.005  1.00  0.00    -0.200 F 
ATOM     96  F   UNL A   1      34.933  31.194  29.140  1.00  0.00    -0.200 F 
ENDBRANCH  62  86
BRANCH  74  97
ATOM     97  C   UNL A   1      43.945  28.203  32.804  1.00  0.00     0.064 A 
ATOM     98  C   UNL A   1      43.786  26.811  32.696  1.00  0.00     0.173 A 
ATOM     99  C   UNL A   1      44.110  28.740  34.087  1.00  0.00     0.173 A 
ATOM    100  F   UNL A   1      43.722  26.217  31.497  1.00  0.00    -0.203 F 
ATOM    101  C   UNL A   1      43.755  26.001  33.830  1.00  0.00     0.198 A 
ATOM    102  C   UNL A   1      44.116  27.924  35.214  1.00  0.00     0.198 A 
ATOM    103  F   UNL A   1      44.320  30.057  34.242  1.00  0.00    -0.203 F 
ATOM    104  F   UNL A   1      43.594  24.675  33.704  1.00  0.00    -0.200 F 
ATOM    105  C   UNL A   1      43.930  26.558  35.086  1.00  0.00     0.200 A 
ATOM    106  F   UNL A   1      44.336  28.461  36.423  1.00  0.00    -0.200 F 
ATOM    107  F   UNL A   1      43.949  25.773  36.173  1.00  0.00    -0.200 F 
ENDBRANCH  74  97
ENDBRANCH  48  49
ENDBRANCH  41  43
ENDBRANCH  40  41
ENDBRANCH  39  40
ENDBRANCH  38  39
ENDBRANCH  37  38
ENDBRANCH  36  37
ENDBRANCH  35  36
ENDBRANCH  34  35
ENDBRANCH  33  34
ENDBRANCH   1  33
TORSDOF 25
ENDMDL
MODEL 2
REMARK VINA RESULT:      -9.4      3.914      9.205
REMARK SMILES CCOC(=O)c1c(NC(=O)[C@@H]2[C@@H](C(=O)OCCOCCOCCOCCOC(=O)c3ccc(-c4c5nc(c(-c6c(F)c(F)c(F)c(F)c6F)c6ccc([nH]6)c(-c6c(F)c(F)c(F)c(F)c6F)c6nc(c(-c7c(F)c(F)c(F)c(F)c7F)c7ccc4[nH]7)C=C6)C=C5)cc3)[C@@H]3C=C[C@H]2CC3)sc2c1CCC2
REMARK SMILES IDX 19 1 18 2 17 3 16 4 15 5 13 6 14 7 12 8 11 9 96 10 93 11
REMARK SMILES IDX 95 12 97 13 94 14 98 15 9 16 8 17 10 19 7 20 6 21 101 22
REMARK SMILES IDX 99 23 100 24 102 25 104 26 103 27 4 28 5 29 3 30 2 31 1 32
REMARK SMILES IDX 20 33 21 34 22 35 23 36 24 37 25 38 26 39 27 40 28 41 29 42
REMARK SMILES IDX 30 43 31 44 92 45 32 46 91 47 33 48 34 49 35 50 85 51 36 52
REMARK SMILES IDX 90 53 84 54 86 55 37 56 89 57 83 58 82 59 38 61 70 62 50 63
REMARK SMILES IDX 69 64 51 65 54 66 68 67 87 68 52 69 53 70 67 72 88 73 55 74
REMARK SMILES IDX 39 75 40 76 48 77 41 78 42 79 46 80 49 81 43 82 44 83 47 84
REMARK SMILES IDX 45 85 71 86 72 87 80 88 73 89 74 90 78 91 81 92 75 93 76 94
REMARK SMILES IDX 79 95 77 96 56 97 57 98 65 99 58 100 59 101 63 102 66 103
REMARK SMILES IDX 60 104 61 105 64 106 62 107
REMARK H PARENT 8 18 86 60 54 71
REMARK Flexibility Score: inf
ROOT
ATOM      1  C   UNL A   1      36.423  29.475  27.374  1.00  0.00     0.188 C 
ENDROOT
BRANCH   1   2
ATOM      2  O   UNL A   1      35.271  30.299  27.556  1.00  0.00    -0.376 OA
BRANCH   2   3
ATOM      3  C   UNL A   1      33.998  29.656  27.644  1.00  0.00     0.202 C 
BRANCH   3   4
ATOM      4  C   UNL A   1      33.594  28.786  26.446  1.00  0.00     0.261 C 
BRANCH   4   5
ATOM      5  O   UNL A   1      33.108  27.484  26.828  1.00  0.00    -0.463 OA
BRANCH   5   6
ATOM      6  C   UNL A   1      31.767  27.338  26.875  1.00  0.00     0.310 C 
ATOM      7  O   UNL A   1      31.038  27.925  27.670  1.00  0.00    -0.252 OA
BRANCH   6   8
ATOM      8  C   UNL A   1      31.185  26.388  25.840  1.00  0.00     0.119 C 
ATOM      9  C   UNL A   1      32.262  25.344  25.508  1.00  0.00     0.100 C 
ATOM     10  C   UNL A   1      32.362  25.124  23.976  1.00  0.00     0.025 C 
ATOM     11  C   UNL A   1      30.572  26.932  24.512  1.00  0.00     0.026 C 
ATOM     12  C   UNL A   1      31.001  24.815  23.409  1.00  0.00    -0.027 C 
ATOM     13  C   UNL A   1      32.749  26.498  23.330  1.00  0.00     0.009 C 
ATOM     14  C   UNL A   1      30.082  25.762  23.660  1.00  0.00    -0.027 C 
ATOM     15  C   UNL A   1      31.646  27.556  23.608  1.00  0.00     0.009 C 
BRANCH   9  16
ATOM     16  C   UNL A   1      32.290  24.103  26.413  1.00  0.00     0.229 C 
ATOM     17  N   UNL A   1      33.199  23.099  26.516  1.00  0.00    -0.317 N 
ATOM     18  H   UNL A   1      32.887  22.366  27.093  1.00  0.00     0.170 HD
ATOM     19  O   UNL A   1      31.372  24.026  27.253  1.00  0.00    -0.274 OA
BRANCH  17  20
ATOM     20  C   UNL A   1      34.454  22.868  25.998  1.00  0.00     0.110 A 
ATOM     21  C   UNL A   1      34.875  21.737  25.289  1.00  0.00     0.098 A 
ATOM     22  C   UNL A   1      36.299  21.704  25.325  1.00  0.00    -0.017 A 
ATOM     23  S   UNL A   1      35.639  24.085  25.850  1.00  0.00    -0.122 S 
ATOM     24  C   UNL A   1      36.814  22.917  25.694  1.00  0.00     0.011 A 
ATOM     25  C   UNL A   1      37.401  20.757  25.024  1.00  0.00     0.038 C 
ATOM     26  C   UNL A   1      38.285  22.976  25.792  1.00  0.00     0.047 C 
ATOM     27  C   UNL A   1      38.631  21.460  25.696  1.00  0.00     0.010 C 
BRANCH  21  28
ATOM     28  C   UNL A   1      33.933  20.789  24.723  1.00  0.00     0.341 C 
ATOM     29  O   UNL A   1      34.049  19.581  24.915  1.00  0.00    -0.246 OA
BRANCH  28  30
ATOM     30  O   UNL A   1      32.907  21.365  24.042  1.00  0.00    -0.462 OA
BRANCH  30  31
ATOM     31  C   UNL A   1      32.160  20.488  23.180  1.00  0.00     0.230 C 
ATOM     32  C   UNL A   1      31.788  21.098  21.836  1.00  0.00     0.049 C 
ENDBRANCH  30  31
ENDBRANCH  28  30
ENDBRANCH  21  28
ENDBRANCH  17  20
ENDBRANCH   9  16
ENDBRANCH   6   8
ENDBRANCH   5   6
ENDBRANCH   4   5
ENDBRANCH   3   4
ENDBRANCH   2   3
ENDBRANCH   1   2
BRANCH   1  33
ATOM     33  C   UNL A   1      37.356  29.410  28.576  1.00  0.00     0.188 C 
BRANCH  33  34
ATOM     34  O   UNL A   1      36.658  28.907  29.713  1.00  0.00    -0.377 OA
BRANCH  34  35
ATOM     35  C   UNL A   1      36.877  29.496  30.987  1.00  0.00     0.188 C 
BRANCH  35  36
ATOM     36  C   UNL A   1      35.924  30.610  31.406  1.00  0.00     0.188 C 
BRANCH  36  37
ATOM     37  O   UNL A   1      36.001  31.842  30.678  1.00  0.00    -0.376 OA
BRANCH  37  38
ATOM     38  C   UNL A   1      34.853  32.689  30.571  1.00  0.00     0.202 C 
BRANCH  38  39
ATOM     39  C   UNL A   1      34.972  34.006  31.316  1.00  0.00     0.261 C 
BRANCH  39  40
ATOM     40  O   UNL A   1      36.084  33.891  32.189  1.00  0.00    -0.460 OA
BRANCH  40  41
ATOM     41  C   UNL A   1      36.031  34.707  33.263  1.00  0.00     0.338 C 
ATOM     42  O   UNL A   1      35.422  35.757  33.362  1.00  0.00    -0.246 OA
BRANCH  41  43
ATOM     43  C   UNL A   1      36.900  34.133  34.326  1.00  0.00     0.060 A 
ATOM     44  C   UNL A   1      38.012  34.946  34.538  1.00  0.00     0.016 A 
ATOM     45  C   UNL A   1      37.002  32.739  34.287  1.00  0.00     0.016 A 
ATOM     46  C   UNL A   1      39.210  34.445  34.104  1.00  0.00     0.010 A 
ATOM     47  C   UNL A   1      38.173  32.248  33.780  1.00  0.00     0.010 A 
ATOM     48  C   UNL A   1      39.228  33.141  33.600  1.00  0.00    -0.014 A 
BRANCH  48  49
ATOM     49  C   UNL A   1      40.437  32.691  32.965  1.00  0.00     0.031 A 
ATOM     50  C   UNL A   1      41.559  32.644  33.917  1.00  0.00     0.074 A 
ATOM     51  C   UNL A   1      40.475  32.265  31.692  1.00  0.00     0.049 A 
ATOM     52  N   UNL A   1      42.582  33.427  33.981  1.00  0.00    -0.248 NA
ATOM     53  C   UNL A   1      41.395  31.755  35.079  1.00  0.00     0.031 C 
ATOM     54  C   UNL A   1      39.355  31.957  30.800  1.00  0.00     0.029 A 
ATOM     55  N   UNL A   1      41.561  31.910  30.963  1.00  0.00    -0.354 N 
ATOM     56  C   UNL A   1      43.286  32.990  35.095  1.00  0.00     0.074 A 
ATOM     57  C   UNL A   1      42.389  32.170  35.858  1.00  0.00     0.031 C 
ATOM     58  C   UNL A   1      39.820  31.249  29.743  1.00  0.00     0.029 A 
ATOM     59  C   UNL A   1      41.271  31.162  29.835  1.00  0.00     0.049 A 
ATOM     60  H   UNL A   1      42.480  32.161  31.214  1.00  0.00     0.167 HD
ATOM     61  C   UNL A   1      44.642  33.064  35.138  1.00  0.00     0.037 A 
ATOM     62  C   UNL A   1      42.171  30.442  29.124  1.00  0.00     0.037 A 
ATOM     63  C   UNL A   1      45.140  34.008  34.171  1.00  0.00     0.049 A 
ATOM     64  C   UNL A   1      43.531  30.911  29.510  1.00  0.00     0.074 A 
ATOM     65  C   UNL A   1      44.973  35.363  33.963  1.00  0.00     0.029 A 
ATOM     66  N   UNL A   1      45.658  33.507  33.002  1.00  0.00    -0.354 N 
ATOM     67  N   UNL A   1      44.016  32.086  29.212  1.00  0.00    -0.248 NA
ATOM     68  C   UNL A   1      44.198  30.229  30.611  1.00  0.00     0.031 C 
ATOM     69  C   UNL A   1      44.992  35.534  32.548  1.00  0.00     0.029 A 
ATOM     70  C   UNL A   1      45.203  34.281  31.968  1.00  0.00     0.049 A 
ATOM     71  H   UNL A   1      46.252  32.726  32.920  1.00  0.00     0.167 HD
ATOM     72  C   UNL A   1      44.761  32.459  30.323  1.00  0.00     0.074 A 
ATOM     73  C   UNL A   1      44.919  31.239  31.104  1.00  0.00     0.031 C 
ATOM     74  C   UNL A   1      44.931  33.776  30.642  1.00  0.00     0.037 A 
BRANCH  61  75
ATOM     75  C   UNL A   1      45.507  31.991  35.755  1.00  0.00     0.064 A 
ATOM     76  C   UNL A   1      46.466  32.372  36.710  1.00  0.00     0.173 A 
ATOM     77  C   UNL A   1      45.642  30.672  35.256  1.00  0.00     0.173 A 
ATOM     78  F   UNL A   1      46.446  33.604  37.242  1.00  0.00    -0.203 F 
ATOM     79  C   UNL A   1      47.524  31.534  37.069  1.00  0.00     0.198 A 
ATOM     80  C   UNL A   1      46.660  29.817  35.664  1.00  0.00     0.198 A 
ATOM     81  F   UNL A   1      44.877  30.182  34.275  1.00  0.00    -0.203 F 
ATOM     82  F   UNL A   1      48.487  31.993  37.877  1.00  0.00    -0.200 F 
ATOM     83  C   UNL A   1      47.624  30.260  36.541  1.00  0.00     0.200 A 
ATOM     84  F   UNL A   1      46.744  28.592  35.126  1.00  0.00    -0.200 F 
ATOM     85  F   UNL A   1      48.670  29.479  36.835  1.00  0.00    -0.200 F 
ENDBRANCH  61  75
BRANCH  62  86
ATOM     86  C   UNL A   1      41.946  29.161  28.416  1.00  0.00     0.064 A 
ATOM     87  C   UNL A   1      41.282  28.094  29.039  1.00  0.00     0.173 A 
ATOM     88  C   UNL A   1      42.154  29.044  27.026  1.00  0.00     0.173 A 
ATOM     89  F   UNL A   1      40.998  28.152  30.348  1.00  0.00    -0.203 F 
ATOM     90  C   UNL A   1      40.841  26.982  28.315  1.00  0.00     0.198 A 
ATOM     91  C   UNL A   1      41.724  27.929  26.306  1.00  0.00     0.198 A 
ATOM     92  F   UNL A   1      42.693  30.050  26.323  1.00  0.00    -0.203 F 
ATOM     93  F   UNL A   1      40.160  26.008  28.934  1.00  0.00    -0.200 F 
ATOM     94  C   UNL A   1      41.058  26.903  26.949  1.00  0.00     0.200 A 
ATOM     95  F   UNL A   1      41.908  27.885  24.979  1.00  0.00    -0.200 F 
ATOM     96  F   UNL A   1      40.591  25.862  26.245  1.00  0.00    -0.200 F 
ENDBRANCH  62  86
BRANCH  74  97
ATOM     97  C   UNL A   1      44.566  34.794  29.600  1.00  0.00     0.064 A 
ATOM     98  C   UNL A   1      45.440  35.218  28.584  1.00  0.00     0.173 A 
ATOM     99  C   UNL A   1      43.239  35.236  29.541  1.00  0.00     0.173 A 
ATOM    100  F   UNL A   1      46.696  34.757  28.520  1.00  0.00    -0.203 F 
ATOM    101  C   UNL A   1      45.008  36.080  27.579  1.00  0.00     0.198 A 
ATOM    102  C   UNL A   1      42.801  36.067  28.515  1.00  0.00     0.198 A 
ATOM    103  F   UNL A   1      42.350  34.817  30.456  1.00  0.00    -0.203 F 
ATOM    104  F   UNL A   1      45.861  36.479  26.623  1.00  0.00    -0.200 F 
ATOM    105  C   UNL A   1      43.686  36.495  27.540  1.00  0.00     0.200 A 
ATOM    106  F   UNL A   1      41.510  36.425  28.453  1.00  0.00    -0.200 F 
ATOM    107  F   UNL A   1      43.259  37.286  26.545  1.00  0.00    -0.200 F 
ENDBRANCH  74  97
ENDBRANCH  48  49
ENDBRANCH  41  43
ENDBRANCH  40  41
ENDBRANCH  39  40
ENDBRANCH  38  39
ENDBRANCH  37  38
ENDBRANCH  36  37
ENDBRANCH  35  36
ENDBRANCH  34  35
ENDBRANCH  33  34
ENDBRANCH   1  33
TORSDOF 25
ENDMDL
MODEL 3
REMARK VINA RESULT:      -9.4      2.212      4.897
REMARK SMILES CCOC(=O)c1c(NC(=O)[C@@H]2[C@@H](C(=O)OCCOCCOCCOCCOC(=O)c3ccc(-c4c5nc(c(-c6c(F)c(F)c(F)c(F)c6F)c6ccc([nH]6)c(-c6c(F)c(F)c(F)c(F)c6F)c6nc(c(-c7c(F)c(F)c(F)c(F)c7F)c7ccc4[nH]7)C=C6)C=C5)cc3)[C@@H]3C=C[C@H]2CC3)sc2c1CCC2
REMARK SMILES IDX 19 1 18 2 17 3 16 4 15 5 13 6 14 7 12 8 11 9 96 10 93 11
REMARK SMILES IDX 95 12 97 13 94 14 98 15 9 16 8 17 10 19 7 20 6 21 101 22
REMARK SMILES IDX 99 23 100 24 102 25 104 26 103 27 4 28 5 29 3 30 2 31 1 32
REMARK SMILES IDX 20 33 21 34 22 35 23 36 24 37 25 38 26 39 27 40 28 41 29 42
REMARK SMILES IDX 30 43 31 44 92 45 32 46 91 47 33 48 34 49 35 50 85 51 36 52
REMARK SMILES IDX 90 53 84 54 86 55 37 56 89 57 83 58 82 59 38 61 70 62 50 63
REMARK SMILES IDX 69 64 51 65 54 66 68 67 87 68 52 69 53 70 67 72 88 73 55 74
REMARK SMILES IDX 39 75 40 76 48 77 41 78 42 79 46 80 49 81 43 82 44 83 47 84
REMARK SMILES IDX 45 85 71 86 72 87 80 88 73 89 74 90 78 91 81 92 75 93 76 94
REMARK SMILES IDX 79 95 77 96 56 97 57 98 65 99 58 100 59 101 63 102 66 103
REMARK SMILES IDX 60 104 61 105 64 106 62 107
REMARK H PARENT 8 18 86 60 54 71
REMARK Flexibility Score: inf
ROOT
ATOM      1  C   UNL A   1      39.754  21.883  26.122  1.00  0.00     0.188 C 
ENDROOT
BRANCH   1   2
ATOM      2  O   UNL A   1      38.703  21.390  25.290  1.00  0.00    -0.376 OA
BRANCH   2   3
ATOM      3  C   UNL A   1      37.357  21.615  25.712  1.00  0.00     0.202 C 
BRANCH   3   4
ATOM      4  C   UNL A   1      36.793  23.021  25.464  1.00  0.00     0.261 C 
BRANCH   4   5
ATOM      5  O   UNL A   1      35.455  23.193  25.970  1.00  0.00    -0.463 OA
BRANCH   5   6
ATOM      6  C   UNL A   1      34.832  24.340  25.629  1.00  0.00     0.310 C 
ATOM      7  O   UNL A   1      35.257  25.461  25.898  1.00  0.00    -0.252 OA
BRANCH   6   8
ATOM      8  C   UNL A   1      33.538  24.165  24.849  1.00  0.00     0.119 C 
ATOM      9  C   UNL A   1      32.586  23.320  25.709  1.00  0.00     0.100 C 
ATOM     10  C   UNL A   1      31.908  22.215  24.857  1.00  0.00     0.025 C 
ATOM     11  C   UNL A   1      33.553  23.600  23.395  1.00  0.00     0.026 C 
ATOM     12  C   UNL A   1      31.268  22.826  23.638  1.00  0.00    -0.027 C 
ATOM     13  C   UNL A   1      33.044  21.303  24.284  1.00  0.00     0.009 C 
ATOM     14  C   UNL A   1      32.123  23.516  22.865  1.00  0.00    -0.027 C 
ATOM     15  C   UNL A   1      33.989  22.126  23.367  1.00  0.00     0.009 C 
BRANCH   9  16
ATOM     16  C   UNL A   1      31.708  24.103  26.698  1.00  0.00     0.229 C 
ATOM     17  N   UNL A   1      31.453  25.432  26.798  1.00  0.00    -0.317 N 
ATOM     18  H   UNL A   1      30.952  25.659  27.614  1.00  0.00     0.170 HD
ATOM     19  O   UNL A   1      31.054  23.412  27.503  1.00  0.00    -0.274 OA
BRANCH  17  20
ATOM     20  C   UNL A   1      31.732  26.536  26.023  1.00  0.00     0.110 A 
ATOM     21  C   UNL A   1      31.054  26.945  24.869  1.00  0.00     0.098 A 
ATOM     22  C   UNL A   1      31.904  27.841  24.158  1.00  0.00    -0.017 A 
ATOM     23  S   UNL A   1      32.763  27.794  26.532  1.00  0.00    -0.122 S 
ATOM     24  C   UNL A   1      32.915  28.303  24.955  1.00  0.00     0.011 A 
ATOM     25  C   UNL A   1      31.988  28.471  22.817  1.00  0.00     0.038 C 
ATOM     26  C   UNL A   1      33.871  29.216  24.298  1.00  0.00     0.047 C 
ATOM     27  C   UNL A   1      33.452  29.032  22.809  1.00  0.00     0.010 C 
BRANCH  21  28
ATOM     28  C   UNL A   1      29.746  26.422  24.518  1.00  0.00     0.341 C 
ATOM     29  O   UNL A   1      29.139  25.662  25.270  1.00  0.00    -0.246 OA
BRANCH  28  30
ATOM     30  O   UNL A   1      29.251  26.902  23.346  1.00  0.00    -0.462 OA
BRANCH  30  31
ATOM     31  C   UNL A   1      28.205  27.882  23.465  1.00  0.00     0.230 C 
ATOM     32  C   UNL A   1      28.412  29.125  22.612  1.00  0.00     0.049 C 
ENDBRANCH  30  31
ENDBRANCH  28  30
ENDBRANCH  21  28
ENDBRANCH  17  20
ENDBRANCH   9  16
ENDBRANCH   6   8
ENDBRANCH   5   6
ENDBRANCH   4   5
ENDBRANCH   3   4
ENDBRANCH   2   3
ENDBRANCH   1   2
BRANCH   1  33
ATOM     33  C   UNL A   1      40.390  20.839  27.030  1.00  0.00     0.188 C 
BRANCH  33  34
ATOM     34  O   UNL A   1      41.784  20.732  26.754  1.00  0.00    -0.377 OA
BRANCH  34  35
ATOM     35  C   UNL A   1      42.390  19.448  26.696  1.00  0.00     0.188 C 
BRANCH  35  36
ATOM     36  C   UNL A   1      43.173  19.111  25.432  1.00  0.00     0.188 C 
BRANCH  36  37
ATOM     37  O   UNL A   1      44.594  18.971  25.563  1.00  0.00    -0.376 OA
BRANCH  37  38
ATOM     38  C   UNL A   1      45.473  19.673  24.679  1.00  0.00     0.202 C 
BRANCH  38  39
ATOM     39  C   UNL A   1      44.913  20.979  24.144  1.00  0.00     0.261 C 
BRANCH  39  40
ATOM     40  O   UNL A   1      45.842  21.997  24.478  1.00  0.00    -0.460 OA
BRANCH  40  41
ATOM     41  C   UNL A   1      45.558  22.649  25.626  1.00  0.00     0.338 C 
ATOM     42  O   UNL A   1      46.024  22.435  26.731  1.00  0.00    -0.246 OA
BRANCH  41  43
ATOM     43  C   UNL A   1      44.519  23.674  25.334  1.00  0.00     0.060 A 
ATOM     44  C   UNL A   1      45.103  24.826  24.811  1.00  0.00     0.016 A 
ATOM     45  C   UNL A   1      43.495  23.734  26.286  1.00  0.00     0.016 A 
ATOM     46  C   UNL A   1      45.115  25.918  25.636  1.00  0.00     0.010 A 
ATOM     47  C   UNL A   1      43.559  24.787  27.154  1.00  0.00     0.010 A 
ATOM     48  C   UNL A   1      44.451  25.817  26.863  1.00  0.00    -0.014 A 
BRANCH  48  49
ATOM     49  C   UNL A   1      44.632  26.887  27.806  1.00  0.00     0.031 A 
ATOM     50  C   UNL A   1      45.629  26.537  28.831  1.00  0.00     0.074 A 
ATOM     51  C   UNL A   1      44.038  28.083  27.671  1.00  0.00     0.049 A 
ATOM     52  N   UNL A   1      45.428  26.262  30.076  1.00  0.00    -0.248 NA
ATOM     53  C   UNL A   1      46.986  26.232  28.349  1.00  0.00     0.031 C 
ATOM     54  C   UNL A   1      43.320  28.619  26.513  1.00  0.00     0.029 A 
ATOM     55  N   UNL A   1      44.058  29.127  28.536  1.00  0.00    -0.354 N 
ATOM     56  C   UNL A   1      46.685  25.935  30.568  1.00  0.00     0.074 A 
ATOM     57  C   UNL A   1      47.520  25.674  29.431  1.00  0.00     0.031 C 
ATOM     58  C   UNL A   1      43.178  29.957  26.667  1.00  0.00     0.029 A 
ATOM     59  C   UNL A   1      43.690  30.338  27.976  1.00  0.00     0.049 A 
ATOM     60  H   UNL A   1      44.313  29.033  29.483  1.00  0.00     0.167 HD
ATOM     61  C   UNL A   1      47.029  26.222  31.850  1.00  0.00     0.037 A 
ATOM     62  C   UNL A   1      43.914  31.554  28.531  1.00  0.00     0.037 A 
ATOM     63  C   UNL A   1      45.862  26.442  32.664  1.00  0.00     0.049 A 
ATOM     64  C   UNL A   1      44.237  31.341  29.969  1.00  0.00     0.074 A 
ATOM     65  C   UNL A   1      44.771  25.674  33.023  1.00  0.00     0.029 A 
ATOM     66  N   UNL A   1      45.519  27.742  32.945  1.00  0.00    -0.354 N 
ATOM     67  N   UNL A   1      43.379  30.930  30.863  1.00  0.00    -0.248 NA
ATOM     68  C   UNL A   1      45.637  31.171  30.333  1.00  0.00     0.031 C 
ATOM     69  C   UNL A   1      43.677  26.584  33.097  1.00  0.00     0.029 A 
ATOM     70  C   UNL A   1      44.161  27.862  32.812  1.00  0.00     0.049 A 
ATOM     71  H   UNL A   1      46.140  28.462  33.196  1.00  0.00     0.167 HD
ATOM     72  C   UNL A   1      44.106  30.094  31.701  1.00  0.00     0.074 A 
ATOM     73  C   UNL A   1      45.504  30.362  31.388  1.00  0.00     0.031 C 
ATOM     74  C   UNL A   1      43.499  29.065  32.360  1.00  0.00     0.037 A 
BRANCH  61  75
ATOM     75  C   UNL A   1      48.405  26.703  32.246  1.00  0.00     0.064 A 
ATOM     76  C   UNL A   1      49.087  26.014  33.265  1.00  0.00     0.173 A 
ATOM     77  C   UNL A   1      48.960  27.956  31.887  1.00  0.00     0.173 A 
ATOM     78  F   UNL A   1      48.644  24.824  33.697  1.00  0.00    -0.203 F 
ATOM     79  C   UNL A   1      50.180  26.574  33.930  1.00  0.00     0.198 A 
ATOM     80  C   UNL A   1      50.087  28.482  32.509  1.00  0.00     0.198 A 
ATOM     81  F   UNL A   1      48.385  28.783  31.008  1.00  0.00    -0.203 F 
ATOM     82  F   UNL A   1      50.708  25.940  34.984  1.00  0.00    -0.200 F 
ATOM     83  C   UNL A   1      50.675  27.810  33.556  1.00  0.00     0.200 A 
ATOM     84  F   UNL A   1      50.539  29.689  32.139  1.00  0.00    -0.200 F 
ATOM     85  F   UNL A   1      51.682  28.375  34.233  1.00  0.00    -0.200 F 
ENDBRANCH  61  75
BRANCH  62  86
ATOM     86  C   UNL A   1      44.212  32.825  27.831  1.00  0.00     0.064 A 
ATOM     87  C   UNL A   1      43.555  34.015  28.179  1.00  0.00     0.173 A 
ATOM     88  C   UNL A   1      45.328  32.950  26.980  1.00  0.00     0.173 A 
ATOM     89  F   UNL A   1      42.517  33.987  29.027  1.00  0.00    -0.203 F 
ATOM     90  C   UNL A   1      43.994  35.257  27.712  1.00  0.00     0.198 A 
ATOM     91  C   UNL A   1      45.760  34.189  26.505  1.00  0.00     0.198 A 
ATOM     92  F   UNL A   1      46.079  31.885  26.667  1.00  0.00    -0.203 F 
ATOM     93  F   UNL A   1      43.378  36.378  28.110  1.00  0.00    -0.200 F 
ATOM     94  C   UNL A   1      45.100  35.344  26.880  1.00  0.00     0.200 A 
ATOM     95  F   UNL A   1      46.852  34.259  25.732  1.00  0.00    -0.200 F 
ATOM     96  F   UNL A   1      45.554  36.538  26.474  1.00  0.00    -0.200 F 
ENDBRANCH  62  86
BRANCH  74  97
ATOM     97  C   UNL A   1      41.998  29.058  32.404  1.00  0.00     0.064 A 
ATOM     98  C   UNL A   1      41.193  28.376  31.475  1.00  0.00     0.173 A 
ATOM     99  C   UNL A   1      41.365  29.635  33.512  1.00  0.00     0.173 A 
ATOM    100  F   UNL A   1      41.739  27.716  30.445  1.00  0.00    -0.203 F 
ATOM    101  C   UNL A   1      39.810  28.312  31.634  1.00  0.00     0.198 A 
ATOM    102  C   UNL A   1      39.988  29.537  33.686  1.00  0.00     0.198 A 
ATOM    103  F   UNL A   1      42.093  30.251  34.456  1.00  0.00    -0.203 F 
ATOM    104  F   UNL A   1      39.060  27.662  30.731  1.00  0.00    -0.200 F 
ATOM    105  C   UNL A   1      39.211  28.884  32.745  1.00  0.00     0.200 A 
ATOM    106  F   UNL A   1      39.419  30.048  34.788  1.00  0.00    -0.200 F 
ATOM    107  F   UNL A   1      37.886  28.781  32.922  1.00  0.00    -0.200 F 
ENDBRANCH  74  97
ENDBRANCH  48  49
ENDBRANCH  41  43
ENDBRANCH  40  41
ENDBRANCH  39  40
ENDBRANCH  38  39
ENDBRANCH  37  38
ENDBRANCH  36  37
ENDBRANCH  35  36
ENDBRANCH  34  35
ENDBRANCH  33  34
ENDBRANCH   1  33
TORSDOF 25
ENDMDL
