MODEL 1
REMARK VINA RESULT:     -10.9      0.000      0.000
REMARK SMILES Cc1ccccc1CNC(=O)N1CCC(CC(=O)OCCOCCOCCOCCOC(=O)c2ccc(-c3c4nc(c(-c5c(F)c(F)c(F)c(F)c5F)c5ccc([nH]5)c(-c5c(F)c(F)c(F)c(F)c5F)c5nc(c(-c6c(F)c(F)c(F)c(F)c6F)c6ccc3[nH]6)C=C5)C=C4)cc2)CC1
REMARK SMILES IDX 24 1 23 2 22 3 21 4 20 5 19 6 17 7 18 8 16 9 15 10 9 11
REMARK SMILES IDX 10 12 11 14 12 15 13 16 98 17 14 18 97 19 8 20 7 21 1 22
REMARK SMILES IDX 2 23 3 24 4 25 6 26 5 27 25 28 26 29 27 30 28 31 29 32 30 33
REMARK SMILES IDX 31 34 32 35 33 36 34 37 35 38 96 39 36 40 95 41 37 42 38 43
REMARK SMILES IDX 39 44 89 45 40 46 94 47 88 48 90 49 41 50 93 51 87 52 86 53
REMARK SMILES IDX 42 55 74 56 54 57 73 58 55 59 58 60 72 61 91 62 56 63 57 64
REMARK SMILES IDX 71 66 92 67 59 68 43 69 44 70 52 71 45 72 46 73 50 74 53 75
REMARK SMILES IDX 47 76 48 77 51 78 49 79 75 80 76 81 84 82 77 83 78 84 82 85
REMARK SMILES IDX 85 86 79 87 80 88 83 89 81 90 60 91 61 92 69 93 62 94 63 95
REMARK SMILES IDX 67 96 70 97 64 98 65 99 68 100 66 101
REMARK H PARENT 9 13 90 54 58 65
REMARK Flexibility Score: inf
ROOT
ATOM      1  C   UNL A   1      37.652  20.681  25.029  1.00  0.00     0.188 C 
ENDROOT
BRANCH   1   2
ATOM      2  C   UNL A   1      37.061  21.976  24.481  1.00  0.00     0.188 C 
BRANCH   2   3
ATOM      3  O   UNL A   1      35.780  21.917  23.875  1.00  0.00    -0.376 OA
BRANCH   3   4
ATOM      4  C   UNL A   1      34.857  22.885  24.372  1.00  0.00     0.202 C 
BRANCH   4   5
ATOM      5  C   UNL A   1      33.517  22.353  24.887  1.00  0.00     0.261 C 
BRANCH   5   6
ATOM      6  O   UNL A   1      32.483  22.501  23.891  1.00  0.00    -0.463 OA
BRANCH   6   7
ATOM      7  C   UNL A   1      31.515  23.419  24.139  1.00  0.00     0.306 C 
ATOM      8  O   UNL A   1      30.809  23.448  25.125  1.00  0.00    -0.252 OA
BRANCH   7   9
ATOM      9  C   UNL A   1      31.513  24.493  23.069  1.00  0.00     0.126 C 
BRANCH   9  10
ATOM     10  C   UNL A   1      31.854  25.891  23.618  1.00  0.00     0.003 C 
ATOM     11  N   UNL A   1      33.387  28.622  27.675  1.00  0.00    -0.334 N 
ATOM     12  C   UNL A   1      32.264  28.120  27.111  1.00  0.00     0.317 C 
ATOM     13  H   UNL A   1      33.440  28.566  28.657  1.00  0.00     0.165 HD
ATOM     14  O   UNL A   1      31.252  28.044  27.806  1.00  0.00    -0.249 OA
ATOM     15  N   UNL A   1      32.283  27.780  25.788  1.00  0.00    -0.325 N 
ATOM     16  C   UNL A   1      31.048  27.865  25.040  1.00  0.00     0.121 C 
ATOM     17  C   UNL A   1      33.419  27.240  25.046  1.00  0.00     0.121 C 
ATOM     18  C   UNL A   1      30.685  26.531  24.388  1.00  0.00     0.026 C 
ATOM     19  C   UNL A   1      33.096  25.851  24.507  1.00  0.00     0.026 C 
BRANCH  11  20
ATOM     20  C   UNL A   1      34.516  29.227  27.010  1.00  0.00     0.153 C 
BRANCH  20  21
ATOM     21  C   UNL A   1      34.948  30.522  27.646  1.00  0.00    -0.026 A 
ATOM     22  C   UNL A   1      37.437  29.863  27.777  1.00  0.00     0.044 C 
ATOM     23  C   UNL A   1      36.290  30.825  27.942  1.00  0.00    -0.046 A 
ATOM     24  C   UNL A   1      36.604  32.111  28.417  1.00  0.00     0.004 A 
ATOM     25  C   UNL A   1      35.618  33.084  28.584  1.00  0.00     0.000 A 
ATOM     26  C   UNL A   1      33.962  31.516  27.829  1.00  0.00     0.006 A 
ATOM     27  C   UNL A   1      34.293  32.786  28.293  1.00  0.00     0.000 A 
ENDBRANCH  20  21
ENDBRANCH  11  20
ENDBRANCH   9  10
ENDBRANCH   7   9
ENDBRANCH   6   7
ENDBRANCH   5   6
ENDBRANCH   4   5
ENDBRANCH   3   4
ENDBRANCH   2   3
ENDBRANCH   1   2
BRANCH   1  28
ATOM     28  O   UNL A   1      38.448  20.851  26.188  1.00  0.00    -0.377 OA
BRANCH  28  29
ATOM     29  C   UNL A   1      39.836  21.110  26.066  1.00  0.00     0.188 C 
BRANCH  29  30
ATOM     30  C   UNL A   1      40.667  21.110  27.324  1.00  0.00     0.188 C 
BRANCH  30  31
ATOM     31  O   UNL A   1      41.341  19.856  27.357  1.00  0.00    -0.376 OA
BRANCH  31  32
ATOM     32  C   UNL A   1      41.633  19.259  26.101  1.00  0.00     0.202 C 
BRANCH  32  33
ATOM     33  C   UNL A   1      43.130  19.050  25.884  1.00  0.00     0.261 C 
BRANCH  33  34
ATOM     34  O   UNL A   1      43.580  19.972  24.864  1.00  0.00    -0.460 OA
BRANCH  34  35
ATOM     35  C   UNL A   1      44.438  20.943  25.287  1.00  0.00     0.338 C 
ATOM     36  O   UNL A   1      45.630  20.769  25.503  1.00  0.00    -0.246 OA
BRANCH  35  37
ATOM     37  C   UNL A   1      43.684  22.154  25.752  1.00  0.00     0.060 A 
ATOM     38  C   UNL A   1      43.276  23.132  24.826  1.00  0.00     0.016 A 
ATOM     39  C   UNL A   1      43.744  22.494  27.094  1.00  0.00     0.016 A 
ATOM     40  C   UNL A   1      43.132  24.484  25.218  1.00  0.00     0.010 A 
ATOM     41  C   UNL A   1      43.732  23.838  27.437  1.00  0.00     0.010 A 
ATOM     42  C   UNL A   1      43.459  24.869  26.517  1.00  0.00    -0.014 A 
BRANCH  42  43
ATOM     43  C   UNL A   1      43.681  26.257  27.018  1.00  0.00     0.031 A 
ATOM     44  C   UNL A   1      42.470  27.086  27.398  1.00  0.00     0.074 A 
ATOM     45  C   UNL A   1      44.906  26.671  27.461  1.00  0.00     0.049 A 
ATOM     46  N   UNL A   1      42.506  28.211  28.028  1.00  0.00    -0.248 NA
ATOM     47  C   UNL A   1      41.088  26.693  27.128  1.00  0.00     0.031 C 
ATOM     48  C   UNL A   1      45.131  27.642  28.539  1.00  0.00     0.029 A 
ATOM     49  N   UNL A   1      46.215  26.269  27.156  1.00  0.00    -0.354 N 
ATOM     50  C   UNL A   1      41.252  28.525  28.513  1.00  0.00     0.074 A 
ATOM     51  C   UNL A   1      40.391  27.573  27.861  1.00  0.00     0.031 C 
ATOM     52  C   UNL A   1      46.431  27.840  28.765  1.00  0.00     0.029 A 
ATOM     53  C   UNL A   1      47.121  27.233  27.668  1.00  0.00     0.049 A 
ATOM     54  H   UNL A   1      46.464  25.452  26.666  1.00  0.00     0.167 HD
ATOM     55  C   UNL A   1      41.149  29.494  29.480  1.00  0.00     0.037 A 
ATOM     56  C   UNL A   1      47.949  27.958  26.860  1.00  0.00     0.037 A 
ATOM     57  C   UNL A   1      42.444  30.180  29.672  1.00  0.00     0.049 A 
ATOM     58  C   UNL A   1      47.532  29.420  26.855  1.00  0.00     0.074 A 
ATOM     59  C   UNL A   1      43.302  30.389  30.742  1.00  0.00     0.029 A 
ATOM     60  N   UNL A   1      43.129  30.639  28.546  1.00  0.00    -0.354 N 
ATOM     61  N   UNL A   1      46.294  29.797  27.084  1.00  0.00    -0.248 NA
ATOM     62  C   UNL A   1      48.451  30.555  26.811  1.00  0.00     0.031 C 
ATOM     63  C   UNL A   1      44.528  30.909  30.233  1.00  0.00     0.029 A 
ATOM     64  C   UNL A   1      44.392  31.083  28.864  1.00  0.00     0.049 A 
ATOM     65  H   UNL A   1      42.756  30.642  27.635  1.00  0.00     0.167 HD
ATOM     66  C   UNL A   1      46.267  31.137  27.350  1.00  0.00     0.074 A 
ATOM     67  C   UNL A   1      47.628  31.581  27.108  1.00  0.00     0.031 C 
ATOM     68  C   UNL A   1      45.188  31.791  27.875  1.00  0.00     0.037 A 
BRANCH  55  69
ATOM     69  C   UNL A   1      39.946  29.787  30.392  1.00  0.00     0.064 A 
ATOM     70  C   UNL A   1      39.467  31.115  30.552  1.00  0.00     0.173 A 
ATOM     71  C   UNL A   1      39.266  28.848  31.196  1.00  0.00     0.173 A 
ATOM     72  F   UNL A   1      39.965  32.131  29.834  1.00  0.00    -0.203 F 
ATOM     73  C   UNL A   1      38.450  31.467  31.453  1.00  0.00     0.198 A 
ATOM     74  C   UNL A   1      38.215  29.194  32.063  1.00  0.00     0.198 A 
ATOM     75  F   UNL A   1      39.593  27.556  31.209  1.00  0.00    -0.203 F 
ATOM     76  F   UNL A   1      38.092  32.753  31.586  1.00  0.00    -0.200 F 
ATOM     77  C   UNL A   1      37.818  30.503  32.206  1.00  0.00     0.200 A 
ATOM     78  F   UNL A   1      37.600  28.234  32.772  1.00  0.00    -0.200 F 
ATOM     79  F   UNL A   1      36.837  30.832  33.057  1.00  0.00    -0.200 F 
ENDBRANCH  55  69
BRANCH  56  80
ATOM     80  C   UNL A   1      48.590  27.075  25.838  1.00  0.00     0.064 A 
ATOM     81  C   UNL A   1      48.040  27.259  24.544  1.00  0.00     0.173 A 
ATOM     82  C   UNL A   1      49.973  26.852  25.917  1.00  0.00     0.173 A 
ATOM     83  F   UNL A   1      46.714  27.419  24.407  1.00  0.00    -0.203 F 
ATOM     84  C   UNL A   1      48.860  27.558  23.457  1.00  0.00     0.198 A 
ATOM     85  C   UNL A   1      50.789  27.117  24.809  1.00  0.00     0.198 A 
ATOM     86  F   UNL A   1      50.552  26.630  27.106  1.00  0.00    -0.203 F 
ATOM     87  F   UNL A   1      48.321  28.009  22.313  1.00  0.00    -0.200 F 
ATOM     88  C   UNL A   1      50.235  27.548  23.611  1.00  0.00     0.200 A 
ATOM     89  F   UNL A   1      52.123  27.109  24.947  1.00  0.00    -0.200 F 
ATOM     90  F   UNL A   1      51.021  28.037  22.640  1.00  0.00    -0.200 F 
ENDBRANCH  56  80
BRANCH  68  91
ATOM     91  C   UNL A   1      44.773  33.200  27.504  1.00  0.00     0.064 A 
ATOM     92  C   UNL A   1      44.041  33.511  26.350  1.00  0.00     0.173 A 
ATOM     93  C   UNL A   1      44.911  34.268  28.435  1.00  0.00     0.173 A 
ATOM     94  F   UNL A   1      43.749  32.583  25.430  1.00  0.00    -0.203 F 
ATOM     95  C   UNL A   1      43.524  34.788  26.123  1.00  0.00     0.198 A 
ATOM     96  C   UNL A   1      44.339  35.521  28.234  1.00  0.00     0.198 A 
ATOM     97  F   UNL A   1      45.562  34.130  29.598  1.00  0.00    -0.203 F 
ATOM     98  F   UNL A   1      42.858  35.035  24.987  1.00  0.00    -0.200 F 
ATOM     99  C   UNL A   1      43.657  35.786  27.069  1.00  0.00     0.200 A 
ATOM    100  F   UNL A   1      44.427  36.454  29.193  1.00  0.00    -0.200 F 
ATOM    101  F   UNL A   1      43.113  36.992  26.866  1.00  0.00    -0.200 F 
ENDBRANCH  68  91
ENDBRANCH  42  43
ENDBRANCH  35  37
ENDBRANCH  34  35
ENDBRANCH  33  34
ENDBRANCH  32  33
ENDBRANCH  31  32
ENDBRANCH  30  31
ENDBRANCH  29  30
ENDBRANCH  28  29
ENDBRANCH   1  28
TORSDOF 23
ENDMDL
MODEL 2
REMARK VINA RESULT:     -10.8      1.538      2.902
REMARK SMILES Cc1ccccc1CNC(=O)N1CCC(CC(=O)OCCOCCOCCOCCOC(=O)c2ccc(-c3c4nc(c(-c5c(F)c(F)c(F)c(F)c5F)c5ccc([nH]5)c(-c5c(F)c(F)c(F)c(F)c5F)c5nc(c(-c6c(F)c(F)c(F)c(F)c6F)c6ccc3[nH]6)C=C5)C=C4)cc2)CC1
REMARK SMILES IDX 24 1 23 2 22 3 21 4 20 5 19 6 17 7 18 8 16 9 15 10 9 11
REMARK SMILES IDX 10 12 11 14 12 15 13 16 98 17 14 18 97 19 8 20 7 21 1 22
REMARK SMILES IDX 2 23 3 24 4 25 6 26 5 27 25 28 26 29 27 30 28 31 29 32 30 33
REMARK SMILES IDX 31 34 32 35 33 36 34 37 35 38 96 39 36 40 95 41 37 42 38 43
REMARK SMILES IDX 39 44 89 45 40 46 94 47 88 48 90 49 41 50 93 51 87 52 86 53
REMARK SMILES IDX 42 55 74 56 54 57 73 58 55 59 58 60 72 61 91 62 56 63 57 64
REMARK SMILES IDX 71 66 92 67 59 68 43 69 44 70 52 71 45 72 46 73 50 74 53 75
REMARK SMILES IDX 47 76 48 77 51 78 49 79 75 80 76 81 84 82 77 83 78 84 82 85
REMARK SMILES IDX 85 86 79 87 80 88 83 89 81 90 60 91 61 92 69 93 62 94 63 95
REMARK SMILES IDX 67 96 70 97 64 98 65 99 68 100 66 101
REMARK H PARENT 9 13 90 54 58 65
REMARK Flexibility Score: inf
ROOT
ATOM      1  C   UNL A   1      36.953  21.428  24.750  1.00  0.00     0.188 C 
ENDROOT
BRANCH   1   2
ATOM      2  C   UNL A   1      36.928  22.767  24.021  1.00  0.00     0.188 C 
BRANCH   2   3
ATOM      3  O   UNL A   1      35.667  23.289  23.633  1.00  0.00    -0.376 OA
BRANCH   3   4
ATOM      4  C   UNL A   1      35.122  24.237  24.549  1.00  0.00     0.202 C 
BRANCH   4   5
ATOM      5  C   UNL A   1      34.537  23.675  25.848  1.00  0.00     0.261 C 
BRANCH   5   6
ATOM      6  O   UNL A   1      33.762  22.484  25.594  1.00  0.00    -0.463 OA
BRANCH   6   7
ATOM      7  C   UNL A   1      32.761  22.202  26.466  1.00  0.00     0.306 C 
ATOM      8  O   UNL A   1      32.864  22.191  27.676  1.00  0.00    -0.252 OA
BRANCH   7   9
ATOM      9  C   UNL A   1      31.448  22.022  25.730  1.00  0.00     0.126 C 
BRANCH   9  10
ATOM     10  C   UNL A   1      30.795  23.357  25.327  1.00  0.00     0.003 C 
ATOM     11  N   UNL A   1      31.523  28.051  23.404  1.00  0.00    -0.334 N 
ATOM     12  C   UNL A   1      31.562  27.380  24.577  1.00  0.00     0.317 C 
ATOM     13  H   UNL A   1      32.235  28.715  23.261  1.00  0.00     0.165 HD
ATOM     14  O   UNL A   1      32.152  27.901  25.522  1.00  0.00    -0.249 OA
ATOM     15  N   UNL A   1      30.896  26.192  24.683  1.00  0.00    -0.325 N 
ATOM     16  C   UNL A   1      30.391  25.802  25.981  1.00  0.00     0.121 C 
ATOM     17  C   UNL A   1      30.712  25.202  23.625  1.00  0.00     0.121 C 
ATOM     18  C   UNL A   1      30.928  24.438  26.415  1.00  0.00     0.026 C 
ATOM     19  C   UNL A   1      31.365  23.879  24.009  1.00  0.00     0.026 C 
BRANCH  11  20
ATOM     20  C   UNL A   1      30.563  27.908  22.335  1.00  0.00     0.153 C 
BRANCH  20  21
ATOM     21  C   UNL A   1      29.496  28.970  22.357  1.00  0.00    -0.026 A 
ATOM     22  C   UNL A   1      27.786  27.513  23.622  1.00  0.00     0.044 C 
ATOM     23  C   UNL A   1      28.252  28.800  22.993  1.00  0.00    -0.046 A 
ATOM     24  C   UNL A   1      27.375  29.896  23.067  1.00  0.00     0.004 A 
ATOM     25  C   UNL A   1      27.721  31.139  22.535  1.00  0.00     0.000 A 
ATOM     26  C   UNL A   1      29.825  30.232  21.817  1.00  0.00     0.006 A 
ATOM     27  C   UNL A   1      28.947  31.308  21.906  1.00  0.00     0.000 A 
ENDBRANCH  20  21
ENDBRANCH  11  20
ENDBRANCH   9  10
ENDBRANCH   7   9
ENDBRANCH   6   7
ENDBRANCH   5   6
ENDBRANCH   4   5
ENDBRANCH   3   4
ENDBRANCH   2   3
ENDBRANCH   1   2
BRANCH   1  28
ATOM     28  O   UNL A   1      37.787  21.406  25.894  1.00  0.00    -0.377 OA
BRANCH  28  29
ATOM     29  C   UNL A   1      39.196  21.447  25.748  1.00  0.00     0.188 C 
BRANCH  29  30
ATOM     30  C   UNL A   1      40.030  21.616  26.993  1.00  0.00     0.188 C 
BRANCH  30  31
ATOM     31  O   UNL A   1      40.614  20.344  27.258  1.00  0.00    -0.376 OA
BRANCH  31  32
ATOM     32  C   UNL A   1      41.026  19.588  26.129  1.00  0.00     0.202 C 
BRANCH  32  33
ATOM     33  C   UNL A   1      42.512  19.240  26.165  1.00  0.00     0.261 C 
BRANCH  33  34
ATOM     34  O   UNL A   1      43.172  19.922  25.073  1.00  0.00    -0.460 OA
BRANCH  34  35
ATOM     35  C   UNL A   1      44.055  20.894  25.436  1.00  0.00     0.338 C 
ATOM     36  O   UNL A   1      45.257  20.719  25.586  1.00  0.00    -0.246 OA
BRANCH  35  37
ATOM     37  C   UNL A   1      43.332  22.113  25.931  1.00  0.00     0.060 A 
ATOM     38  C   UNL A   1      42.873  23.082  25.020  1.00  0.00     0.016 A 
ATOM     39  C   UNL A   1      43.473  22.468  27.264  1.00  0.00     0.016 A 
ATOM     40  C   UNL A   1      42.755  24.438  25.405  1.00  0.00     0.010 A 
ATOM     41  C   UNL A   1      43.483  23.815  27.592  1.00  0.00     0.010 A 
ATOM     42  C   UNL A   1      43.159  24.837  26.678  1.00  0.00    -0.014 A 
BRANCH  42  43
ATOM     43  C   UNL A   1      43.413  26.230  27.149  1.00  0.00     0.031 A 
ATOM     44  C   UNL A   1      42.222  27.094  27.511  1.00  0.00     0.074 A 
ATOM     45  C   UNL A   1      44.647  26.625  27.583  1.00  0.00     0.049 A 
ATOM     46  N   UNL A   1      42.284  28.231  28.117  1.00  0.00    -0.248 NA
ATOM     47  C   UNL A   1      40.830  26.728  27.250  1.00  0.00     0.031 C 
ATOM     48  C   UNL A   1      44.895  27.613  28.641  1.00  0.00     0.029 A 
ATOM     49  N   UNL A   1      45.946  26.187  27.288  1.00  0.00    -0.354 N 
ATOM     50  C   UNL A   1      41.038  28.585  28.595  1.00  0.00     0.074 A 
ATOM     51  C   UNL A   1      40.154  27.639  27.964  1.00  0.00     0.031 C 
ATOM     52  C   UNL A   1      46.199  27.786  28.863  1.00  0.00     0.029 A 
ATOM     53  C   UNL A   1      46.874  27.139  27.779  1.00  0.00     0.049 A 
ATOM     54  H   UNL A   1      46.176  25.354  26.815  1.00  0.00     0.167 HD
ATOM     55  C   UNL A   1      40.956  29.576  29.542  1.00  0.00     0.037 A 
ATOM     56  C   UNL A   1      47.719  27.828  26.956  1.00  0.00     0.037 A 
ATOM     57  C   UNL A   1      42.268  30.236  29.719  1.00  0.00     0.049 A 
ATOM     58  C   UNL A   1      47.335  29.298  26.920  1.00  0.00     0.074 A 
ATOM     59  C   UNL A   1      43.130  30.448  30.785  1.00  0.00     0.029 A 
ATOM     60  N   UNL A   1      42.963  30.654  28.584  1.00  0.00    -0.354 N 
ATOM     61  N   UNL A   1      46.106  29.709  27.140  1.00  0.00    -0.248 NA
ATOM     62  C   UNL A   1      48.280  30.411  26.852  1.00  0.00     0.031 C 
ATOM     63  C   UNL A   1      44.368  30.928  30.264  1.00  0.00     0.029 A 
ATOM     64  C   UNL A   1      44.236  31.077  28.892  1.00  0.00     0.049 A 
ATOM     65  H   UNL A   1      42.589  30.647  27.673  1.00  0.00     0.167 HD
ATOM     66  C   UNL A   1      46.111  31.055  27.378  1.00  0.00     0.074 A 
ATOM     67  C   UNL A   1      47.481  31.461  27.126  1.00  0.00     0.031 C 
ATOM     68  C   UNL A   1      45.047  31.744  27.889  1.00  0.00     0.037 A 
BRANCH  55  69
ATOM     69  C   UNL A   1      39.762  29.916  30.447  1.00  0.00     0.064 A 
ATOM     70  C   UNL A   1      38.634  30.606  29.927  1.00  0.00     0.173 A 
ATOM     71  C   UNL A   1      39.677  29.676  31.835  1.00  0.00     0.173 A 
ATOM     72  F   UNL A   1      38.520  30.879  28.620  1.00  0.00    -0.203 F 
ATOM     73  C   UNL A   1      37.563  31.046  30.720  1.00  0.00     0.198 A 
ATOM     74  C   UNL A   1      38.582  30.075  32.621  1.00  0.00     0.198 A 
ATOM     75  F   UNL A   1      40.653  29.069  32.511  1.00  0.00    -0.203 F 
ATOM     76  F   UNL A   1      36.560  31.741  30.162  1.00  0.00    -0.200 F 
ATOM     77  C   UNL A   1      37.534  30.775  32.069  1.00  0.00     0.200 A 
ATOM     78  F   UNL A   1      38.566  29.782  33.931  1.00  0.00    -0.200 F 
ATOM     79  F   UNL A   1      36.507  31.180  32.829  1.00  0.00    -0.200 F 
ENDBRANCH  55  69
BRANCH  56  80
ATOM     80  C   UNL A   1      48.339  26.909  25.953  1.00  0.00     0.064 A 
ATOM     81  C   UNL A   1      47.854  27.136  24.640  1.00  0.00     0.173 A 
ATOM     82  C   UNL A   1      49.699  26.593  26.084  1.00  0.00     0.173 A 
ATOM     83  F   UNL A   1      46.549  27.386  24.452  1.00  0.00    -0.203 F 
ATOM     84  C   UNL A   1      48.734  27.384  23.588  1.00  0.00     0.198 A 
ATOM     85  C   UNL A   1      50.575  26.807  25.012  1.00  0.00     0.198 A 
ATOM     86  F   UNL A   1      50.215  26.326  27.293  1.00  0.00    -0.203 F 
ATOM     87  F   UNL A   1      48.273  27.876  22.428  1.00  0.00    -0.200 F 
ATOM     88  C   UNL A   1      50.098  27.280  23.795  1.00  0.00     0.200 A 
ATOM     89  F   UNL A   1      51.899  26.708  25.201  1.00  0.00    -0.200 F 
ATOM     90  F   UNL A   1      50.953  27.721  22.860  1.00  0.00    -0.200 F 
ENDBRANCH  56  80
BRANCH  68  91
ATOM     91  C   UNL A   1      44.665  33.155  27.488  1.00  0.00     0.064 A 
ATOM     92  C   UNL A   1      43.995  33.463  26.296  1.00  0.00     0.173 A 
ATOM     93  C   UNL A   1      44.766  34.228  28.417  1.00  0.00     0.173 A 
ATOM     94  F   UNL A   1      43.741  32.532  25.369  1.00  0.00    -0.203 F 
ATOM     95  C   UNL A   1      43.502  34.743  26.035  1.00  0.00     0.198 A 
ATOM     96  C   UNL A   1      44.216  35.484  28.179  1.00  0.00     0.198 A 
ATOM     97  F   UNL A   1      45.356  34.092  29.612  1.00  0.00    -0.203 F 
ATOM     98  F   UNL A   1      42.898  34.988  24.864  1.00  0.00    -0.200 F 
ATOM     99  C   UNL A   1      43.596  35.747  26.979  1.00  0.00     0.200 A 
ATOM    100  F   UNL A   1      44.264  36.423  29.135  1.00  0.00    -0.200 F 
ATOM    101  F   UNL A   1      43.075  36.957  26.741  1.00  0.00    -0.200 F 
ENDBRANCH  68  91
ENDBRANCH  42  43
ENDBRANCH  35  37
ENDBRANCH  34  35
ENDBRANCH  33  34
ENDBRANCH  32  33
ENDBRANCH  31  32
ENDBRANCH  30  31
ENDBRANCH  29  30
ENDBRANCH  28  29
ENDBRANCH   1  28
TORSDOF 23
ENDMDL
MODEL 3
REMARK VINA RESULT:     -10.8      1.954      3.374
REMARK SMILES Cc1ccccc1CNC(=O)N1CCC(CC(=O)OCCOCCOCCOCCOC(=O)c2ccc(-c3c4nc(c(-c5c(F)c(F)c(F)c(F)c5F)c5ccc([nH]5)c(-c5c(F)c(F)c(F)c(F)c5F)c5nc(c(-c6c(F)c(F)c(F)c(F)c6F)c6ccc3[nH]6)C=C5)C=C4)cc2)CC1
REMARK SMILES IDX 24 1 23 2 22 3 21 4 20 5 19 6 17 7 18 8 16 9 15 10 9 11
REMARK SMILES IDX 10 12 11 14 12 15 13 16 98 17 14 18 97 19 8 20 7 21 1 22
REMARK SMILES IDX 2 23 3 24 4 25 6 26 5 27 25 28 26 29 27 30 28 31 29 32 30 33
REMARK SMILES IDX 31 34 32 35 33 36 34 37 35 38 96 39 36 40 95 41 37 42 38 43
REMARK SMILES IDX 39 44 89 45 40 46 94 47 88 48 90 49 41 50 93 51 87 52 86 53
REMARK SMILES IDX 42 55 74 56 54 57 73 58 55 59 58 60 72 61 91 62 56 63 57 64
REMARK SMILES IDX 71 66 92 67 59 68 43 69 44 70 52 71 45 72 46 73 50 74 53 75
REMARK SMILES IDX 47 76 48 77 51 78 49 79 75 80 76 81 84 82 77 83 78 84 82 85
REMARK SMILES IDX 85 86 79 87 80 88 83 89 81 90 60 91 61 92 69 93 62 94 63 95
REMARK SMILES IDX 67 96 70 97 64 98 65 99 68 100 66 101
REMARK H PARENT 9 13 90 54 58 65
REMARK Flexibility Score: inf
ROOT
ATOM      1  C   UNL A   1      32.545  21.682  25.129  1.00  0.00     0.188 C 
ENDROOT
BRANCH   1   2
ATOM      2  C   UNL A   1      32.120  23.059  24.628  1.00  0.00     0.188 C 
BRANCH   2   3
ATOM      3  O   UNL A   1      31.916  24.081  25.589  1.00  0.00    -0.376 OA
BRANCH   3   4
ATOM      4  C   UNL A   1      33.117  24.569  26.185  1.00  0.00     0.202 C 
BRANCH   4   5
ATOM      5  C   UNL A   1      33.757  25.796  25.530  1.00  0.00     0.261 C 
BRANCH   5   6
ATOM      6  O   UNL A   1      32.754  26.761  25.147  1.00  0.00    -0.463 OA
BRANCH   6   7
ATOM      7  C   UNL A   1      32.739  27.936  25.825  1.00  0.00     0.306 C 
ATOM      8  O   UNL A   1      31.744  28.568  26.115  1.00  0.00    -0.252 OA
BRANCH   7   9
ATOM      9  C   UNL A   1      34.135  28.303  26.288  1.00  0.00     0.126 C 
BRANCH   9  10
ATOM     10  C   UNL A   1      34.139  29.363  27.406  1.00  0.00     0.003 C 
ATOM     11  N   UNL A   1      34.828  34.299  28.600  1.00  0.00    -0.334 N 
ATOM     12  C   UNL A   1      35.524  33.151  28.438  1.00  0.00     0.317 C 
ATOM     13  H   UNL A   1      35.253  35.116  28.253  1.00  0.00     0.165 HD
ATOM     14  O   UNL A   1      36.744  33.230  28.296  1.00  0.00    -0.249 OA
ATOM     15  N   UNL A   1      34.860  31.959  28.502  1.00  0.00    -0.325 N 
ATOM     16  C   UNL A   1      35.584  30.794  28.965  1.00  0.00     0.121 C 
ATOM     17  C   UNL A   1      33.494  31.701  28.058  1.00  0.00     0.121 C 
ATOM     18  C   UNL A   1      35.552  29.660  27.941  1.00  0.00     0.026 C 
ATOM     19  C   UNL A   1      33.479  30.661  26.943  1.00  0.00     0.026 C 
BRANCH  11  20
ATOM     20  C   UNL A   1      33.535  34.468  29.220  1.00  0.00     0.153 C 
BRANCH  20  21
ATOM     21  C   UNL A   1      33.598  35.239  30.512  1.00  0.00    -0.026 A 
ATOM     22  C   UNL A   1      34.539  33.266  31.879  1.00  0.00     0.044 C 
ATOM     23  C   UNL A   1      34.108  34.698  31.707  1.00  0.00    -0.046 A 
ATOM     24  C   UNL A   1      34.241  35.540  32.826  1.00  0.00     0.004 A 
ATOM     25  C   UNL A   1      33.892  36.889  32.766  1.00  0.00     0.000 A 
ATOM     26  C   UNL A   1      33.241  36.604  30.471  1.00  0.00     0.006 A 
ATOM     27  C   UNL A   1      33.388  37.423  31.587  1.00  0.00     0.000 A 
ENDBRANCH  20  21
ENDBRANCH  11  20
ENDBRANCH   9  10
ENDBRANCH   7   9
ENDBRANCH   6   7
ENDBRANCH   5   6
ENDBRANCH   4   5
ENDBRANCH   3   4
ENDBRANCH   2   3
ENDBRANCH   1   2
BRANCH   1  28
ATOM     28  O   UNL A   1      33.938  21.441  25.051  1.00  0.00    -0.377 OA
BRANCH  28  29
ATOM     29  C   UNL A   1      34.722  22.109  24.077  1.00  0.00     0.188 C 
BRANCH  29  30
ATOM     30  C   UNL A   1      36.117  22.531  24.464  1.00  0.00     0.188 C 
BRANCH  30  31
ATOM     31  O   UNL A   1      36.554  21.604  25.453  1.00  0.00    -0.376 OA
BRANCH  31  32
ATOM     32  C   UNL A   1      37.880  21.112  25.320  1.00  0.00     0.202 C 
BRANCH  32  33
ATOM     33  C   UNL A   1      38.910  22.002  26.012  1.00  0.00     0.261 C 
BRANCH  33  34
ATOM     34  O   UNL A   1      39.805  21.161  26.777  1.00  0.00    -0.460 OA
BRANCH  34  35
ATOM     35  C   UNL A   1      40.992  20.868  26.176  1.00  0.00     0.338 C 
ATOM     36  O   UNL A   1      41.221  19.837  25.558  1.00  0.00    -0.246 OA
BRANCH  35  37
ATOM     37  C   UNL A   1      42.067  21.811  26.631  1.00  0.00     0.060 A 
ATOM     38  C   UNL A   1      42.271  22.041  28.004  1.00  0.00     0.016 A 
ATOM     39  C   UNL A   1      42.569  22.729  25.722  1.00  0.00     0.016 A 
ATOM     40  C   UNL A   1      42.788  23.276  28.461  1.00  0.00     0.010 A 
ATOM     41  C   UNL A   1      42.946  23.981  26.186  1.00  0.00     0.010 A 
ATOM     42  C   UNL A   1      43.038  24.303  27.554  1.00  0.00    -0.014 A 
BRANCH  42  43
ATOM     43  C   UNL A   1      43.268  25.745  27.863  1.00  0.00     0.031 A 
ATOM     44  C   UNL A   1      42.062  26.624  28.127  1.00  0.00     0.074 A 
ATOM     45  C   UNL A   1      44.495  26.209  28.246  1.00  0.00     0.049 A 
ATOM     46  N   UNL A   1      42.104  27.824  28.600  1.00  0.00    -0.248 NA
ATOM     47  C   UNL A   1      40.676  26.206  27.913  1.00  0.00     0.031 C 
ATOM     48  C   UNL A   1      44.726  27.315  29.183  1.00  0.00     0.029 A 
ATOM     49  N   UNL A   1      45.801  25.763  27.999  1.00  0.00    -0.354 N 
ATOM     50  C   UNL A   1      40.852  28.207  29.038  1.00  0.00     0.074 A 
ATOM     51  C   UNL A   1      39.985  27.180  28.520  1.00  0.00     0.031 C 
ATOM     52  C   UNL A   1      46.027  27.535  29.381  1.00  0.00     0.029 A 
ATOM     53  C   UNL A   1      46.713  26.782  28.376  1.00  0.00     0.049 A 
ATOM     54  H   UNL A   1      46.046  24.886  27.623  1.00  0.00     0.167 HD
ATOM     55  C   UNL A   1      40.753  29.298  29.866  1.00  0.00     0.037 A 
ATOM     56  C   UNL A   1      47.544  27.387  27.477  1.00  0.00     0.037 A 
ATOM     57  C   UNL A   1      42.053  29.997  29.963  1.00  0.00     0.049 A 
ATOM     58  C   UNL A   1      47.135  28.837  27.276  1.00  0.00     0.074 A 
ATOM     59  C   UNL A   1      42.912  30.344  30.995  1.00  0.00     0.029 A 
ATOM     60  N   UNL A   1      42.739  30.296  28.786  1.00  0.00    -0.354 N 
ATOM     61  N   UNL A   1      45.899  29.248  27.451  1.00  0.00    -0.248 NA
ATOM     62  C   UNL A   1      48.060  29.951  27.079  1.00  0.00     0.031 C 
ATOM     63  C   UNL A   1      44.140  30.784  30.421  1.00  0.00     0.029 A 
ATOM     64  C   UNL A   1      44.005  30.773  29.041  1.00  0.00     0.049 A 
ATOM     65  H   UNL A   1      42.366  30.178  27.883  1.00  0.00     0.167 HD
ATOM     66  C   UNL A   1      45.879  30.612  27.534  1.00  0.00     0.074 A 
ATOM     67  C   UNL A   1      47.242  31.011  27.234  1.00  0.00     0.031 C 
ATOM     68  C   UNL A   1      44.804  31.336  27.966  1.00  0.00     0.037 A 
BRANCH  55  69
ATOM     69  C   UNL A   1      39.553  29.718  30.729  1.00  0.00     0.064 A 
ATOM     70  C   UNL A   1      39.064  31.051  30.688  1.00  0.00     0.173 A 
ATOM     71  C   UNL A   1      38.885  28.908  31.671  1.00  0.00     0.173 A 
ATOM     72  F   UNL A   1      39.549  31.949  29.820  1.00  0.00    -0.203 F 
ATOM     73  C   UNL A   1      38.048  31.528  31.531  1.00  0.00     0.198 A 
ATOM     74  C   UNL A   1      37.835  29.373  32.481  1.00  0.00     0.198 A 
ATOM     75  F   UNL A   1      39.223  27.635  31.879  1.00  0.00    -0.203 F 
ATOM     76  F   UNL A   1      37.679  32.817  31.468  1.00  0.00    -0.200 F 
ATOM     77  C   UNL A   1      37.428  30.686  32.425  1.00  0.00     0.200 A 
ATOM     78  F   UNL A   1      37.232  28.529  33.333  1.00  0.00    -0.200 F 
ATOM     79  F   UNL A   1      36.448  31.134  33.222  1.00  0.00    -0.200 F 
ENDBRANCH  55  69
BRANCH  56  80
ATOM     80  C   UNL A   1      48.180  26.371  26.584  1.00  0.00     0.064 A 
ATOM     81  C   UNL A   1      47.771  26.508  25.234  1.00  0.00     0.173 A 
ATOM     82  C   UNL A   1      49.520  26.022  26.812  1.00  0.00     0.173 A 
ATOM     83  F   UNL A   1      46.487  26.785  24.957  1.00  0.00    -0.203 F 
ATOM     84  C   UNL A   1      48.712  26.642  24.214  1.00  0.00     0.198 A 
ATOM     85  C   UNL A   1      50.456  26.121  25.775  1.00  0.00     0.198 A 
ATOM     86  F   UNL A   1      49.962  25.836  28.064  1.00  0.00    -0.203 F 
ATOM     87  F   UNL A   1      48.329  27.055  22.996  1.00  0.00    -0.200 F 
ATOM     88  C   UNL A   1      50.059  26.510  24.501  1.00  0.00     0.200 A 
ATOM     89  F   UNL A   1      51.764  25.994  26.042  1.00  0.00    -0.200 F 
ATOM     90  F   UNL A   1      50.976  26.846  23.581  1.00  0.00    -0.200 F 
ENDBRANCH  56  80
BRANCH  68  91
ATOM     91  C   UNL A   1      44.396  32.685  27.408  1.00  0.00     0.064 A 
ATOM     92  C   UNL A   1      44.230  32.935  26.038  1.00  0.00     0.173 A 
ATOM     93  C   UNL A   1      43.935  33.719  28.270  1.00  0.00     0.173 A 
ATOM     94  F   UNL A   1      44.530  32.016  25.113  1.00  0.00    -0.203 F 
ATOM     95  C   UNL A   1      43.687  34.132  25.566  1.00  0.00     0.198 A 
ATOM     96  C   UNL A   1      43.335  34.883  27.795  1.00  0.00     0.198 A 
ATOM     97  F   UNL A   1      44.000  33.626  29.605  1.00  0.00    -0.203 F 
ATOM     98  F   UNL A   1      43.581  34.329  24.245  1.00  0.00    -0.200 F 
ATOM     99  C   UNL A   1      43.225  35.096  26.441  1.00  0.00     0.200 A 
ATOM    100  F   UNL A   1      42.837  35.775  28.663  1.00  0.00    -0.200 F 
ATOM    101  F   UNL A   1      42.658  36.218  25.980  1.00  0.00    -0.200 F 
ENDBRANCH  68  91
ENDBRANCH  42  43
ENDBRANCH  35  37
ENDBRANCH  34  35
ENDBRANCH  33  34
ENDBRANCH  32  33
ENDBRANCH  31  32
ENDBRANCH  30  31
ENDBRANCH  29  30
ENDBRANCH  28  29
ENDBRANCH   1  28
TORSDOF 23
ENDMDL
