MODEL 1
REMARK VINA RESULT:     -10.3      0.000      0.000
REMARK SMILES O=C(OCCOCCOCCOCCOC(=O)[C@@H]1CCCC[C@@H]1c1nc(C2CCCCC2)no1)c1ccc(-c2c3nc(c(-c4c(F)c(F)c(F)c(F)c4F)c4ccc([nH]4)c(-c4c(F)c(F)c(F)c(F)c4F)c4nc(c(-c5c(F)c(F)c(F)c(F)c5F)c5ccc2[nH]5)C=C4)C=C3)cc1
REMARK SMILES IDX 9 1 8 2 7 3 6 4 5 5 4 6 3 7 2 8 1 9 35 10 36 11 97 12 37 13
REMARK SMILES IDX 96 14 38 15 39 16 40 17 90 18 41 19 95 20 89 21 91 22 42 23
REMARK SMILES IDX 94 24 88 25 87 26 43 28 75 29 55 30 74 31 56 32 59 33 73 34
REMARK SMILES IDX 92 35 57 36 58 37 72 39 93 40 60 41 44 42 45 43 53 44 46 45
REMARK SMILES IDX 47 46 51 47 54 48 48 49 49 50 52 51 50 52 76 53 77 54 85 55
REMARK SMILES IDX 78 56 79 57 83 58 86 59 80 60 81 61 84 62 82 63 61 64 62 65
REMARK SMILES IDX 70 66 63 67 64 68 68 69 71 70 65 71 66 72 69 73 67 74 10 75
REMARK SMILES IDX 11 76 12 77 13 78 14 79 15 80 16 81 17 82 18 83 19 84 23 85
REMARK SMILES IDX 20 86 22 87 21 88 24 89 25 90 34 91 26 92 33 93 27 94 28 95
REMARK SMILES IDX 32 96 29 97 31 98 30 99
REMARK H PARENT 91 27 59 38
REMARK Flexibility Score: inf
ROOT
ATOM      1  O   UNL A   1      39.492  22.105  26.681  1.00  0.00    -0.377 OA
ENDROOT
BRANCH   1   2
ATOM      2  C   UNL A   1      40.772  21.545  26.455  1.00  0.00     0.188 C 
BRANCH   2   3
ATOM      3  C   UNL A   1      40.857  20.025  26.497  1.00  0.00     0.188 C 
BRANCH   3   4
ATOM      4  O   UNL A   1      41.740  19.587  27.534  1.00  0.00    -0.376 OA
BRANCH   4   5
ATOM      5  C   UNL A   1      42.617  18.509  27.197  1.00  0.00     0.202 C 
BRANCH   5   6
ATOM      6  C   UNL A   1      42.750  18.213  25.700  1.00  0.00     0.261 C 
BRANCH   6   7
ATOM      7  O   UNL A   1      44.010  18.599  25.131  1.00  0.00    -0.460 OA
BRANCH   7   8
ATOM      8  C   UNL A   1      44.351  19.744  24.489  1.00  0.00     0.338 C 
ATOM      9  O   UNL A   1      44.869  19.646  23.376  1.00  0.00    -0.246 OA
BRANCH   8  10
ATOM     10  C   UNL A   1      44.196  21.122  25.058  1.00  0.00     0.060 A 
ATOM     11  C   UNL A   1      43.790  22.248  24.347  1.00  0.00     0.016 A 
ATOM     12  C   UNL A   1      44.440  21.281  26.435  1.00  0.00     0.016 A 
ATOM     13  C   UNL A   1      43.643  23.484  24.939  1.00  0.00     0.010 A 
ATOM     14  C   UNL A   1      44.334  22.534  27.047  1.00  0.00     0.010 A 
ATOM     15  C   UNL A   1      43.964  23.640  26.278  1.00  0.00    -0.014 A 
BRANCH  15  16
ATOM     16  C   UNL A   1      44.185  25.025  26.703  1.00  0.00     0.031 A 
ATOM     17  C   UNL A   1      45.530  25.610  26.402  1.00  0.00     0.074 A 
ATOM     18  C   UNL A   1      43.138  25.779  27.077  1.00  0.00     0.049 A 
ATOM     19  N   UNL A   1      46.005  26.792  26.673  1.00  0.00    -0.248 NA
ATOM     20  C   UNL A   1      46.466  24.744  25.657  1.00  0.00     0.031 C 
ATOM     21  C   UNL A   1      41.749  25.317  27.147  1.00  0.00     0.029 A 
ATOM     22  N   UNL A   1      43.070  27.100  27.413  1.00  0.00    -0.354 N 
ATOM     23  C   UNL A   1      47.301  26.794  26.174  1.00  0.00     0.074 A 
ATOM     24  C   UNL A   1      47.542  25.507  25.570  1.00  0.00     0.031 C 
ATOM     25  C   UNL A   1      40.963  26.346  27.501  1.00  0.00     0.029 A 
ATOM     26  C   UNL A   1      41.805  27.507  27.758  1.00  0.00     0.049 A 
ATOM     27  H   UNL A   1      43.849  27.702  27.407  1.00  0.00     0.167 HD
ATOM     28  C   UNL A   1      48.208  27.793  26.243  1.00  0.00     0.037 A 
ATOM     29  C   UNL A   1      41.408  28.682  28.279  1.00  0.00     0.037 A 
ATOM     30  C   UNL A   1      47.910  29.055  26.860  1.00  0.00     0.049 A 
ATOM     31  C   UNL A   1      42.473  29.726  28.490  1.00  0.00     0.074 A 
ATOM     32  C   UNL A   1      48.746  30.121  27.113  1.00  0.00     0.029 A 
ATOM     33  N   UNL A   1      46.647  29.405  27.327  1.00  0.00    -0.354 N 
ATOM     34  N   UNL A   1      43.741  29.696  28.149  1.00  0.00    -0.248 NA
ATOM     35  C   UNL A   1      42.064  30.955  29.177  1.00  0.00     0.031 C 
ATOM     36  C   UNL A   1      48.000  31.098  27.783  1.00  0.00     0.029 A 
ATOM     37  C   UNL A   1      46.683  30.667  27.888  1.00  0.00     0.049 A 
ATOM     38  H   UNL A   1      45.845  28.838  27.266  1.00  0.00     0.167 HD
ATOM     39  C   UNL A   1      44.280  30.906  28.557  1.00  0.00     0.074 A 
ATOM     40  C   UNL A   1      43.190  31.655  29.156  1.00  0.00     0.031 C 
ATOM     41  C   UNL A   1      45.554  31.364  28.456  1.00  0.00     0.037 A 
BRANCH  28  42
ATOM     42  C   UNL A   1      49.592  27.488  25.754  1.00  0.00     0.064 A 
ATOM     43  C   UNL A   1      49.928  27.490  24.391  1.00  0.00     0.173 A 
ATOM     44  C   UNL A   1      50.583  27.100  26.669  1.00  0.00     0.173 A 
ATOM     45  F   UNL A   1      49.006  27.810  23.468  1.00  0.00    -0.203 F 
ATOM     46  C   UNL A   1      51.189  27.079  23.962  1.00  0.00     0.198 A 
ATOM     47  C   UNL A   1      51.851  26.719  26.239  1.00  0.00     0.198 A 
ATOM     48  F   UNL A   1      50.312  27.062  27.982  1.00  0.00    -0.203 F 
ATOM     49  F   UNL A   1      51.462  27.013  22.651  1.00  0.00    -0.200 F 
ATOM     50  C   UNL A   1      52.150  26.696  24.886  1.00  0.00     0.200 A 
ATOM     51  F   UNL A   1      52.776  26.346  27.135  1.00  0.00    -0.200 F 
ATOM     52  F   UNL A   1      53.357  26.284  24.472  1.00  0.00    -0.200 F 
ENDBRANCH  28  42
BRANCH  29  53
ATOM     53  C   UNL A   1      39.997  28.890  28.700  1.00  0.00     0.064 A 
ATOM     54  C   UNL A   1      39.022  29.341  27.800  1.00  0.00     0.173 A 
ATOM     55  C   UNL A   1      39.595  28.668  30.028  1.00  0.00     0.173 A 
ATOM     56  F   UNL A   1      39.352  29.591  26.524  1.00  0.00    -0.203 F 
ATOM     57  C   UNL A   1      37.712  29.583  28.216  1.00  0.00     0.198 A 
ATOM     58  C   UNL A   1      38.278  28.877  30.435  1.00  0.00     0.198 A 
ATOM     59  F   UNL A   1      40.483  28.241  30.939  1.00  0.00    -0.203 F 
ATOM     60  F   UNL A   1      36.815  30.068  27.345  1.00  0.00    -0.200 F 
ATOM     61  C   UNL A   1      37.340  29.347  29.530  1.00  0.00     0.200 A 
ATOM     62  F   UNL A   1      37.924  28.633  31.704  1.00  0.00    -0.200 F 
ATOM     63  F   UNL A   1      36.083  29.584  29.928  1.00  0.00    -0.200 F 
ENDBRANCH  29  53
BRANCH  41  64
ATOM     64  C   UNL A   1      45.808  32.750  28.961  1.00  0.00     0.064 A 
ATOM     65  C   UNL A   1      46.230  32.989  30.275  1.00  0.00     0.173 A 
ATOM     66  C   UNL A   1      45.679  33.844  28.093  1.00  0.00     0.173 A 
ATOM     67  F   UNL A   1      46.351  31.973  31.143  1.00  0.00    -0.203 F 
ATOM     68  C   UNL A   1      46.490  34.284  30.712  1.00  0.00     0.198 A 
ATOM     69  C   UNL A   1      45.976  35.132  28.522  1.00  0.00     0.198 A 
ATOM     70  F   UNL A   1      45.288  33.659  26.824  1.00  0.00    -0.203 F 
ATOM     71  F   UNL A   1      46.842  34.500  31.986  1.00  0.00    -0.200 F 
ATOM     72  C   UNL A   1      46.373  35.351  29.833  1.00  0.00     0.200 A 
ATOM     73  F   UNL A   1      45.882  36.159  27.667  1.00  0.00    -0.200 F 
ATOM     74  F   UNL A   1      46.637  36.596  30.252  1.00  0.00    -0.200 F 
ENDBRANCH  41  64
ENDBRANCH  15  16
ENDBRANCH   8  10
ENDBRANCH   7   8
ENDBRANCH   6   7
ENDBRANCH   5   6
ENDBRANCH   4   5
ENDBRANCH   3   4
ENDBRANCH   2   3
ENDBRANCH   1   2
BRANCH   1  75
ATOM     75  C   UNL A   1      38.467  21.718  25.791  1.00  0.00     0.188 C 
BRANCH  75  76
ATOM     76  C   UNL A   1      37.351  22.712  25.405  1.00  0.00     0.188 C 
BRANCH  76  77
ATOM     77  O   UNL A   1      36.003  22.371  25.628  1.00  0.00    -0.376 OA
BRANCH  77  78
ATOM     78  C   UNL A   1      35.254  23.096  26.582  1.00  0.00     0.202 C 
BRANCH  78  79
ATOM     79  C   UNL A   1      34.383  22.435  27.677  1.00  0.00     0.261 C 
BRANCH  79  80
ATOM     80  O   UNL A   1      33.146  21.802  27.291  1.00  0.00    -0.463 OA
BRANCH  80  81
ATOM     81  C   UNL A   1      32.129  22.594  26.891  1.00  0.00     0.309 C 
ATOM     82  O   UNL A   1      31.533  23.360  27.657  1.00  0.00    -0.252 OA
BRANCH  81  83
ATOM     83  C   UNL A   1      31.718  22.405  25.415  1.00  0.00     0.111 C 
ATOM     84  C   UNL A   1      32.712  21.750  24.433  1.00  0.00     0.016 C 
ATOM     85  C   UNL A   1      31.220  23.757  24.870  1.00  0.00     0.093 C 
ATOM     86  C   UNL A   1      32.292  21.742  22.961  1.00  0.00     0.001 C 
ATOM     87  C   UNL A   1      30.726  23.634  23.421  1.00  0.00     0.014 C 
ATOM     88  C   UNL A   1      31.800  23.096  22.482  1.00  0.00     0.001 C 
BRANCH  85  89
ATOM     89  C   UNL A   1      32.202  24.881  24.975  1.00  0.00     0.230 A 
ATOM     90  N   UNL A   1      31.988  26.072  25.471  1.00  0.00    -0.196 NA
ATOM     91  O   UNL A   1      33.431  24.756  24.395  1.00  0.00    -0.339 OA
ATOM     92  C   UNL A   1      33.158  26.724  25.182  1.00  0.00     0.175 A 
ATOM     93  N   UNL A   1      34.072  25.990  24.537  1.00  0.00    -0.062 NA
BRANCH  92  94
ATOM     94  C   UNL A   1      33.271  28.196  25.396  1.00  0.00     0.061 C 
ATOM     95  C   UNL A   1      31.873  28.819  25.205  1.00  0.00     0.012 C 
ATOM     96  C   UNL A   1      33.864  28.488  26.788  1.00  0.00     0.012 C 
ATOM     97  C   UNL A   1      31.787  30.267  25.660  1.00  0.00     0.001 C 
ATOM     98  C   UNL A   1      33.734  29.948  27.202  1.00  0.00     0.001 C 
ATOM     99  C   UNL A   1      32.291  30.423  27.088  1.00  0.00     0.000 C 
ENDBRANCH  92  94
ENDBRANCH  85  89
ENDBRANCH  81  83
ENDBRANCH  80  81
ENDBRANCH  79  80
ENDBRANCH  78  79
ENDBRANCH  77  78
ENDBRANCH  76  77
ENDBRANCH  75  76
ENDBRANCH   1  75
TORSDOF 22
ENDMDL
MODEL 2
REMARK VINA RESULT:     -10.1      3.910      9.405
REMARK SMILES O=C(OCCOCCOCCOCCOC(=O)[C@@H]1CCCC[C@@H]1c1nc(C2CCCCC2)no1)c1ccc(-c2c3nc(c(-c4c(F)c(F)c(F)c(F)c4F)c4ccc([nH]4)c(-c4c(F)c(F)c(F)c(F)c4F)c4nc(c(-c5c(F)c(F)c(F)c(F)c5F)c5ccc2[nH]5)C=C4)C=C3)cc1
REMARK SMILES IDX 9 1 8 2 7 3 6 4 5 5 4 6 3 7 2 8 1 9 35 10 36 11 97 12 37 13
REMARK SMILES IDX 96 14 38 15 39 16 40 17 90 18 41 19 95 20 89 21 91 22 42 23
REMARK SMILES IDX 94 24 88 25 87 26 43 28 75 29 55 30 74 31 56 32 59 33 73 34
REMARK SMILES IDX 92 35 57 36 58 37 72 39 93 40 60 41 44 42 45 43 53 44 46 45
REMARK SMILES IDX 47 46 51 47 54 48 48 49 49 50 52 51 50 52 76 53 77 54 85 55
REMARK SMILES IDX 78 56 79 57 83 58 86 59 80 60 81 61 84 62 82 63 61 64 62 65
REMARK SMILES IDX 70 66 63 67 64 68 68 69 71 70 65 71 66 72 69 73 67 74 10 75
REMARK SMILES IDX 11 76 12 77 13 78 14 79 15 80 16 81 17 82 18 83 19 84 23 85
REMARK SMILES IDX 20 86 22 87 21 88 24 89 25 90 34 91 26 92 33 93 27 94 28 95
REMARK SMILES IDX 32 96 29 97 31 98 30 99
REMARK H PARENT 91 27 59 38
REMARK Flexibility Score: inf
ROOT
ATOM      1  O   UNL A   1      33.062  35.891  30.264  1.00  0.00    -0.377 OA
ENDROOT
BRANCH   1   2
ATOM      2  C   UNL A   1      33.194  36.010  31.667  1.00  0.00     0.188 C 
BRANCH   2   3
ATOM      3  C   UNL A   1      34.608  35.886  32.222  1.00  0.00     0.188 C 
BRANCH   3   4
ATOM      4  O   UNL A   1      34.646  34.993  33.338  1.00  0.00    -0.376 OA
BRANCH   4   5
ATOM      5  C   UNL A   1      34.045  33.710  33.136  1.00  0.00     0.202 C 
BRANCH   5   6
ATOM      6  C   UNL A   1      34.753  32.805  32.125  1.00  0.00     0.261 C 
BRANCH   6   7
ATOM      7  O   UNL A   1      35.349  31.631  32.699  1.00  0.00    -0.460 OA
BRANCH   7   8
ATOM      8  C   UNL A   1      36.645  31.390  33.016  1.00  0.00     0.338 C 
ATOM      9  O   UNL A   1      37.065  31.829  34.088  1.00  0.00    -0.246 OA
BRANCH   8  10
ATOM     10  C   UNL A   1      37.623  30.678  32.133  1.00  0.00     0.060 A 
ATOM     11  C   UNL A   1      38.741  29.972  32.571  1.00  0.00     0.016 A 
ATOM     12  C   UNL A   1      37.366  30.686  30.749  1.00  0.00     0.016 A 
ATOM     13  C   UNL A   1      39.588  29.315  31.703  1.00  0.00     0.010 A 
ATOM     14  C   UNL A   1      38.234  30.059  29.849  1.00  0.00     0.010 A 
ATOM     15  C   UNL A   1      39.364  29.400  30.339  1.00  0.00    -0.014 A 
BRANCH  15  16
ATOM     16  C   UNL A   1      40.515  29.048  29.501  1.00  0.00     0.031 A 
ATOM     17  C   UNL A   1      41.614  30.062  29.415  1.00  0.00     0.074 A 
ATOM     18  C   UNL A   1      40.669  27.780  29.085  1.00  0.00     0.049 A 
ATOM     19  N   UNL A   1      42.730  30.026  28.744  1.00  0.00    -0.248 NA
ATOM     20  C   UNL A   1      41.443  31.281  30.230  1.00  0.00     0.031 C 
ATOM     21  C   UNL A   1      39.736  26.684  29.362  1.00  0.00     0.029 A 
ATOM     22  N   UNL A   1      41.687  27.190  28.395  1.00  0.00    -0.354 N 
ATOM     23  C   UNL A   1      43.366  31.229  29.021  1.00  0.00     0.074 A 
ATOM     24  C   UNL A   1      42.529  31.971  29.930  1.00  0.00     0.031 C 
ATOM     25  C   UNL A   1      40.232  25.547  28.846  1.00  0.00     0.029 A 
ATOM     26  C   UNL A   1      41.469  25.858  28.140  1.00  0.00     0.049 A 
ATOM     27  H   UNL A   1      42.498  27.669  28.109  1.00  0.00     0.167 HD
ATOM     28  C   UNL A   1      44.546  31.668  28.530  1.00  0.00     0.037 A 
ATOM     29  C   UNL A   1      42.179  25.018  27.366  1.00  0.00     0.037 A 
ATOM     30  C   UNL A   1      45.337  30.883  27.625  1.00  0.00     0.049 A 
ATOM     31  C   UNL A   1      43.409  25.581  26.703  1.00  0.00     0.074 A 
ATOM     32  C   UNL A   1      46.490  31.225  26.951  1.00  0.00     0.029 A 
ATOM     33  N   UNL A   1      45.030  29.572  27.271  1.00  0.00    -0.354 N 
ATOM     34  N   UNL A   1      43.956  26.767  26.845  1.00  0.00    -0.248 NA
ATOM     35  C   UNL A   1      44.109  24.705  25.758  1.00  0.00     0.031 C 
ATOM     36  C   UNL A   1      46.852  30.138  26.146  1.00  0.00     0.029 A 
ATOM     37  C   UNL A   1      45.961  29.096  26.369  1.00  0.00     0.049 A 
ATOM     38  H   UNL A   1      44.263  29.060  27.613  1.00  0.00     0.167 HD
ATOM     39  C   UNL A   1      45.075  26.776  26.027  1.00  0.00     0.074 A 
ATOM     40  C   UNL A   1      45.136  25.465  25.407  1.00  0.00     0.031 C 
ATOM     41  C   UNL A   1      45.972  27.769  25.799  1.00  0.00     0.037 A 
BRANCH  28  42
ATOM     42  C   UNL A   1      44.944  33.072  28.873  1.00  0.00     0.064 A 
ATOM     43  C   UNL A   1      44.594  34.172  28.074  1.00  0.00     0.173 A 
ATOM     44  C   UNL A   1      45.771  33.309  29.983  1.00  0.00     0.173 A 
ATOM     45  F   UNL A   1      43.841  33.997  26.976  1.00  0.00    -0.203 F 
ATOM     46  C   UNL A   1      45.086  35.446  28.352  1.00  0.00     0.198 A 
ATOM     47  C   UNL A   1      46.237  34.588  30.274  1.00  0.00     0.198 A 
ATOM     48  F   UNL A   1      46.152  32.292  30.770  1.00  0.00    -0.203 F 
ATOM     49  F   UNL A   1      44.802  36.467  27.531  1.00  0.00    -0.200 F 
ATOM     50  C   UNL A   1      45.905  35.654  29.452  1.00  0.00     0.200 A 
ATOM     51  F   UNL A   1      47.030  34.785  31.336  1.00  0.00    -0.200 F 
ATOM     52  F   UNL A   1      46.392  36.876  29.708  1.00  0.00    -0.200 F 
ENDBRANCH  28  42
BRANCH  29  53
ATOM     53  C   UNL A   1      41.708  23.630  27.119  1.00  0.00     0.064 A 
ATOM     54  C   UNL A   1      40.577  23.367  26.335  1.00  0.00     0.173 A 
ATOM     55  C   UNL A   1      42.367  22.527  27.690  1.00  0.00     0.173 A 
ATOM     56  F   UNL A   1      39.895  24.381  25.782  1.00  0.00    -0.203 F 
ATOM     57  C   UNL A   1      40.112  22.065  26.151  1.00  0.00     0.198 A 
ATOM     58  C   UNL A   1      41.921  21.223  27.477  1.00  0.00     0.198 A 
ATOM     59  F   UNL A   1      43.452  22.713  28.457  1.00  0.00    -0.203 F 
ATOM     60  F   UNL A   1      38.995  21.850  25.441  1.00  0.00    -0.200 F 
ATOM     61  C   UNL A   1      40.786  20.994  26.718  1.00  0.00     0.200 A 
ATOM     62  F   UNL A   1      42.586  20.193  28.019  1.00  0.00    -0.200 F 
ATOM     63  F   UNL A   1      40.335  19.745  26.544  1.00  0.00    -0.200 F 
ENDBRANCH  29  53
BRANCH  41  64
ATOM     64  C   UNL A   1      47.110  27.445  24.880  1.00  0.00     0.064 A 
ATOM     65  C   UNL A   1      47.114  27.853  23.541  1.00  0.00     0.173 A 
ATOM     66  C   UNL A   1      48.232  26.765  25.373  1.00  0.00     0.173 A 
ATOM     67  F   UNL A   1      46.053  28.494  23.025  1.00  0.00    -0.203 F 
ATOM     68  C   UNL A   1      48.196  27.567  22.716  1.00  0.00     0.198 A 
ATOM     69  C   UNL A   1      49.327  26.513  24.556  1.00  0.00     0.198 A 
ATOM     70  F   UNL A   1      48.274  26.364  26.653  1.00  0.00    -0.203 F 
ATOM     71  F   UNL A   1      48.162  27.919  21.424  1.00  0.00    -0.200 F 
ATOM     72  C   UNL A   1      49.305  26.907  23.226  1.00  0.00     0.200 A 
ATOM     73  F   UNL A   1      50.406  25.894  25.056  1.00  0.00    -0.200 F 
ATOM     74  F   UNL A   1      50.352  26.645  22.433  1.00  0.00    -0.200 F 
ENDBRANCH  41  64
ENDBRANCH  15  16
ENDBRANCH   8  10
ENDBRANCH   7   8
ENDBRANCH   6   7
ENDBRANCH   5   6
ENDBRANCH   4   5
ENDBRANCH   3   4
ENDBRANCH   2   3
ENDBRANCH   1   2
BRANCH   1  75
ATOM     75  C   UNL A   1      34.112  35.239  29.583  1.00  0.00     0.188 C 
BRANCH  75  76
ATOM     76  C   UNL A   1      33.815  34.060  28.632  1.00  0.00     0.188 C 
BRANCH  76  77
ATOM     77  O   UNL A   1      34.601  32.893  28.699  1.00  0.00    -0.376 OA
BRANCH  77  78
ATOM     78  C   UNL A   1      34.570  31.974  27.626  1.00  0.00     0.202 C 
BRANCH  78  79
ATOM     79  C   UNL A   1      34.409  30.446  27.805  1.00  0.00     0.261 C 
BRANCH  79  80
ATOM     80  O   UNL A   1      34.085  29.642  26.651  1.00  0.00    -0.463 OA
BRANCH  80  81
ATOM     81  C   UNL A   1      32.786  29.534  26.301  1.00  0.00     0.309 C 
ATOM     82  O   UNL A   1      31.865  29.567  27.124  1.00  0.00    -0.252 OA
BRANCH  81  83
ATOM     83  C   UNL A   1      32.552  29.284  24.795  1.00  0.00     0.111 C 
ATOM     84  C   UNL A   1      31.114  29.049  24.285  1.00  0.00     0.016 C 
ATOM     85  C   UNL A   1      33.489  28.151  24.338  1.00  0.00     0.093 C 
ATOM     86  C   UNL A   1      30.984  28.653  22.813  1.00  0.00     0.001 C 
ATOM     87  C   UNL A   1      33.363  27.889  22.830  1.00  0.00     0.014 C 
ATOM     88  C   UNL A   1      31.938  27.541  22.415  1.00  0.00     0.001 C 
BRANCH  85  89
ATOM     89  C   UNL A   1      33.338  26.864  25.088  1.00  0.00     0.230 A 
ATOM     90  N   UNL A   1      34.263  25.968  25.311  1.00  0.00    -0.196 NA
ATOM     91  O   UNL A   1      32.098  26.467  25.497  1.00  0.00    -0.339 OA
ATOM     92  C   UNL A   1      33.553  24.954  25.898  1.00  0.00     0.175 A 
ATOM     93  N   UNL A   1      32.243  25.188  26.042  1.00  0.00    -0.062 NA
BRANCH  92  94
ATOM     94  C   UNL A   1      34.192  23.628  26.138  1.00  0.00     0.061 C 
ATOM     95  C   UNL A   1      33.264  22.806  27.055  1.00  0.00     0.012 C 
ATOM     96  C   UNL A   1      34.477  22.922  24.798  1.00  0.00     0.012 C 
ATOM     97  C   UNL A   1      33.657  21.340  27.159  1.00  0.00     0.001 C 
ATOM     98  C   UNL A   1      34.846  21.453  24.959  1.00  0.00     0.001 C 
ATOM     99  C   UNL A   1      33.799  20.712  25.780  1.00  0.00     0.000 C 
ENDBRANCH  92  94
ENDBRANCH  85  89
ENDBRANCH  81  83
ENDBRANCH  80  81
ENDBRANCH  79  80
ENDBRANCH  78  79
ENDBRANCH  77  78
ENDBRANCH  76  77
ENDBRANCH  75  76
ENDBRANCH   1  75
TORSDOF 22
ENDMDL
MODEL 3
REMARK VINA RESULT:     -10.0      1.759      7.905
REMARK SMILES O=C(OCCOCCOCCOCCOC(=O)[C@@H]1CCCC[C@@H]1c1nc(C2CCCCC2)no1)c1ccc(-c2c3nc(c(-c4c(F)c(F)c(F)c(F)c4F)c4ccc([nH]4)c(-c4c(F)c(F)c(F)c(F)c4F)c4nc(c(-c5c(F)c(F)c(F)c(F)c5F)c5ccc2[nH]5)C=C4)C=C3)cc1
REMARK SMILES IDX 9 1 8 2 7 3 6 4 5 5 4 6 3 7 2 8 1 9 35 10 36 11 97 12 37 13
REMARK SMILES IDX 96 14 38 15 39 16 40 17 90 18 41 19 95 20 89 21 91 22 42 23
REMARK SMILES IDX 94 24 88 25 87 26 43 28 75 29 55 30 74 31 56 32 59 33 73 34
REMARK SMILES IDX 92 35 57 36 58 37 72 39 93 40 60 41 44 42 45 43 53 44 46 45
REMARK SMILES IDX 47 46 51 47 54 48 48 49 49 50 52 51 50 52 76 53 77 54 85 55
REMARK SMILES IDX 78 56 79 57 83 58 86 59 80 60 81 61 84 62 82 63 61 64 62 65
REMARK SMILES IDX 70 66 63 67 64 68 68 69 71 70 65 71 66 72 69 73 67 74 10 75
REMARK SMILES IDX 11 76 12 77 13 78 14 79 15 80 16 81 17 82 18 83 19 84 23 85
REMARK SMILES IDX 20 86 22 87 21 88 24 89 25 90 34 91 26 92 33 93 27 94 28 95
REMARK SMILES IDX 32 96 29 97 31 98 30 99
REMARK H PARENT 91 27 59 38
REMARK Flexibility Score: inf
ROOT
ATOM      1  O   UNL A   1      39.595  22.098  26.365  1.00  0.00    -0.377 OA
ENDROOT
BRANCH   1   2
ATOM      2  C   UNL A   1      40.833  21.456  26.129  1.00  0.00     0.188 C 
BRANCH   2   3
ATOM      3  C   UNL A   1      40.871  19.954  26.383  1.00  0.00     0.188 C 
BRANCH   3   4
ATOM      4  O   UNL A   1      41.670  19.646  27.527  1.00  0.00    -0.376 OA
BRANCH   4   5
ATOM      5  C   UNL A   1      42.627  18.595  27.359  1.00  0.00     0.202 C 
BRANCH   5   6
ATOM      6  C   UNL A   1      42.919  18.199  25.909  1.00  0.00     0.261 C 
BRANCH   6   7
ATOM      7  O   UNL A   1      44.153  18.719  25.392  1.00  0.00    -0.460 OA
BRANCH   7   8
ATOM      8  C   UNL A   1      44.366  19.791  24.589  1.00  0.00     0.338 C 
ATOM      9  O   UNL A   1      44.652  19.577  23.410  1.00  0.00    -0.246 OA
BRANCH   8  10
ATOM     10  C   UNL A   1      44.337  21.219  25.043  1.00  0.00     0.060 A 
ATOM     11  C   UNL A   1      44.209  22.328  24.211  1.00  0.00     0.016 A 
ATOM     12  C   UNL A   1      44.399  21.455  26.429  1.00  0.00     0.016 A 
ATOM     13  C   UNL A   1      44.162  23.617  24.698  1.00  0.00     0.010 A 
ATOM     14  C   UNL A   1      44.393  22.757  26.941  1.00  0.00     0.010 A 
ATOM     15  C   UNL A   1      44.305  23.836  26.058  1.00  0.00    -0.014 A 
BRANCH  15  16
ATOM     16  C   UNL A   1      44.665  25.209  26.428  1.00  0.00     0.031 A 
ATOM     17  C   UNL A   1      43.601  26.019  27.103  1.00  0.00     0.074 A 
ATOM     18  C   UNL A   1      45.954  25.586  26.407  1.00  0.00     0.049 A 
ATOM     19  N   UNL A   1      43.633  27.252  27.522  1.00  0.00    -0.248 NA
ATOM     20  C   UNL A   1      42.325  25.326  27.373  1.00  0.00     0.031 C 
ATOM     21  C   UNL A   1      47.073  24.736  25.988  1.00  0.00     0.029 A 
ATOM     22  N   UNL A   1      46.544  26.753  26.795  1.00  0.00    -0.354 N 
ATOM     23  C   UNL A   1      42.375  27.492  28.061  1.00  0.00     0.074 A 
ATOM     24  C   UNL A   1      41.604  26.281  27.934  1.00  0.00     0.031 C 
ATOM     25  C   UNL A   1      48.220  25.414  26.149  1.00  0.00     0.029 A 
ATOM     26  C   UNL A   1      47.904  26.763  26.601  1.00  0.00     0.049 A 
ATOM     27  H   UNL A   1      46.046  27.511  27.177  1.00  0.00     0.167 HD
ATOM     28  C   UNL A   1      41.915  28.644  28.595  1.00  0.00     0.037 A 
ATOM     29  C   UNL A   1      48.767  27.786  26.728  1.00  0.00     0.037 A 
ATOM     30  C   UNL A   1      42.732  29.821  28.693  1.00  0.00     0.049 A 
ATOM     31  C   UNL A   1      48.197  29.106  27.178  1.00  0.00     0.074 A 
ATOM     32  C   UNL A   1      42.385  31.092  29.100  1.00  0.00     0.029 A 
ATOM     33  N   UNL A   1      44.084  29.850  28.366  1.00  0.00    -0.354 N 
ATOM     34  N   UNL A   1      46.973  29.390  27.563  1.00  0.00    -0.248 NA
ATOM     35  C   UNL A   1      49.113  30.251  27.190  1.00  0.00     0.031 C 
ATOM     36  C   UNL A   1      43.517  31.905  28.967  1.00  0.00     0.029 A 
ATOM     37  C   UNL A   1      44.585  31.125  28.541  1.00  0.00     0.049 A 
ATOM     38  H   UNL A   1      44.607  29.076  28.056  1.00  0.00     0.167 HD
ATOM     39  C   UNL A   1      46.974  30.738  27.885  1.00  0.00     0.074 A 
ATOM     40  C   UNL A   1      48.329  31.208  27.666  1.00  0.00     0.031 C 
ATOM     41  C   UNL A   1      45.955  31.524  28.318  1.00  0.00     0.037 A 
BRANCH  28  42
ATOM     42  C   UNL A   1      40.465  28.685  28.975  1.00  0.00     0.064 A 
ATOM     43  C   UNL A   1      39.460  29.070  28.074  1.00  0.00     0.173 A 
ATOM     44  C   UNL A   1      40.085  28.416  30.299  1.00  0.00     0.173 A 
ATOM     45  F   UNL A   1      39.773  29.381  26.806  1.00  0.00    -0.203 F 
ATOM     46  C   UNL A   1      38.139  29.220  28.493  1.00  0.00     0.198 A 
ATOM     47  C   UNL A   1      38.760  28.538  30.708  1.00  0.00     0.198 A 
ATOM     48  F   UNL A   1      41.007  28.062  31.208  1.00  0.00    -0.203 F 
ATOM     49  F   UNL A   1      37.210  29.664  27.635  1.00  0.00    -0.200 F 
ATOM     50  C   UNL A   1      37.790  28.952  29.809  1.00  0.00     0.200 A 
ATOM     51  F   UNL A   1      38.427  28.281  31.980  1.00  0.00    -0.200 F 
ATOM     52  F   UNL A   1      36.523  29.113  30.215  1.00  0.00    -0.200 F 
ENDBRANCH  28  42
BRANCH  29  53
ATOM     53  C   UNL A   1      50.197  27.625  26.353  1.00  0.00     0.064 A 
ATOM     54  C   UNL A   1      50.620  27.711  25.020  1.00  0.00     0.173 A 
ATOM     55  C   UNL A   1      51.176  27.351  27.324  1.00  0.00     0.173 A 
ATOM     56  F   UNL A   1      49.728  27.949  24.048  1.00  0.00    -0.203 F 
ATOM     57  C   UNL A   1      51.956  27.507  24.671  1.00  0.00     0.198 A 
ATOM     58  C   UNL A   1      52.516  27.182  26.979  1.00  0.00     0.198 A 
ATOM     59  F   UNL A   1      50.833  27.250  28.617  1.00  0.00    -0.203 F 
ATOM     60  F   UNL A   1      52.321  27.540  23.382  1.00  0.00    -0.200 F 
ATOM     61  C   UNL A   1      52.903  27.248  25.650  1.00  0.00     0.200 A 
ATOM     62  F   UNL A   1      53.427  26.944  27.932  1.00  0.00    -0.200 F 
ATOM     63  F   UNL A   1      54.184  27.047  25.313  1.00  0.00    -0.200 F 
ENDBRANCH  29  53
BRANCH  41  64
ATOM     64  C   UNL A   1      46.294  32.950  28.623  1.00  0.00     0.064 A 
ATOM     65  C   UNL A   1      46.164  33.961  27.662  1.00  0.00     0.173 A 
ATOM     66  C   UNL A   1      46.701  33.310  29.917  1.00  0.00     0.173 A 
ATOM     67  F   UNL A   1      45.793  33.658  26.408  1.00  0.00    -0.203 F 
ATOM     68  C   UNL A   1      46.456  35.283  27.979  1.00  0.00     0.198 A 
ATOM     69  C   UNL A   1      46.955  34.636  30.239  1.00  0.00     0.198 A 
ATOM     70  F   UNL A   1      46.828  32.375  30.870  1.00  0.00    -0.203 F 
ATOM     71  F   UNL A   1      46.376  36.228  27.034  1.00  0.00    -0.200 F 
ATOM     72  C   UNL A   1      46.841  35.621  29.269  1.00  0.00     0.200 A 
ATOM     73  F   UNL A   1      47.307  34.964  31.490  1.00  0.00    -0.200 F 
ATOM     74  F   UNL A   1      47.108  36.897  29.575  1.00  0.00    -0.200 F 
ENDBRANCH  41  64
ENDBRANCH  15  16
ENDBRANCH   8  10
ENDBRANCH   7   8
ENDBRANCH   6   7
ENDBRANCH   5   6
ENDBRANCH   4   5
ENDBRANCH   3   4
ENDBRANCH   2   3
ENDBRANCH   1   2
BRANCH   1  75
ATOM     75  C   UNL A   1      38.462  21.536  25.739  1.00  0.00     0.188 C 
BRANCH  75  76
ATOM     76  C   UNL A   1      37.207  22.394  25.477  1.00  0.00     0.188 C 
BRANCH  76  77
ATOM     77  O   UNL A   1      35.994  22.073  26.117  1.00  0.00    -0.376 OA
BRANCH  77  78
ATOM     78  C   UNL A   1      35.301  23.075  26.832  1.00  0.00     0.202 C 
BRANCH  78  79
ATOM     79  C   UNL A   1      33.914  22.865  27.485  1.00  0.00     0.261 C 
BRANCH  79  80
ATOM     80  O   UNL A   1      32.873  22.231  26.713  1.00  0.00    -0.463 OA
BRANCH  80  81
ATOM     81  C   UNL A   1      31.916  23.017  26.176  1.00  0.00     0.309 C 
ATOM     82  O   UNL A   1      30.764  23.072  26.621  1.00  0.00    -0.252 OA
BRANCH  81  83
ATOM     83  C   UNL A   1      32.358  23.781  24.908  1.00  0.00     0.111 C 
ATOM     84  C   UNL A   1      31.283  24.374  23.972  1.00  0.00     0.016 C 
ATOM     85  C   UNL A   1      33.341  22.894  24.122  1.00  0.00     0.093 C 
ATOM     86  C   UNL A   1      31.796  24.975  22.662  1.00  0.00     0.001 C 
ATOM     87  C   UNL A   1      33.881  23.614  22.878  1.00  0.00     0.014 C 
ATOM     88  C   UNL A   1      32.769  24.063  21.936  1.00  0.00     0.001 C 
BRANCH  85  89
ATOM     89  C   UNL A   1      32.809  21.549  23.736  1.00  0.00     0.230 A 
ATOM     90  N   UNL A   1      32.921  20.433  24.407  1.00  0.00    -0.196 NA
ATOM     91  O   UNL A   1      32.247  21.377  22.503  1.00  0.00    -0.339 OA
ATOM     92  C   UNL A   1      32.395  19.514  23.538  1.00  0.00     0.175 A 
ATOM     93  N   UNL A   1      31.968  20.014  22.373  1.00  0.00    -0.062 NA
BRANCH  92  94
ATOM     94  C   UNL A   1      32.512  18.055  23.825  1.00  0.00     0.061 C 
ATOM     95  C   UNL A   1      33.801  17.535  23.157  1.00  0.00     0.012 C 
ATOM     96  C   UNL A   1      32.491  17.806  25.345  1.00  0.00     0.012 C 
ATOM     97  C   UNL A   1      34.189  16.131  23.594  1.00  0.00     0.001 C 
ATOM     98  C   UNL A   1      32.906  16.392  25.729  1.00  0.00     0.001 C 
ATOM     99  C   UNL A   1      34.250  16.028  25.112  1.00  0.00     0.000 C 
ENDBRANCH  92  94
ENDBRANCH  85  89
ENDBRANCH  81  83
ENDBRANCH  80  81
ENDBRANCH  79  80
ENDBRANCH  78  79
ENDBRANCH  77  78
ENDBRANCH  76  77
ENDBRANCH  75  76
ENDBRANCH   1  75
TORSDOF 22
ENDMDL
