MODEL 1
REMARK VINA RESULT:     -12.1      0.000      0.000
REMARK SMILES Cc1n[nH]c2c1[C@@]1(C(=O)N([C@@H](C)C(=O)OCCOCCOCCOCCOC(=O)c3ccc(-c4c5nc(c(-c6c(F)c(F)c(F)c(F)c6F)c6ccc([nH]6)c(-c6c(F)c(F)c(F)c(F)c6F)c6nc(c(-c7c(F)c(F)c(F)c(F)c7F)c7ccc4[nH]7)C=C6)C=C5)cc3)c3ccccc31)C(C#N)=C(N)O2
REMARK SMILES IDX 21 1 20 2 19 3 18 4 17 5 16 6 15 7 13 8 14 9 11 10 12 11
REMARK SMILES IDX 10 12 1 13 2 14 3 15 6 16 4 17 5 18 7 19 104 21 8 22 98 23
REMARK SMILES IDX 99 24 102 25 9 26 93 27 97 28 94 29 96 30 95 31 100 32
REMARK SMILES IDX 101 33 103 34 22 37 23 38 24 39 25 40 26 41 27 42 28 43
REMARK SMILES IDX 29 44 30 45 31 46 92 47 32 48 91 49 33 50 34 51 35 52 85 53
REMARK SMILES IDX 36 54 90 55 84 56 86 57 37 58 89 59 83 60 82 61 38 63 70 64
REMARK SMILES IDX 50 65 69 66 51 67 54 68 68 69 87 70 52 71 53 72 67 74 88 75
REMARK SMILES IDX 55 76 39 77 40 78 48 79 41 80 42 81 46 82 49 83 43 84 44 85
REMARK SMILES IDX 47 86 45 87 71 88 72 89 80 90 73 91 74 92 78 93 81 94 75 95
REMARK SMILES IDX 76 96 79 97 77 98 56 99 57 100 65 101 58 102 59 103 63 104
REMARK SMILES IDX 66 105 60 106 61 107 64 108 62 109
REMARK H PARENT 4 20 103 35 103 36 86 62 54 73
REMARK Flexibility Score: inf
ROOT
ATOM      1  O   UNL A   1      41.762  20.011  27.572  1.00  0.00    -0.377 OA
ENDROOT
BRANCH   1   2
ATOM      2  C   UNL A   1      40.821  21.049  27.528  1.00  0.00     0.188 C 
BRANCH   2   3
ATOM      3  C   UNL A   1      40.263  21.433  26.153  1.00  0.00     0.188 C 
BRANCH   3   4
ATOM      4  O   UNL A   1      38.958  21.112  25.710  1.00  0.00    -0.376 OA
BRANCH   4   5
ATOM      5  C   UNL A   1      37.941  22.073  25.500  1.00  0.00     0.202 C 
BRANCH   5   6
ATOM      6  C   UNL A   1      36.546  21.741  24.940  1.00  0.00     0.261 C 
BRANCH   6   7
ATOM      7  O   UNL A   1      35.727  20.835  25.702  1.00  0.00    -0.462 OA
BRANCH   7   8
ATOM      8  C   UNL A   1      34.485  21.271  25.974  1.00  0.00     0.329 C 
ATOM      9  O   UNL A   1      33.467  20.627  25.715  1.00  0.00    -0.250 OA
BRANCH   8  10
ATOM     10  C   UNL A   1      34.384  22.672  26.622  1.00  0.00     0.197 C 
ATOM     11  C   UNL A   1      33.874  22.450  28.045  1.00  0.00     0.044 C 
BRANCH  10  12
ATOM     12  N   UNL A   1      33.760  23.882  26.025  1.00  0.00    -0.297 N 
ATOM     13  C   UNL A   1      33.146  23.073  22.566  1.00  0.00     0.069 C 
ATOM     14  C   UNL A   1      33.097  24.515  22.246  1.00  0.00     0.068 A 
ATOM     15  N   UNL A   1      33.036  24.913  20.964  1.00  0.00    -0.177 NA
ATOM     16  C   UNL A   1      33.151  25.614  23.132  1.00  0.00     0.063 A 
ATOM     17  N   UNL A   1      33.082  26.256  21.028  1.00  0.00    -0.246 N 
ATOM     18  C   UNL A   1      33.147  26.711  22.300  1.00  0.00     0.222 A 
ATOM     19  C   UNL A   1      33.291  25.790  24.610  1.00  0.00     0.149 C 
ATOM     20  H   UNL A   1      33.070  26.841  20.238  1.00  0.00     0.193 HD
ATOM     21  O   UNL A   1      33.248  27.996  22.617  1.00  0.00    -0.422 OA
ATOM     22  C   UNL A   1      34.403  24.842  25.214  1.00  0.00     0.248 C 
ATOM     23  C   UNL A   1      32.034  25.227  25.254  1.00  0.00     0.002 A 
ATOM     24  C   UNL A   1      33.481  27.269  24.897  1.00  0.00     0.114 C 
ATOM     25  C   UNL A   1      33.428  28.267  23.974  1.00  0.00     0.208 C 
ATOM     26  O   UNL A   1      35.600  24.897  24.975  1.00  0.00    -0.273 OA
ATOM     27  C   UNL A   1      32.361  24.126  26.056  1.00  0.00     0.050 A 
ATOM     28  C   UNL A   1      30.727  25.711  25.202  1.00  0.00     0.008 A 
ATOM     29  C   UNL A   1      31.378  23.469  26.787  1.00  0.00     0.027 A 
ATOM     30  C   UNL A   1      29.743  25.066  25.955  1.00  0.00     0.001 A 
ATOM     31  C   UNL A   1      30.066  23.951  26.737  1.00  0.00     0.002 A 
BRANCH  24  32
ATOM     32  C   UNL A   1      33.544  27.664  26.236  1.00  0.00     0.102 C 
ATOM     33  N   UNL A   1      33.464  28.161  27.265  1.00  0.00    -0.193 NA
ENDBRANCH  24  32
BRANCH  25  34
ATOM     34  N   UNL A   1      33.494  29.605  24.258  1.00  0.00    -0.369 N 
ATOM     35  H   UNL A   1      33.538  30.262  23.525  1.00  0.00     0.159 HD
ATOM     36  H   UNL A   1      33.498  29.910  25.194  1.00  0.00     0.159 HD
ENDBRANCH  25  34
ENDBRANCH  10  12
ENDBRANCH   8  10
ENDBRANCH   7   8
ENDBRANCH   6   7
ENDBRANCH   5   6
ENDBRANCH   4   5
ENDBRANCH   3   4
ENDBRANCH   2   3
ENDBRANCH   1   2
BRANCH   1  37
ATOM     37  C   UNL A   1      42.533  19.727  26.421  1.00  0.00     0.188 C 
BRANCH  37  38
ATOM     38  C   UNL A   1      42.914  18.285  26.057  1.00  0.00     0.188 C 
BRANCH  38  39
ATOM     39  O   UNL A   1      44.052  18.179  25.227  1.00  0.00    -0.376 OA
BRANCH  39  40
ATOM     40  C   UNL A   1      45.347  18.463  25.733  1.00  0.00     0.202 C 
BRANCH  40  41
ATOM     41  C   UNL A   1      46.331  19.392  25.001  1.00  0.00     0.261 C 
BRANCH  41  42
ATOM     42  O   UNL A   1      46.028  20.789  25.129  1.00  0.00    -0.460 OA
BRANCH  42  43
ATOM     43  C   UNL A   1      45.263  21.436  24.230  1.00  0.00     0.338 C 
ATOM     44  O   UNL A   1      44.549  20.938  23.381  1.00  0.00    -0.246 OA
BRANCH  43  45
ATOM     45  C   UNL A   1      45.164  22.834  24.747  1.00  0.00     0.060 A 
ATOM     46  C   UNL A   1      46.102  23.386  25.631  1.00  0.00     0.016 A 
ATOM     47  C   UNL A   1      43.905  23.432  24.608  1.00  0.00     0.016 A 
ATOM     48  C   UNL A   1      45.711  24.432  26.480  1.00  0.00     0.010 A 
ATOM     49  C   UNL A   1      43.516  24.461  25.467  1.00  0.00     0.010 A 
ATOM     50  C   UNL A   1      44.390  24.928  26.452  1.00  0.00    -0.014 A 
BRANCH  50  51
ATOM     51  C   UNL A   1      44.025  26.090  27.297  1.00  0.00     0.031 A 
ATOM     52  C   UNL A   1      44.893  27.281  27.019  1.00  0.00     0.074 A 
ATOM     53  C   UNL A   1      42.920  26.216  28.077  1.00  0.00     0.049 A 
ATOM     54  N   UNL A   1      45.551  28.024  27.850  1.00  0.00    -0.248 NA
ATOM     55  C   UNL A   1      45.140  27.609  25.602  1.00  0.00     0.031 C 
ATOM     56  C   UNL A   1      41.822  25.261  28.259  1.00  0.00     0.029 A 
ATOM     57  N   UNL A   1      42.482  27.291  28.817  1.00  0.00    -0.354 N 
ATOM     58  C   UNL A   1      46.185  28.996  27.075  1.00  0.00     0.074 A 
ATOM     59  C   UNL A   1      46.003  28.618  25.699  1.00  0.00     0.031 C 
ATOM     60  C   UNL A   1      40.766  25.877  28.844  1.00  0.00     0.029 A 
ATOM     61  C   UNL A   1      41.134  27.240  29.190  1.00  0.00     0.049 A 
ATOM     62  H   UNL A   1      43.073  28.039  29.066  1.00  0.00     0.167 HD
ATOM     63  C   UNL A   1      46.660  30.154  27.607  1.00  0.00     0.037 A 
ATOM     64  C   UNL A   1      40.361  28.248  29.693  1.00  0.00     0.037 A 
ATOM     65  C   UNL A   1      46.866  30.042  29.023  1.00  0.00     0.049 A 
ATOM     66  C   UNL A   1      41.272  29.295  30.209  1.00  0.00     0.074 A 
ATOM     67  C   UNL A   1      47.705  29.292  29.822  1.00  0.00     0.029 A 
ATOM     68  N   UNL A   1      45.905  30.541  29.861  1.00  0.00    -0.354 N 
ATOM     69  N   UNL A   1      42.033  29.149  31.254  1.00  0.00    -0.248 NA
ATOM     70  C   UNL A   1      41.654  30.346  29.281  1.00  0.00     0.031 C 
ATOM     71  C   UNL A   1      46.928  28.973  30.972  1.00  0.00     0.029 A 
ATOM     72  C   UNL A   1      45.692  29.601  30.835  1.00  0.00     0.049 A 
ATOM     73  H   UNL A   1      45.453  31.412  29.780  1.00  0.00     0.167 HD
ATOM     74  C   UNL A   1      43.222  29.757  30.891  1.00  0.00     0.074 A 
ATOM     75  C   UNL A   1      42.912  30.522  29.685  1.00  0.00     0.031 C 
ATOM     76  C   UNL A   1      44.405  29.360  31.436  1.00  0.00     0.037 A 
BRANCH  63  77
ATOM     77  C   UNL A   1      46.625  31.482  26.896  1.00  0.00     0.064 A 
ATOM     78  C   UNL A   1      47.790  32.271  26.831  1.00  0.00     0.173 A 
ATOM     79  C   UNL A   1      45.426  32.137  26.534  1.00  0.00     0.173 A 
ATOM     80  F   UNL A   1      48.980  31.760  27.181  1.00  0.00    -0.203 F 
ATOM     81  C   UNL A   1      47.746  33.626  26.493  1.00  0.00     0.198 A 
ATOM     82  C   UNL A   1      45.394  33.474  26.146  1.00  0.00     0.198 A 
ATOM     83  F   UNL A   1      44.231  31.545  26.650  1.00  0.00    -0.203 F 
ATOM     84  F   UNL A   1      48.862  34.365  26.559  1.00  0.00    -0.200 F 
ATOM     85  C   UNL A   1      46.548  34.227  26.153  1.00  0.00     0.200 A 
ATOM     86  F   UNL A   1      44.218  34.043  25.844  1.00  0.00    -0.200 F 
ATOM     87  F   UNL A   1      46.495  35.537  25.884  1.00  0.00    -0.200 F 
ENDBRANCH  63  77
BRANCH  64  88
ATOM     88  C   UNL A   1      38.922  28.569  29.453  1.00  0.00     0.064 A 
ATOM     89  C   UNL A   1      38.026  28.785  30.522  1.00  0.00     0.173 A 
ATOM     90  C   UNL A   1      38.478  28.996  28.188  1.00  0.00     0.173 A 
ATOM     91  F   UNL A   1      38.375  28.459  31.775  1.00  0.00    -0.203 F 
ATOM     92  C   UNL A   1      36.787  29.420  30.338  1.00  0.00     0.198 A 
ATOM     93  C   UNL A   1      37.243  29.627  28.005  1.00  0.00     0.198 A 
ATOM     94  F   UNL A   1      39.281  28.909  27.118  1.00  0.00    -0.203 F 
ATOM     95  F   UNL A   1      35.996  29.671  31.392  1.00  0.00    -0.200 F 
ATOM     96  C   UNL A   1      36.404  29.853  29.081  1.00  0.00     0.200 A 
ATOM     97  F   UNL A   1      36.903  30.080  26.790  1.00  0.00    -0.200 F 
ATOM     98  F   UNL A   1      35.257  30.525  28.912  1.00  0.00    -0.200 F 
ENDBRANCH  64  88
BRANCH  76  99
ATOM     99  C   UNL A   1      44.367  28.422  32.609  1.00  0.00     0.064 A 
ATOM    100  C   UNL A   1      44.229  28.832  33.946  1.00  0.00     0.173 A 
ATOM    101  C   UNL A   1      44.307  27.046  32.346  1.00  0.00     0.173 A 
ATOM    102  F   UNL A   1      44.188  30.129  34.275  1.00  0.00    -0.203 F 
ATOM    103  C   UNL A   1      44.070  27.900  34.972  1.00  0.00     0.198 A 
ATOM    104  C   UNL A   1      44.102  26.123  33.367  1.00  0.00     0.198 A 
ATOM    105  F   UNL A   1      44.395  26.600  31.084  1.00  0.00    -0.203 F 
ATOM    106  F   UNL A   1      43.961  28.312  36.242  1.00  0.00    -0.200 F 
ATOM    107  C   UNL A   1      43.990  26.548  34.680  1.00  0.00     0.200 A 
ATOM    108  F   UNL A   1      43.985  24.821  33.072  1.00  0.00    -0.200 F 
ATOM    109  F   UNL A   1      43.780  25.658  35.660  1.00  0.00    -0.200 F 
ENDBRANCH  76  99
ENDBRANCH  50  51
ENDBRANCH  43  45
ENDBRANCH  42  43
ENDBRANCH  41  42
ENDBRANCH  40  41
ENDBRANCH  39  40
ENDBRANCH  38  39
ENDBRANCH  37  38
ENDBRANCH   1  37
TORSDOF 23
ENDMDL
MODEL 2
REMARK VINA RESULT:     -10.8      0.930      2.088
REMARK SMILES Cc1n[nH]c2c1[C@@]1(C(=O)N([C@@H](C)C(=O)OCCOCCOCCOCCOC(=O)c3ccc(-c4c5nc(c(-c6c(F)c(F)c(F)c(F)c6F)c6ccc([nH]6)c(-c6c(F)c(F)c(F)c(F)c6F)c6nc(c(-c7c(F)c(F)c(F)c(F)c7F)c7ccc4[nH]7)C=C6)C=C5)cc3)c3ccccc31)C(C#N)=C(N)O2
REMARK SMILES IDX 21 1 20 2 19 3 18 4 17 5 16 6 15 7 13 8 14 9 11 10 12 11
REMARK SMILES IDX 10 12 1 13 2 14 3 15 6 16 4 17 5 18 7 19 104 21 8 22 98 23
REMARK SMILES IDX 99 24 102 25 9 26 93 27 97 28 94 29 96 30 95 31 100 32
REMARK SMILES IDX 101 33 103 34 22 37 23 38 24 39 25 40 26 41 27 42 28 43
REMARK SMILES IDX 29 44 30 45 31 46 92 47 32 48 91 49 33 50 34 51 35 52 85 53
REMARK SMILES IDX 36 54 90 55 84 56 86 57 37 58 89 59 83 60 82 61 38 63 70 64
REMARK SMILES IDX 50 65 69 66 51 67 54 68 68 69 87 70 52 71 53 72 67 74 88 75
REMARK SMILES IDX 55 76 39 77 40 78 48 79 41 80 42 81 46 82 49 83 43 84 44 85
REMARK SMILES IDX 47 86 45 87 71 88 72 89 80 90 73 91 74 92 78 93 81 94 75 95
REMARK SMILES IDX 76 96 79 97 77 98 56 99 57 100 65 101 58 102 59 103 63 104
REMARK SMILES IDX 66 105 60 106 61 107 64 108 62 109
REMARK H PARENT 4 20 103 35 103 36 86 62 54 73
REMARK Flexibility Score: inf
ROOT
ATOM      1  O   UNL A   1      41.603  20.372  25.993  1.00  0.00    -0.377 OA
ENDROOT
BRANCH   1   2
ATOM      2  C   UNL A   1      40.863  21.400  26.594  1.00  0.00     0.188 C 
BRANCH   2   3
ATOM      3  C   UNL A   1      39.356  21.434  26.318  1.00  0.00     0.188 C 
BRANCH   3   4
ATOM      4  O   UNL A   1      38.787  21.456  25.021  1.00  0.00    -0.376 OA
BRANCH   4   5
ATOM      5  C   UNL A   1      37.405  21.626  24.774  1.00  0.00     0.202 C 
BRANCH   5   6
ATOM      6  C   UNL A   1      36.305  21.368  25.820  1.00  0.00     0.261 C 
BRANCH   6   7
ATOM      7  O   UNL A   1      35.056  20.832  25.348  1.00  0.00    -0.462 OA
BRANCH   7   8
ATOM      8  C   UNL A   1      33.964  21.245  26.015  1.00  0.00     0.329 C 
ATOM      9  O   UNL A   1      32.958  20.549  26.167  1.00  0.00    -0.250 OA
BRANCH   8  10
ATOM     10  C   UNL A   1      34.015  22.685  26.576  1.00  0.00     0.197 C 
ATOM     11  C   UNL A   1      33.520  22.601  28.019  1.00  0.00     0.044 C 
BRANCH  10  12
ATOM     12  N   UNL A   1      33.496  23.912  25.916  1.00  0.00    -0.297 N 
ATOM     13  C   UNL A   1      32.851  22.994  22.489  1.00  0.00     0.069 C 
ATOM     14  C   UNL A   1      32.922  24.419  22.103  1.00  0.00     0.068 A 
ATOM     15  N   UNL A   1      32.905  24.759  20.803  1.00  0.00    -0.177 NA
ATOM     16  C   UNL A   1      33.057  25.550  22.938  1.00  0.00     0.063 A 
ATOM     17  N   UNL A   1      33.059  26.095  20.806  1.00  0.00    -0.246 N 
ATOM     18  C   UNL A   1      33.149  26.603  22.057  1.00  0.00     0.222 A 
ATOM     19  C   UNL A   1      33.197  25.783  24.408  1.00  0.00     0.149 C 
ATOM     20  H   UNL A   1      33.102  26.642  19.990  1.00  0.00     0.193 HD
ATOM     21  O   UNL A   1      33.351  27.889  22.315  1.00  0.00    -0.422 OA
ATOM     22  C   UNL A   1      34.223  24.778  25.069  1.00  0.00     0.248 C 
ATOM     23  C   UNL A   1      31.892  25.355  25.060  1.00  0.00     0.002 A 
ATOM     24  C   UNL A   1      33.503  27.254  24.629  1.00  0.00     0.114 C 
ATOM     25  C   UNL A   1      33.540  28.209  23.661  1.00  0.00     0.208 C 
ATOM     26  O   UNL A   1      35.422  24.725  24.844  1.00  0.00    -0.273 OA
ATOM     27  C   UNL A   1      32.121  24.269  25.917  1.00  0.00     0.050 A 
ATOM     28  C   UNL A   1      30.629  25.939  24.970  1.00  0.00     0.008 A 
ATOM     29  C   UNL A   1      31.082  23.729  26.665  1.00  0.00     0.027 A 
ATOM     30  C   UNL A   1      29.589  25.412  25.739  1.00  0.00     0.001 A 
ATOM     31  C   UNL A   1      29.813  24.312  26.575  1.00  0.00     0.002 A 
BRANCH  24  32
ATOM     32  C   UNL A   1      33.586  27.705  25.949  1.00  0.00     0.102 C 
ATOM     33  N   UNL A   1      33.483  27.931  27.067  1.00  0.00    -0.193 NA
ENDBRANCH  24  32
BRANCH  25  34
ATOM     34  N   UNL A   1      33.712  29.549  23.883  1.00  0.00    -0.369 N 
ATOM     35  H   UNL A   1      33.912  30.151  23.130  1.00  0.00     0.159 HD
ATOM     36  H   UNL A   1      33.635  29.910  24.796  1.00  0.00     0.159 HD
ENDBRANCH  25  34
ENDBRANCH  10  12
ENDBRANCH   8  10
ENDBRANCH   7   8
ENDBRANCH   6   7
ENDBRANCH   5   6
ENDBRANCH   4   5
ENDBRANCH   3   4
ENDBRANCH   2   3
ENDBRANCH   1   2
BRANCH   1  37
ATOM     37  C   UNL A   1      42.312  19.462  26.812  1.00  0.00     0.188 C 
BRANCH  37  38
ATOM     38  C   UNL A   1      42.684  18.061  26.303  1.00  0.00     0.188 C 
BRANCH  38  39
ATOM     39  O   UNL A   1      43.574  18.062  25.207  1.00  0.00    -0.376 OA
BRANCH  39  40
ATOM     40  C   UNL A   1      44.784  18.803  25.256  1.00  0.00     0.202 C 
BRANCH  40  41
ATOM     41  C   UNL A   1      45.020  20.049  24.384  1.00  0.00     0.261 C 
BRANCH  41  42
ATOM     42  O   UNL A   1      44.406  21.245  24.886  1.00  0.00    -0.460 OA
BRANCH  42  43
ATOM     43  C   UNL A   1      44.765  22.467  24.450  1.00  0.00     0.338 C 
ATOM     44  O   UNL A   1      45.229  22.749  23.363  1.00  0.00    -0.246 OA
BRANCH  43  45
ATOM     45  C   UNL A   1      44.110  23.419  25.397  1.00  0.00     0.060 A 
ATOM     46  C   UNL A   1      43.244  24.437  24.973  1.00  0.00     0.016 A 
ATOM     47  C   UNL A   1      44.690  23.486  26.669  1.00  0.00     0.016 A 
ATOM     48  C   UNL A   1      43.096  25.585  25.765  1.00  0.00     0.010 A 
ATOM     49  C   UNL A   1      44.554  24.638  27.445  1.00  0.00     0.010 A 
ATOM     50  C   UNL A   1      43.809  25.723  26.975  1.00  0.00    -0.014 A 
BRANCH  50  51
ATOM     51  C   UNL A   1      43.571  26.905  27.837  1.00  0.00     0.031 A 
ATOM     52  C   UNL A   1      44.642  27.943  27.674  1.00  0.00     0.074 A 
ATOM     53  C   UNL A   1      42.442  27.192  28.537  1.00  0.00     0.049 A 
ATOM     54  N   UNL A   1      45.343  28.543  28.581  1.00  0.00    -0.248 NA
ATOM     55  C   UNL A   1      45.054  28.265  26.293  1.00  0.00     0.031 C 
ATOM     56  C   UNL A   1      41.192  26.427  28.596  1.00  0.00     0.029 A 
ATOM     57  N   UNL A   1      42.127  28.303  29.284  1.00  0.00    -0.354 N 
ATOM     58  C   UNL A   1      46.188  29.418  27.896  1.00  0.00     0.074 A 
ATOM     59  C   UNL A   1      46.059  29.113  26.496  1.00  0.00     0.031 C 
ATOM     60  C   UNL A   1      40.207  27.194  29.125  1.00  0.00     0.029 A 
ATOM     61  C   UNL A   1      40.764  28.467  29.552  1.00  0.00     0.049 A 
ATOM     62  H   UNL A   1      42.811  28.936  29.607  1.00  0.00     0.167 HD
ATOM     63  C   UNL A   1      46.801  30.466  28.509  1.00  0.00     0.037 A 
ATOM     64  C   UNL A   1      40.128  29.575  30.036  1.00  0.00     0.037 A 
ATOM     65  C   UNL A   1      46.871  30.283  29.930  1.00  0.00     0.049 A 
ATOM     66  C   UNL A   1      41.152  30.442  30.661  1.00  0.00     0.074 A 
ATOM     67  C   UNL A   1      47.509  29.382  30.760  1.00  0.00     0.029 A 
ATOM     68  N   UNL A   1      45.940  30.911  30.713  1.00  0.00    -0.354 N 
ATOM     69  N   UNL A   1      41.793  30.143  31.753  1.00  0.00    -0.248 NA
ATOM     70  C   UNL A   1      41.775  31.440  29.808  1.00  0.00     0.031 C 
ATOM     71  C   UNL A   1      46.599  29.164  31.834  1.00  0.00     0.029 A 
ATOM     72  C   UNL A   1      45.497  29.993  31.629  1.00  0.00     0.049 A 
ATOM     73  H   UNL A   1      45.644  31.846  30.634  1.00  0.00     0.167 HD
ATOM     74  C   UNL A   1      43.090  30.555  31.506  1.00  0.00     0.074 A 
ATOM     75  C   UNL A   1      43.008  31.394  30.312  1.00  0.00     0.031 C 
ATOM     76  C   UNL A   1      44.145  29.952  32.122  1.00  0.00     0.037 A 
BRANCH  63  77
ATOM     77  C   UNL A   1      47.041  31.800  27.851  1.00  0.00     0.064 A 
ATOM     78  C   UNL A   1      45.946  32.568  27.409  1.00  0.00     0.173 A 
ATOM     79  C   UNL A   1      48.306  32.214  27.376  1.00  0.00     0.173 A 
ATOM     80  F   UNL A   1      44.696  32.247  27.774  1.00  0.00    -0.203 F 
ATOM     81  C   UNL A   1      46.103  33.627  26.511  1.00  0.00     0.198 A 
ATOM     82  C   UNL A   1      48.463  33.304  26.523  1.00  0.00     0.198 A 
ATOM     83  F   UNL A   1      49.421  31.516  27.627  1.00  0.00    -0.203 F 
ATOM     84  F   UNL A   1      45.022  34.254  26.026  1.00  0.00    -0.200 F 
ATOM     85  C   UNL A   1      47.360  33.992  26.066  1.00  0.00     0.200 A 
ATOM     86  F   UNL A   1      49.689  33.626  26.086  1.00  0.00    -0.200 F 
ATOM     87  F   UNL A   1      47.508  34.970  25.163  1.00  0.00    -0.200 F 
ENDBRANCH  63  77
BRANCH  64  88
ATOM     88  C   UNL A   1      38.784  30.137  29.701  1.00  0.00     0.064 A 
ATOM     89  C   UNL A   1      38.271  30.090  28.386  1.00  0.00     0.173 A 
ATOM     90  C   UNL A   1      37.849  30.423  30.712  1.00  0.00     0.173 A 
ATOM     91  F   UNL A   1      39.073  29.776  27.358  1.00  0.00    -0.203 F 
ATOM     92  C   UNL A   1      36.909  30.281  28.112  1.00  0.00     0.198 A 
ATOM     93  C   UNL A   1      36.491  30.615  30.437  1.00  0.00     0.198 A 
ATOM     94  F   UNL A   1      38.213  30.415  32.001  1.00  0.00    -0.203 F 
ATOM     95  F   UNL A   1      36.450  30.158  26.857  1.00  0.00    -0.200 F 
ATOM     96  C   UNL A   1      36.018  30.529  29.141  1.00  0.00     0.200 A 
ATOM     97  F   UNL A   1      35.631  30.811  31.448  1.00  0.00    -0.200 F 
ATOM     98  F   UNL A   1      34.704  30.637  28.893  1.00  0.00    -0.200 F 
ENDBRANCH  64  88
BRANCH  76  99
ATOM     99  C   UNL A   1      43.859  29.002  33.249  1.00  0.00     0.064 A 
ATOM    100  C   UNL A   1      43.615  27.627  33.084  1.00  0.00     0.173 A 
ATOM    101  C   UNL A   1      43.997  29.479  34.560  1.00  0.00     0.173 A 
ATOM    102  F   UNL A   1      43.557  27.073  31.866  1.00  0.00    -0.203 F 
ATOM    103  C   UNL A   1      43.487  26.781  34.185  1.00  0.00     0.198 A 
ATOM    104  C   UNL A   1      43.913  28.623  35.654  1.00  0.00     0.198 A 
ATOM    105  F   UNL A   1      44.267  30.775  34.777  1.00  0.00    -0.203 F 
ATOM    106  F   UNL A   1      43.235  25.478  34.004  1.00  0.00    -0.200 F 
ATOM    107  C   UNL A   1      43.652  27.276  35.468  1.00  0.00     0.200 A 
ATOM    108  F   UNL A   1      44.115  29.102  36.890  1.00  0.00    -0.200 F 
ATOM    109  F   UNL A   1      43.584  26.452  36.523  1.00  0.00    -0.200 F 
ENDBRANCH  76  99
ENDBRANCH  50  51
ENDBRANCH  43  45
ENDBRANCH  42  43
ENDBRANCH  41  42
ENDBRANCH  40  41
ENDBRANCH  39  40
ENDBRANCH  38  39
ENDBRANCH  37  38
ENDBRANCH   1  37
TORSDOF 23
ENDMDL
MODEL 3
REMARK VINA RESULT:     -10.5      2.738      3.826
REMARK SMILES Cc1n[nH]c2c1[C@@]1(C(=O)N([C@@H](C)C(=O)OCCOCCOCCOCCOC(=O)c3ccc(-c4c5nc(c(-c6c(F)c(F)c(F)c(F)c6F)c6ccc([nH]6)c(-c6c(F)c(F)c(F)c(F)c6F)c6nc(c(-c7c(F)c(F)c(F)c(F)c7F)c7ccc4[nH]7)C=C6)C=C5)cc3)c3ccccc31)C(C#N)=C(N)O2
REMARK SMILES IDX 21 1 20 2 19 3 18 4 17 5 16 6 15 7 13 8 14 9 11 10 12 11
REMARK SMILES IDX 10 12 1 13 2 14 3 15 6 16 4 17 5 18 7 19 104 21 8 22 98 23
REMARK SMILES IDX 99 24 102 25 9 26 93 27 97 28 94 29 96 30 95 31 100 32
REMARK SMILES IDX 101 33 103 34 22 37 23 38 24 39 25 40 26 41 27 42 28 43
REMARK SMILES IDX 29 44 30 45 31 46 92 47 32 48 91 49 33 50 34 51 35 52 85 53
REMARK SMILES IDX 36 54 90 55 84 56 86 57 37 58 89 59 83 60 82 61 38 63 70 64
REMARK SMILES IDX 50 65 69 66 51 67 54 68 68 69 87 70 52 71 53 72 67 74 88 75
REMARK SMILES IDX 55 76 39 77 40 78 48 79 41 80 42 81 46 82 49 83 43 84 44 85
REMARK SMILES IDX 47 86 45 87 71 88 72 89 80 90 73 91 74 92 78 93 81 94 75 95
REMARK SMILES IDX 76 96 79 97 77 98 56 99 57 100 65 101 58 102 59 103 63 104
REMARK SMILES IDX 66 105 60 106 61 107 64 108 62 109
REMARK H PARENT 4 20 103 35 103 36 86 62 54 73
REMARK Flexibility Score: inf
ROOT
ATOM      1  O   UNL A   1      42.214  20.417  25.382  1.00  0.00    -0.377 OA
ENDROOT
BRANCH   1   2
ATOM      2  C   UNL A   1      41.432  19.570  26.179  1.00  0.00     0.188 C 
BRANCH   2   3
ATOM      3  C   UNL A   1      40.004  20.026  26.498  1.00  0.00     0.188 C 
BRANCH   3   4
ATOM      4  O   UNL A   1      39.555  21.364  26.385  1.00  0.00    -0.376 OA
BRANCH   4   5
ATOM      5  C   UNL A   1      38.625  21.800  25.412  1.00  0.00     0.202 C 
BRANCH   5   6
ATOM      6  C   UNL A   1      37.169  22.192  25.730  1.00  0.00     0.261 C 
BRANCH   6   7
ATOM      7  O   UNL A   1      36.230  21.125  25.946  1.00  0.00    -0.462 OA
BRANCH   7   8
ATOM      8  C   UNL A   1      34.935  21.462  25.815  1.00  0.00     0.329 C 
ATOM      9  O   UNL A   1      34.137  20.833  25.117  1.00  0.00    -0.250 OA
BRANCH   8  10
ATOM     10  C   UNL A   1      34.482  22.727  26.579  1.00  0.00     0.197 C 
ATOM     11  C   UNL A   1      33.745  22.236  27.823  1.00  0.00     0.044 C 
BRANCH  10  12
ATOM     12  N   UNL A   1      33.798  23.914  26.001  1.00  0.00    -0.297 N 
ATOM     13  C   UNL A   1      33.123  23.087  22.557  1.00  0.00     0.069 C 
ATOM     14  C   UNL A   1      33.013  24.527  22.242  1.00  0.00     0.068 A 
ATOM     15  N   UNL A   1      32.903  24.923  20.963  1.00  0.00    -0.177 NA
ATOM     16  C   UNL A   1      33.051  25.626  23.128  1.00  0.00     0.063 A 
ATOM     17  N   UNL A   1      32.902  26.267  21.029  1.00  0.00    -0.246 N 
ATOM     18  C   UNL A   1      32.984  26.723  22.299  1.00  0.00     0.222 A 
ATOM     19  C   UNL A   1      33.223  25.806  24.603  1.00  0.00     0.149 C 
ATOM     20  H   UNL A   1      32.847  26.852  20.240  1.00  0.00     0.193 HD
ATOM     21  O   UNL A   1      33.047  28.010  22.615  1.00  0.00    -0.422 OA
ATOM     22  C   UNL A   1      34.385  24.899  25.175  1.00  0.00     0.248 C 
ATOM     23  C   UNL A   1      32.005  25.197  25.278  1.00  0.00     0.002 A 
ATOM     24  C   UNL A   1      33.367  27.290  24.887  1.00  0.00     0.114 C 
ATOM     25  C   UNL A   1      33.253  28.287  23.968  1.00  0.00     0.208 C 
ATOM     26  O   UNL A   1      35.572  24.997  24.905  1.00  0.00    -0.273 OA
ATOM     27  C   UNL A   1      32.393  24.108  26.069  1.00  0.00     0.050 A 
ATOM     28  C   UNL A   1      30.680  25.633  25.263  1.00  0.00     0.008 A 
ATOM     29  C   UNL A   1      31.454  23.415  26.825  1.00  0.00     0.027 A 
ATOM     30  C   UNL A   1      29.741  24.953  26.040  1.00  0.00     0.001 A 
ATOM     31  C   UNL A   1      30.124  23.849  26.811  1.00  0.00     0.002 A 
BRANCH  24  32
ATOM     32  C   UNL A   1      33.451  27.687  26.224  1.00  0.00     0.102 C 
ATOM     33  N   UNL A   1      33.402  28.192  27.251  1.00  0.00    -0.193 NA
ENDBRANCH  24  32
BRANCH  25  34
ATOM     34  N   UNL A   1      33.278  29.626  24.253  1.00  0.00    -0.369 N 
ATOM     35  H   UNL A   1      34.140  30.095  24.338  1.00  0.00     0.159 HD
ATOM     36  H   UNL A   1      32.435  30.120  24.372  1.00  0.00     0.159 HD
ENDBRANCH  25  34
ENDBRANCH  10  12
ENDBRANCH   8  10
ENDBRANCH   7   8
ENDBRANCH   6   7
ENDBRANCH   5   6
ENDBRANCH   4   5
ENDBRANCH   3   4
ENDBRANCH   2   3
ENDBRANCH   1   2
BRANCH   1  37
ATOM     37  C   UNL A   1      43.278  21.137  25.974  1.00  0.00     0.188 C 
BRANCH  37  38
ATOM     38  C   UNL A   1      44.690  21.106  25.371  1.00  0.00     0.188 C 
BRANCH  38  39
ATOM     39  O   UNL A   1      44.834  21.876  24.197  1.00  0.00    -0.376 OA
BRANCH  39  40
ATOM     40  C   UNL A   1      45.390  23.181  24.249  1.00  0.00     0.202 C 
BRANCH  40  41
ATOM     41  C   UNL A   1      44.954  24.220  25.297  1.00  0.00     0.261 C 
BRANCH  41  42
ATOM     42  O   UNL A   1      45.994  25.121  25.703  1.00  0.00    -0.460 OA
BRANCH  42  43
ATOM     43  C   UNL A   1      46.017  26.407  25.306  1.00  0.00     0.338 C 
ATOM     44  O   UNL A   1      46.435  26.841  24.251  1.00  0.00    -0.246 OA
BRANCH  43  45
ATOM     45  C   UNL A   1      45.077  27.110  26.231  1.00  0.00     0.060 A 
ATOM     46  C   UNL A   1      43.820  27.578  25.825  1.00  0.00     0.016 A 
ATOM     47  C   UNL A   1      45.658  27.607  27.404  1.00  0.00     0.016 A 
ATOM     48  C   UNL A   1      43.233  28.651  26.512  1.00  0.00     0.010 A 
ATOM     49  C   UNL A   1      45.078  28.686  28.073  1.00  0.00     0.010 A 
ATOM     50  C   UNL A   1      43.896  29.259  27.599  1.00  0.00    -0.014 A 
BRANCH  50  51
ATOM     51  C   UNL A   1      43.219  30.335  28.363  1.00  0.00     0.031 A 
ATOM     52  C   UNL A   1      43.776  31.689  28.039  1.00  0.00     0.074 A 
ATOM     53  C   UNL A   1      42.086  30.221  29.104  1.00  0.00     0.049 A 
ATOM     54  N   UNL A   1      44.193  32.614  28.841  1.00  0.00    -0.248 NA
ATOM     55  C   UNL A   1      43.993  31.996  26.611  1.00  0.00     0.031 C 
ATOM     56  C   UNL A   1      41.252  29.032  29.311  1.00  0.00     0.029 A 
ATOM     57  N   UNL A   1      41.364  31.188  29.765  1.00  0.00    -0.354 N 
ATOM     58  C   UNL A   1      44.598  33.674  28.027  1.00  0.00     0.074 A 
ATOM     59  C   UNL A   1      44.573  33.193  26.672  1.00  0.00     0.031 C 
ATOM     60  C   UNL A   1      40.053  29.394  29.830  1.00  0.00     0.029 A 
ATOM     61  C   UNL A   1      40.057  30.821  30.103  1.00  0.00     0.049 A 
ATOM     62  H   UNL A   1      41.741  32.072  29.985  1.00  0.00     0.167 HD
ATOM     63  C   UNL A   1      44.748  34.939  28.502  1.00  0.00     0.037 A 
ATOM     64  C   UNL A   1      39.038  31.628  30.523  1.00  0.00     0.037 A 
ATOM     65  C   UNL A   1      44.917  34.955  29.926  1.00  0.00     0.049 A 
ATOM     66  C   UNL A   1      39.638  32.894  31.001  1.00  0.00     0.074 A 
ATOM     67  C   UNL A   1      45.882  34.481  30.793  1.00  0.00     0.029 A 
ATOM     68  N   UNL A   1      43.828  35.240  30.707  1.00  0.00    -0.354 N 
ATOM     69  N   UNL A   1      40.368  32.997  32.073  1.00  0.00    -0.248 NA
ATOM     70  C   UNL A   1      39.786  33.959  30.023  1.00  0.00     0.031 C 
ATOM     71  C   UNL A   1      45.161  34.036  31.938  1.00  0.00     0.029 A 
ATOM     72  C   UNL A   1      43.814  34.327  31.729  1.00  0.00     0.049 A 
ATOM     73  H   UNL A   1      43.178  35.965  30.561  1.00  0.00     0.167 HD
ATOM     74  C   UNL A   1      41.382  33.864  31.708  1.00  0.00     0.074 A 
ATOM     75  C   UNL A   1      40.944  34.464  30.450  1.00  0.00     0.031 C 
ATOM     76  C   UNL A   1      42.604  33.804  32.307  1.00  0.00     0.037 A 
BRANCH  63  77
ATOM     77  C   UNL A   1      44.415  36.178  27.711  1.00  0.00     0.064 A 
ATOM     78  C   UNL A   1      45.383  37.189  27.555  1.00  0.00     0.173 A 
ATOM     79  C   UNL A   1      43.096  36.538  27.354  1.00  0.00     0.173 A 
ATOM     80  F   UNL A   1      46.662  36.966  27.892  1.00  0.00    -0.203 F 
ATOM     81  C   UNL A   1      45.043  38.478  27.136  1.00  0.00     0.198 A 
ATOM     82  C   UNL A   1      42.770  37.809  26.886  1.00  0.00     0.198 A 
ATOM     83  F   UNL A   1      42.057  35.716  27.551  1.00  0.00    -0.203 F 
ATOM     84  F   UNL A   1      45.977  39.439  27.115  1.00  0.00    -0.200 F 
ATOM     85  C   UNL A   1      43.737  38.788  26.804  1.00  0.00     0.200 A 
ATOM     86  F   UNL A   1      41.494  38.095  26.592  1.00  0.00    -0.200 F 
ATOM     87  F   UNL A   1      43.399  40.036  26.456  1.00  0.00    -0.200 F 
ENDBRANCH  63  77
BRANCH  64  88
ATOM     88  C   UNL A   1      37.576  31.566  30.225  1.00  0.00     0.064 A 
ATOM     89  C   UNL A   1      36.614  32.051  31.138  1.00  0.00     0.173 A 
ATOM     90  C   UNL A   1      37.114  31.344  28.914  1.00  0.00     0.173 A 
ATOM     91  F   UNL A   1      36.966  32.343  32.399  1.00  0.00    -0.203 F 
ATOM     92  C   UNL A   1      35.294  32.327  30.753  1.00  0.00     0.198 A 
ATOM     93  C   UNL A   1      35.797  31.617  28.531  1.00  0.00     0.198 A 
ATOM     94  F   UNL A   1      37.961  30.958  27.950  1.00  0.00    -0.203 F 
ATOM     95  F   UNL A   1      34.431  32.854  31.634  1.00  0.00    -0.200 F 
ATOM     96  C   UNL A   1      34.891  32.123  29.445  1.00  0.00     0.200 A 
ATOM     97  F   UNL A   1      35.432  31.456  27.251  1.00  0.00    -0.200 F 
ATOM     98  F   UNL A   1      33.652  32.455  29.054  1.00  0.00    -0.200 F 
ENDBRANCH  64  88
BRANCH  76  99
ATOM     99  C   UNL A   1      42.750  32.947  33.533  1.00  0.00     0.064 A 
ATOM    100  C   UNL A   1      42.463  33.378  34.839  1.00  0.00     0.173 A 
ATOM    101  C   UNL A   1      43.042  31.588  33.352  1.00  0.00     0.173 A 
ATOM    102  F   UNL A   1      42.090  34.640  35.089  1.00  0.00    -0.203 F 
ATOM    103  C   UNL A   1      42.497  32.490  35.914  1.00  0.00     0.198 A 
ATOM    104  C   UNL A   1      43.030  30.697  34.420  1.00  0.00     0.198 A 
ATOM    105  F   UNL A   1      43.287  31.113  32.121  1.00  0.00    -0.203 F 
ATOM    106  F   UNL A   1      42.238  32.927  37.154  1.00  0.00    -0.200 F 
ATOM    107  C   UNL A   1      42.764  31.148  35.702  1.00  0.00     0.200 A 
ATOM    108  F   UNL A   1      43.248  29.393  34.201  1.00  0.00    -0.200 F 
ATOM    109  F   UNL A   1      42.740  30.285  36.727  1.00  0.00    -0.200 F 
ENDBRANCH  76  99
ENDBRANCH  50  51
ENDBRANCH  43  45
ENDBRANCH  42  43
ENDBRANCH  41  42
ENDBRANCH  40  41
ENDBRANCH  39  40
ENDBRANCH  38  39
ENDBRANCH  37  38
ENDBRANCH   1  37
TORSDOF 23
ENDMDL
