MODEL 1
REMARK VINA RESULT:      -7.9      0.000      0.000
REMARK SMILES CCOc1cc2c(cc1OCC)[C@H](C(=O)OCCOCCOCCOCCOC(=O)c1ccc(-c3c4nc(c(-c5c(F)c(F)c(F)c(F)c5F)c5ccc([nH]5)c(-c5c(F)c(F)c(F)c(F)c5F)c5nc(c(-c6c(F)c(F)c(F)c(F)c6F)c6ccc3[nH]6)C=C5)C=C4)cc1)[C@H](c1ccc(OC)c(O)c1)N(C)C2=O
REMARK SMILES IDX 22 1 21 2 20 3 19 4 18 5 17 6 16 7 14 8 15 9 13 10 4 11 5 12
REMARK SMILES IDX 9 13 6 14 8 15 7 16 106 17 104 18 107 19 94 20 105 21 3 22
REMARK SMILES IDX 2 23 1 24 10 25 11 26 12 27 95 28 96 29 103 30 97 31 101 32
REMARK SMILES IDX 98 33 102 34 99 36 100 37 23 38 24 39 25 40 26 41 27 42
REMARK SMILES IDX 28 43 29 44 30 45 31 46 32 47 93 48 33 49 92 50 34 51 35 52
REMARK SMILES IDX 36 53 86 54 37 55 91 56 85 57 87 58 38 59 90 60 84 61 83 62
REMARK SMILES IDX 39 64 71 65 51 66 70 67 52 68 55 69 69 70 88 71 53 72 54 73
REMARK SMILES IDX 68 75 89 76 56 77 40 78 41 79 49 80 42 81 43 82 47 83 50 84
REMARK SMILES IDX 44 85 45 86 48 87 46 88 72 89 73 90 81 91 74 92 75 93 79 94
REMARK SMILES IDX 82 95 76 96 77 97 80 98 78 99 57 100 58 101 66 102 59 103
REMARK SMILES IDX 60 104 64 105 67 106 61 107 62 108 65 109 63 110
REMARK H PARENT 102 35 87 63 55 74
REMARK Flexibility Score: inf
ROOT
ATOM      1  O   UNL A   1      43.164  38.211  26.840  1.00  0.00    -0.377 OA
ENDROOT
BRANCH   1   2
ATOM      2  C   UNL A   1      44.181  37.794  27.730  1.00  0.00     0.188 C 
BRANCH   2   3
ATOM      3  C   UNL A   1      43.709  37.403  29.120  1.00  0.00     0.188 C 
BRANCH   3   4
ATOM      4  O   UNL A   1      43.684  35.994  29.305  1.00  0.00    -0.376 OA
BRANCH   4   5
ATOM      5  C   UNL A   1      42.371  35.479  29.500  1.00  0.00     0.202 C 
BRANCH   5   6
ATOM      6  C   UNL A   1      42.220  33.939  29.548  1.00  0.00     0.261 C 
BRANCH   6   7
ATOM      7  O   UNL A   1      41.016  33.371  30.129  1.00  0.00    -0.463 OA
BRANCH   7   8
ATOM      8  C   UNL A   1      41.183  32.427  31.074  1.00  0.00     0.316 C 
ATOM      9  O   UNL A   1      42.249  32.284  31.674  1.00  0.00    -0.251 OA
BRANCH   8  10
ATOM     10  C   UNL A   1      39.973  31.535  31.366  1.00  0.00     0.157 C 
ATOM     11  C   UNL A   1      36.998  32.907  34.179  1.00  0.00     0.161 A 
ATOM     12  C   UNL A   1      36.948  31.628  33.612  1.00  0.00     0.064 A 
ATOM     13  C   UNL A   1      38.123  33.712  33.968  1.00  0.00     0.161 A 
ATOM     14  C   UNL A   1      37.980  31.161  32.797  1.00  0.00     0.048 A 
ATOM     15  C   UNL A   1      39.153  33.226  33.144  1.00  0.00     0.056 A 
ATOM     16  C   UNL A   1      39.050  32.001  32.476  1.00  0.00    -0.015 A 
ATOM     17  C   UNL A   1      37.844  29.816  32.150  1.00  0.00     0.254 C 
ATOM     18  N   UNL A   1      38.485  29.654  30.917  1.00  0.00    -0.333 N 
ATOM     19  O   UNL A   1      37.132  28.963  32.666  1.00  0.00    -0.269 OA
ATOM     20  C   UNL A   1      39.106  30.834  30.250  1.00  0.00     0.134 C 
ATOM     21  C   UNL A   1      38.227  28.455  30.141  1.00  0.00     0.147 C 
BRANCH  11  22
ATOM     22  O   UNL A   1      35.877  33.403  34.787  1.00  0.00    -0.490 OA
BRANCH  22  23
ATOM     23  C   UNL A   1      35.071  34.245  33.955  1.00  0.00     0.226 C 
ATOM     24  C   UNL A   1      34.010  33.450  33.211  1.00  0.00     0.049 C 
ENDBRANCH  22  23
ENDBRANCH  11  22
BRANCH  13  25
ATOM     25  O   UNL A   1      38.376  34.984  34.402  1.00  0.00    -0.490 OA
BRANCH  25  26
ATOM     26  C   UNL A   1      39.568  35.280  35.122  1.00  0.00     0.226 C 
ATOM     27  C   UNL A   1      39.426  34.889  36.583  1.00  0.00     0.049 C 
ENDBRANCH  25  26
ENDBRANCH  13  25
BRANCH  20  28
ATOM     28  C   UNL A   1      37.992  31.572  29.466  1.00  0.00    -0.020 A 
ATOM     29  C   UNL A   1      37.980  32.963  29.406  1.00  0.00     0.010 A 
ATOM     30  C   UNL A   1      37.014  30.923  28.670  1.00  0.00     0.056 A 
ATOM     31  C   UNL A   1      36.948  33.652  28.740  1.00  0.00     0.051 A 
ATOM     32  C   UNL A   1      35.998  31.612  27.982  1.00  0.00     0.157 A 
ATOM     33  C   UNL A   1      35.906  32.989  28.082  1.00  0.00     0.160 A 
BRANCH  32  34
ATOM     34  O   UNL A   1      35.134  30.891  27.208  1.00  0.00    -0.504 OA
ATOM     35  H   UNL A   1      34.610  30.216  27.595  1.00  0.00     0.293 HD
ENDBRANCH  32  34
BRANCH  33  36
ATOM     36  O   UNL A   1      34.919  33.821  27.639  1.00  0.00    -0.493 OA
ATOM     37  C   UNL A   1      33.727  33.973  28.399  1.00  0.00     0.278 C 
ENDBRANCH  33  36
ENDBRANCH  20  28
ENDBRANCH   8  10
ENDBRANCH   7   8
ENDBRANCH   6   7
ENDBRANCH   5   6
ENDBRANCH   4   5
ENDBRANCH   3   4
ENDBRANCH   2   3
ENDBRANCH   1   2
BRANCH   1  38
ATOM     38  C   UNL A   1      41.930  38.720  27.321  1.00  0.00     0.188 C 
BRANCH  38  39
ATOM     39  C   UNL A   1      41.514  40.165  27.028  1.00  0.00     0.188 C 
BRANCH  39  40
ATOM     40  O   UNL A   1      42.360  40.986  26.228  1.00  0.00    -0.376 OA
BRANCH  40  41
ATOM     41  C   UNL A   1      41.955  41.294  24.897  1.00  0.00     0.202 C 
BRANCH  41  42
ATOM     42  C   UNL A   1      42.619  42.524  24.301  1.00  0.00     0.261 C 
BRANCH  42  43
ATOM     43  O   UNL A   1      43.435  42.135  23.186  1.00  0.00    -0.460 OA
BRANCH  43  44
ATOM     44  C   UNL A   1      44.162  43.120  22.637  1.00  0.00     0.338 C 
ATOM     45  O   UNL A   1      44.041  43.615  21.524  1.00  0.00    -0.246 OA
BRANCH  44  46
ATOM     46  C   UNL A   1      45.083  43.660  23.646  1.00  0.00     0.060 A 
ATOM     47  C   UNL A   1      46.246  42.926  23.905  1.00  0.00     0.016 A 
ATOM     48  C   UNL A   1      44.761  44.797  24.394  1.00  0.00     0.016 A 
ATOM     49  C   UNL A   1      47.034  43.252  24.998  1.00  0.00     0.010 A 
ATOM     50  C   UNL A   1      45.552  45.124  25.491  1.00  0.00     0.010 A 
ATOM     51  C   UNL A   1      46.641  44.304  25.834  1.00  0.00    -0.014 A 
BRANCH  51  52
ATOM     52  C   UNL A   1      47.201  44.377  27.198  1.00  0.00     0.031 A 
ATOM     53  C   UNL A   1      48.395  45.264  27.416  1.00  0.00     0.074 A 
ATOM     54  C   UNL A   1      46.637  43.693  28.204  1.00  0.00     0.049 A 
ATOM     55  N   UNL A   1      49.129  45.424  28.485  1.00  0.00    -0.248 NA
ATOM     56  C   UNL A   1      48.827  46.076  26.264  1.00  0.00     0.031 C 
ATOM     57  C   UNL A   1      45.440  42.862  28.092  1.00  0.00     0.029 A 
ATOM     58  N   UNL A   1      47.009  43.581  29.517  1.00  0.00    -0.354 N 
ATOM     59  C   UNL A   1      50.116  46.335  28.128  1.00  0.00     0.074 A 
ATOM     60  C   UNL A   1      49.910  46.672  26.739  1.00  0.00     0.031 C 
ATOM     61  C   UNL A   1      45.187  42.304  29.286  1.00  0.00     0.029 A 
ATOM     62  C   UNL A   1      46.230  42.704  30.228  1.00  0.00     0.049 A 
ATOM     63  H   UNL A   1      47.761  44.079  29.911  1.00  0.00     0.167 HD
ATOM     64  C   UNL A   1      51.102  46.845  28.900  1.00  0.00     0.037 A 
ATOM     65  C   UNL A   1      46.376  42.255  31.489  1.00  0.00     0.037 A 
ATOM     66  C   UNL A   1      51.278  46.494  30.284  1.00  0.00     0.049 A 
ATOM     67  C   UNL A   1      47.528  42.777  32.309  1.00  0.00     0.074 A 
ATOM     68  C   UNL A   1      52.229  46.949  31.177  1.00  0.00     0.029 A 
ATOM     69  N   UNL A   1      50.479  45.588  30.969  1.00  0.00    -0.354 N 
ATOM     70  N   UNL A   1      48.455  43.643  31.974  1.00  0.00    -0.248 NA
ATOM     71  C   UNL A   1      47.656  42.264  33.678  1.00  0.00     0.031 C 
ATOM     72  C   UNL A   1      52.045  46.271  32.385  1.00  0.00     0.029 A 
ATOM     73  C   UNL A   1      50.933  45.448  32.268  1.00  0.00     0.049 A 
ATOM     74  H   UNL A   1      49.704  45.115  30.587  1.00  0.00     0.167 HD
ATOM     75  C   UNL A   1      49.251  43.810  33.099  1.00  0.00     0.074 A 
ATOM     76  C   UNL A   1      48.696  42.952  34.127  1.00  0.00     0.031 C 
ATOM     77  C   UNL A   1      50.339  44.602  33.272  1.00  0.00     0.037 A 
BRANCH  64  78
ATOM     78  C   UNL A   1      52.077  47.793  28.264  1.00  0.00     0.064 A 
ATOM     79  C   UNL A   1      51.884  49.184  28.278  1.00  0.00     0.173 A 
ATOM     80  C   UNL A   1      53.240  47.303  27.648  1.00  0.00     0.173 A 
ATOM     81  F   UNL A   1      50.783  49.706  28.839  1.00  0.00    -0.203 F 
ATOM     82  C   UNL A   1      52.801  50.043  27.676  1.00  0.00     0.198 A 
ATOM     83  C   UNL A   1      54.172  48.167  27.078  1.00  0.00     0.198 A 
ATOM     84  F   UNL A   1      53.479  45.984  27.605  1.00  0.00    -0.203 F 
ATOM     85  F   UNL A   1      52.568  51.362  27.656  1.00  0.00    -0.200 F 
ATOM     86  C   UNL A   1      53.948  49.535  27.084  1.00  0.00     0.200 A 
ATOM     87  F   UNL A   1      55.286  47.674  26.519  1.00  0.00    -0.200 F 
ATOM     88  F   UNL A   1      54.834  50.363  26.515  1.00  0.00    -0.200 F 
ENDBRANCH  64  78
BRANCH  65  89
ATOM     89  C   UNL A   1      45.423  41.254  32.034  1.00  0.00     0.064 A 
ATOM     90  C   UNL A   1      45.679  39.881  31.934  1.00  0.00     0.173 A 
ATOM     91  C   UNL A   1      44.239  41.651  32.678  1.00  0.00     0.173 A 
ATOM     92  F   UNL A   1      46.788  39.449  31.316  1.00  0.00    -0.203 F 
ATOM     93  C   UNL A   1      44.781  38.942  32.440  1.00  0.00     0.198 A 
ATOM     94  C   UNL A   1      43.358  40.712  33.210  1.00  0.00     0.198 A 
ATOM     95  F   UNL A   1      43.947  42.953  32.807  1.00  0.00    -0.203 F 
ATOM     96  F   UNL A   1      45.030  37.633  32.292  1.00  0.00    -0.200 F 
ATOM     97  C   UNL A   1      43.625  39.358  33.083  1.00  0.00     0.200 A 
ATOM     98  F   UNL A   1      42.254  41.120  33.849  1.00  0.00    -0.200 F 
ATOM     99  F   UNL A   1      42.767  38.455  33.577  1.00  0.00    -0.200 F 
ENDBRANCH  65  89
BRANCH  77 100
ATOM    100  C   UNL A   1      50.965  44.631  34.635  1.00  0.00     0.064 A 
ATOM    101  C   UNL A   1      50.500  45.484  35.644  1.00  0.00     0.173 A 
ATOM    102  C   UNL A   1      51.985  43.721  34.955  1.00  0.00     0.173 A 
ATOM    103  F   UNL A   1      49.537  46.380  35.382  1.00  0.00    -0.203 F 
ATOM    104  C   UNL A   1      51.043  45.433  36.925  1.00  0.00     0.198 A 
ATOM    105  C   UNL A   1      52.500  43.649  36.244  1.00  0.00     0.198 A 
ATOM    106  F   UNL A   1      52.457  42.878  34.024  1.00  0.00    -0.203 F 
ATOM    107  F   UNL A   1      50.608  46.279  37.869  1.00  0.00    -0.200 F 
ATOM    108  C   UNL A   1      52.031  44.508  37.228  1.00  0.00     0.200 A 
ATOM    109  F   UNL A   1      53.441  42.741  36.539  1.00  0.00    -0.200 F 
ATOM    110  F   UNL A   1      52.534  44.443  38.468  1.00  0.00    -0.200 F 
ENDBRANCH  77 100
ENDBRANCH  51  52
ENDBRANCH  44  46
ENDBRANCH  43  44
ENDBRANCH  42  43
ENDBRANCH  41  42
ENDBRANCH  40  41
ENDBRANCH  39  40
ENDBRANCH  38  39
ENDBRANCH   1  38
TORSDOF 27
ENDMDL
MODEL 2
REMARK VINA RESULT:      -7.6      8.266     13.833
REMARK SMILES CCOc1cc2c(cc1OCC)[C@H](C(=O)OCCOCCOCCOCCOC(=O)c1ccc(-c3c4nc(c(-c5c(F)c(F)c(F)c(F)c5F)c5ccc([nH]5)c(-c5c(F)c(F)c(F)c(F)c5F)c5nc(c(-c6c(F)c(F)c(F)c(F)c6F)c6ccc3[nH]6)C=C5)C=C4)cc1)[C@H](c1ccc(OC)c(O)c1)N(C)C2=O
REMARK SMILES IDX 22 1 21 2 20 3 19 4 18 5 17 6 16 7 14 8 15 9 13 10 4 11 5 12
REMARK SMILES IDX 9 13 6 14 8 15 7 16 106 17 104 18 107 19 94 20 105 21 3 22
REMARK SMILES IDX 2 23 1 24 10 25 11 26 12 27 95 28 96 29 103 30 97 31 101 32
REMARK SMILES IDX 98 33 102 34 99 36 100 37 23 38 24 39 25 40 26 41 27 42
REMARK SMILES IDX 28 43 29 44 30 45 31 46 32 47 93 48 33 49 92 50 34 51 35 52
REMARK SMILES IDX 36 53 86 54 37 55 91 56 85 57 87 58 38 59 90 60 84 61 83 62
REMARK SMILES IDX 39 64 71 65 51 66 70 67 52 68 55 69 69 70 88 71 53 72 54 73
REMARK SMILES IDX 68 75 89 76 56 77 40 78 41 79 49 80 42 81 43 82 47 83 50 84
REMARK SMILES IDX 44 85 45 86 48 87 46 88 72 89 73 90 81 91 74 92 75 93 79 94
REMARK SMILES IDX 82 95 76 96 77 97 80 98 78 99 57 100 58 101 66 102 59 103
REMARK SMILES IDX 60 104 64 105 67 106 61 107 62 108 65 109 63 110
REMARK H PARENT 102 35 87 63 55 74
REMARK Flexibility Score: inf
ROOT
ATOM      1  O   UNL A   1      41.125  27.286  27.704  1.00  0.00    -0.377 OA
ENDROOT
BRANCH   1   2
ATOM      2  C   UNL A   1      39.985  27.895  28.276  1.00  0.00     0.188 C 
BRANCH   2   3
ATOM      3  C   UNL A   1      39.539  29.190  27.617  1.00  0.00     0.188 C 
BRANCH   3   4
ATOM      4  O   UNL A   1      38.227  29.571  28.009  1.00  0.00    -0.376 OA
BRANCH   4   5
ATOM      5  C   UNL A   1      38.200  30.767  28.783  1.00  0.00     0.202 C 
BRANCH   5   6
ATOM      6  C   UNL A   1      36.967  30.988  29.692  1.00  0.00     0.261 C 
BRANCH   6   7
ATOM      7  O   UNL A   1      37.138  30.918  31.133  1.00  0.00    -0.463 OA
BRANCH   7   8
ATOM      8  C   UNL A   1      37.574  32.034  31.749  1.00  0.00     0.316 C 
ATOM      9  O   UNL A   1      37.763  33.087  31.138  1.00  0.00    -0.251 OA
BRANCH   8  10
ATOM     10  C   UNL A   1      37.823  31.925  33.256  1.00  0.00     0.157 C 
ATOM     11  C   UNL A   1      41.127  29.523  34.657  1.00  0.00     0.161 A 
ATOM     12  C   UNL A   1      40.212  30.112  35.539  1.00  0.00     0.064 A 
ATOM     13  C   UNL A   1      40.884  29.566  33.281  1.00  0.00     0.161 A 
ATOM     14  C   UNL A   1      39.086  30.786  35.063  1.00  0.00     0.048 A 
ATOM     15  C   UNL A   1      39.745  30.249  32.819  1.00  0.00     0.056 A 
ATOM     16  C   UNL A   1      38.897  30.944  33.688  1.00  0.00    -0.015 A 
ATOM     17  C   UNL A   1      38.178  31.466  36.042  1.00  0.00     0.254 C 
ATOM     18  N   UNL A   1      37.506  32.602  35.578  1.00  0.00    -0.333 N 
ATOM     19  O   UNL A   1      38.122  31.066  37.199  1.00  0.00    -0.269 OA
ATOM     20  C   UNL A   1      37.843  33.160  34.238  1.00  0.00     0.134 C 
ATOM     21  C   UNL A   1      36.776  33.425  36.525  1.00  0.00     0.147 C 
BRANCH  11  22
ATOM     22  O   UNL A   1      42.318  29.067  35.152  1.00  0.00    -0.490 OA
BRANCH  22  23
ATOM     23  C   UNL A   1      42.339  27.668  35.459  1.00  0.00     0.226 C 
ATOM     24  C   UNL A   1      43.749  27.104  35.413  1.00  0.00     0.049 C 
ENDBRANCH  22  23
ENDBRANCH  11  22
BRANCH  13  25
ATOM     25  O   UNL A   1      41.640  29.082  32.248  1.00  0.00    -0.490 OA
BRANCH  25  26
ATOM     26  C   UNL A   1      42.906  29.655  31.946  1.00  0.00     0.226 C 
ATOM     27  C   UNL A   1      43.137  29.691  30.445  1.00  0.00     0.049 C 
ENDBRANCH  25  26
ENDBRANCH  13  25
BRANCH  20  28
ATOM     28  C   UNL A   1      39.080  34.076  34.406  1.00  0.00    -0.020 A 
ATOM     29  C   UNL A   1      40.105  34.053  33.463  1.00  0.00     0.010 A 
ATOM     30  C   UNL A   1      39.207  35.066  35.414  1.00  0.00     0.056 A 
ATOM     31  C   UNL A   1      41.260  34.844  33.626  1.00  0.00     0.051 A 
ATOM     32  C   UNL A   1      40.350  35.875  35.561  1.00  0.00     0.157 A 
ATOM     33  C   UNL A   1      41.429  35.710  34.712  1.00  0.00     0.160 A 
BRANCH  32  34
ATOM     34  O   UNL A   1      40.347  36.828  36.540  1.00  0.00    -0.504 OA
ATOM     35  H   UNL A   1      40.032  36.618  37.397  1.00  0.00     0.293 HD
ENDBRANCH  32  34
BRANCH  33  36
ATOM     36  O   UNL A   1      42.674  36.264  34.783  1.00  0.00    -0.493 OA
ATOM     37  C   UNL A   1      43.603  35.797  35.753  1.00  0.00     0.278 C 
ENDBRANCH  33  36
ENDBRANCH  20  28
ENDBRANCH   8  10
ENDBRANCH   7   8
ENDBRANCH   6   7
ENDBRANCH   5   6
ENDBRANCH   4   5
ENDBRANCH   3   4
ENDBRANCH   2   3
ENDBRANCH   1   2
BRANCH   1  38
ATOM     38  C   UNL A   1      41.126  25.913  27.350  1.00  0.00     0.188 C 
BRANCH  38  39
ATOM     39  C   UNL A   1      39.823  25.107  27.345  1.00  0.00     0.188 C 
BRANCH  39  40
ATOM     40  O   UNL A   1      39.850  23.740  26.946  1.00  0.00    -0.376 OA
BRANCH  40  41
ATOM     41  C   UNL A   1      40.772  22.859  27.581  1.00  0.00     0.202 C 
BRANCH  41  42
ATOM     42  C   UNL A   1      41.717  22.139  26.634  1.00  0.00     0.261 C 
BRANCH  42  43
ATOM     43  O   UNL A   1      43.072  22.353  27.056  1.00  0.00    -0.460 OA
BRANCH  43  44
ATOM     44  C   UNL A   1      43.904  22.801  26.103  1.00  0.00     0.338 C 
ATOM     45  O   UNL A   1      44.325  22.196  25.125  1.00  0.00    -0.246 OA
BRANCH  44  46
ATOM     46  C   UNL A   1      44.151  24.233  26.311  1.00  0.00     0.060 A 
ATOM     47  C   UNL A   1      44.099  25.060  25.183  1.00  0.00     0.016 A 
ATOM     48  C   UNL A   1      44.529  24.735  27.561  1.00  0.00     0.016 A 
ATOM     49  C   UNL A   1      44.546  26.369  25.270  1.00  0.00     0.010 A 
ATOM     50  C   UNL A   1      44.978  26.049  27.648  1.00  0.00     0.010 A 
ATOM     51  C   UNL A   1      45.058  26.837  26.486  1.00  0.00    -0.014 A 
BRANCH  51  52
ATOM     52  C   UNL A   1      45.917  28.037  26.483  1.00  0.00     0.031 A 
ATOM     53  C   UNL A   1      47.389  27.841  26.245  1.00  0.00     0.074 A 
ATOM     54  C   UNL A   1      45.387  29.256  26.658  1.00  0.00     0.049 A 
ATOM     55  N   UNL A   1      48.362  28.711  26.292  1.00  0.00    -0.248 NA
ATOM     56  C   UNL A   1      47.823  26.471  25.919  1.00  0.00     0.031 C 
ATOM     57  C   UNL A   1      43.964  29.539  26.829  1.00  0.00     0.029 A 
ATOM     58  N   UNL A   1      45.991  30.483  26.733  1.00  0.00    -0.354 N 
ATOM     59  C   UNL A   1      49.520  27.991  26.024  1.00  0.00     0.074 A 
ATOM     60  C   UNL A   1      49.138  26.610  25.843  1.00  0.00     0.031 C 
ATOM     61  C   UNL A   1      43.804  30.859  27.013  1.00  0.00     0.029 A 
ATOM     62  C   UNL A   1      45.117  31.501  27.018  1.00  0.00     0.049 A 
ATOM     63  H   UNL A   1      46.956  30.619  26.597  1.00  0.00     0.167 HD
ATOM     64  C   UNL A   1      50.789  28.451  25.932  1.00  0.00     0.037 A 
ATOM     65  C   UNL A   1      45.367  32.796  27.287  1.00  0.00     0.037 A 
ATOM     66  C   UNL A   1      51.138  29.835  26.111  1.00  0.00     0.049 A 
ATOM     67  C   UNL A   1      46.797  33.273  27.256  1.00  0.00     0.074 A 
ATOM     68  C   UNL A   1      52.382  30.430  26.032  1.00  0.00     0.029 A 
ATOM     69  N   UNL A   1      50.228  30.838  26.415  1.00  0.00    -0.354 N 
ATOM     70  N   UNL A   1      47.889  32.595  26.994  1.00  0.00    -0.248 NA
ATOM     71  C   UNL A   1      47.031  34.691  27.556  1.00  0.00     0.031 C 
ATOM     72  C   UNL A   1      52.235  31.782  26.351  1.00  0.00     0.029 A 
ATOM     73  C   UNL A   1      50.888  32.046  26.557  1.00  0.00     0.049 A 
ATOM     74  H   UNL A   1      49.256  30.709  26.517  1.00  0.00     0.167 HD
ATOM     75  C   UNL A   1      48.934  33.507  27.057  1.00  0.00     0.074 A 
ATOM     76  C   UNL A   1      48.342  34.789  27.384  1.00  0.00     0.031 C 
ATOM     77  C   UNL A   1      50.260  33.308  26.858  1.00  0.00     0.037 A 
BRANCH  64  78
ATOM     78  C   UNL A   1      51.882  27.456  25.667  1.00  0.00     0.064 A 
ATOM     79  C   UNL A   1      52.284  27.118  24.365  1.00  0.00     0.173 A 
ATOM     80  C   UNL A   1      52.559  26.848  26.736  1.00  0.00     0.173 A 
ATOM     81  F   UNL A   1      51.662  27.657  23.305  1.00  0.00    -0.203 F 
ATOM     82  C   UNL A   1      53.298  26.188  24.144  1.00  0.00     0.198 A 
ATOM     83  C   UNL A   1      53.595  25.945  26.512  1.00  0.00     0.198 A 
ATOM     84  F   UNL A   1      52.219  27.133  28.001  1.00  0.00    -0.203 F 
ATOM     85  F   UNL A   1      53.627  25.842  22.892  1.00  0.00    -0.200 F 
ATOM     86  C   UNL A   1      53.958  25.609  25.217  1.00  0.00     0.200 A 
ATOM     87  F   UNL A   1      54.241  25.398  27.551  1.00  0.00    -0.200 F 
ATOM     88  F   UNL A   1      54.940  24.723  25.004  1.00  0.00    -0.200 F 
ENDBRANCH  64  78
BRANCH  65  89
ATOM     89  C   UNL A   1      44.247  33.713  27.622  1.00  0.00     0.064 A 
ATOM     90  C   UNL A   1      43.651  33.694  28.889  1.00  0.00     0.173 A 
ATOM     91  C   UNL A   1      43.757  34.636  26.685  1.00  0.00     0.173 A 
ATOM     92  F   UNL A   1      44.072  32.821  29.815  1.00  0.00    -0.203 F 
ATOM     93  C   UNL A   1      42.595  34.550  29.201  1.00  0.00     0.198 A 
ATOM     94  C   UNL A   1      42.723  35.512  27.008  1.00  0.00     0.198 A 
ATOM     95  F   UNL A   1      44.296  34.702  25.458  1.00  0.00    -0.203 F 
ATOM     96  F   UNL A   1      42.014  34.481  30.406  1.00  0.00    -0.200 F 
ATOM     97  C   UNL A   1      42.137  35.463  28.263  1.00  0.00     0.200 A 
ATOM     98  F   UNL A   1      42.299  36.407  26.105  1.00  0.00    -0.200 F 
ATOM     99  F   UNL A   1      41.129  36.292  28.567  1.00  0.00    -0.200 F 
ENDBRANCH  65  89
BRANCH  77 100
ATOM    100  C   UNL A   1      51.159  34.508  26.924  1.00  0.00     0.064 A 
ATOM    101  C   UNL A   1      51.364  35.339  25.816  1.00  0.00     0.173 A 
ATOM    102  C   UNL A   1      51.745  34.876  28.146  1.00  0.00     0.173 A 
ATOM    103  F   UNL A   1      50.836  35.021  24.625  1.00  0.00    -0.203 F 
ATOM    104  C   UNL A   1      52.135  36.493  25.925  1.00  0.00     0.198 A 
ATOM    105  C   UNL A   1      52.485  36.047  28.259  1.00  0.00     0.198 A 
ATOM    106  F   UNL A   1      51.569  34.116  29.237  1.00  0.00    -0.203 F 
ATOM    107  F   UNL A   1      52.347  37.259  24.846  1.00  0.00    -0.200 F 
ATOM    108  C   UNL A   1      52.682  36.854  27.148  1.00  0.00     0.200 A 
ATOM    109  F   UNL A   1      52.995  36.403  29.446  1.00  0.00    -0.200 F 
ATOM    110  F   UNL A   1      53.402  37.978  27.256  1.00  0.00    -0.200 F 
ENDBRANCH  77 100
ENDBRANCH  51  52
ENDBRANCH  44  46
ENDBRANCH  43  44
ENDBRANCH  42  43
ENDBRANCH  41  42
ENDBRANCH  40  41
ENDBRANCH  39  40
ENDBRANCH  38  39
ENDBRANCH   1  38
TORSDOF 27
ENDMDL
MODEL 3
REMARK VINA RESULT:      -7.2      8.918     14.766
REMARK SMILES CCOc1cc2c(cc1OCC)[C@H](C(=O)OCCOCCOCCOCCOC(=O)c1ccc(-c3c4nc(c(-c5c(F)c(F)c(F)c(F)c5F)c5ccc([nH]5)c(-c5c(F)c(F)c(F)c(F)c5F)c5nc(c(-c6c(F)c(F)c(F)c(F)c6F)c6ccc3[nH]6)C=C5)C=C4)cc1)[C@H](c1ccc(OC)c(O)c1)N(C)C2=O
REMARK SMILES IDX 22 1 21 2 20 3 19 4 18 5 17 6 16 7 14 8 15 9 13 10 4 11 5 12
REMARK SMILES IDX 9 13 6 14 8 15 7 16 106 17 104 18 107 19 94 20 105 21 3 22
REMARK SMILES IDX 2 23 1 24 10 25 11 26 12 27 95 28 96 29 103 30 97 31 101 32
REMARK SMILES IDX 98 33 102 34 99 36 100 37 23 38 24 39 25 40 26 41 27 42
REMARK SMILES IDX 28 43 29 44 30 45 31 46 32 47 93 48 33 49 92 50 34 51 35 52
REMARK SMILES IDX 36 53 86 54 37 55 91 56 85 57 87 58 38 59 90 60 84 61 83 62
REMARK SMILES IDX 39 64 71 65 51 66 70 67 52 68 55 69 69 70 88 71 53 72 54 73
REMARK SMILES IDX 68 75 89 76 56 77 40 78 41 79 49 80 42 81 43 82 47 83 50 84
REMARK SMILES IDX 44 85 45 86 48 87 46 88 72 89 73 90 81 91 74 92 75 93 79 94
REMARK SMILES IDX 82 95 76 96 77 97 80 98 78 99 57 100 58 101 66 102 59 103
REMARK SMILES IDX 60 104 64 105 67 106 61 107 62 108 65 109 63 110
REMARK H PARENT 102 35 87 63 55 74
REMARK Flexibility Score: inf
ROOT
ATOM      1  O   UNL A   1      53.785  26.944  24.501  1.00  0.00    -0.377 OA
ENDROOT
BRANCH   1   2
ATOM      2  C   UNL A   1      52.614  26.156  24.585  1.00  0.00     0.188 C 
BRANCH   2   3
ATOM      3  C   UNL A   1      51.356  26.798  24.023  1.00  0.00     0.188 C 
BRANCH   3   4
ATOM      4  O   UNL A   1      50.524  27.337  25.042  1.00  0.00    -0.376 OA
BRANCH   4   5
ATOM      5  C   UNL A   1      49.135  27.214  24.753  1.00  0.00     0.202 C 
BRANCH   5   6
ATOM      6  C   UNL A   1      48.709  26.041  23.838  1.00  0.00     0.261 C 
BRANCH   6   7
ATOM      7  O   UNL A   1      47.330  25.587  23.878  1.00  0.00    -0.463 OA
BRANCH   7   8
ATOM      8  C   UNL A   1      46.858  25.179  25.072  1.00  0.00     0.316 C 
ATOM      9  O   UNL A   1      47.566  24.584  25.886  1.00  0.00    -0.251 OA
BRANCH   8  10
ATOM     10  C   UNL A   1      45.389  25.495  25.366  1.00  0.00     0.157 C 
ATOM     11  C   UNL A   1      42.635  22.228  25.985  1.00  0.00     0.161 A 
ATOM     12  C   UNL A   1      42.205  23.559  25.934  1.00  0.00     0.064 A 
ATOM     13  C   UNL A   1      43.960  21.917  25.665  1.00  0.00     0.161 A 
ATOM     14  C   UNL A   1      43.092  24.589  25.616  1.00  0.00     0.048 A 
ATOM     15  C   UNL A   1      44.839  22.967  25.348  1.00  0.00     0.056 A 
ATOM     16  C   UNL A   1      44.446  24.307  25.417  1.00  0.00    -0.015 A 
ATOM     17  C   UNL A   1      42.604  26.006  25.650  1.00  0.00     0.254 C 
ATOM     18  N   UNL A   1      43.553  26.981  25.976  1.00  0.00    -0.333 N 
ATOM     19  O   UNL A   1      41.414  26.243  25.480  1.00  0.00    -0.269 OA
ATOM     20  C   UNL A   1      44.912  26.564  26.424  1.00  0.00     0.134 C 
ATOM     21  C   UNL A   1      43.109  28.340  26.228  1.00  0.00     0.147 C 
BRANCH  11  22
ATOM     22  O   UNL A   1      41.793  21.284  26.508  1.00  0.00    -0.490 OA
BRANCH  22  23
ATOM     23  C   UNL A   1      40.601  21.812  27.102  1.00  0.00     0.226 C 
ATOM     24  C   UNL A   1      39.415  21.722  26.157  1.00  0.00     0.049 C 
ENDBRANCH  22  23
ENDBRANCH  11  22
BRANCH  13  25
ATOM     25  O   UNL A   1      44.594  20.705  25.666  1.00  0.00    -0.490 OA
BRANCH  25  26
ATOM     26  C   UNL A   1      44.076  19.615  24.911  1.00  0.00     0.226 C 
ATOM     27  C   UNL A   1      44.922  19.366  23.675  1.00  0.00     0.049 C 
ENDBRANCH  25  26
ENDBRANCH  13  25
BRANCH  20  28
ATOM     28  C   UNL A   1      44.837  26.265  27.942  1.00  0.00    -0.020 A 
ATOM     29  C   UNL A   1      45.676  25.310  28.512  1.00  0.00     0.010 A 
ATOM     30  C   UNL A   1      44.042  26.998  28.860  1.00  0.00     0.056 A 
ATOM     31  C   UNL A   1      45.587  24.991  29.881  1.00  0.00     0.051 A 
ATOM     32  C   UNL A   1      43.973  26.696  30.233  1.00  0.00     0.157 A 
ATOM     33  C   UNL A   1      44.687  25.627  30.743  1.00  0.00     0.160 A 
BRANCH  32  34
ATOM     34  O   UNL A   1      43.208  27.495  31.035  1.00  0.00    -0.504 OA
ATOM     35  H   UNL A   1      43.511  27.726  31.891  1.00  0.00     0.293 HD
ENDBRANCH  32  34
BRANCH  33  36
ATOM     36  O   UNL A   1      44.634  25.071  31.989  1.00  0.00    -0.493 OA
ATOM     37  C   UNL A   1      44.192  23.729  32.147  1.00  0.00     0.278 C 
ENDBRANCH  33  36
ENDBRANCH  20  28
ENDBRANCH   8  10
ENDBRANCH   7   8
ENDBRANCH   6   7
ENDBRANCH   5   6
ENDBRANCH   4   5
ENDBRANCH   3   4
ENDBRANCH   2   3
ENDBRANCH   1   2
BRANCH   1  38
ATOM     38  C   UNL A   1      53.935  28.121  25.278  1.00  0.00     0.188 C 
BRANCH  38  39
ATOM     39  C   UNL A   1      55.326  28.628  25.668  1.00  0.00     0.188 C 
BRANCH  39  40
ATOM     40  O   UNL A   1      55.619  28.876  27.039  1.00  0.00    -0.376 OA
BRANCH  40  41
ATOM     41  C   UNL A   1      54.933  29.933  27.706  1.00  0.00     0.202 C 
BRANCH  41  42
ATOM     42  C   UNL A   1      53.796  29.481  28.607  1.00  0.00     0.261 C 
BRANCH  42  43
ATOM     43  O   UNL A   1      52.781  30.495  28.642  1.00  0.00    -0.460 OA
BRANCH  43  44
ATOM     44  C   UNL A   1      51.660  30.207  27.963  1.00  0.00     0.338 C 
ATOM     45  O   UNL A   1      51.535  30.017  26.760  1.00  0.00    -0.246 OA
BRANCH  44  46
ATOM     46  C   UNL A   1      50.562  29.992  28.914  1.00  0.00     0.060 A 
ATOM     47  C   UNL A   1      49.443  29.293  28.449  1.00  0.00     0.016 A 
ATOM     48  C   UNL A   1      50.584  30.556  30.194  1.00  0.00     0.016 A 
ATOM     49  C   UNL A   1      48.286  29.259  29.214  1.00  0.00     0.010 A 
ATOM     50  C   UNL A   1      49.424  30.522  30.962  1.00  0.00     0.010 A 
ATOM     51  C   UNL A   1      48.257  29.941  30.436  1.00  0.00    -0.014 A 
BRANCH  51  52
ATOM     52  C   UNL A   1      46.949  30.278  31.031  1.00  0.00     0.031 A 
ATOM     53  C   UNL A   1      46.248  31.509  30.527  1.00  0.00     0.074 A 
ATOM     54  C   UNL A   1      46.402  29.490  31.969  1.00  0.00     0.049 A 
ATOM     55  N   UNL A   1      45.149  32.073  30.949  1.00  0.00    -0.248 NA
ATOM     56  C   UNL A   1      46.882  32.205  29.393  1.00  0.00     0.031 C 
ATOM     57  C   UNL A   1      46.984  28.246  32.466  1.00  0.00     0.029 A 
ATOM     58  N   UNL A   1      45.239  29.631  32.677  1.00  0.00    -0.354 N 
ATOM     59  C   UNL A   1      44.974  33.196  30.150  1.00  0.00     0.074 A 
ATOM     60  C   UNL A   1      46.090  33.254  29.236  1.00  0.00     0.031 C 
ATOM     61  C   UNL A   1      46.184  27.745  33.421  1.00  0.00     0.029 A 
ATOM     62  C   UNL A   1      45.062  28.658  33.628  1.00  0.00     0.049 A 
ATOM     63  H   UNL A   1      44.595  30.358  32.519  1.00  0.00     0.167 HD
ATOM     64  C   UNL A   1      43.962  34.094  30.179  1.00  0.00     0.037 A 
ATOM     65  C   UNL A   1      44.115  28.551  34.578  1.00  0.00     0.037 A 
ATOM     66  C   UNL A   1      42.859  34.006  31.097  1.00  0.00     0.049 A 
ATOM     67  C   UNL A   1      43.039  29.605  34.644  1.00  0.00     0.074 A 
ATOM     68  C   UNL A   1      41.767  34.843  31.220  1.00  0.00     0.029 A 
ATOM     69  N   UNL A   1      42.720  33.015  32.060  1.00  0.00    -0.354 N 
ATOM     70  N   UNL A   1      42.869  30.660  33.883  1.00  0.00    -0.248 NA
ATOM     71  C   UNL A   1      42.024  29.455  35.693  1.00  0.00     0.031 C 
ATOM     72  C   UNL A   1      40.999  34.396  32.299  1.00  0.00     0.029 A 
ATOM     73  C   UNL A   1      41.573  33.236  32.802  1.00  0.00     0.049 A 
ATOM     74  H   UNL A   1      43.345  32.266  32.196  1.00  0.00     0.167 HD
ATOM     75  C   UNL A   1      41.710  31.278  34.334  1.00  0.00     0.074 A 
ATOM     76  C   UNL A   1      41.219  30.476  35.438  1.00  0.00     0.031 C 
ATOM     77  C   UNL A   1      41.102  32.401  33.878  1.00  0.00     0.037 A 
BRANCH  64  78
ATOM     78  C   UNL A   1      44.022  35.254  29.228  1.00  0.00     0.064 A 
ATOM     79  C   UNL A   1      44.617  36.477  29.578  1.00  0.00     0.173 A 
ATOM     80  C   UNL A   1      43.495  35.134  27.932  1.00  0.00     0.173 A 
ATOM     81  F   UNL A   1      45.123  36.653  30.808  1.00  0.00    -0.203 F 
ATOM     82  C   UNL A   1      44.655  37.541  28.680  1.00  0.00     0.198 A 
ATOM     83  C   UNL A   1      43.566  36.189  27.025  1.00  0.00     0.198 A 
ATOM     84  F   UNL A   1      42.915  33.990  27.541  1.00  0.00    -0.203 F 
ATOM     85  F   UNL A   1      45.182  38.715  29.056  1.00  0.00    -0.200 F 
ATOM     86  C   UNL A   1      44.139  37.394  27.402  1.00  0.00     0.200 A 
ATOM     87  F   UNL A   1      43.078  36.039  25.785  1.00  0.00    -0.200 F 
ATOM     88  F   UNL A   1      44.185  38.414  26.535  1.00  0.00    -0.200 F 
ENDBRANCH  64  78
BRANCH  65  89
ATOM     89  C   UNL A   1      44.158  27.421  35.542  1.00  0.00     0.064 A 
ATOM     90  C   UNL A   1      43.483  26.221  35.284  1.00  0.00     0.173 A 
ATOM     91  C   UNL A   1      44.885  27.514  36.740  1.00  0.00     0.173 A 
ATOM     92  F   UNL A   1      42.763  26.087  34.161  1.00  0.00    -0.203 F 
ATOM     93  C   UNL A   1      43.518  25.164  36.192  1.00  0.00     0.198 A 
ATOM     94  C   UNL A   1      44.944  26.446  37.633  1.00  0.00     0.198 A 
ATOM     95  F   UNL A   1      45.555  28.638  37.036  1.00  0.00    -0.203 F 
ATOM     96  F   UNL A   1      42.829  24.044  35.939  1.00  0.00    -0.200 F 
ATOM     97  C   UNL A   1      44.254  25.275  37.362  1.00  0.00     0.200 A 
ATOM     98  F   UNL A   1      45.675  26.551  38.751  1.00  0.00    -0.200 F 
ATOM     99  F   UNL A   1      44.295  24.255  38.231  1.00  0.00    -0.200 F 
ENDBRANCH  65  89
BRANCH  77 100
ATOM    100  C   UNL A   1      39.807  32.799  34.523  1.00  0.00     0.064 A 
ATOM    101  C   UNL A   1      38.569  32.395  34.006  1.00  0.00     0.173 A 
ATOM    102  C   UNL A   1      39.818  33.517  35.729  1.00  0.00     0.173 A 
ATOM    103  F   UNL A   1      38.508  31.719  32.849  1.00  0.00    -0.203 F 
ATOM    104  C   UNL A   1      37.386  32.706  34.669  1.00  0.00     0.198 A 
ATOM    105  C   UNL A   1      38.637  33.796  36.406  1.00  0.00     0.198 A 
ATOM    106  F   UNL A   1      40.981  33.917  36.267  1.00  0.00    -0.203 F 
ATOM    107  F   UNL A   1      36.209  32.340  34.143  1.00  0.00    -0.200 F 
ATOM    108  C   UNL A   1      37.421  33.394  35.874  1.00  0.00     0.200 A 
ATOM    109  F   UNL A   1      38.676  34.442  37.580  1.00  0.00    -0.200 F 
ATOM    110  F   UNL A   1      36.282  33.670  36.523  1.00  0.00    -0.200 F 
ENDBRANCH  77 100
ENDBRANCH  51  52
ENDBRANCH  44  46
ENDBRANCH  43  44
ENDBRANCH  42  43
ENDBRANCH  41  42
ENDBRANCH  40  41
ENDBRANCH  39  40
ENDBRANCH  38  39
ENDBRANCH   1  38
TORSDOF 27
ENDMDL
