MODEL 1
REMARK VINA RESULT:     -11.2      0.000      0.000
REMARK SMILES COc1ccc2[nH]c(C(=O)c3cc(C)ccn3)c(CC(=O)OCCOCCOCCOCCOC(=O)c3ccc(-c4c5nc(c(-c6c(F)c(F)c(F)c(F)c6F)c6ccc([nH]6)c(-c6c(F)c(F)c(F)c(F)c6F)c6nc(c(-c7c(F)c(F)c(F)c(F)c7F)c7ccc4[nH]7)C=C6)C=C5)cc3)c2c1
REMARK SMILES IDX 27 1 26 2 25 3 24 4 23 5 22 6 20 7 21 8 19 9 18 10 3 11 4 12
REMARK SMILES IDX 101 13 5 14 100 15 6 16 7 17 8 18 2 20 1 21 9 22 10 23 11 24
REMARK SMILES IDX 12 25 17 26 13 27 16 28 14 29 15 30 28 31 29 32 30 33 31 34
REMARK SMILES IDX 32 35 33 36 34 37 35 38 36 39 37 40 38 41 99 42 39 43 98 44
REMARK SMILES IDX 40 45 41 46 42 47 92 48 43 49 97 50 91 51 93 52 44 53 96 54
REMARK SMILES IDX 90 55 89 56 45 58 77 59 57 60 76 61 58 62 61 63 75 64 94 65
REMARK SMILES IDX 59 66 60 67 74 69 95 70 62 71 46 72 47 73 55 74 48 75 49 76
REMARK SMILES IDX 53 77 56 78 50 79 51 80 54 81 52 82 78 83 79 84 87 85 80 86
REMARK SMILES IDX 81 87 85 88 88 89 82 90 83 91 86 92 84 93 63 94 64 95 72 96
REMARK SMILES IDX 65 97 66 98 70 99 73 100 67 101 68 102 71 103 69 104
REMARK H PARENT 7 19 93 57 61 68
REMARK Flexibility Score: inf
ROOT
ATOM      1  C   UNL A   1      42.107  19.982  26.146  1.00  0.00     0.188 C 
ENDROOT
BRANCH   1   2
ATOM      2  C   UNL A   1      40.601  20.136  26.458  1.00  0.00     0.188 C 
BRANCH   2   3
ATOM      3  O   UNL A   1      40.197  21.220  27.263  1.00  0.00    -0.376 OA
BRANCH   3   4
ATOM      4  C   UNL A   1      40.117  22.542  26.775  1.00  0.00     0.202 C 
BRANCH   4   5
ATOM      5  C   UNL A   1      38.948  23.127  25.954  1.00  0.00     0.261 C 
BRANCH   5   6
ATOM      6  O   UNL A   1      37.607  22.749  26.315  1.00  0.00    -0.463 OA
BRANCH   6   7
ATOM      7  C   UNL A   1      37.018  21.744  25.625  1.00  0.00     0.310 C 
ATOM      8  O   UNL A   1      37.590  21.153  24.712  1.00  0.00    -0.252 OA
BRANCH   7   9
ATOM      9  C   UNL A   1      35.611  21.331  26.069  1.00  0.00     0.161 C 
BRANCH   9  10
ATOM     10  C   UNL A   1      34.429  21.243  25.107  1.00  0.00     0.000 A 
ATOM     11  C   UNL A   1      33.683  17.684  23.858  1.00  0.00     0.119 A 
ATOM     12  C   UNL A   1      32.583  18.028  23.075  1.00  0.00     0.048 A 
ATOM     13  C   UNL A   1      34.405  18.680  24.533  1.00  0.00     0.057 A 
ATOM     14  C   UNL A   1      32.171  19.362  22.961  1.00  0.00     0.030 A 
ATOM     15  C   UNL A   1      33.990  20.027  24.470  1.00  0.00     0.008 A 
ATOM     16  C   UNL A   1      32.878  20.325  23.692  1.00  0.00     0.046 A 
ATOM     17  N   UNL A   1      32.655  21.671  23.821  1.00  0.00    -0.352 N 
ATOM     18  C   UNL A   1      33.433  22.209  24.828  1.00  0.00     0.093 A 
ATOM     19  H   UNL A   1      32.024  22.187  23.267  1.00  0.00     0.167 HD
BRANCH  11  20
ATOM     20  O   UNL A   1      34.119  16.410  24.107  1.00  0.00    -0.497 OA
ATOM     21  C   UNL A   1      33.631  15.777  25.281  1.00  0.00     0.278 C 
ENDBRANCH  11  20
BRANCH  18  22
ATOM     22  C   UNL A   1      33.258  23.561  25.386  1.00  0.00     0.227 C 
ATOM     23  O   UNL A   1      33.111  23.743  26.593  1.00  0.00    -0.285 OA
BRANCH  22  24
ATOM     24  C   UNL A   1      33.349  24.796  24.513  1.00  0.00     0.113 A 
ATOM     25  C   UNL A   1      33.554  26.084  25.008  1.00  0.00     0.036 A 
ATOM     26  N   UNL A   1      33.226  24.546  23.180  1.00  0.00    -0.253 NA
ATOM     27  C   UNL A   1      33.600  27.160  24.101  1.00  0.00    -0.047 A 
ATOM     28  C   UNL A   1      33.292  25.594  22.330  1.00  0.00     0.112 A 
ATOM     29  C   UNL A   1      33.814  28.578  24.542  1.00  0.00     0.044 C 
ATOM     30  C   UNL A   1      33.436  26.904  22.738  1.00  0.00     0.023 A 
ENDBRANCH  22  24
ENDBRANCH  18  22
ENDBRANCH   9  10
ENDBRANCH   7   9
ENDBRANCH   6   7
ENDBRANCH   5   6
ENDBRANCH   4   5
ENDBRANCH   3   4
ENDBRANCH   2   3
ENDBRANCH   1   2
BRANCH   1  31
ATOM     31  O   UNL A   1      42.689  19.361  25.014  1.00  0.00    -0.377 OA
BRANCH  31  32
ATOM     32  C   UNL A   1      44.024  18.939  25.108  1.00  0.00     0.188 C 
BRANCH  32  33
ATOM     33  C   UNL A   1      45.001  20.056  24.741  1.00  0.00     0.188 C 
BRANCH  33  34
ATOM     34  O   UNL A   1      44.569  20.832  23.640  1.00  0.00    -0.376 OA
BRANCH  34  35
ATOM     35  C   UNL A   1      44.530  22.249  23.761  1.00  0.00     0.202 C 
BRANCH  35  36
ATOM     36  C   UNL A   1      43.652  22.967  24.811  1.00  0.00     0.261 C 
BRANCH  36  37
ATOM     37  O   UNL A   1      43.501  24.380  24.676  1.00  0.00    -0.460 OA
BRANCH  37  38
ATOM     38  C   UNL A   1      44.432  25.162  25.239  1.00  0.00     0.338 C 
ATOM     39  O   UNL A   1      45.572  25.366  24.861  1.00  0.00    -0.246 OA
BRANCH  38  40
ATOM     40  C   UNL A   1      43.727  25.906  26.291  1.00  0.00     0.060 A 
ATOM     41  C   UNL A   1      43.927  27.288  26.359  1.00  0.00     0.016 A 
ATOM     42  C   UNL A   1      42.820  25.261  27.140  1.00  0.00     0.016 A 
ATOM     43  C   UNL A   1      43.223  28.038  27.287  1.00  0.00     0.010 A 
ATOM     44  C   UNL A   1      42.146  26.007  28.103  1.00  0.00     0.010 A 
ATOM     45  C   UNL A   1      42.376  27.389  28.193  1.00  0.00    -0.014 A 
BRANCH  45  46
ATOM     46  C   UNL A   1      41.965  28.141  29.391  1.00  0.00     0.031 A 
ATOM     47  C   UNL A   1      40.669  28.893  29.315  1.00  0.00     0.074 A 
ATOM     48  C   UNL A   1      42.675  28.061  30.527  1.00  0.00     0.049 A 
ATOM     49  N   UNL A   1      40.057  29.591  30.232  1.00  0.00    -0.248 NA
ATOM     50  C   UNL A   1      39.962  28.843  28.022  1.00  0.00     0.031 C 
ATOM     51  C   UNL A   1      43.913  27.301  30.697  1.00  0.00     0.029 A 
ATOM     52  N   UNL A   1      42.447  28.620  31.755  1.00  0.00    -0.354 N 
ATOM     53  C   UNL A   1      38.897  30.060  29.627  1.00  0.00     0.074 A 
ATOM     54  C   UNL A   1      38.906  29.601  28.259  1.00  0.00     0.031 C 
ATOM     55  C   UNL A   1      44.339  27.446  31.963  1.00  0.00     0.029 A 
ATOM     56  C   UNL A   1      43.421  28.331  32.676  1.00  0.00     0.049 A 
ATOM     57  H   UNL A   1      41.660  29.177  31.957  1.00  0.00     0.167 HD
ATOM     58  C   UNL A   1      37.910  30.802  30.179  1.00  0.00     0.037 A 
ATOM     59  C   UNL A   1      43.551  28.759  33.945  1.00  0.00     0.037 A 
ATOM     60  C   UNL A   1      37.935  31.255  31.543  1.00  0.00     0.049 A 
ATOM     61  C   UNL A   1      42.477  29.652  34.511  1.00  0.00     0.074 A 
ATOM     62  C   UNL A   1      37.002  32.016  32.218  1.00  0.00     0.029 A 
ATOM     63  N   UNL A   1      38.964  30.988  32.438  1.00  0.00    -0.354 N 
ATOM     64  N   UNL A   1      41.375  30.086  33.945  1.00  0.00    -0.248 NA
ATOM     65  C   UNL A   1      42.659  30.109  35.894  1.00  0.00     0.031 C 
ATOM     66  C   UNL A   1      37.496  32.265  33.503  1.00  0.00     0.029 A 
ATOM     67  C   UNL A   1      38.702  31.597  33.653  1.00  0.00     0.049 A 
ATOM     68  H   UNL A   1      39.760  30.446  32.238  1.00  0.00     0.167 HD
ATOM     69  C   UNL A   1      40.718  30.842  34.908  1.00  0.00     0.074 A 
ATOM     70  C   UNL A   1      41.540  30.788  36.101  1.00  0.00     0.031 C 
ATOM     71  C   UNL A   1      39.546  31.519  34.820  1.00  0.00     0.037 A 
BRANCH  58  72
ATOM     72  C   UNL A   1      36.767  31.203  29.294  1.00  0.00     0.064 A 
ATOM     73  C   UNL A   1      36.621  32.514  28.811  1.00  0.00     0.173 A 
ATOM     74  C   UNL A   1      35.796  30.260  28.924  1.00  0.00     0.173 A 
ATOM     75  F   UNL A   1      37.505  33.462  29.155  1.00  0.00    -0.203 F 
ATOM     76  C   UNL A   1      35.535  32.869  28.015  1.00  0.00     0.198 A 
ATOM     77  C   UNL A   1      34.730  30.610  28.101  1.00  0.00     0.198 A 
ATOM     78  F   UNL A   1      35.880  28.995  29.365  1.00  0.00    -0.203 F 
ATOM     79  F   UNL A   1      35.386  34.138  27.614  1.00  0.00    -0.200 F 
ATOM     80  C   UNL A   1      34.595  31.915  27.653  1.00  0.00     0.200 A 
ATOM     81  F   UNL A   1      33.828  29.684  27.746  1.00  0.00    -0.200 F 
ATOM     82  F   UNL A   1      33.552  32.256  26.884  1.00  0.00    -0.200 F 
ENDBRANCH  58  72
BRANCH  59  83
ATOM     83  C   UNL A   1      44.738  28.365  34.750  1.00  0.00     0.064 A 
ATOM     84  C   UNL A   1      45.851  29.208  34.871  1.00  0.00     0.173 A 
ATOM     85  C   UNL A   1      44.787  27.126  35.408  1.00  0.00     0.173 A 
ATOM     86  F   UNL A   1      45.863  30.395  34.248  1.00  0.00    -0.203 F 
ATOM     87  C   UNL A   1      46.976  28.817  35.596  1.00  0.00     0.198 A 
ATOM     88  C   UNL A   1      45.898  26.750  36.159  1.00  0.00     0.198 A 
ATOM     89  F   UNL A   1      43.750  26.279  35.326  1.00  0.00    -0.203 F 
ATOM     90  F   UNL A   1      48.046  29.621  35.652  1.00  0.00    -0.200 F 
ATOM     91  C   UNL A   1      46.996  27.591  36.245  1.00  0.00     0.200 A 
ATOM     92  F   UNL A   1      45.905  25.571  36.797  1.00  0.00    -0.200 F 
ATOM     93  F   UNL A   1      48.076  27.219  36.946  1.00  0.00    -0.200 F 
ENDBRANCH  59  83
BRANCH  71  94
ATOM     94  C   UNL A   1      39.071  32.221  36.061  1.00  0.00     0.064 A 
ATOM     95  C   UNL A   1      39.429  33.546  36.345  1.00  0.00     0.173 A 
ATOM     96  C   UNL A   1      38.217  31.563  36.961  1.00  0.00     0.173 A 
ATOM     97  F   UNL A   1      40.251  34.215  35.522  1.00  0.00    -0.203 F 
ATOM     98  C   UNL A   1      38.984  34.174  37.505  1.00  0.00     0.198 A 
ATOM     99  C   UNL A   1      37.742  32.207  38.098  1.00  0.00     0.198 A 
ATOM    100  F   UNL A   1      37.833  30.299  36.728  1.00  0.00    -0.203 F 
ATOM    101  F   UNL A   1      39.392  35.418  37.789  1.00  0.00    -0.200 F 
ATOM    102  C   UNL A   1      38.135  33.507  38.375  1.00  0.00     0.200 A 
ATOM    103  F   UNL A   1      36.904  31.568  38.926  1.00  0.00    -0.200 F 
ATOM    104  F   UNL A   1      37.703  34.115  39.489  1.00  0.00    -0.200 F 
ENDBRANCH  71  94
ENDBRANCH  45  46
ENDBRANCH  38  40
ENDBRANCH  37  38
ENDBRANCH  36  37
ENDBRANCH  35  36
ENDBRANCH  34  35
ENDBRANCH  33  34
ENDBRANCH  32  33
ENDBRANCH  31  32
ENDBRANCH   1  31
TORSDOF 24
ENDMDL
MODEL 2
REMARK VINA RESULT:     -11.1      0.775      7.014
REMARK SMILES COc1ccc2[nH]c(C(=O)c3cc(C)ccn3)c(CC(=O)OCCOCCOCCOCCOC(=O)c3ccc(-c4c5nc(c(-c6c(F)c(F)c(F)c(F)c6F)c6ccc([nH]6)c(-c6c(F)c(F)c(F)c(F)c6F)c6nc(c(-c7c(F)c(F)c(F)c(F)c7F)c7ccc4[nH]7)C=C6)C=C5)cc3)c2c1
REMARK SMILES IDX 27 1 26 2 25 3 24 4 23 5 22 6 20 7 21 8 19 9 18 10 3 11 4 12
REMARK SMILES IDX 101 13 5 14 100 15 6 16 7 17 8 18 2 20 1 21 9 22 10 23 11 24
REMARK SMILES IDX 12 25 17 26 13 27 16 28 14 29 15 30 28 31 29 32 30 33 31 34
REMARK SMILES IDX 32 35 33 36 34 37 35 38 36 39 37 40 38 41 99 42 39 43 98 44
REMARK SMILES IDX 40 45 41 46 42 47 92 48 43 49 97 50 91 51 93 52 44 53 96 54
REMARK SMILES IDX 90 55 89 56 45 58 77 59 57 60 76 61 58 62 61 63 75 64 94 65
REMARK SMILES IDX 59 66 60 67 74 69 95 70 62 71 46 72 47 73 55 74 48 75 49 76
REMARK SMILES IDX 53 77 56 78 50 79 51 80 54 81 52 82 78 83 79 84 87 85 80 86
REMARK SMILES IDX 81 87 85 88 88 89 82 90 83 91 86 92 84 93 63 94 64 95 72 96
REMARK SMILES IDX 65 97 66 98 70 99 73 100 67 101 68 102 71 103 69 104
REMARK H PARENT 7 19 93 57 61 68
REMARK Flexibility Score: inf
ROOT
ATOM      1  C   UNL A   1      42.176  20.415  26.210  1.00  0.00     0.188 C 
ENDROOT
BRANCH   1   2
ATOM      2  C   UNL A   1      40.649  20.616  26.344  1.00  0.00     0.188 C 
BRANCH   2   3
ATOM      3  O   UNL A   1      40.183  21.555  27.286  1.00  0.00    -0.376 OA
BRANCH   3   4
ATOM      4  C   UNL A   1      39.747  22.846  26.922  1.00  0.00     0.202 C 
BRANCH   4   5
ATOM      5  C   UNL A   1      38.524  23.166  26.035  1.00  0.00     0.261 C 
BRANCH   5   6
ATOM      6  O   UNL A   1      37.254  22.595  26.398  1.00  0.00    -0.463 OA
BRANCH   6   7
ATOM      7  C   UNL A   1      36.726  21.644  25.592  1.00  0.00     0.310 C 
ATOM      8  O   UNL A   1      37.336  21.192  24.625  1.00  0.00    -0.252 OA
BRANCH   7   9
ATOM      9  C   UNL A   1      35.342  21.106  25.969  1.00  0.00     0.161 C 
BRANCH   9  10
ATOM     10  C   UNL A   1      34.231  20.884  24.947  1.00  0.00     0.000 A 
ATOM     11  C   UNL A   1      33.693  17.201  23.985  1.00  0.00     0.119 A 
ATOM     12  C   UNL A   1      32.636  17.428  23.106  1.00  0.00     0.048 A 
ATOM     13  C   UNL A   1      34.334  18.281  24.610  1.00  0.00     0.057 A 
ATOM     14  C   UNL A   1      32.187  18.729  22.845  1.00  0.00     0.030 A 
ATOM     15  C   UNL A   1      33.877  19.599  24.398  1.00  0.00     0.008 A 
ATOM     16  C   UNL A   1      32.809  19.781  23.528  1.00  0.00     0.046 A 
ATOM     17  N   UNL A   1      32.532  21.123  23.518  1.00  0.00    -0.352 N 
ATOM     18  C   UNL A   1      33.222  21.780  24.518  1.00  0.00     0.093 A 
ATOM     19  H   UNL A   1      31.922  21.562  22.880  1.00  0.00     0.167 HD
BRANCH  11  20
ATOM     20  O   UNL A   1      34.156  15.973  24.377  1.00  0.00    -0.497 OA
ATOM     21  C   UNL A   1      35.341  15.948  25.160  1.00  0.00     0.278 C 
ENDBRANCH  11  20
BRANCH  18  22
ATOM     22  C   UNL A   1      32.963  23.169  24.938  1.00  0.00     0.227 C 
ATOM     23  O   UNL A   1      32.695  23.447  26.105  1.00  0.00    -0.285 OA
BRANCH  22  24
ATOM     24  C   UNL A   1      33.112  24.328  23.973  1.00  0.00     0.113 A 
ATOM     25  C   UNL A   1      33.368  25.641  24.370  1.00  0.00     0.036 A 
ATOM     26  N   UNL A   1      32.985  23.982  22.663  1.00  0.00    -0.253 NA
ATOM     27  C   UNL A   1      33.464  26.640  23.384  1.00  0.00    -0.047 A 
ATOM     28  C   UNL A   1      33.100  24.957  21.736  1.00  0.00     0.112 A 
ATOM     29  C   UNL A   1      33.735  28.078  23.718  1.00  0.00     0.044 C 
ATOM     30  C   UNL A   1      33.297  26.287  22.043  1.00  0.00     0.023 A 
ENDBRANCH  22  24
ENDBRANCH  18  22
ENDBRANCH   9  10
ENDBRANCH   7   9
ENDBRANCH   6   7
ENDBRANCH   5   6
ENDBRANCH   4   5
ENDBRANCH   3   4
ENDBRANCH   2   3
ENDBRANCH   1   2
BRANCH   1  31
ATOM     31  O   UNL A   1      42.881  19.931  25.081  1.00  0.00    -0.377 OA
BRANCH  31  32
ATOM     32  C   UNL A   1      43.763  18.856  25.268  1.00  0.00     0.188 C 
BRANCH  32  33
ATOM     33  C   UNL A   1      45.214  19.324  25.378  1.00  0.00     0.188 C 
BRANCH  33  34
ATOM     34  O   UNL A   1      45.624  20.125  24.285  1.00  0.00    -0.376 OA
BRANCH  34  35
ATOM     35  C   UNL A   1      46.006  21.475  24.519  1.00  0.00     0.202 C 
BRANCH  35  36
ATOM     36  C   UNL A   1      45.768  22.181  25.873  1.00  0.00     0.261 C 
BRANCH  36  37
ATOM     37  O   UNL A   1      44.665  23.084  25.951  1.00  0.00    -0.460 OA
BRANCH  37  38
ATOM     38  C   UNL A   1      44.872  24.352  25.571  1.00  0.00     0.338 C 
ATOM     39  O   UNL A   1      45.449  24.755  24.576  1.00  0.00    -0.246 OA
BRANCH  38  40
ATOM     40  C   UNL A   1      44.061  25.166  26.485  1.00  0.00     0.060 A 
ATOM     41  C   UNL A   1      44.457  26.489  26.708  1.00  0.00     0.016 A 
ATOM     42  C   UNL A   1      42.884  24.658  27.047  1.00  0.00     0.016 A 
ATOM     43  C   UNL A   1      43.679  27.314  27.503  1.00  0.00     0.010 A 
ATOM     44  C   UNL A   1      42.125  25.472  27.883  1.00  0.00     0.010 A 
ATOM     45  C   UNL A   1      42.545  26.788  28.133  1.00  0.00    -0.014 A 
BRANCH  45  46
ATOM     46  C   UNL A   1      41.981  27.553  29.259  1.00  0.00     0.031 A 
ATOM     47  C   UNL A   1      42.731  27.510  30.558  1.00  0.00     0.074 A 
ATOM     48  C   UNL A   1      40.903  28.333  29.086  1.00  0.00     0.049 A 
ATOM     49  N   UNL A   1      42.483  28.123  31.683  1.00  0.00    -0.248 NA
ATOM     50  C   UNL A   1      43.935  26.659  30.587  1.00  0.00     0.031 C 
ATOM     51  C   UNL A   1      40.156  28.475  27.837  1.00  0.00     0.029 A 
ATOM     52  N   UNL A   1      40.258  29.160  29.965  1.00  0.00    -0.354 N 
ATOM     53  C   UNL A   1      43.498  27.732  32.548  1.00  0.00     0.074 A 
ATOM     54  C   UNL A   1      44.343  26.804  31.835  1.00  0.00     0.031 C 
ATOM     55  C   UNL A   1      39.146  29.340  28.033  1.00  0.00     0.029 A 
ATOM     56  C   UNL A   1      39.163  29.783  29.425  1.00  0.00     0.049 A 
ATOM     57  H   UNL A   1      40.553  29.294  30.895  1.00  0.00     0.167 HD
ATOM     58  C   UNL A   1      43.703  28.129  33.825  1.00  0.00     0.037 A 
ATOM     59  C   UNL A   1      38.271  30.603  30.012  1.00  0.00     0.037 A 
ATOM     60  C   UNL A   1      42.837  29.046  34.513  1.00  0.00     0.049 A 
ATOM     61  C   UNL A   1      38.478  30.965  31.460  1.00  0.00     0.074 A 
ATOM     62  C   UNL A   1      42.933  29.521  35.807  1.00  0.00     0.029 A 
ATOM     63  N   UNL A   1      41.702  29.622  33.954  1.00  0.00    -0.354 N 
ATOM     64  N   UNL A   1      39.442  30.607  32.275  1.00  0.00    -0.248 NA
ATOM     65  C   UNL A   1      37.478  31.851  32.068  1.00  0.00     0.031 C 
ATOM     66  C   UNL A   1      41.820  30.332  36.051  1.00  0.00     0.029 A 
ATOM     67  C   UNL A   1      41.071  30.424  34.888  1.00  0.00     0.049 A 
ATOM     68  H   UNL A   1      41.394  29.480  33.030  1.00  0.00     0.167 HD
ATOM     69  C   UNL A   1      39.184  31.244  33.482  1.00  0.00     0.074 A 
ATOM     70  C   UNL A   1      37.981  32.028  33.281  1.00  0.00     0.031 C 
ATOM     71  C   UNL A   1      39.873  31.191  34.650  1.00  0.00     0.037 A 
BRANCH  58  72
ATOM     72  C   UNL A   1      44.869  27.532  34.557  1.00  0.00     0.064 A 
ATOM     73  C   UNL A   1      44.781  26.297  35.219  1.00  0.00     0.173 A 
ATOM     74  C   UNL A   1      46.097  28.209  34.599  1.00  0.00     0.173 A 
ATOM     75  F   UNL A   1      43.624  25.619  35.234  1.00  0.00    -0.203 F 
ATOM     76  C   UNL A   1      45.869  25.778  35.917  1.00  0.00     0.198 A 
ATOM     77  C   UNL A   1      47.192  27.671  35.269  1.00  0.00     0.198 A 
ATOM     78  F   UNL A   1      46.235  29.398  33.992  1.00  0.00    -0.203 F 
ATOM     79  F   UNL A   1      45.744  24.626  36.590  1.00  0.00    -0.200 F 
ATOM     80  C   UNL A   1      47.076  26.460  35.934  1.00  0.00     0.200 A 
ATOM     81  F   UNL A   1      48.360  28.329  35.276  1.00  0.00    -0.200 F 
ATOM     82  F   UNL A   1      48.124  25.958  36.601  1.00  0.00    -0.200 F 
ENDBRANCH  58  72
BRANCH  59  83
ATOM     83  C   UNL A   1      37.108  31.117  29.240  1.00  0.00     0.064 A 
ATOM     84  C   UNL A   1      37.067  32.439  28.774  1.00  0.00     0.173 A 
ATOM     85  C   UNL A   1      36.003  30.298  28.964  1.00  0.00     0.173 A 
ATOM     86  F   UNL A   1      38.089  33.270  29.027  1.00  0.00    -0.203 F 
ATOM     87  C   UNL A   1      35.958  32.926  28.084  1.00  0.00     0.198 A 
ATOM     88  C   UNL A   1      34.909  30.776  28.246  1.00  0.00     0.198 A 
ATOM     89  F   UNL A   1      35.987  29.025  29.386  1.00  0.00    -0.203 F 
ATOM     90  F   UNL A   1      35.925  34.208  27.695  1.00  0.00    -0.200 F 
ATOM     91  C   UNL A   1      34.883  32.093  27.814  1.00  0.00     0.200 A 
ATOM     92  F   UNL A   1      33.880  29.961  27.975  1.00  0.00    -0.200 F 
ATOM     93  F   UNL A   1      33.820  32.561  27.147  1.00  0.00    -0.200 F 
ENDBRANCH  59  83
BRANCH  71  94
ATOM     94  C   UNL A   1      39.358  32.033  35.782  1.00  0.00     0.064 A 
ATOM     95  C   UNL A   1      38.417  31.544  36.700  1.00  0.00     0.173 A 
ATOM     96  C   UNL A   1      39.841  33.338  35.968  1.00  0.00     0.173 A 
ATOM     97  F   UNL A   1      37.917  30.307  36.561  1.00  0.00    -0.203 F 
ATOM     98  C   UNL A   1      37.947  32.344  37.738  1.00  0.00     0.198 A 
ATOM     99  C   UNL A   1      39.400  34.120  37.029  1.00  0.00     0.198 A 
ATOM    100  F   UNL A   1      40.752  33.848  35.126  1.00  0.00    -0.203 F 
ATOM    101  F   UNL A   1      37.000  31.880  38.563  1.00  0.00    -0.200 F 
ATOM    102  C   UNL A   1      38.445  33.628  37.905  1.00  0.00     0.200 A 
ATOM    103  F   UNL A   1      39.898  35.353  37.203  1.00  0.00    -0.200 F 
ATOM    104  F   UNL A   1      37.996  34.396  38.908  1.00  0.00    -0.200 F 
ENDBRANCH  71  94
ENDBRANCH  45  46
ENDBRANCH  38  40
ENDBRANCH  37  38
ENDBRANCH  36  37
ENDBRANCH  35  36
ENDBRANCH  34  35
ENDBRANCH  33  34
ENDBRANCH  32  33
ENDBRANCH  31  32
ENDBRANCH   1  31
TORSDOF 24
ENDMDL
MODEL 3
REMARK VINA RESULT:     -10.1      2.976      9.119
REMARK SMILES COc1ccc2[nH]c(C(=O)c3cc(C)ccn3)c(CC(=O)OCCOCCOCCOCCOC(=O)c3ccc(-c4c5nc(c(-c6c(F)c(F)c(F)c(F)c6F)c6ccc([nH]6)c(-c6c(F)c(F)c(F)c(F)c6F)c6nc(c(-c7c(F)c(F)c(F)c(F)c7F)c7ccc4[nH]7)C=C6)C=C5)cc3)c2c1
REMARK SMILES IDX 27 1 26 2 25 3 24 4 23 5 22 6 20 7 21 8 19 9 18 10 3 11 4 12
REMARK SMILES IDX 101 13 5 14 100 15 6 16 7 17 8 18 2 20 1 21 9 22 10 23 11 24
REMARK SMILES IDX 12 25 17 26 13 27 16 28 14 29 15 30 28 31 29 32 30 33 31 34
REMARK SMILES IDX 32 35 33 36 34 37 35 38 36 39 37 40 38 41 99 42 39 43 98 44
REMARK SMILES IDX 40 45 41 46 42 47 92 48 43 49 97 50 91 51 93 52 44 53 96 54
REMARK SMILES IDX 90 55 89 56 45 58 77 59 57 60 76 61 58 62 61 63 75 64 94 65
REMARK SMILES IDX 59 66 60 67 74 69 95 70 62 71 46 72 47 73 55 74 48 75 49 76
REMARK SMILES IDX 53 77 56 78 50 79 51 80 54 81 52 82 78 83 79 84 87 85 80 86
REMARK SMILES IDX 81 87 85 88 88 89 82 90 83 91 86 92 84 93 63 94 64 95 72 96
REMARK SMILES IDX 65 97 66 98 70 99 73 100 67 101 68 102 71 103 69 104
REMARK H PARENT 7 19 93 57 61 68
REMARK Flexibility Score: inf
ROOT
ATOM      1  C   UNL A   1      32.177  28.937  22.745  1.00  0.00     0.188 C 
ENDROOT
BRANCH   1   2
ATOM      2  C   UNL A   1      30.922  28.047  22.601  1.00  0.00     0.188 C 
BRANCH   2   3
ATOM      3  O   UNL A   1      31.107  26.684  22.292  1.00  0.00    -0.376 OA
BRANCH   3   4
ATOM      4  C   UNL A   1      30.553  25.646  23.070  1.00  0.00     0.202 C 
BRANCH   4   5
ATOM      5  C   UNL A   1      31.080  25.170  24.442  1.00  0.00     0.261 C 
BRANCH   5   6
ATOM      6  O   UNL A   1      32.141  24.198  24.461  1.00  0.00    -0.463 OA
BRANCH   6   7
ATOM      7  C   UNL A   1      33.417  24.644  24.512  1.00  0.00     0.310 C 
ATOM      8  O   UNL A   1      33.865  25.446  23.694  1.00  0.00    -0.252 OA
BRANCH   7   9
ATOM      9  C   UNL A   1      34.279  24.149  25.679  1.00  0.00     0.161 C 
BRANCH   9  10
ATOM     10  C   UNL A   1      35.234  22.964  25.560  1.00  0.00     0.000 A 
ATOM     11  C   UNL A   1      38.883  23.794  26.441  1.00  0.00     0.119 A 
ATOM     12  C   UNL A   1      39.381  22.508  26.241  1.00  0.00     0.048 A 
ATOM     13  C   UNL A   1      37.531  24.071  26.190  1.00  0.00     0.057 A 
ATOM     14  C   UNL A   1      38.544  21.473  25.805  1.00  0.00     0.030 A 
ATOM     15  C   UNL A   1      36.654  23.041  25.791  1.00  0.00     0.008 A 
ATOM     16  C   UNL A   1      37.188  21.769  25.620  1.00  0.00     0.046 A 
ATOM     17  N   UNL A   1      36.147  20.947  25.272  1.00  0.00    -0.352 N 
ATOM     18  C   UNL A   1      34.934  21.586  25.439  1.00  0.00     0.093 A 
ATOM     19  H   UNL A   1      36.251  20.024  24.946  1.00  0.00     0.167 HD
BRANCH  11  20
ATOM     20  O   UNL A   1      39.588  24.855  26.942  1.00  0.00    -0.497 OA
ATOM     21  C   UNL A   1      39.266  25.282  28.258  1.00  0.00     0.278 C 
ENDBRANCH  11  20
BRANCH  18  22
ATOM     22  C   UNL A   1      33.623  20.914  25.394  1.00  0.00     0.227 C 
ATOM     23  O   UNL A   1      32.667  21.328  26.047  1.00  0.00    -0.285 OA
BRANCH  22  24
ATOM     24  C   UNL A   1      33.365  19.742  24.467  1.00  0.00     0.113 A 
ATOM     25  C   UNL A   1      34.014  18.511  24.573  1.00  0.00     0.036 A 
ATOM     26  N   UNL A   1      32.426  19.984  23.513  1.00  0.00    -0.253 NA
ATOM     27  C   UNL A   1      33.708  17.502  23.640  1.00  0.00    -0.047 A 
ATOM     28  C   UNL A   1      32.138  18.992  22.642  1.00  0.00     0.112 A 
ATOM     29  C   UNL A   1      34.357  16.150  23.675  1.00  0.00     0.044 C 
ATOM     30  C   UNL A   1      32.770  17.766  22.640  1.00  0.00     0.023 A 
ENDBRANCH  22  24
ENDBRANCH  18  22
ENDBRANCH   9  10
ENDBRANCH   7   9
ENDBRANCH   6   7
ENDBRANCH   5   6
ENDBRANCH   4   5
ENDBRANCH   3   4
ENDBRANCH   2   3
ENDBRANCH   1   2
BRANCH   1  31
ATOM     31  O   UNL A   1      32.915  29.194  23.926  1.00  0.00    -0.377 OA
BRANCH  31  32
ATOM     32  C   UNL A   1      32.761  28.308  25.005  1.00  0.00     0.188 C 
BRANCH  32  33
ATOM     33  C   UNL A   1      31.542  28.658  25.857  1.00  0.00     0.188 C 
BRANCH  33  34
ATOM     34  O   UNL A   1      31.871  29.378  27.030  1.00  0.00    -0.376 OA
BRANCH  34  35
ATOM     35  C   UNL A   1      31.984  30.795  26.965  1.00  0.00     0.202 C 
BRANCH  35  36
ATOM     36  C   UNL A   1      33.349  31.514  26.879  1.00  0.00     0.261 C 
BRANCH  36  37
ATOM     37  O   UNL A   1      33.816  32.168  28.059  1.00  0.00    -0.460 OA
BRANCH  37  38
ATOM     38  C   UNL A   1      34.763  33.106  27.917  1.00  0.00     0.338 C 
ATOM     39  O   UNL A   1      34.622  34.280  27.622  1.00  0.00    -0.246 OA
BRANCH  38  40
ATOM     40  C   UNL A   1      35.999  32.484  28.410  1.00  0.00     0.060 A 
ATOM     41  C   UNL A   1      36.033  31.089  28.511  1.00  0.00     0.016 A 
ATOM     42  C   UNL A   1      37.130  33.259  28.688  1.00  0.00     0.016 A 
ATOM     43  C   UNL A   1      37.203  30.458  28.899  1.00  0.00     0.010 A 
ATOM     44  C   UNL A   1      38.294  32.629  29.122  1.00  0.00     0.010 A 
ATOM     45  C   UNL A   1      38.314  31.232  29.256  1.00  0.00    -0.014 A 
BRANCH  45  46
ATOM     46  C   UNL A   1      39.380  30.569  30.028  1.00  0.00     0.031 A 
ATOM     47  C   UNL A   1      39.477  30.906  31.487  1.00  0.00     0.074 A 
ATOM     48  C   UNL A   1      40.152  29.630  29.461  1.00  0.00     0.049 A 
ATOM     49  N   UNL A   1      40.286  30.435  32.397  1.00  0.00    -0.248 NA
ATOM     50  C   UNL A   1      38.523  31.912  31.989  1.00  0.00     0.031 C 
ATOM     51  C   UNL A   1      40.076  29.203  28.065  1.00  0.00     0.029 A 
ATOM     52  N   UNL A   1      41.146  28.858  30.000  1.00  0.00    -0.354 N 
ATOM     53  C   UNL A   1      39.936  31.086  33.574  1.00  0.00     0.074 A 
ATOM     54  C   UNL A   1      38.871  32.009  33.260  1.00  0.00     0.031 C 
ATOM     55  C   UNL A   1      40.993  28.244  27.855  1.00  0.00     0.029 A 
ATOM     56  C   UNL A   1      41.736  28.016  29.092  1.00  0.00     0.049 A 
ATOM     57  H   UNL A   1      41.412  28.904  30.947  1.00  0.00     0.167 HD
ATOM     58  C   UNL A   1      40.459  30.914  34.809  1.00  0.00     0.037 A 
ATOM     59  C   UNL A   1      42.773  27.174  29.257  1.00  0.00     0.037 A 
ATOM     60  C   UNL A   1      41.528  29.995  35.089  1.00  0.00     0.049 A 
ATOM     61  C   UNL A   1      43.391  27.060  30.626  1.00  0.00     0.074 A 
ATOM     62  C   UNL A   1      42.149  29.733  36.295  1.00  0.00     0.029 A 
ATOM     63  N   UNL A   1      42.141  29.191  34.136  1.00  0.00    -0.354 N 
ATOM     64  N   UNL A   1      43.054  27.665  31.742  1.00  0.00    -0.248 NA
ATOM     65  C   UNL A   1      44.528  26.142  30.763  1.00  0.00     0.031 C 
ATOM     66  C   UNL A   1      43.180  28.819  36.059  1.00  0.00     0.029 A 
ATOM     67  C   UNL A   1      43.155  28.454  34.722  1.00  0.00     0.049 A 
ATOM     68  H   UNL A   1      41.890  29.152  33.185  1.00  0.00     0.167 HD
ATOM     69  C   UNL A   1      43.915  27.181  32.718  1.00  0.00     0.074 A 
ATOM     70  C   UNL A   1      44.776  26.217  32.063  1.00  0.00     0.031 C 
ATOM     71  C   UNL A   1      43.992  27.501  34.035  1.00  0.00     0.037 A 
BRANCH  58  72
ATOM     72  C   UNL A   1      39.916  31.768  35.917  1.00  0.00     0.064 A 
ATOM     73  C   UNL A   1      38.749  31.426  36.619  1.00  0.00     0.173 A 
ATOM     74  C   UNL A   1      40.574  32.953  36.281  1.00  0.00     0.173 A 
ATOM     75  F   UNL A   1      38.066  30.319  36.295  1.00  0.00    -0.203 F 
ATOM     76  C   UNL A   1      38.250  32.251  37.624  1.00  0.00     0.198 A 
ATOM     77  C   UNL A   1      40.090  33.757  37.309  1.00  0.00     0.198 A 
ATOM     78  F   UNL A   1      41.688  33.333  35.637  1.00  0.00    -0.203 F 
ATOM     79  F   UNL A   1      37.103  31.934  38.241  1.00  0.00    -0.200 F 
ATOM     80  C   UNL A   1      38.925  33.411  37.974  1.00  0.00     0.200 A 
ATOM     81  F   UNL A   1      40.750  34.873  37.651  1.00  0.00    -0.200 F 
ATOM     82  F   UNL A   1      38.446  34.202  38.944  1.00  0.00    -0.200 F 
ENDBRANCH  58  72
BRANCH  59  83
ATOM     83  C   UNL A   1      43.294  26.395  28.102  1.00  0.00     0.064 A 
ATOM     84  C   UNL A   1      42.989  25.036  27.940  1.00  0.00     0.173 A 
ATOM     85  C   UNL A   1      44.122  26.993  27.139  1.00  0.00     0.173 A 
ATOM     86  F   UNL A   1      42.216  24.411  28.841  1.00  0.00    -0.203 F 
ATOM     87  C   UNL A   1      43.510  24.302  26.875  1.00  0.00     0.198 A 
ATOM     88  C   UNL A   1      44.616  26.267  26.059  1.00  0.00     0.198 A 
ATOM     89  F   UNL A   1      44.447  28.290  27.244  1.00  0.00    -0.203 F 
ATOM     90  F   UNL A   1      43.244  22.993  26.774  1.00  0.00    -0.200 F 
ATOM     91  C   UNL A   1      44.318  24.919  25.932  1.00  0.00     0.200 A 
ATOM     92  F   UNL A   1      45.383  26.872  25.141  1.00  0.00    -0.200 F 
ATOM     93  F   UNL A   1      44.815  24.213  24.907  1.00  0.00    -0.200 F 
ENDBRANCH  59  83
BRANCH  71  94
ATOM     94  C   UNL A   1      45.018  26.770  34.853  1.00  0.00     0.064 A 
ATOM     95  C   UNL A   1      44.682  25.658  35.640  1.00  0.00     0.173 A 
ATOM     96  C   UNL A   1      46.362  27.172  34.822  1.00  0.00     0.173 A 
ATOM     97  F   UNL A   1      43.409  25.241  35.711  1.00  0.00    -0.203 F 
ATOM     98  C   UNL A   1      45.647  25.001  36.397  1.00  0.00     0.198 A 
ATOM     99  C   UNL A   1      47.331  26.488  35.548  1.00  0.00     0.198 A 
ATOM    100  F   UNL A   1      46.738  28.221  34.075  1.00  0.00    -0.203 F 
ATOM    101  F   UNL A   1      45.293  23.982  37.191  1.00  0.00    -0.200 F 
ATOM    102  C   UNL A   1      46.972  25.411  36.344  1.00  0.00     0.200 A 
ATOM    103  F   UNL A   1      48.613  26.872  35.479  1.00  0.00    -0.200 F 
ATOM    104  F   UNL A   1      47.900  24.774  37.069  1.00  0.00    -0.200 F 
ENDBRANCH  71  94
ENDBRANCH  45  46
ENDBRANCH  38  40
ENDBRANCH  37  38
ENDBRANCH  36  37
ENDBRANCH  35  36
ENDBRANCH  34  35
ENDBRANCH  33  34
ENDBRANCH  32  33
ENDBRANCH  31  32
ENDBRANCH   1  31
TORSDOF 24
ENDMDL
