MODEL 1
REMARK VINA RESULT:      -9.8      0.000      0.000
REMARK SMILES COc1cccc(/C=C(/CC(=O)OCCOCCOCCOCCOC(=O)c2ccc(-c3c4nc(c(-c5c(F)c(F)c(F)c(F)c5F)c5ccc([nH]5)c(-c5c(F)c(F)c(F)c(F)c5F)c5nc(c(-c6c(F)c(F)c(F)c(F)c6F)c6ccc3[nH]6)C=C5)C=C4)cc2)c2nc3ccccc3o2)c1
REMARK SMILES IDX 18 1 17 2 16 3 15 4 14 5 13 6 11 7 12 8 10 9 9 10 8 11 7 12
REMARK SMILES IDX 3 13 4 14 100 15 5 16 6 17 2 18 1 19 91 20 92 21 99 22 93 23
REMARK SMILES IDX 98 24 94 25 97 26 95 27 96 28 19 29 20 30 21 31 22 32 23 33
REMARK SMILES IDX 24 34 25 35 26 36 27 37 28 38 29 39 90 40 30 41 89 42 31 43
REMARK SMILES IDX 32 44 33 45 83 46 34 47 88 48 82 49 84 50 35 51 87 52 81 53
REMARK SMILES IDX 80 54 36 56 68 57 48 58 67 59 49 60 52 61 66 62 85 63 50 64
REMARK SMILES IDX 51 65 65 67 86 68 53 69 37 70 38 71 46 72 39 73 40 74 44 75
REMARK SMILES IDX 47 76 41 77 42 78 45 79 43 80 69 81 70 82 78 83 71 84 72 85
REMARK SMILES IDX 76 86 79 87 73 88 74 89 77 90 75 91 54 92 55 93 63 94 56 95
REMARK SMILES IDX 57 96 61 97 64 98 58 99 59 100 62 101 60 102
REMARK H PARENT 84 55 52 66
REMARK Flexibility Score: inf
ROOT
ATOM      1  C   UNL A   1      37.128  21.082  25.260  1.00  0.00     0.188 C 
ENDROOT
BRANCH   1   2
ATOM      2  C   UNL A   1      35.637  21.361  25.029  1.00  0.00     0.188 C 
BRANCH   2   3
ATOM      3  O   UNL A   1      34.749  21.517  26.125  1.00  0.00    -0.376 OA
BRANCH   3   4
ATOM      4  C   UNL A   1      33.361  21.336  25.917  1.00  0.00     0.202 C 
BRANCH   4   5
ATOM      5  C   UNL A   1      32.491  22.582  25.641  1.00  0.00     0.261 C 
BRANCH   5   6
ATOM      6  O   UNL A   1      31.569  22.525  24.518  1.00  0.00    -0.463 OA
BRANCH   6   7
ATOM      7  C   UNL A   1      31.878  23.276  23.425  1.00  0.00     0.310 C 
ATOM      8  O   UNL A   1      32.928  23.152  22.801  1.00  0.00    -0.252 OA
BRANCH   7   9
ATOM      9  C   UNL A   1      30.886  24.416  23.089  1.00  0.00     0.163 C 
BRANCH   9  10
ATOM     10  C   UNL A   1      30.860  25.814  23.761  1.00  0.00     0.026 C 
ATOM     11  C   UNL A   1      31.593  25.962  24.897  1.00  0.00     0.018 C 
BRANCH  11  12
ATOM     12  C   UNL A   1      31.937  27.043  25.868  1.00  0.00    -0.021 A 
ATOM     13  C   UNL A   1      33.612  28.710  26.559  1.00  0.00     0.119 A 
ATOM     14  C   UNL A   1      32.844  29.025  27.675  1.00  0.00     0.046 A 
ATOM     15  C   UNL A   1      33.154  27.738  25.660  1.00  0.00     0.054 A 
ATOM     16  C   UNL A   1      31.645  28.357  27.904  1.00  0.00     0.004 A 
ATOM     17  C   UNL A   1      31.219  27.349  27.029  1.00  0.00     0.008 A 
BRANCH  13  18
ATOM     18  O   UNL A   1      34.816  29.357  26.500  1.00  0.00    -0.497 OA
ATOM     19  C   UNL A   1      35.099  30.279  27.543  1.00  0.00     0.278 C 
ENDBRANCH  13  18
ENDBRANCH  11  12
BRANCH  10  20
ATOM     20  C   UNL A   1      30.115  26.898  23.144  1.00  0.00     0.223 A 
ATOM     21  N   UNL A   1      28.843  27.167  23.439  1.00  0.00    -0.210 NA
ATOM     22  O   UNL A   1      30.626  27.847  22.264  1.00  0.00    -0.436 OA
ATOM     23  C   UNL A   1      28.597  28.420  22.932  1.00  0.00     0.110 A 
ATOM     24  C   UNL A   1      29.692  28.843  22.208  1.00  0.00     0.155 A 
ATOM     25  C   UNL A   1      27.523  29.303  23.126  1.00  0.00     0.032 A 
ATOM     26  C   UNL A   1      29.821  30.108  21.637  1.00  0.00     0.049 A 
ATOM     27  C   UNL A   1      27.637  30.609  22.618  1.00  0.00     0.003 A 
ATOM     28  C   UNL A   1      28.765  31.001  21.886  1.00  0.00     0.004 A 
ENDBRANCH  10  20
ENDBRANCH   9  10
ENDBRANCH   7   9
ENDBRANCH   6   7
ENDBRANCH   5   6
ENDBRANCH   4   5
ENDBRANCH   3   4
ENDBRANCH   2   3
ENDBRANCH   1   2
BRANCH   1  29
ATOM     29  O   UNL A   1      37.841  21.958  26.103  1.00  0.00    -0.377 OA
BRANCH  29  30
ATOM     30  C   UNL A   1      39.183  22.261  25.778  1.00  0.00     0.188 C 
BRANCH  30  31
ATOM     31  C   UNL A   1      40.174  22.258  26.941  1.00  0.00     0.188 C 
BRANCH  31  32
ATOM     32  O   UNL A   1      41.085  21.165  27.089  1.00  0.00    -0.376 OA
BRANCH  32  33
ATOM     33  C   UNL A   1      40.729  19.854  26.666  1.00  0.00     0.202 C 
BRANCH  33  34
ATOM     34  C   UNL A   1      41.724  19.184  25.734  1.00  0.00     0.261 C 
BRANCH  34  35
ATOM     35  O   UNL A   1      43.033  19.603  26.120  1.00  0.00    -0.460 OA
BRANCH  35  36
ATOM     36  C   UNL A   1      43.860  19.821  25.071  1.00  0.00     0.338 C 
ATOM     37  O   UNL A   1      43.979  19.145  24.075  1.00  0.00    -0.246 OA
BRANCH  36  38
ATOM     38  C   UNL A   1      44.447  21.168  25.235  1.00  0.00     0.060 A 
ATOM     39  C   UNL A   1      44.939  21.506  26.505  1.00  0.00     0.016 A 
ATOM     40  C   UNL A   1      44.541  22.070  24.169  1.00  0.00     0.016 A 
ATOM     41  C   UNL A   1      45.460  22.770  26.733  1.00  0.00     0.010 A 
ATOM     42  C   UNL A   1      45.040  23.343  24.400  1.00  0.00     0.010 A 
ATOM     43  C   UNL A   1      45.439  23.707  25.696  1.00  0.00    -0.014 A 
BRANCH  43  44
ATOM     44  C   UNL A   1      45.509  25.138  26.025  1.00  0.00     0.031 A 
ATOM     45  C   UNL A   1      46.852  25.797  25.884  1.00  0.00     0.074 A 
ATOM     46  C   UNL A   1      44.425  25.805  26.445  1.00  0.00     0.049 A 
ATOM     47  N   UNL A   1      47.235  26.992  26.242  1.00  0.00    -0.248 NA
ATOM     48  C   UNL A   1      47.916  24.984  25.263  1.00  0.00     0.031 C 
ATOM     49  C   UNL A   1      43.079  25.247  26.550  1.00  0.00     0.029 A 
ATOM     50  N   UNL A   1      44.299  27.093  26.884  1.00  0.00    -0.354 N 
ATOM     51  C   UNL A   1      48.580  27.066  25.902  1.00  0.00     0.074 A 
ATOM     52  C   UNL A   1      48.960  25.792  25.341  1.00  0.00     0.031 C 
ATOM     53  C   UNL A   1      42.260  26.188  27.053  1.00  0.00     0.029 A 
ATOM     54  C   UNL A   1      43.040  27.389  27.344  1.00  0.00     0.049 A 
ATOM     55  H   UNL A   1      45.037  27.745  26.872  1.00  0.00     0.167 HD
ATOM     56  C   UNL A   1      49.417  28.117  26.047  1.00  0.00     0.037 A 
ATOM     57  C   UNL A   1      42.600  28.499  27.964  1.00  0.00     0.037 A 
ATOM     58  C   UNL A   1      49.011  29.366  26.625  1.00  0.00     0.049 A 
ATOM     59  C   UNL A   1      43.577  29.624  28.198  1.00  0.00     0.074 A 
ATOM     60  C   UNL A   1      49.763  30.504  26.843  1.00  0.00     0.029 A 
ATOM     61  N   UNL A   1      47.728  29.631  27.088  1.00  0.00    -0.354 N 
ATOM     62  N   UNL A   1      44.847  29.699  27.875  1.00  0.00    -0.248 NA
ATOM     63  C   UNL A   1      43.062  30.819  28.880  1.00  0.00     0.031 C 
ATOM     64  C   UNL A   1      48.949  31.439  27.487  1.00  0.00     0.029 A 
ATOM     65  C   UNL A   1      47.670  30.911  27.604  1.00  0.00     0.049 A 
ATOM     66  H   UNL A   1      46.972  29.001  27.052  1.00  0.00     0.167 HD
ATOM     67  C   UNL A   1      45.269  30.963  28.267  1.00  0.00     0.074 A 
ATOM     68  C   UNL A   1      44.119  31.618  28.857  1.00  0.00     0.031 C 
ATOM     69  C   UNL A   1      46.492  31.537  28.146  1.00  0.00     0.037 A 
BRANCH  56  70
ATOM     70  C   UNL A   1      50.841  27.941  25.608  1.00  0.00     0.064 A 
ATOM     71  C   UNL A   1      51.240  28.170  24.282  1.00  0.00     0.173 A 
ATOM     72  C   UNL A   1      51.825  27.556  26.529  1.00  0.00     0.173 A 
ATOM     73  F   UNL A   1      50.334  28.517  23.354  1.00  0.00    -0.203 F 
ATOM     74  C   UNL A   1      52.566  27.998  23.892  1.00  0.00     0.198 A 
ATOM     75  C   UNL A   1      53.156  27.417  26.144  1.00  0.00     0.198 A 
ATOM     76  F   UNL A   1      51.499  27.317  27.809  1.00  0.00    -0.203 F 
ATOM     77  F   UNL A   1      52.913  28.172  22.609  1.00  0.00    -0.200 F 
ATOM     78  C   UNL A   1      53.524  27.632  24.824  1.00  0.00     0.200 A 
ATOM     79  F   UNL A   1      54.082  27.072  27.048  1.00  0.00    -0.200 F 
ATOM     80  F   UNL A   1      54.801  27.476  24.450  1.00  0.00    -0.200 F 
ENDBRANCH  56  70
BRANCH  57  81
ATOM     81  C   UNL A   1      41.186  28.595  28.413  1.00  0.00     0.064 A 
ATOM     82  C   UNL A   1      40.178  29.014  27.534  1.00  0.00     0.173 A 
ATOM     83  C   UNL A   1      40.813  28.287  29.730  1.00  0.00     0.173 A 
ATOM     84  F   UNL A   1      40.484  29.335  26.269  1.00  0.00    -0.203 F 
ATOM     85  C   UNL A   1      38.858  29.149  27.962  1.00  0.00     0.198 A 
ATOM     86  C   UNL A   1      39.488  28.391  30.149  1.00  0.00     0.198 A 
ATOM     87  F   UNL A   1      41.736  27.877  30.613  1.00  0.00    -0.203 F 
ATOM     88  F   UNL A   1      37.925  29.604  27.114  1.00  0.00    -0.200 F 
ATOM     89  C   UNL A   1      38.513  28.833  29.267  1.00  0.00     0.200 A 
ATOM     90  F   UNL A   1      39.156  28.069  31.406  1.00  0.00    -0.200 F 
ATOM     91  F   UNL A   1      37.245  28.963  29.678  1.00  0.00    -0.200 F 
ENDBRANCH  57  81
BRANCH  69  92
ATOM     92  C   UNL A   1      46.632  32.968  28.577  1.00  0.00     0.064 A 
ATOM     93  C   UNL A   1      47.074  33.317  29.860  1.00  0.00     0.173 A 
ATOM     94  C   UNL A   1      46.405  33.999  27.650  1.00  0.00     0.173 A 
ATOM     95  F   UNL A   1      47.293  32.368  30.781  1.00  0.00    -0.203 F 
ATOM     96  C   UNL A   1      47.273  34.652  30.204  1.00  0.00     0.198 A 
ATOM     97  C   UNL A   1      46.638  35.326  27.987  1.00  0.00     0.198 A 
ATOM     98  F   UNL A   1      45.993  33.711  26.406  1.00  0.00    -0.203 F 
ATOM     99  F   UNL A   1      47.662  34.969  31.446  1.00  0.00    -0.200 F 
ATOM    100  C   UNL A   1      47.067  35.653  29.265  1.00  0.00     0.200 A 
ATOM    101  F   UNL A   1      46.460  36.289  27.072  1.00  0.00    -0.200 F 
ATOM    102  F   UNL A   1      47.281  36.934  29.592  1.00  0.00    -0.200 F 
ENDBRANCH  69  92
ENDBRANCH  43  44
ENDBRANCH  36  38
ENDBRANCH  35  36
ENDBRANCH  34  35
ENDBRANCH  33  34
ENDBRANCH  32  33
ENDBRANCH  31  32
ENDBRANCH  30  31
ENDBRANCH  29  30
ENDBRANCH   1  29
TORSDOF 24
ENDMDL
MODEL 2
REMARK VINA RESULT:      -8.8      6.616     10.577
REMARK SMILES COc1cccc(/C=C(/CC(=O)OCCOCCOCCOCCOC(=O)c2ccc(-c3c4nc(c(-c5c(F)c(F)c(F)c(F)c5F)c5ccc([nH]5)c(-c5c(F)c(F)c(F)c(F)c5F)c5nc(c(-c6c(F)c(F)c(F)c(F)c6F)c6ccc3[nH]6)C=C5)C=C4)cc2)c2nc3ccccc3o2)c1
REMARK SMILES IDX 18 1 17 2 16 3 15 4 14 5 13 6 11 7 12 8 10 9 9 10 8 11 7 12
REMARK SMILES IDX 3 13 4 14 100 15 5 16 6 17 2 18 1 19 91 20 92 21 99 22 93 23
REMARK SMILES IDX 98 24 94 25 97 26 95 27 96 28 19 29 20 30 21 31 22 32 23 33
REMARK SMILES IDX 24 34 25 35 26 36 27 37 28 38 29 39 90 40 30 41 89 42 31 43
REMARK SMILES IDX 32 44 33 45 83 46 34 47 88 48 82 49 84 50 35 51 87 52 81 53
REMARK SMILES IDX 80 54 36 56 68 57 48 58 67 59 49 60 52 61 66 62 85 63 50 64
REMARK SMILES IDX 51 65 65 67 86 68 53 69 37 70 38 71 46 72 39 73 40 74 44 75
REMARK SMILES IDX 47 76 41 77 42 78 45 79 43 80 69 81 70 82 78 83 71 84 72 85
REMARK SMILES IDX 76 86 79 87 73 88 74 89 77 90 75 91 54 92 55 93 63 94 56 95
REMARK SMILES IDX 57 96 61 97 64 98 58 99 59 100 62 101 60 102
REMARK H PARENT 84 55 52 66
REMARK Flexibility Score: inf
ROOT
ATOM      1  C   UNL A   1      44.870  25.141  38.281  1.00  0.00     0.188 C 
ENDROOT
BRANCH   1   2
ATOM      2  C   UNL A   1      43.505  25.826  38.127  1.00  0.00     0.188 C 
BRANCH   2   3
ATOM      3  O   UNL A   1      42.456  25.199  37.405  1.00  0.00    -0.376 OA
BRANCH   3   4
ATOM      4  C   UNL A   1      42.432  25.307  35.995  1.00  0.00     0.202 C 
BRANCH   4   5
ATOM      5  C   UNL A   1      41.550  26.402  35.357  1.00  0.00     0.261 C 
BRANCH   5   6
ATOM      6  O   UNL A   1      41.159  27.525  36.194  1.00  0.00    -0.463 OA
BRANCH   6   7
ATOM      7  C   UNL A   1      41.236  28.766  35.640  1.00  0.00     0.310 C 
ATOM      8  O   UNL A   1      40.950  29.792  36.251  1.00  0.00    -0.252 OA
BRANCH   7   9
ATOM      9  C   UNL A   1      41.565  28.809  34.127  1.00  0.00     0.163 C 
BRANCH   9  10
ATOM     10  C   UNL A   1      40.694  29.481  33.035  1.00  0.00     0.026 C 
ATOM     11  C   UNL A   1      40.599  28.834  31.842  1.00  0.00     0.018 C 
BRANCH  11  12
ATOM     12  C   UNL A   1      39.899  29.005  30.535  1.00  0.00    -0.021 A 
ATOM     13  C   UNL A   1      38.623  30.535  29.087  1.00  0.00     0.119 A 
ATOM     14  C   UNL A   1      38.408  29.503  28.179  1.00  0.00     0.046 A 
ATOM     15  C   UNL A   1      39.371  30.289  30.245  1.00  0.00     0.054 A 
ATOM     16  C   UNL A   1      38.914  28.233  28.439  1.00  0.00     0.004 A 
ATOM     17  C   UNL A   1      39.617  27.981  29.624  1.00  0.00     0.008 A 
BRANCH  13  18
ATOM     18  O   UNL A   1      37.988  31.705  28.773  1.00  0.00    -0.497 OA
ATOM     19  C   UNL A   1      36.921  32.103  29.623  1.00  0.00     0.278 C 
ENDBRANCH  13  18
ENDBRANCH  11  12
BRANCH  10  20
ATOM     20  C   UNL A   1      39.991  30.718  33.331  1.00  0.00     0.223 A 
ATOM     21  N   UNL A   1      38.695  30.762  33.642  1.00  0.00    -0.210 NA
ATOM     22  O   UNL A   1      40.563  31.982  33.432  1.00  0.00    -0.436 OA
ATOM     23  C   UNL A   1      38.478  32.012  34.169  1.00  0.00     0.110 A 
ATOM     24  C   UNL A   1      39.625  32.767  34.042  1.00  0.00     0.155 A 
ATOM     25  C   UNL A   1      37.380  32.546  34.863  1.00  0.00     0.032 A 
ATOM     26  C   UNL A   1      39.785  34.051  34.559  1.00  0.00     0.049 A 
ATOM     27  C   UNL A   1      37.520  33.814  35.451  1.00  0.00     0.003 A 
ATOM     28  C   UNL A   1      38.702  34.553  35.298  1.00  0.00     0.004 A 
ENDBRANCH  10  20
ENDBRANCH   9  10
ENDBRANCH   7   9
ENDBRANCH   6   7
ENDBRANCH   5   6
ENDBRANCH   4   5
ENDBRANCH   3   4
ENDBRANCH   2   3
ENDBRANCH   1   2
BRANCH   1  29
ATOM     29  O   UNL A   1      44.952  24.011  39.118  1.00  0.00    -0.377 OA
BRANCH  29  30
ATOM     30  C   UNL A   1      46.203  23.685  39.690  1.00  0.00     0.188 C 
BRANCH  30  31
ATOM     31  C   UNL A   1      47.186  22.948  38.782  1.00  0.00     0.188 C 
BRANCH  31  32
ATOM     32  O   UNL A   1      47.224  21.518  38.796  1.00  0.00    -0.376 OA
BRANCH  32  33
ATOM     33  C   UNL A   1      46.578  20.759  37.781  1.00  0.00     0.202 C 
BRANCH  33  34
ATOM     34  C   UNL A   1      47.510  20.062  36.805  1.00  0.00     0.261 C 
BRANCH  34  35
ATOM     35  O   UNL A   1      48.114  21.065  35.988  1.00  0.00    -0.460 OA
BRANCH  35  36
ATOM     36  C   UNL A   1      47.516  21.208  34.782  1.00  0.00     0.338 C 
ATOM     37  O   UNL A   1      47.262  20.339  33.979  1.00  0.00    -0.246 OA
BRANCH  36  38
ATOM     38  C   UNL A   1      47.010  22.594  34.695  1.00  0.00     0.060 A 
ATOM     39  C   UNL A   1      45.634  22.790  34.887  1.00  0.00     0.016 A 
ATOM     40  C   UNL A   1      47.861  23.680  34.460  1.00  0.00     0.016 A 
ATOM     41  C   UNL A   1      45.092  24.061  34.772  1.00  0.00     0.010 A 
ATOM     42  C   UNL A   1      47.318  24.949  34.322  1.00  0.00     0.010 A 
ATOM     43  C   UNL A   1      45.928  25.123  34.416  1.00  0.00    -0.014 A 
BRANCH  43  44
ATOM     44  C   UNL A   1      45.337  26.329  33.818  1.00  0.00     0.031 A 
ATOM     45  C   UNL A   1      44.843  26.207  32.404  1.00  0.00     0.074 A 
ATOM     46  C   UNL A   1      45.264  27.477  34.506  1.00  0.00     0.049 A 
ATOM     47  N   UNL A   1      44.419  27.133  31.588  1.00  0.00    -0.248 NA
ATOM     48  C   UNL A   1      44.842  24.849  31.827  1.00  0.00     0.031 C 
ATOM     49  C   UNL A   1      45.669  27.653  35.899  1.00  0.00     0.029 A 
ATOM     50  N   UNL A   1      44.845  28.716  34.109  1.00  0.00    -0.354 N 
ATOM     51  C   UNL A   1      44.116  26.471  30.405  1.00  0.00     0.074 A 
ATOM     52  C   UNL A   1      44.431  25.076  30.591  1.00  0.00     0.031 C 
ATOM     53  C   UNL A   1      45.501  28.944  36.236  1.00  0.00     0.029 A 
ATOM     54  C   UNL A   1      45.024  29.681  35.067  1.00  0.00     0.049 A 
ATOM     55  H   UNL A   1      44.453  28.898  33.224  1.00  0.00     0.167 HD
ATOM     56  C   UNL A   1      43.612  26.995  29.265  1.00  0.00     0.037 A 
ATOM     57  C   UNL A   1      44.852  31.013  34.976  1.00  0.00     0.037 A 
ATOM     58  C   UNL A   1      43.324  28.392  29.108  1.00  0.00     0.049 A 
ATOM     59  C   UNL A   1      44.376  31.585  33.664  1.00  0.00     0.074 A 
ATOM     60  C   UNL A   1      42.825  29.053  28.002  1.00  0.00     0.029 A 
ATOM     61  N   UNL A   1      43.523  29.346  30.097  1.00  0.00    -0.354 N 
ATOM     62  N   UNL A   1      44.086  30.964  32.545  1.00  0.00    -0.248 NA
ATOM     63  C   UNL A   1      44.203  33.042  33.600  1.00  0.00     0.031 C 
ATOM     64  C   UNL A   1      42.774  30.416  28.305  1.00  0.00     0.029 A 
ATOM     65  C   UNL A   1      43.171  30.595  29.623  1.00  0.00     0.049 A 
ATOM     66  H   UNL A   1      43.864  29.160  31.002  1.00  0.00     0.167 HD
ATOM     67  C   UNL A   1      43.648  31.943  31.663  1.00  0.00     0.074 A 
ATOM     68  C   UNL A   1      43.718  33.203  32.377  1.00  0.00     0.031 C 
ATOM     69  C   UNL A   1      43.220  31.818  30.382  1.00  0.00     0.037 A 
BRANCH  56  70
ATOM     70  C   UNL A   1      43.379  26.063  28.112  1.00  0.00     0.064 A 
ATOM     71  C   UNL A   1      42.170  25.367  27.956  1.00  0.00     0.173 A 
ATOM     72  C   UNL A   1      44.371  25.878  27.139  1.00  0.00     0.173 A 
ATOM     73  F   UNL A   1      41.197  25.490  28.871  1.00  0.00    -0.203 F 
ATOM     74  C   UNL A   1      41.974  24.504  26.881  1.00  0.00     0.198 A 
ATOM     75  C   UNL A   1      44.159  25.040  26.047  1.00  0.00     0.198 A 
ATOM     76  F   UNL A   1      45.549  26.513  27.242  1.00  0.00    -0.203 F 
ATOM     77  F   UNL A   1      40.832  23.810  26.781  1.00  0.00    -0.200 F 
ATOM     78  C   UNL A   1      42.963  24.348  25.923  1.00  0.00     0.200 A 
ATOM     79  F   UNL A   1      45.114  24.898  25.117  1.00  0.00    -0.200 F 
ATOM     80  F   UNL A   1      42.769  23.525  24.883  1.00  0.00    -0.200 F 
ENDBRANCH  56  70
BRANCH  57  81
ATOM     81  C   UNL A   1      45.141  31.887  36.143  1.00  0.00     0.064 A 
ATOM     82  C   UNL A   1      46.442  32.345  36.395  1.00  0.00     0.173 A 
ATOM     83  C   UNL A   1      44.132  32.269  37.040  1.00  0.00     0.173 A 
ATOM     84  F   UNL A   1      47.445  31.995  35.577  1.00  0.00    -0.203 F 
ATOM     85  C   UNL A   1      46.727  33.128  37.513  1.00  0.00     0.198 A 
ATOM     86  C   UNL A   1      44.412  33.079  38.140  1.00  0.00     0.198 A 
ATOM     87  F   UNL A   1      42.868  31.863  36.845  1.00  0.00    -0.203 F 
ATOM     88  F   UNL A   1      47.988  33.506  37.758  1.00  0.00    -0.200 F 
ATOM     89  C   UNL A   1      45.711  33.498  38.381  1.00  0.00     0.200 A 
ATOM     90  F   UNL A   1      43.425  33.447  38.967  1.00  0.00    -0.200 F 
ATOM     91  F   UNL A   1      45.986  34.250  39.455  1.00  0.00    -0.200 F 
ENDBRANCH  57  81
BRANCH  69  92
ATOM     92  C   UNL A   1      42.711  33.052  29.698  1.00  0.00     0.064 A 
ATOM     93  C   UNL A   1      41.429  33.563  29.944  1.00  0.00     0.173 A 
ATOM     94  C   UNL A   1      43.562  33.780  28.851  1.00  0.00     0.173 A 
ATOM     95  F   UNL A   1      40.577  32.897  30.737  1.00  0.00    -0.203 F 
ATOM     96  C   UNL A   1      41.014  34.754  29.356  1.00  0.00     0.198 A 
ATOM     97  C   UNL A   1      43.156  34.986  28.294  1.00  0.00     0.198 A 
ATOM     98  F   UNL A   1      44.802  33.335  28.595  1.00  0.00    -0.203 F 
ATOM     99  F   UNL A   1      39.773  35.209  29.576  1.00  0.00    -0.200 F 
ATOM    100  C   UNL A   1      41.880  35.470  28.542  1.00  0.00     0.200 A 
ATOM    101  F   UNL A   1      44.002  35.687  27.526  1.00  0.00    -0.200 F 
ATOM    102  F   UNL A   1      41.486  36.628  27.997  1.00  0.00    -0.200 F 
ENDBRANCH  69  92
ENDBRANCH  43  44
ENDBRANCH  36  38
ENDBRANCH  35  36
ENDBRANCH  34  35
ENDBRANCH  33  34
ENDBRANCH  32  33
ENDBRANCH  31  32
ENDBRANCH  30  31
ENDBRANCH  29  30
ENDBRANCH   1  29
TORSDOF 24
ENDMDL
MODEL 3
REMARK VINA RESULT:      -8.8      4.504     10.037
REMARK SMILES COc1cccc(/C=C(/CC(=O)OCCOCCOCCOCCOC(=O)c2ccc(-c3c4nc(c(-c5c(F)c(F)c(F)c(F)c5F)c5ccc([nH]5)c(-c5c(F)c(F)c(F)c(F)c5F)c5nc(c(-c6c(F)c(F)c(F)c(F)c6F)c6ccc3[nH]6)C=C5)C=C4)cc2)c2nc3ccccc3o2)c1
REMARK SMILES IDX 18 1 17 2 16 3 15 4 14 5 13 6 11 7 12 8 10 9 9 10 8 11 7 12
REMARK SMILES IDX 3 13 4 14 100 15 5 16 6 17 2 18 1 19 91 20 92 21 99 22 93 23
REMARK SMILES IDX 98 24 94 25 97 26 95 27 96 28 19 29 20 30 21 31 22 32 23 33
REMARK SMILES IDX 24 34 25 35 26 36 27 37 28 38 29 39 90 40 30 41 89 42 31 43
REMARK SMILES IDX 32 44 33 45 83 46 34 47 88 48 82 49 84 50 35 51 87 52 81 53
REMARK SMILES IDX 80 54 36 56 68 57 48 58 67 59 49 60 52 61 66 62 85 63 50 64
REMARK SMILES IDX 51 65 65 67 86 68 53 69 37 70 38 71 46 72 39 73 40 74 44 75
REMARK SMILES IDX 47 76 41 77 42 78 45 79 43 80 69 81 70 82 78 83 71 84 72 85
REMARK SMILES IDX 76 86 79 87 73 88 74 89 77 90 75 91 54 92 55 93 63 94 56 95
REMARK SMILES IDX 57 96 61 97 64 98 58 99 59 100 62 101 60 102
REMARK H PARENT 84 55 52 66
REMARK Flexibility Score: inf
ROOT
ATOM      1  C   UNL A   1      33.797  31.129  27.316  1.00  0.00     0.188 C 
ENDROOT
BRANCH   1   2
ATOM      2  C   UNL A   1      33.352  29.768  26.762  1.00  0.00     0.188 C 
BRANCH   2   3
ATOM      3  O   UNL A   1      33.093  28.679  27.634  1.00  0.00    -0.376 OA
BRANCH   3   4
ATOM      4  C   UNL A   1      32.103  27.733  27.278  1.00  0.00     0.202 C 
BRANCH   4   5
ATOM      5  C   UNL A   1      31.935  27.371  25.787  1.00  0.00     0.261 C 
BRANCH   5   6
ATOM      6  O   UNL A   1      31.033  26.279  25.455  1.00  0.00    -0.463 OA
BRANCH   6   7
ATOM      7  C   UNL A   1      31.521  25.014  25.580  1.00  0.00     0.310 C 
ATOM      8  O   UNL A   1      31.352  24.327  26.584  1.00  0.00    -0.252 OA
BRANCH   7   9
ATOM      9  C   UNL A   1      32.441  24.531  24.433  1.00  0.00     0.163 C 
BRANCH   9  10
ATOM     10  C   UNL A   1      33.064  23.116  24.314  1.00  0.00     0.026 C 
ATOM     11  C   UNL A   1      32.209  22.090  24.056  1.00  0.00     0.018 C 
BRANCH  11  12
ATOM     12  C   UNL A   1      32.276  20.618  23.815  1.00  0.00    -0.021 A 
ATOM     13  C   UNL A   1      32.703  18.404  24.805  1.00  0.00     0.119 A 
ATOM     14  C   UNL A   1      32.590  17.816  23.550  1.00  0.00     0.046 A 
ATOM     15  C   UNL A   1      32.534  19.788  24.935  1.00  0.00     0.054 A 
ATOM     16  C   UNL A   1      32.337  18.607  22.433  1.00  0.00     0.004 A 
ATOM     17  C   UNL A   1      32.222  19.997  22.563  1.00  0.00     0.008 A 
BRANCH  13  18
ATOM     18  O   UNL A   1      33.056  17.540  25.805  1.00  0.00    -0.497 OA
ATOM     19  C   UNL A   1      33.893  16.450  25.443  1.00  0.00     0.278 C 
ENDBRANCH  13  18
ENDBRANCH  11  12
BRANCH  10  20
ATOM     20  C   UNL A   1      34.503  22.947  24.429  1.00  0.00     0.223 A 
ATOM     21  N   UNL A   1      35.315  23.906  24.873  1.00  0.00    -0.210 NA
ATOM     22  O   UNL A   1      35.210  21.771  24.201  1.00  0.00    -0.436 OA
ATOM     23  C   UNL A   1      36.508  23.287  25.153  1.00  0.00     0.110 A 
ATOM     24  C   UNL A   1      36.449  21.972  24.741  1.00  0.00     0.155 A 
ATOM     25  C   UNL A   1      37.645  23.737  25.845  1.00  0.00     0.032 A 
ATOM     26  C   UNL A   1      37.453  21.030  24.961  1.00  0.00     0.049 A 
ATOM     27  C   UNL A   1      38.654  22.805  26.139  1.00  0.00     0.003 A 
ATOM     28  C   UNL A   1      38.559  21.477  25.703  1.00  0.00     0.004 A 
ENDBRANCH  10  20
ENDBRANCH   9  10
ENDBRANCH   7   9
ENDBRANCH   6   7
ENDBRANCH   5   6
ENDBRANCH   4   5
ENDBRANCH   3   4
ENDBRANCH   2   3
ENDBRANCH   1   2
BRANCH   1  29
ATOM     29  O   UNL A   1      35.117  31.248  27.793  1.00  0.00    -0.377 OA
BRANCH  29  30
ATOM     30  C   UNL A   1      35.473  32.417  28.502  1.00  0.00     0.188 C 
BRANCH  30  31
ATOM     31  C   UNL A   1      34.765  32.636  29.838  1.00  0.00     0.188 C 
BRANCH  31  32
ATOM     32  O   UNL A   1      35.430  33.355  30.880  1.00  0.00    -0.376 OA
BRANCH  32  33
ATOM     33  C   UNL A   1      35.817  32.707  32.086  1.00  0.00     0.202 C 
BRANCH  33  34
ATOM     34  C   UNL A   1      36.316  33.630  33.184  1.00  0.00     0.261 C 
BRANCH  34  35
ATOM     35  O   UNL A   1      37.670  33.279  33.467  1.00  0.00    -0.460 OA
BRANCH  35  36
ATOM     36  C   UNL A   1      37.791  32.309  34.403  1.00  0.00     0.338 C 
ATOM     37  O   UNL A   1      37.019  32.050  35.298  1.00  0.00    -0.246 OA
BRANCH  36  38
ATOM     38  C   UNL A   1      38.931  31.451  34.015  1.00  0.00     0.060 A 
ATOM     39  C   UNL A   1      40.172  31.723  34.609  1.00  0.00     0.016 A 
ATOM     40  C   UNL A   1      38.786  30.390  33.116  1.00  0.00     0.016 A 
ATOM     41  C   UNL A   1      41.289  30.983  34.252  1.00  0.00     0.010 A 
ATOM     42  C   UNL A   1      39.906  29.661  32.739  1.00  0.00     0.010 A 
ATOM     43  C   UNL A   1      41.163  30.004  33.262  1.00  0.00    -0.014 A 
BRANCH  43  44
ATOM     44  C   UNL A   1      42.362  29.569  32.530  1.00  0.00     0.031 A 
ATOM     45  C   UNL A   1      43.084  28.369  33.073  1.00  0.00     0.074 A 
ATOM     46  C   UNL A   1      42.785  30.231  31.445  1.00  0.00     0.049 A 
ATOM     47  N   UNL A   1      44.235  27.862  32.724  1.00  0.00    -0.248 NA
ATOM     48  C   UNL A   1      42.419  27.649  34.177  1.00  0.00     0.031 C 
ATOM     49  C   UNL A   1      42.103  31.365  30.827  1.00  0.00     0.029 A 
ATOM     50  N   UNL A   1      43.909  30.051  30.687  1.00  0.00    -0.354 N 
ATOM     51  C   UNL A   1      44.433  26.779  33.570  1.00  0.00     0.074 A 
ATOM     52  C   UNL A   1      43.307  26.715  34.471  1.00  0.00     0.031 C 
ATOM     53  C   UNL A   1      42.843  31.801  29.792  1.00  0.00     0.029 A 
ATOM     54  C   UNL A   1      44.065  31.003  29.712  1.00  0.00     0.049 A 
ATOM     55  H   UNL A   1      44.544  29.311  30.827  1.00  0.00     0.167 HD
ATOM     56  C   UNL A   1      45.470  25.912  33.583  1.00  0.00     0.037 A 
ATOM     57  C   UNL A   1      45.105  31.212  28.885  1.00  0.00     0.037 A 
ATOM     58  C   UNL A   1      46.584  26.014  32.684  1.00  0.00     0.049 A 
ATOM     59  C   UNL A   1      46.293  30.288  28.980  1.00  0.00     0.074 A 
ATOM     60  C   UNL A   1      47.705  25.211  32.601  1.00  0.00     0.029 A 
ATOM     61  N   UNL A   1      46.714  26.996  31.711  1.00  0.00    -0.354 N 
ATOM     62  N   UNL A   1      46.483  29.261  29.776  1.00  0.00    -0.248 NA
ATOM     63  C   UNL A   1      47.411  30.548  28.065  1.00  0.00     0.031 C 
ATOM     64  C   UNL A   1      48.539  25.740  31.613  1.00  0.00     0.029 A 
ATOM     65  C   UNL A   1      47.905  26.829  31.030  1.00  0.00     0.049 A 
ATOM     66  H   UNL A   1      46.055  27.706  31.531  1.00  0.00     0.167 HD
ATOM     67  C   UNL A   1      47.714  28.723  29.423  1.00  0.00     0.074 A 
ATOM     68  C   UNL A   1      48.229  29.543  28.345  1.00  0.00     0.031 C 
ATOM     69  C   UNL A   1      48.360  27.647  29.935  1.00  0.00     0.037 A 
BRANCH  56  70
ATOM     70  C   UNL A   1      45.456  24.820  34.612  1.00  0.00     0.064 A 
ATOM     71  C   UNL A   1      45.041  23.516  34.301  1.00  0.00     0.173 A 
ATOM     72  C   UNL A   1      45.881  25.076  35.924  1.00  0.00     0.173 A 
ATOM     73  F   UNL A   1      44.601  23.223  33.068  1.00  0.00    -0.203 F 
ATOM     74  C   UNL A   1      45.030  22.517  35.271  1.00  0.00     0.198 A 
ATOM     75  C   UNL A   1      45.901  24.067  36.883  1.00  0.00     0.198 A 
ATOM     76  F   UNL A   1      46.282  26.307  36.278  1.00  0.00    -0.203 F 
ATOM     77  F   UNL A   1      44.580  21.293  34.964  1.00  0.00    -0.200 F 
ATOM     78  C   UNL A   1      45.469  22.789  36.557  1.00  0.00     0.200 A 
ATOM     79  F   UNL A   1      46.335  24.330  38.123  1.00  0.00    -0.200 F 
ATOM     80  F   UNL A   1      45.469  21.824  37.486  1.00  0.00    -0.200 F 
ENDBRANCH  56  70
BRANCH  57  81
ATOM     81  C   UNL A   1      45.076  32.339  27.915  1.00  0.00     0.064 A 
ATOM     82  C   UNL A   1      44.408  32.217  26.689  1.00  0.00     0.173 A 
ATOM     83  C   UNL A   1      45.727  33.553  28.183  1.00  0.00     0.173 A 
ATOM     84  F   UNL A   1      43.784  31.071  26.378  1.00  0.00    -0.203 F 
ATOM     85  C   UNL A   1      44.415  33.253  25.757  1.00  0.00     0.198 A 
ATOM     86  C   UNL A   1      45.706  34.601  27.264  1.00  0.00     0.198 A 
ATOM     87  F   UNL A   1      46.378  33.727  29.343  1.00  0.00    -0.203 F 
ATOM     88  F   UNL A   1      43.815  33.088  24.571  1.00  0.00    -0.200 F 
ATOM     89  C   UNL A   1      45.060  34.446  26.047  1.00  0.00     0.200 A 
ATOM     90  F   UNL A   1      46.317  35.757  27.555  1.00  0.00    -0.200 F 
ATOM     91  F   UNL A   1      45.067  35.442  25.151  1.00  0.00    -0.200 F 
ENDBRANCH  57  81
BRANCH  69  92
ATOM     92  C   UNL A   1      49.648  27.237  29.284  1.00  0.00     0.064 A 
ATOM     93  C   UNL A   1      50.892  27.672  29.760  1.00  0.00     0.173 A 
ATOM     94  C   UNL A   1      49.630  26.317  28.223  1.00  0.00     0.173 A 
ATOM     95  F   UNL A   1      50.959  28.558  30.764  1.00  0.00    -0.203 F 
ATOM     96  C   UNL A   1      52.074  27.210  29.186  1.00  0.00     0.198 A 
ATOM     97  C   UNL A   1      50.811  25.833  27.677  1.00  0.00     0.198 A 
ATOM     98  F   UNL A   1      48.462  25.864  27.742  1.00  0.00    -0.203 F 
ATOM     99  F   UNL A   1      53.253  27.665  29.631  1.00  0.00    -0.200 F 
ATOM    100  C   UNL A   1      52.033  26.283  28.155  1.00  0.00     0.200 A 
ATOM    101  F   UNL A   1      50.769  24.920  26.696  1.00  0.00    -0.200 F 
ATOM    102  F   UNL A   1      53.171  25.822  27.621  1.00  0.00    -0.200 F 
ENDBRANCH  69  92
ENDBRANCH  43  44
ENDBRANCH  36  38
ENDBRANCH  35  36
ENDBRANCH  34  35
ENDBRANCH  33  34
ENDBRANCH  32  33
ENDBRANCH  31  32
ENDBRANCH  30  31
ENDBRANCH  29  30
ENDBRANCH   1  29
TORSDOF 24
ENDMDL
