MODEL 1
REMARK VINA RESULT:     -10.0      0.000      0.000
REMARK SMILES Cc1cscc1CNC(=O)N[C@@H](C)c1nc(C(=O)OCCOCCOCCOCCOC(=O)c2ccc(-c3c4nc(c(-c5c(F)c(F)c(F)c(F)c5F)c5ccc([nH]5)c(-c5c(F)c(F)c(F)c(F)c5F)c5nc(c(-c6c(F)c(F)c(F)c(F)c6F)c6ccc3[nH]6)C=C5)C=C4)cc2)cs1
REMARK SMILES IDX 24 1 23 2 22 3 21 4 20 5 19 6 17 7 18 8 16 9 14 10 15 11
REMARK SMILES IDX 98 12 97 13 12 14 13 15 11 16 8 17 9 18 10 20 7 22 6 23 1 24
REMARK SMILES IDX 2 25 3 26 4 27 5 28 25 29 26 30 27 31 28 32 29 33 30 34
REMARK SMILES IDX 31 35 32 36 33 37 34 38 35 39 96 40 36 41 95 42 37 43 38 44
REMARK SMILES IDX 39 45 89 46 40 47 94 48 88 49 90 50 41 51 93 52 87 53 86 54
REMARK SMILES IDX 42 56 74 57 54 58 73 59 55 60 58 61 72 62 91 63 56 64 57 65
REMARK SMILES IDX 71 67 92 68 59 69 43 70 44 71 52 72 45 73 46 74 50 75 53 76
REMARK SMILES IDX 47 77 48 78 51 79 49 80 75 81 76 82 84 83 77 84 78 85 82 86
REMARK SMILES IDX 85 87 79 88 80 89 83 90 81 91 60 92 61 93 69 94 62 95 63 96
REMARK SMILES IDX 67 97 70 98 64 99 65 100 68 101 66 102
REMARK H PARENT 8 19 11 21 90 55 58 66
REMARK Flexibility Score: inf
ROOT
ATOM      1  C   UNL A   1      31.148  26.251  26.103  1.00  0.00     0.188 C 
ENDROOT
BRANCH   1   2
ATOM      2  C   UNL A   1      30.171  26.310  24.913  1.00  0.00     0.188 C 
BRANCH   2   3
ATOM      3  O   UNL A   1      29.902  27.621  24.425  1.00  0.00    -0.376 OA
BRANCH   3   4
ATOM      4  C   UNL A   1      30.290  27.894  23.088  1.00  0.00     0.202 C 
BRANCH   4   5
ATOM      5  C   UNL A   1      31.386  28.962  23.020  1.00  0.00     0.261 C 
BRANCH   5   6
ATOM      6  O   UNL A   1      32.584  28.523  22.364  1.00  0.00    -0.458 OA
BRANCH   6   7
ATOM      7  C   UNL A   1      33.351  27.631  23.049  1.00  0.00     0.357 C 
ATOM      8  O   UNL A   1      34.027  27.909  24.034  1.00  0.00    -0.244 OA
BRANCH   7   9
ATOM      9  C   UNL A   1      33.155  26.263  22.577  1.00  0.00     0.159 A 
ATOM     10  C   UNL A   1      32.937  24.054  22.737  1.00  0.00     0.116 A 
ATOM     11  N   UNL A   1      33.133  25.160  23.431  1.00  0.00    -0.232 NA
ATOM     12  S   UNL A   1      32.898  24.260  21.027  1.00  0.00    -0.124 S 
ATOM     13  C   UNL A   1      33.043  25.949  21.234  1.00  0.00     0.102 A 
BRANCH  10  14
ATOM     14  C   UNL A   1      32.707  22.681  23.326  1.00  0.00     0.140 C 
ATOM     15  C   UNL A   1      32.164  21.726  22.263  1.00  0.00     0.039 C 
BRANCH  14  16
ATOM     16  N   UNL A   1      31.767  22.778  24.430  1.00  0.00    -0.329 N 
ATOM     17  N   UNL A   1      32.444  21.210  26.068  1.00  0.00    -0.334 N 
ATOM     18  C   UNL A   1      31.587  22.100  25.564  1.00  0.00     0.315 C 
ATOM     19  H   UNL A   1      32.097  20.786  26.886  1.00  0.00     0.165 HD
ATOM     20  O   UNL A   1      30.565  22.327  26.216  1.00  0.00    -0.249 OA
ATOM     21  H   UNL A   1      31.118  23.509  24.315  1.00  0.00     0.166 HD
BRANCH  17  22
ATOM     22  C   UNL A   1      33.754  20.711  25.714  1.00  0.00     0.154 C 
BRANCH  22  23
ATOM     23  C   UNL A   1      33.671  19.405  24.966  1.00  0.00    -0.015 A 
ATOM     24  C   UNL A   1      36.250  18.985  24.885  1.00  0.00     0.045 C 
ATOM     25  C   UNL A   1      34.832  18.621  24.580  1.00  0.00    -0.035 A 
ATOM     26  C   UNL A   1      34.471  17.485  23.880  1.00  0.00     0.068 A 
ATOM     27  S   UNL A   1      32.785  17.325  23.699  1.00  0.00    -0.152 S 
ATOM     28  C   UNL A   1      32.508  18.782  24.540  1.00  0.00     0.070 A 
ENDBRANCH  22  23
ENDBRANCH  17  22
ENDBRANCH  14  16
ENDBRANCH  10  14
ENDBRANCH   7   9
ENDBRANCH   6   7
ENDBRANCH   5   6
ENDBRANCH   4   5
ENDBRANCH   3   4
ENDBRANCH   2   3
ENDBRANCH   1   2
BRANCH   1  29
ATOM     29  O   UNL A   1      31.025  27.108  27.230  1.00  0.00    -0.377 OA
BRANCH  29  30
ATOM     30  C   UNL A   1      32.063  28.016  27.548  1.00  0.00     0.188 C 
BRANCH  30  31
ATOM     31  C   UNL A   1      32.223  29.252  26.647  1.00  0.00     0.188 C 
BRANCH  31  32
ATOM     32  O   UNL A   1      31.702  30.451  27.217  1.00  0.00    -0.376 OA
BRANCH  32  33
ATOM     33  C   UNL A   1      31.428  31.496  26.292  1.00  0.00     0.202 C 
BRANCH  33  34
ATOM     34  C   UNL A   1      31.750  32.894  26.833  1.00  0.00     0.261 C 
BRANCH  34  35
ATOM     35  O   UNL A   1      32.986  32.989  27.558  1.00  0.00    -0.460 OA
BRANCH  35  36
ATOM     36  C   UNL A   1      33.200  34.113  28.272  1.00  0.00     0.338 C 
ATOM     37  O   UNL A   1      32.511  35.116  28.314  1.00  0.00    -0.246 OA
BRANCH  36  38
ATOM     38  C   UNL A   1      34.358  33.868  29.148  1.00  0.00     0.060 A 
ATOM     39  C   UNL A   1      35.628  34.285  28.727  1.00  0.00     0.016 A 
ATOM     40  C   UNL A   1      34.187  33.226  30.377  1.00  0.00     0.016 A 
ATOM     41  C   UNL A   1      36.742  34.023  29.524  1.00  0.00     0.010 A 
ATOM     42  C   UNL A   1      35.302  32.943  31.161  1.00  0.00     0.010 A 
ATOM     43  C   UNL A   1      36.586  33.307  30.720  1.00  0.00    -0.014 A 
BRANCH  43  44
ATOM     44  C   UNL A   1      37.766  32.716  31.390  1.00  0.00     0.031 A 
ATOM     45  C   UNL A   1      38.464  31.579  30.699  1.00  0.00     0.074 A 
ATOM     46  C   UNL A   1      38.188  33.151  32.589  1.00  0.00     0.049 A 
ATOM     47  N   UNL A   1      39.452  30.831  31.116  1.00  0.00    -0.248 NA
ATOM     48  C   UNL A   1      37.970  31.235  29.355  1.00  0.00     0.031 C 
ATOM     49  C   UNL A   1      37.610  34.263  33.338  1.00  0.00     0.029 A 
ATOM     50  N   UNL A   1      39.197  32.685  33.393  1.00  0.00    -0.354 N 
ATOM     51  C   UNL A   1      39.694  29.929  30.088  1.00  0.00     0.074 A 
ATOM     52  C   UNL A   1      38.740  30.205  29.039  1.00  0.00     0.031 C 
ATOM     53  C   UNL A   1      38.263  34.383  34.509  1.00  0.00     0.029 A 
ATOM     54  C   UNL A   1      39.280  33.335  34.599  1.00  0.00     0.049 A 
ATOM     55  H   UNL A   1      39.802  31.955  33.131  1.00  0.00     0.167 HD
ATOM     56  C   UNL A   1      40.632  28.956  30.027  1.00  0.00     0.037 A 
ATOM     57  C   UNL A   1      40.075  33.089  35.660  1.00  0.00     0.037 A 
ATOM     58  C   UNL A   1      41.567  28.670  31.077  1.00  0.00     0.049 A 
ATOM     59  C   UNL A   1      41.068  31.956  35.594  1.00  0.00     0.074 A 
ATOM     60  C   UNL A   1      42.557  27.704  31.115  1.00  0.00     0.029 A 
ATOM     61  N   UNL A   1      41.620  29.349  32.286  1.00  0.00    -0.354 N 
ATOM     62  N   UNL A   1      41.311  31.122  34.611  1.00  0.00    -0.248 NA
ATOM     63  C   UNL A   1      41.896  31.728  36.787  1.00  0.00     0.031 C 
ATOM     64  C   UNL A   1      43.184  27.773  32.363  1.00  0.00     0.029 A 
ATOM     65  C   UNL A   1      42.616  28.812  33.083  1.00  0.00     0.049 A 
ATOM     66  H   UNL A   1      41.036  30.100  32.537  1.00  0.00     0.167 HD
ATOM     67  C   UNL A   1      42.340  30.299  35.051  1.00  0.00     0.074 A 
ATOM     68  C   UNL A   1      42.677  30.732  36.391  1.00  0.00     0.031 C 
ATOM     69  C   UNL A   1      42.953  29.278  34.404  1.00  0.00     0.037 A 
BRANCH  56  70
ATOM     70  C   UNL A   1      40.663  28.114  28.788  1.00  0.00     0.064 A 
ATOM     71  C   UNL A   1      41.440  28.474  27.677  1.00  0.00     0.173 A 
ATOM     72  C   UNL A   1      39.916  26.929  28.714  1.00  0.00     0.173 A 
ATOM     73  F   UNL A   1      42.155  29.610  27.693  1.00  0.00    -0.203 F 
ATOM     74  C   UNL A   1      41.452  27.688  26.529  1.00  0.00     0.198 A 
ATOM     75  C   UNL A   1      39.950  26.133  27.574  1.00  0.00     0.198 A 
ATOM     76  F   UNL A   1      39.156  26.543  29.750  1.00  0.00    -0.203 F 
ATOM     77  F   UNL A   1      42.167  28.074  25.461  1.00  0.00    -0.200 F 
ATOM     78  C   UNL A   1      40.712  26.516  26.479  1.00  0.00     0.200 A 
ATOM     79  F   UNL A   1      39.240  24.998  27.529  1.00  0.00    -0.200 F 
ATOM     80  F   UNL A   1      40.726  25.759  25.374  1.00  0.00    -0.200 F 
ENDBRANCH  56  70
BRANCH  57  81
ATOM     81  C   UNL A   1      39.962  33.924  36.884  1.00  0.00     0.064 A 
ATOM     82  C   UNL A   1      39.053  33.596  37.899  1.00  0.00     0.173 A 
ATOM     83  C   UNL A   1      40.739  35.079  37.051  1.00  0.00     0.173 A 
ATOM     84  F   UNL A   1      38.267  32.516  37.770  1.00  0.00    -0.203 F 
ATOM     85  C   UNL A   1      38.913  34.401  39.028  1.00  0.00     0.198 A 
ATOM     86  C   UNL A   1      40.616  35.869  38.192  1.00  0.00     0.198 A 
ATOM     87  F   UNL A   1      41.618  35.441  36.106  1.00  0.00    -0.203 F 
ATOM     88  F   UNL A   1      38.005  34.089  39.962  1.00  0.00    -0.200 F 
ATOM     89  C   UNL A   1      39.699  35.535  39.176  1.00  0.00     0.200 A 
ATOM     90  F   UNL A   1      41.381  36.961  38.334  1.00  0.00    -0.200 F 
ATOM     91  F   UNL A   1      39.563  36.309  40.261  1.00  0.00    -0.200 F 
ENDBRANCH  57  81
BRANCH  69  92
ATOM     92  C   UNL A   1      44.088  28.593  35.103  1.00  0.00     0.064 A 
ATOM     93  C   UNL A   1      45.399  29.084  35.037  1.00  0.00     0.173 A 
ATOM     94  C   UNL A   1      43.842  27.472  35.911  1.00  0.00     0.173 A 
ATOM     95  F   UNL A   1      45.684  30.145  34.268  1.00  0.00    -0.203 F 
ATOM     96  C   UNL A   1      46.427  28.468  35.745  1.00  0.00     0.198 A 
ATOM     97  C   UNL A   1      44.869  26.874  36.637  1.00  0.00     0.198 A 
ATOM     98  F   UNL A   1      42.603  26.971  36.014  1.00  0.00    -0.203 F 
ATOM     99  F   UNL A   1      47.680  28.933  35.644  1.00  0.00    -0.200 F 
ATOM    100  C   UNL A   1      46.160  27.370  36.550  1.00  0.00     0.200 A 
ATOM    101  F   UNL A   1      44.606  25.823  37.425  1.00  0.00    -0.200 F 
ATOM    102  F   UNL A   1      47.149  26.788  37.242  1.00  0.00    -0.200 F 
ENDBRANCH  69  92
ENDBRANCH  43  44
ENDBRANCH  36  38
ENDBRANCH  35  36
ENDBRANCH  34  35
ENDBRANCH  33  34
ENDBRANCH  32  33
ENDBRANCH  31  32
ENDBRANCH  30  31
ENDBRANCH  29  30
ENDBRANCH   1  29
TORSDOF 24
ENDMDL
MODEL 2
REMARK VINA RESULT:      -9.4      4.804     11.702
REMARK SMILES Cc1cscc1CNC(=O)N[C@@H](C)c1nc(C(=O)OCCOCCOCCOCCOC(=O)c2ccc(-c3c4nc(c(-c5c(F)c(F)c(F)c(F)c5F)c5ccc([nH]5)c(-c5c(F)c(F)c(F)c(F)c5F)c5nc(c(-c6c(F)c(F)c(F)c(F)c6F)c6ccc3[nH]6)C=C5)C=C4)cc2)cs1
REMARK SMILES IDX 24 1 23 2 22 3 21 4 20 5 19 6 17 7 18 8 16 9 14 10 15 11
REMARK SMILES IDX 98 12 97 13 12 14 13 15 11 16 8 17 9 18 10 20 7 22 6 23 1 24
REMARK SMILES IDX 2 25 3 26 4 27 5 28 25 29 26 30 27 31 28 32 29 33 30 34
REMARK SMILES IDX 31 35 32 36 33 37 34 38 35 39 96 40 36 41 95 42 37 43 38 44
REMARK SMILES IDX 39 45 89 46 40 47 94 48 88 49 90 50 41 51 93 52 87 53 86 54
REMARK SMILES IDX 42 56 74 57 54 58 73 59 55 60 58 61 72 62 91 63 56 64 57 65
REMARK SMILES IDX 71 67 92 68 59 69 43 70 44 71 52 72 45 73 46 74 50 75 53 76
REMARK SMILES IDX 47 77 48 78 51 79 49 80 75 81 76 82 84 83 77 84 78 85 82 86
REMARK SMILES IDX 85 87 79 88 80 89 83 90 81 91 60 92 61 93 69 94 62 95 63 96
REMARK SMILES IDX 67 97 70 98 64 99 65 100 68 101 66 102
REMARK H PARENT 8 19 11 21 90 55 58 66
REMARK Flexibility Score: inf
ROOT
ATOM      1  C   UNL A   1      44.193  23.747  30.869  1.00  0.00     0.188 C 
ENDROOT
BRANCH   1   2
ATOM      2  C   UNL A   1      44.075  23.003  29.525  1.00  0.00     0.188 C 
BRANCH   2   3
ATOM      3  O   UNL A   1      42.740  22.779  29.081  1.00  0.00    -0.376 OA
BRANCH   3   4
ATOM      4  C   UNL A   1      42.568  21.840  28.032  1.00  0.00     0.202 C 
BRANCH   4   5
ATOM      5  C   UNL A   1      42.018  22.498  26.763  1.00  0.00     0.261 C 
BRANCH   5   6
ATOM      6  O   UNL A   1      40.718  22.024  26.381  1.00  0.00    -0.458 OA
BRANCH   6   7
ATOM      7  C   UNL A   1      39.656  22.686  26.917  1.00  0.00     0.357 C 
ATOM      8  O   UNL A   1      39.718  23.418  27.899  1.00  0.00    -0.244 OA
BRANCH   7   9
ATOM      9  C   UNL A   1      38.457  22.556  26.093  1.00  0.00     0.159 A 
ATOM     10  C   UNL A   1      36.460  23.113  25.285  1.00  0.00     0.116 A 
ATOM     11  N   UNL A   1      37.407  23.475  26.129  1.00  0.00    -0.232 NA
ATOM     12  S   UNL A   1      36.715  21.598  24.504  1.00  0.00    -0.124 S 
ATOM     13  C   UNL A   1      38.240  21.473  25.262  1.00  0.00     0.102 A 
BRANCH  10  14
ATOM     14  C   UNL A   1      35.238  23.932  24.937  1.00  0.00     0.140 C 
ATOM     15  C   UNL A   1      34.202  23.852  26.059  1.00  0.00     0.039 C 
BRANCH  14  16
ATOM     16  N   UNL A   1      34.662  23.440  23.697  1.00  0.00    -0.329 N 
ATOM     17  N   UNL A   1      33.205  25.120  22.886  1.00  0.00    -0.334 N 
ATOM     18  C   UNL A   1      33.730  23.893  22.858  1.00  0.00     0.315 C 
ATOM     19  H   UNL A   1      32.497  25.233  22.212  1.00  0.00     0.165 HD
ATOM     20  O   UNL A   1      33.337  23.134  21.968  1.00  0.00    -0.249 OA
ATOM     21  H   UNL A   1      35.047  22.580  23.413  1.00  0.00     0.166 HD
BRANCH  17  22
ATOM     22  C   UNL A   1      33.416  26.324  23.657  1.00  0.00     0.154 C 
BRANCH  22  23
ATOM     23  C   UNL A   1      32.271  27.292  23.507  1.00  0.00    -0.015 A 
ATOM     24  C   UNL A   1      33.240  29.101  25.126  1.00  0.00     0.045 C 
ATOM     25  C   UNL A   1      32.196  28.568  24.198  1.00  0.00    -0.035 A 
ATOM     26  C   UNL A   1      31.026  29.242  23.901  1.00  0.00     0.068 A 
ATOM     27  S   UNL A   1      30.036  28.398  22.802  1.00  0.00    -0.152 S 
ATOM     28  C   UNL A   1      31.147  27.109  22.715  1.00  0.00     0.070 A 
ENDBRANCH  22  23
ENDBRANCH  17  22
ENDBRANCH  14  16
ENDBRANCH  10  14
ENDBRANCH   7   9
ENDBRANCH   6   7
ENDBRANCH   5   6
ENDBRANCH   4   5
ENDBRANCH   3   4
ENDBRANCH   2   3
ENDBRANCH   1   2
BRANCH   1  29
ATOM     29  O   UNL A   1      44.404  23.065  32.098  1.00  0.00    -0.377 OA
BRANCH  29  30
ATOM     30  C   UNL A   1      44.650  23.798  33.284  1.00  0.00     0.188 C 
BRANCH  30  31
ATOM     31  C   UNL A   1      44.696  23.013  34.605  1.00  0.00     0.188 C 
BRANCH  31  32
ATOM     32  O   UNL A   1      46.000  22.924  35.176  1.00  0.00    -0.376 OA
BRANCH  32  33
ATOM     33  C   UNL A   1      46.709  24.152  35.271  1.00  0.00     0.202 C 
BRANCH  33  34
ATOM     34  C   UNL A   1      47.146  24.499  36.699  1.00  0.00     0.261 C 
BRANCH  34  35
ATOM     35  O   UNL A   1      46.076  24.860  37.586  1.00  0.00    -0.460 OA
BRANCH  35  36
ATOM     36  C   UNL A   1      45.858  26.175  37.791  1.00  0.00     0.338 C 
ATOM     37  O   UNL A   1      46.331  26.886  38.659  1.00  0.00    -0.246 OA
BRANCH  36  38
ATOM     38  C   UNL A   1      45.051  26.672  36.663  1.00  0.00     0.060 A 
ATOM     39  C   UNL A   1      45.488  27.802  35.960  1.00  0.00     0.016 A 
ATOM     40  C   UNL A   1      43.866  26.021  36.308  1.00  0.00     0.016 A 
ATOM     41  C   UNL A   1      44.713  28.311  34.918  1.00  0.00     0.010 A 
ATOM     42  C   UNL A   1      43.082  26.544  35.283  1.00  0.00     0.010 A 
ATOM     43  C   UNL A   1      43.484  27.711  34.611  1.00  0.00    -0.014 A 
BRANCH  43  44
ATOM     44  C   UNL A   1      42.499  28.427  33.770  1.00  0.00     0.031 A 
ATOM     45  C   UNL A   1      41.520  29.334  34.462  1.00  0.00     0.074 A 
ATOM     46  C   UNL A   1      42.450  28.255  32.439  1.00  0.00     0.049 A 
ATOM     47  N   UNL A   1      40.504  29.994  33.970  1.00  0.00    -0.248 NA
ATOM     48  C   UNL A   1      41.713  29.513  35.911  1.00  0.00     0.031 C 
ATOM     49  C   UNL A   1      43.363  27.426  31.657  1.00  0.00     0.029 A 
ATOM     50  N   UNL A   1      41.571  28.761  31.514  1.00  0.00    -0.354 N 
ATOM     51  C   UNL A   1      39.937  30.661  35.047  1.00  0.00     0.074 A 
ATOM     52  C   UNL A   1      40.704  30.312  36.222  1.00  0.00     0.031 C 
ATOM     53  C   UNL A   1      42.985  27.463  30.366  1.00  0.00     0.029 A 
ATOM     54  C   UNL A   1      41.786  28.292  30.241  1.00  0.00     0.049 A 
ATOM     55  H   UNL A   1      40.857  29.398  31.740  1.00  0.00     0.167 HD
ATOM     56  C   UNL A   1      38.870  31.492  35.056  1.00  0.00     0.037 A 
ATOM     57  C   UNL A   1      41.074  28.495  29.115  1.00  0.00     0.037 A 
ATOM     58  C   UNL A   1      38.097  31.823  33.892  1.00  0.00     0.049 A 
ATOM     59  C   UNL A   1      39.849  29.373  29.162  1.00  0.00     0.074 A 
ATOM     60  C   UNL A   1      36.996  32.654  33.794  1.00  0.00     0.029 A 
ATOM     61  N   UNL A   1      38.344  31.327  32.621  1.00  0.00    -0.354 N 
ATOM     62  N   UNL A   1      39.331  30.022  30.177  1.00  0.00    -0.248 NA
ATOM     63  C   UNL A   1      39.106  29.545  27.905  1.00  0.00     0.031 C 
ATOM     64  C   UNL A   1      36.552  32.631  32.468  1.00  0.00     0.029 A 
ATOM     65  C   UNL A   1      37.405  31.823  31.733  1.00  0.00     0.049 A 
ATOM     66  H   UNL A   1      39.077  30.714  32.385  1.00  0.00     0.167 HD
ATOM     67  C   UNL A   1      38.230  30.705  29.676  1.00  0.00     0.074 A 
ATOM     68  C   UNL A   1      38.152  30.392  28.265  1.00  0.00     0.031 C 
ATOM     69  C   UNL A   1      37.363  31.519  30.325  1.00  0.00     0.037 A 
BRANCH  56  70
ATOM     70  C   UNL A   1      38.466  32.072  36.376  1.00  0.00     0.064 A 
ATOM     71  C   UNL A   1      38.775  33.397  36.721  1.00  0.00     0.173 A 
ATOM     72  C   UNL A   1      37.752  31.299  37.304  1.00  0.00     0.173 A 
ATOM     73  F   UNL A   1      39.474  34.168  35.873  1.00  0.00    -0.203 F 
ATOM     74  C   UNL A   1      38.402  33.919  37.955  1.00  0.00     0.198 A 
ATOM     75  C   UNL A   1      37.360  31.833  38.527  1.00  0.00     0.198 A 
ATOM     76  F   UNL A   1      37.435  30.027  37.022  1.00  0.00    -0.203 F 
ATOM     77  F   UNL A   1      38.746  35.174  38.281  1.00  0.00    -0.200 F 
ATOM     78  C   UNL A   1      37.691  33.140  38.855  1.00  0.00     0.200 A 
ATOM     79  F   UNL A   1      36.667  31.082  39.393  1.00  0.00    -0.200 F 
ATOM     80  F   UNL A   1      37.330  33.645  40.042  1.00  0.00    -0.200 F 
ENDBRANCH  56  70
BRANCH  57  81
ATOM     81  C   UNL A   1      41.493  27.850  27.844  1.00  0.00     0.064 A 
ATOM     82  C   UNL A   1      40.719  26.837  27.261  1.00  0.00     0.173 A 
ATOM     83  C   UNL A   1      42.685  28.213  27.202  1.00  0.00     0.173 A 
ATOM     84  F   UNL A   1      39.585  26.435  27.855  1.00  0.00    -0.203 F 
ATOM     85  C   UNL A   1      41.131  26.199  26.093  1.00  0.00     0.198 A 
ATOM     86  C   UNL A   1      43.083  27.591  26.019  1.00  0.00     0.198 A 
ATOM     87  F   UNL A   1      43.464  29.171  27.723  1.00  0.00    -0.203 F 
ATOM     88  F   UNL A   1      40.396  25.202  25.581  1.00  0.00    -0.200 F 
ATOM     89  C   UNL A   1      42.310  26.581  25.470  1.00  0.00     0.200 A 
ATOM     90  F   UNL A   1      44.220  27.966  25.417  1.00  0.00    -0.200 F 
ATOM     91  F   UNL A   1      42.706  25.966  24.347  1.00  0.00    -0.200 F 
ENDBRANCH  57  81
BRANCH  69  92
ATOM     92  C   UNL A   1      36.289  32.180  29.514  1.00  0.00     0.064 A 
ATOM     93  C   UNL A   1      35.200  31.460  29.007  1.00  0.00     0.173 A 
ATOM     94  C   UNL A   1      36.316  33.568  29.309  1.00  0.00     0.173 A 
ATOM     95  F   UNL A   1      35.137  30.129  29.167  1.00  0.00    -0.203 F 
ATOM     96  C   UNL A   1      34.181  32.104  28.309  1.00  0.00     0.198 A 
ATOM     97  C   UNL A   1      35.283  34.212  28.633  1.00  0.00     0.198 A 
ATOM     98  F   UNL A   1      37.333  34.302  29.784  1.00  0.00    -0.203 F 
ATOM     99  F   UNL A   1      33.164  31.393  27.805  1.00  0.00    -0.200 F 
ATOM    100  C   UNL A   1      34.219  33.479  28.132  1.00  0.00     0.200 A 
ATOM    101  F   UNL A   1      35.315  35.542  28.474  1.00  0.00    -0.200 F 
ATOM    102  F   UNL A   1      33.231  34.099  27.472  1.00  0.00    -0.200 F 
ENDBRANCH  69  92
ENDBRANCH  43  44
ENDBRANCH  36  38
ENDBRANCH  35  36
ENDBRANCH  34  35
ENDBRANCH  33  34
ENDBRANCH  32  33
ENDBRANCH  31  32
ENDBRANCH  30  31
ENDBRANCH  29  30
ENDBRANCH   1  29
TORSDOF 24
ENDMDL
MODEL 3
REMARK VINA RESULT:      -9.1      2.953      8.161
REMARK SMILES Cc1cscc1CNC(=O)N[C@@H](C)c1nc(C(=O)OCCOCCOCCOCCOC(=O)c2ccc(-c3c4nc(c(-c5c(F)c(F)c(F)c(F)c5F)c5ccc([nH]5)c(-c5c(F)c(F)c(F)c(F)c5F)c5nc(c(-c6c(F)c(F)c(F)c(F)c6F)c6ccc3[nH]6)C=C5)C=C4)cc2)cs1
REMARK SMILES IDX 24 1 23 2 22 3 21 4 20 5 19 6 17 7 18 8 16 9 14 10 15 11
REMARK SMILES IDX 98 12 97 13 12 14 13 15 11 16 8 17 9 18 10 20 7 22 6 23 1 24
REMARK SMILES IDX 2 25 3 26 4 27 5 28 25 29 26 30 27 31 28 32 29 33 30 34
REMARK SMILES IDX 31 35 32 36 33 37 34 38 35 39 96 40 36 41 95 42 37 43 38 44
REMARK SMILES IDX 39 45 89 46 40 47 94 48 88 49 90 50 41 51 93 52 87 53 86 54
REMARK SMILES IDX 42 56 74 57 54 58 73 59 55 60 58 61 72 62 91 63 56 64 57 65
REMARK SMILES IDX 71 67 92 68 59 69 43 70 44 71 52 72 45 73 46 74 50 75 53 76
REMARK SMILES IDX 47 77 48 78 51 79 49 80 75 81 76 82 84 83 77 84 78 85 82 86
REMARK SMILES IDX 85 87 79 88 80 89 83 90 81 91 60 92 61 93 69 94 62 95 63 96
REMARK SMILES IDX 67 97 70 98 64 99 65 100 68 101 66 102
REMARK H PARENT 8 19 11 21 90 55 58 66
REMARK Flexibility Score: inf
ROOT
ATOM      1  C   UNL A   1      32.785  30.213  26.428  1.00  0.00     0.188 C 
ENDROOT
BRANCH   1   2
ATOM      2  C   UNL A   1      33.156  29.145  25.380  1.00  0.00     0.188 C 
BRANCH   2   3
ATOM      3  O   UNL A   1      32.067  28.684  24.587  1.00  0.00    -0.376 OA
BRANCH   3   4
ATOM      4  C   UNL A   1      32.140  28.945  23.194  1.00  0.00     0.202 C 
BRANCH   4   5
ATOM      5  C   UNL A   1      32.888  27.838  22.445  1.00  0.00     0.261 C 
BRANCH   5   6
ATOM      6  O   UNL A   1      32.030  26.821  21.908  1.00  0.00    -0.458 OA
BRANCH   6   7
ATOM      7  C   UNL A   1      32.638  25.848  21.176  1.00  0.00     0.357 C 
ATOM      8  O   UNL A   1      32.973  25.969  20.002  1.00  0.00    -0.244 OA
BRANCH   7   9
ATOM      9  C   UNL A   1      32.997  24.690  21.992  1.00  0.00     0.159 A 
ATOM     10  C   UNL A   1      34.330  23.342  23.157  1.00  0.00     0.116 A 
ATOM     11  N   UNL A   1      34.296  24.450  22.441  1.00  0.00    -0.232 NA
ATOM     12  S   UNL A   1      32.846  22.467  23.222  1.00  0.00    -0.124 S 
ATOM     13  C   UNL A   1      32.085  23.706  22.328  1.00  0.00     0.102 A 
BRANCH  10  14
ATOM     14  C   UNL A   1      35.525  22.835  23.930  1.00  0.00     0.140 C 
ATOM     15  C   UNL A   1      36.796  22.945  23.087  1.00  0.00     0.039 C 
BRANCH  14  16
ATOM     16  N   UNL A   1      35.304  21.451  24.313  1.00  0.00    -0.329 N 
ATOM     17  N   UNL A   1      34.905  21.424  26.646  1.00  0.00    -0.334 N 
ATOM     18  C   UNL A   1      35.127  20.822  25.475  1.00  0.00     0.315 C 
ATOM     19  H   UNL A   1      34.854  20.778  27.388  1.00  0.00     0.165 HD
ATOM     20  O   UNL A   1      35.142  19.589  25.471  1.00  0.00    -0.249 OA
ATOM     21  H   UNL A   1      35.278  20.842  23.540  1.00  0.00     0.166 HD
BRANCH  17  22
ATOM     22  C   UNL A   1      34.723  22.784  27.098  1.00  0.00     0.154 C 
BRANCH  22  23
ATOM     23  C   UNL A   1      33.331  23.286  26.812  1.00  0.00    -0.015 A 
ATOM     24  C   UNL A   1      34.076  25.616  25.890  1.00  0.00     0.045 C 
ATOM     25  C   UNL A   1      33.044  24.600  26.262  1.00  0.00    -0.035 A 
ATOM     26  C   UNL A   1      31.684  24.811  26.128  1.00  0.00     0.068 A 
ATOM     27  S   UNL A   1      30.753  23.472  26.617  1.00  0.00    -0.152 S 
ATOM     28  C   UNL A   1      32.152  22.590  27.032  1.00  0.00     0.070 A 
ENDBRANCH  22  23
ENDBRANCH  17  22
ENDBRANCH  14  16
ENDBRANCH  10  14
ENDBRANCH   7   9
ENDBRANCH   6   7
ENDBRANCH   5   6
ENDBRANCH   4   5
ENDBRANCH   3   4
ENDBRANCH   2   3
ENDBRANCH   1   2
BRANCH   1  29
ATOM     29  O   UNL A   1      33.552  30.417  27.607  1.00  0.00    -0.377 OA
BRANCH  29  30
ATOM     30  C   UNL A   1      34.337  31.586  27.750  1.00  0.00     0.188 C 
BRANCH  30  31
ATOM     31  C   UNL A   1      33.612  32.940  27.677  1.00  0.00     0.188 C 
BRANCH  31  32
ATOM     32  O   UNL A   1      34.473  34.064  27.845  1.00  0.00    -0.376 OA
BRANCH  32  33
ATOM     33  C   UNL A   1      34.040  35.026  28.799  1.00  0.00     0.202 C 
BRANCH  33  34
ATOM     34  C   UNL A   1      34.322  34.621  30.250  1.00  0.00     0.261 C 
BRANCH  34  35
ATOM     35  O   UNL A   1      35.409  33.698  30.418  1.00  0.00    -0.460 OA
BRANCH  35  36
ATOM     36  C   UNL A   1      35.193  32.624  31.204  1.00  0.00     0.338 C 
ATOM     37  O   UNL A   1      34.169  32.315  31.786  1.00  0.00    -0.246 OA
BRANCH  36  38
ATOM     38  C   UNL A   1      36.387  31.765  31.120  1.00  0.00     0.060 A 
ATOM     39  C   UNL A   1      36.411  30.562  31.838  1.00  0.00     0.016 A 
ATOM     40  C   UNL A   1      37.477  32.153  30.336  1.00  0.00     0.016 A 
ATOM     41  C   UNL A   1      37.551  29.759  31.804  1.00  0.00     0.010 A 
ATOM     42  C   UNL A   1      38.623  31.362  30.322  1.00  0.00     0.010 A 
ATOM     43  C   UNL A   1      38.677  30.183  31.085  1.00  0.00    -0.014 A 
BRANCH  43  44
ATOM     44  C   UNL A   1      39.990  29.542  31.318  1.00  0.00     0.031 A 
ATOM     45  C   UNL A   1      40.844  30.085  32.429  1.00  0.00     0.074 A 
ATOM     46  C   UNL A   1      40.429  28.532  30.548  1.00  0.00     0.049 A 
ATOM     47  N   UNL A   1      42.065  29.769  32.773  1.00  0.00    -0.248 NA
ATOM     48  C   UNL A   1      40.235  31.137  33.261  1.00  0.00     0.031 C 
ATOM     49  C   UNL A   1      39.679  27.905  29.464  1.00  0.00     0.029 A 
ATOM     50  N   UNL A   1      41.632  27.873  30.557  1.00  0.00    -0.354 N 
ATOM     51  C   UNL A   1      42.369  30.583  33.855  1.00  0.00     0.074 A 
ATOM     52  C   UNL A   1      41.219  31.423  34.100  1.00  0.00     0.031 C 
ATOM     53  C   UNL A   1      40.449  26.960  28.895  1.00  0.00     0.029 A 
ATOM     54  C   UNL A   1      41.753  26.941  29.556  1.00  0.00     0.049 A 
ATOM     55  H   UNL A   1      42.339  28.049  31.218  1.00  0.00     0.167 HD
ATOM     56  C   UNL A   1      43.509  30.625  34.582  1.00  0.00     0.037 A 
ATOM     57  C   UNL A   1      42.811  26.183  29.205  1.00  0.00     0.037 A 
ATOM     58  C   UNL A   1      44.659  29.804  34.328  1.00  0.00     0.049 A 
ATOM     59  C   UNL A   1      44.095  26.296  29.989  1.00  0.00     0.074 A 
ATOM     60  C   UNL A   1      45.864  29.770  35.004  1.00  0.00     0.029 A 
ATOM     61  N   UNL A   1      44.745  28.873  33.303  1.00  0.00    -0.354 N 
ATOM     62  N   UNL A   1      44.370  27.047  31.028  1.00  0.00    -0.248 NA
ATOM     63  C   UNL A   1      45.217  25.453  29.550  1.00  0.00     0.031 C 
ATOM     64  C   UNL A   1      46.696  28.846  34.365  1.00  0.00     0.029 A 
ATOM     65  C   UNL A   1      45.991  28.271  33.319  1.00  0.00     0.049 A 
ATOM     66  H   UNL A   1      44.027  28.672  32.660  1.00  0.00     0.167 HD
ATOM     67  C   UNL A   1      45.677  26.744  31.387  1.00  0.00     0.074 A 
ATOM     68  C   UNL A   1      46.143  25.739  30.456  1.00  0.00     0.031 C 
ATOM     69  C   UNL A   1      46.424  27.251  32.398  1.00  0.00     0.037 A 
BRANCH  56  70
ATOM     70  C   UNL A   1      43.570  31.618  35.702  1.00  0.00     0.064 A 
ATOM     71  C   UNL A   1      43.138  31.290  36.996  1.00  0.00     0.173 A 
ATOM     72  C   UNL A   1      44.074  32.908  35.482  1.00  0.00     0.173 A 
ATOM     73  F   UNL A   1      42.628  30.075  37.249  1.00  0.00    -0.203 F 
ATOM     74  C   UNL A   1      43.190  32.226  38.025  1.00  0.00     0.198 A 
ATOM     75  C   UNL A   1      44.147  33.833  36.520  1.00  0.00     0.198 A 
ATOM     76  F   UNL A   1      44.498  33.270  34.263  1.00  0.00    -0.203 F 
ATOM     77  F   UNL A   1      42.730  31.906  39.244  1.00  0.00    -0.200 F 
ATOM     78  C   UNL A   1      43.699  33.494  37.788  1.00  0.00     0.200 A 
ATOM     79  F   UNL A   1      44.646  35.055  36.291  1.00  0.00    -0.200 F 
ATOM     80  F   UNL A   1      43.751  34.393  38.780  1.00  0.00    -0.200 F 
ENDBRANCH  56  70
BRANCH  57  81
ATOM     81  C   UNL A   1      42.710  25.253  28.051  1.00  0.00     0.064 A 
ATOM     82  C   UNL A   1      42.436  23.892  28.243  1.00  0.00     0.173 A 
ATOM     83  C   UNL A   1      42.910  25.700  26.737  1.00  0.00     0.173 A 
ATOM     84  F   UNL A   1      42.267  23.413  29.485  1.00  0.00    -0.203 F 
ATOM     85  C   UNL A   1      42.384  23.009  27.167  1.00  0.00     0.198 A 
ATOM     86  C   UNL A   1      42.832  24.820  25.659  1.00  0.00     0.198 A 
ATOM     87  F   UNL A   1      43.182  26.991  26.500  1.00  0.00    -0.203 F 
ATOM     88  F   UNL A   1      42.166  21.705  27.383  1.00  0.00    -0.200 F 
ATOM     89  C   UNL A   1      42.577  23.475  25.874  1.00  0.00     0.200 A 
ATOM     90  F   UNL A   1      43.014  25.275  24.411  1.00  0.00    -0.200 F 
ATOM     91  F   UNL A   1      42.527  22.625  24.840  1.00  0.00    -0.200 F 
ENDBRANCH  57  81
BRANCH  69  92
ATOM     92  C   UNL A   1      47.800  26.690  32.594  1.00  0.00     0.064 A 
ATOM     93  C   UNL A   1      48.935  27.322  32.070  1.00  0.00     0.173 A 
ATOM     94  C   UNL A   1      47.987  25.546  33.385  1.00  0.00     0.173 A 
ATOM     95  F   UNL A   1      48.805  28.412  31.298  1.00  0.00    -0.203 F 
ATOM     96  C   UNL A   1      50.210  26.819  32.317  1.00  0.00     0.198 A 
ATOM     97  C   UNL A   1      49.265  25.060  33.651  1.00  0.00     0.198 A 
ATOM     98  F   UNL A   1      46.933  24.912  33.917  1.00  0.00    -0.203 F 
ATOM     99  F   UNL A   1      51.281  27.419  31.780  1.00  0.00    -0.200 F 
ATOM    100  C   UNL A   1      50.374  25.695  33.113  1.00  0.00     0.200 A 
ATOM    101  F   UNL A   1      49.422  23.983  34.431  1.00  0.00    -0.200 F 
ATOM    102  F   UNL A   1      51.602  25.222  33.362  1.00  0.00    -0.200 F 
ENDBRANCH  69  92
ENDBRANCH  43  44
ENDBRANCH  36  38
ENDBRANCH  35  36
ENDBRANCH  34  35
ENDBRANCH  33  34
ENDBRANCH  32  33
ENDBRANCH  31  32
ENDBRANCH  30  31
ENDBRANCH  29  30
ENDBRANCH   1  29
TORSDOF 24
ENDMDL
