MODEL 1
REMARK VINA RESULT:      -8.7      0.000      0.000
REMARK SMILES COc1cc(NC(=O)CN2C(=O)c3ccccc3C2=O)c(C(=O)OCCOCCOCCOCCOC(=O)c2ccc(-c3c4nc(c(-c5c(F)c(F)c(F)c(F)c5F)c5ccc([nH]5)c(-c5c(F)c(F)c(F)c(F)c5F)c5nc(c(-c6c(F)c(F)c(F)c(F)c6F)c6ccc3[nH]6)C=C5)C=C4)cc2)cc1OC
REMARK SMILES IDX 29 1 28 2 27 3 26 4 25 5 24 6 22 7 23 8 21 9 3 10 4 11
REMARK SMILES IDX 103 12 5 13 102 14 2 15 1 16 104 17 105 18 6 19 7 20 8 22
REMARK SMILES IDX 9 23 10 24 11 25 19 26 12 27 13 28 18 29 20 30 14 31 17 32
REMARK SMILES IDX 15 33 16 34 30 35 31 36 32 37 33 38 34 39 35 40 36 41 37 42
REMARK SMILES IDX 38 43 39 44 40 45 101 46 41 47 100 48 42 49 43 50 44 51
REMARK SMILES IDX 94 52 45 53 99 54 93 55 95 56 46 57 98 58 92 59 91 60 47 62
REMARK SMILES IDX 79 63 59 64 78 65 60 66 63 67 77 68 96 69 61 70 62 71 76 73
REMARK SMILES IDX 97 74 64 75 48 76 49 77 57 78 50 79 51 80 55 81 58 82 52 83
REMARK SMILES IDX 53 84 56 85 54 86 80 87 81 88 89 89 82 90 83 91 87 92 90 93
REMARK SMILES IDX 84 94 85 95 88 96 86 97 65 98 66 99 74 100 67 101 68 102
REMARK SMILES IDX 72 103 75 104 69 105 70 106 73 107 71 108
REMARK H PARENT 6 21 95 61 63 72
REMARK Flexibility Score: inf
ROOT
ATOM      1  C   UNL A   1      37.699  32.267  34.242  1.00  0.00     0.188 C 
ENDROOT
BRANCH   1   2
ATOM      2  C   UNL A   1      38.314  31.593  35.486  1.00  0.00     0.188 C 
BRANCH   2   3
ATOM      3  O   UNL A   1      38.409  32.468  36.598  1.00  0.00    -0.376 OA
BRANCH   3   4
ATOM      4  C   UNL A   1      37.911  32.057  37.854  1.00  0.00     0.202 C 
BRANCH   4   5
ATOM      5  C   UNL A   1      37.010  32.993  38.672  1.00  0.00     0.261 C 
BRANCH   5   6
ATOM      6  O   UNL A   1      36.807  32.673  40.051  1.00  0.00    -0.460 OA
BRANCH   6   7
ATOM      7  C   UNL A   1      35.841  31.784  40.361  1.00  0.00     0.340 C 
ATOM      8  O   UNL A   1      35.295  31.012  39.593  1.00  0.00    -0.246 OA
BRANCH   7   9
ATOM      9  C   UNL A   1      35.629  31.781  41.834  1.00  0.00     0.087 A 
ATOM     10  C   UNL A   1      35.021  31.581  44.540  1.00  0.00     0.162 A 
ATOM     11  C   UNL A   1      36.254  31.122  44.046  1.00  0.00     0.077 A 
ATOM     12  C   UNL A   1      34.124  32.239  43.700  1.00  0.00     0.161 A 
ATOM     13  C   UNL A   1      36.618  31.300  42.718  1.00  0.00     0.059 A 
ATOM     14  C   UNL A   1      34.422  32.297  42.339  1.00  0.00     0.068 A 
BRANCH  10  15
ATOM     15  O   UNL A   1      34.774  31.443  45.878  1.00  0.00    -0.493 OA
ATOM     16  C   UNL A   1      35.927  31.756  46.663  1.00  0.00     0.278 C 
ENDBRANCH  10  15
BRANCH  12  17
ATOM     17  O   UNL A   1      32.944  32.845  44.020  1.00  0.00    -0.493 OA
ATOM     18  C   UNL A   1      32.819  34.239  43.778  1.00  0.00     0.278 C 
ENDBRANCH  12  17
BRANCH  13  19
ATOM     19  N   UNL A   1      37.933  31.084  42.251  1.00  0.00    -0.324 N 
ATOM     20  C   UNL A   1      39.086  31.814  42.228  1.00  0.00     0.244 C 
ATOM     21  H   UNL A   1      38.045  30.194  41.845  1.00  0.00     0.170 HD
ATOM     22  O   UNL A   1      40.057  31.263  41.689  1.00  0.00    -0.273 OA
BRANCH  20  23
ATOM     23  C   UNL A   1      39.300  33.182  42.887  1.00  0.00     0.229 C 
BRANCH  23  24
ATOM     24  N   UNL A   1      39.541  34.326  42.026  1.00  0.00    -0.265 N 
ATOM     25  C   UNL A   1      40.792  34.787  41.712  1.00  0.00     0.262 C 
ATOM     26  C   UNL A   1      38.584  35.251  41.707  1.00  0.00     0.262 C 
ATOM     27  O   UNL A   1      41.873  34.314  41.982  1.00  0.00    -0.269 OA
ATOM     28  C   UNL A   1      40.602  36.040  40.977  1.00  0.00     0.053 A 
ATOM     29  C   UNL A   1      39.248  36.312  40.960  1.00  0.00     0.053 A 
ATOM     30  O   UNL A   1      37.404  35.266  42.014  1.00  0.00    -0.269 OA
ATOM     31  C   UNL A   1      41.523  36.879  40.381  1.00  0.00     0.015 A 
ATOM     32  C   UNL A   1      38.732  37.430  40.332  1.00  0.00     0.015 A 
ATOM     33  C   UNL A   1      41.026  38.014  39.730  1.00  0.00     0.001 A 
ATOM     34  C   UNL A   1      39.642  38.285  39.702  1.00  0.00     0.001 A 
ENDBRANCH  23  24
ENDBRANCH  20  23
ENDBRANCH  13  19
ENDBRANCH   7   9
ENDBRANCH   6   7
ENDBRANCH   5   6
ENDBRANCH   4   5
ENDBRANCH   3   4
ENDBRANCH   2   3
ENDBRANCH   1   2
BRANCH   1  35
ATOM     35  O   UNL A   1      36.283  32.371  34.204  1.00  0.00    -0.377 OA
BRANCH  35  36
ATOM     36  C   UNL A   1      35.667  33.353  33.369  1.00  0.00     0.188 C 
BRANCH  36  37
ATOM     37  C   UNL A   1      34.344  33.096  32.603  1.00  0.00     0.188 C 
BRANCH  37  38
ATOM     38  O   UNL A   1      34.501  32.779  31.232  1.00  0.00    -0.376 OA
BRANCH  38  39
ATOM     39  C   UNL A   1      34.348  33.809  30.278  1.00  0.00     0.202 C 
BRANCH  39  40
ATOM     40  C   UNL A   1      33.969  33.374  28.857  1.00  0.00     0.261 C 
BRANCH  40  41
ATOM     41  O   UNL A   1      34.928  32.550  28.177  1.00  0.00    -0.460 OA
BRANCH  41  42
ATOM     42  C   UNL A   1      34.655  31.230  28.087  1.00  0.00     0.338 C 
ATOM     43  O   UNL A   1      33.633  30.710  27.683  1.00  0.00    -0.246 OA
BRANCH  42  44
ATOM     44  C   UNL A   1      35.901  30.501  28.403  1.00  0.00     0.060 A 
ATOM     45  C   UNL A   1      36.006  29.818  29.622  1.00  0.00     0.016 A 
ATOM     46  C   UNL A   1      36.953  30.481  27.484  1.00  0.00     0.016 A 
ATOM     47  C   UNL A   1      37.183  29.139  29.941  1.00  0.00     0.010 A 
ATOM     48  C   UNL A   1      38.138  29.820  27.814  1.00  0.00     0.010 A 
ATOM     49  C   UNL A   1      38.270  29.175  29.058  1.00  0.00    -0.014 A 
BRANCH  49  50
ATOM     50  C   UNL A   1      39.608  28.729  29.513  1.00  0.00     0.031 A 
ATOM     51  C   UNL A   1      40.329  29.574  30.527  1.00  0.00     0.074 A 
ATOM     52  C   UNL A   1      40.170  27.600  29.048  1.00  0.00     0.049 A 
ATOM     53  N   UNL A   1      41.527  29.434  31.033  1.00  0.00    -0.248 NA
ATOM     54  C   UNL A   1      39.594  30.744  31.035  1.00  0.00     0.031 C 
ATOM     55  C   UNL A   1      39.553  26.675  28.102  1.00  0.00     0.029 A 
ATOM     56  N   UNL A   1      41.400  27.048  29.310  1.00  0.00    -0.354 N 
ATOM     57  C   UNL A   1      41.690  30.497  31.910  1.00  0.00     0.074 A 
ATOM     58  C   UNL A   1      40.487  31.296  31.840  1.00  0.00     0.031 C 
ATOM     59  C   UNL A   1      40.411  25.669  27.857  1.00  0.00     0.029 A 
ATOM     60  C   UNL A   1      41.650  25.903  28.598  1.00  0.00     0.049 A 
ATOM     61  H   UNL A   1      42.041  27.438  29.949  1.00  0.00     0.167 HD
ATOM     62  C   UNL A   1      42.747  30.778  32.709  1.00  0.00     0.037 A 
ATOM     63  C   UNL A   1      42.764  25.146  28.538  1.00  0.00     0.037 A 
ATOM     64  C   UNL A   1      43.946  29.986  32.767  1.00  0.00     0.049 A 
ATOM     65  C   UNL A   1      43.966  25.535  29.364  1.00  0.00     0.074 A 
ATOM     66  C   UNL A   1      45.070  30.176  33.551  1.00  0.00     0.029 A 
ATOM     67  N   UNL A   1      44.183  28.856  31.996  1.00  0.00    -0.354 N 
ATOM     68  N   UNL A   1      44.107  26.525  30.213  1.00  0.00    -0.248 NA
ATOM     69  C   UNL A   1      45.166  24.696  29.223  1.00  0.00     0.031 C 
ATOM     70  C   UNL A   1      46.012  29.200  33.209  1.00  0.00     0.029 A 
ATOM     71  C   UNL A   1      45.448  28.358  32.262  1.00  0.00     0.049 A 
ATOM     72  H   UNL A   1      43.546  28.466  31.355  1.00  0.00     0.167 HD
ATOM     73  C   UNL A   1      45.391  26.406  30.732  1.00  0.00     0.074 A 
ATOM     74  C   UNL A   1      45.985  25.240  30.111  1.00  0.00     0.031 C 
ATOM     75  C   UNL A   1      46.021  27.188  31.645  1.00  0.00     0.037 A 
BRANCH  62  76
ATOM     76  C   UNL A   1      42.663  32.018  33.554  1.00  0.00     0.064 A 
ATOM     77  C   UNL A   1      42.143  31.993  34.857  1.00  0.00     0.173 A 
ATOM     78  C   UNL A   1      43.117  33.248  33.053  1.00  0.00     0.173 A 
ATOM     79  F   UNL A   1      41.680  30.847  35.378  1.00  0.00    -0.203 F 
ATOM     80  C   UNL A   1      42.047  33.159  35.613  1.00  0.00     0.198 A 
ATOM     81  C   UNL A   1      43.053  34.404  33.825  1.00  0.00     0.198 A 
ATOM     82  F   UNL A   1      43.626  33.329  31.815  1.00  0.00    -0.203 F 
ATOM     83  F   UNL A   1      41.489  33.121  36.831  1.00  0.00    -0.200 F 
ATOM     84  C   UNL A   1      42.508  34.362  35.100  1.00  0.00     0.200 A 
ATOM     85  F   UNL A   1      43.512  35.563  33.332  1.00  0.00    -0.200 F 
ATOM     86  F   UNL A   1      42.419  35.483  35.829  1.00  0.00    -0.200 F 
ENDBRANCH  62  76
BRANCH  63  87
ATOM     87  C   UNL A   1      42.806  23.943  27.663  1.00  0.00     0.064 A 
ATOM     88  C   UNL A   1      43.246  24.033  26.335  1.00  0.00     0.173 A 
ATOM     89  C   UNL A   1      42.379  22.689  28.123  1.00  0.00     0.173 A 
ATOM     90  F   UNL A   1      43.638  25.216  25.839  1.00  0.00    -0.203 F 
ATOM     91  C   UNL A   1      43.240  22.921  25.496  1.00  0.00     0.198 A 
ATOM     92  C   UNL A   1      42.402  21.570  27.292  1.00  0.00     0.198 A 
ATOM     93  F   UNL A   1      41.941  22.548  29.383  1.00  0.00    -0.203 F 
ATOM     94  F   UNL A   1      43.614  23.047  24.215  1.00  0.00    -0.200 F 
ATOM     95  C   UNL A   1      42.822  21.689  25.977  1.00  0.00     0.200 A 
ATOM     96  F   UNL A   1      42.008  20.379  27.764  1.00  0.00    -0.200 F 
ATOM     97  F   UNL A   1      42.817  20.620  25.170  1.00  0.00    -0.200 F 
ENDBRANCH  63  87
BRANCH  75  98
ATOM     98  C   UNL A   1      47.406  26.783  32.070  1.00  0.00     0.064 A 
ATOM     99  C   UNL A   1      47.626  25.828  33.073  1.00  0.00     0.173 A 
ATOM    100  C   UNL A   1      48.529  27.331  31.431  1.00  0.00     0.173 A 
ATOM    101  F   UNL A   1      46.589  25.282  33.725  1.00  0.00    -0.203 F 
ATOM    102  C   UNL A   1      48.917  25.459  33.440  1.00  0.00     0.198 A 
ATOM    103  C   UNL A   1      49.818  26.933  31.774  1.00  0.00     0.198 A 
ATOM    104  F   UNL A   1      48.378  28.243  30.458  1.00  0.00    -0.203 F 
ATOM    105  F   UNL A   1      49.104  24.583  34.438  1.00  0.00    -0.200 F 
ATOM    106  C   UNL A   1      50.012  26.004  32.784  1.00  0.00     0.200 A 
ATOM    107  F   UNL A   1      50.873  27.448  31.127  1.00  0.00    -0.200 F 
ATOM    108  F   UNL A   1      51.254  25.639  33.133  1.00  0.00    -0.200 F 
ENDBRANCH  75  98
ENDBRANCH  49  50
ENDBRANCH  42  44
ENDBRANCH  41  42
ENDBRANCH  40  41
ENDBRANCH  39  40
ENDBRANCH  38  39
ENDBRANCH  37  38
ENDBRANCH  36  37
ENDBRANCH  35  36
ENDBRANCH   1  35
TORSDOF 25
ENDMDL
MODEL 2
REMARK VINA RESULT:      -8.6      6.298     13.668
REMARK SMILES COc1cc(NC(=O)CN2C(=O)c3ccccc3C2=O)c(C(=O)OCCOCCOCCOCCOC(=O)c2ccc(-c3c4nc(c(-c5c(F)c(F)c(F)c(F)c5F)c5ccc([nH]5)c(-c5c(F)c(F)c(F)c(F)c5F)c5nc(c(-c6c(F)c(F)c(F)c(F)c6F)c6ccc3[nH]6)C=C5)C=C4)cc2)cc1OC
REMARK SMILES IDX 29 1 28 2 27 3 26 4 25 5 24 6 22 7 23 8 21 9 3 10 4 11
REMARK SMILES IDX 103 12 5 13 102 14 2 15 1 16 104 17 105 18 6 19 7 20 8 22
REMARK SMILES IDX 9 23 10 24 11 25 19 26 12 27 13 28 18 29 20 30 14 31 17 32
REMARK SMILES IDX 15 33 16 34 30 35 31 36 32 37 33 38 34 39 35 40 36 41 37 42
REMARK SMILES IDX 38 43 39 44 40 45 101 46 41 47 100 48 42 49 43 50 44 51
REMARK SMILES IDX 94 52 45 53 99 54 93 55 95 56 46 57 98 58 92 59 91 60 47 62
REMARK SMILES IDX 79 63 59 64 78 65 60 66 63 67 77 68 96 69 61 70 62 71 76 73
REMARK SMILES IDX 97 74 64 75 48 76 49 77 57 78 50 79 51 80 55 81 58 82 52 83
REMARK SMILES IDX 53 84 56 85 54 86 80 87 81 88 89 89 82 90 83 91 87 92 90 93
REMARK SMILES IDX 84 94 85 95 88 96 86 97 65 98 66 99 74 100 67 101 68 102
REMARK SMILES IDX 72 103 75 104 69 105 70 106 73 107 71 108
REMARK H PARENT 6 21 95 61 63 72
REMARK Flexibility Score: inf
ROOT
ATOM      1  C   UNL A   1      47.681  27.537  25.980  1.00  0.00     0.188 C 
ENDROOT
BRANCH   1   2
ATOM      2  C   UNL A   1      47.247  27.043  24.584  1.00  0.00     0.188 C 
BRANCH   2   3
ATOM      3  O   UNL A   1      45.964  27.513  24.206  1.00  0.00    -0.376 OA
BRANCH   3   4
ATOM      4  C   UNL A   1      44.928  27.563  25.164  1.00  0.00     0.202 C 
BRANCH   4   5
ATOM      5  C   UNL A   1      44.309  26.264  25.701  1.00  0.00     0.261 C 
BRANCH   5   6
ATOM      6  O   UNL A   1      44.653  25.872  27.032  1.00  0.00    -0.460 OA
BRANCH   6   7
ATOM      7  C   UNL A   1      45.058  24.601  27.236  1.00  0.00     0.340 C 
ATOM      8  O   UNL A   1      46.198  24.231  27.452  1.00  0.00    -0.246 OA
BRANCH   7   9
ATOM      9  C   UNL A   1      43.868  23.710  27.299  1.00  0.00     0.087 A 
ATOM     10  C   UNL A   1      41.827  21.834  27.507  1.00  0.00     0.162 A 
ATOM     11  C   UNL A   1      41.867  22.947  28.364  1.00  0.00     0.077 A 
ATOM     12  C   UNL A   1      42.750  21.704  26.472  1.00  0.00     0.161 A 
ATOM     13  C   UNL A   1      42.820  23.946  28.214  1.00  0.00     0.059 A 
ATOM     14  C   UNL A   1      43.792  22.628  26.403  1.00  0.00     0.068 A 
BRANCH  10  15
ATOM     15  O   UNL A   1      40.805  20.937  27.667  1.00  0.00    -0.493 OA
ATOM     16  C   UNL A   1      41.254  19.591  27.495  1.00  0.00     0.278 C 
ENDBRANCH  10  15
BRANCH  12  17
ATOM     17  O   UNL A   1      42.798  20.762  25.484  1.00  0.00    -0.493 OA
ATOM     18  C   UNL A   1      44.044  20.135  25.218  1.00  0.00     0.278 C 
ENDBRANCH  12  17
BRANCH  13  19
ATOM     19  N   UNL A   1      42.738  25.187  28.882  1.00  0.00    -0.324 N 
ATOM     20  C   UNL A   1      41.960  26.303  28.763  1.00  0.00     0.244 C 
ATOM     21  H   UNL A   1      43.398  25.266  29.608  1.00  0.00     0.170 HD
ATOM     22  O   UNL A   1      42.223  27.224  29.551  1.00  0.00    -0.273 OA
BRANCH  20  23
ATOM     23  C   UNL A   1      40.756  26.466  27.829  1.00  0.00     0.229 C 
BRANCH  23  24
ATOM     24  N   UNL A   1      39.746  27.447  28.180  1.00  0.00    -0.265 N 
ATOM     25  C   UNL A   1      39.710  28.716  27.666  1.00  0.00     0.262 C 
ATOM     26  C   UNL A   1      38.936  27.342  29.279  1.00  0.00     0.262 C 
ATOM     27  O   UNL A   1      40.397  29.212  26.801  1.00  0.00    -0.269 OA
ATOM     28  C   UNL A   1      38.661  29.433  28.395  1.00  0.00     0.053 A 
ATOM     29  C   UNL A   1      38.176  28.583  29.370  1.00  0.00     0.053 A 
ATOM     30  O   UNL A   1      38.866  26.436  30.092  1.00  0.00    -0.269 OA
ATOM     31  C   UNL A   1      38.172  30.714  28.235  1.00  0.00     0.015 A 
ATOM     32  C   UNL A   1      37.162  28.957  30.232  1.00  0.00     0.015 A 
ATOM     33  C   UNL A   1      37.139  31.116  29.090  1.00  0.00     0.001 A 
ATOM     34  C   UNL A   1      36.635  30.243  30.078  1.00  0.00     0.001 A 
ENDBRANCH  23  24
ENDBRANCH  20  23
ENDBRANCH  13  19
ENDBRANCH   7   9
ENDBRANCH   6   7
ENDBRANCH   5   6
ENDBRANCH   4   5
ENDBRANCH   3   4
ENDBRANCH   2   3
ENDBRANCH   1   2
BRANCH   1  35
ATOM     35  O   UNL A   1      49.021  27.991  26.111  1.00  0.00    -0.377 OA
BRANCH  35  36
ATOM     36  C   UNL A   1      49.976  27.678  25.097  1.00  0.00     0.188 C 
BRANCH  36  37
ATOM     37  C   UNL A   1      51.216  28.564  24.807  1.00  0.00     0.188 C 
BRANCH  37  38
ATOM     38  O   UNL A   1      52.291  27.895  24.175  1.00  0.00    -0.376 OA
BRANCH  38  39
ATOM     39  C   UNL A   1      52.400  26.494  24.327  1.00  0.00     0.202 C 
BRANCH  39  40
ATOM     40  C   UNL A   1      53.320  25.998  25.449  1.00  0.00     0.261 C 
BRANCH  40  41
ATOM     41  O   UNL A   1      52.664  25.505  26.627  1.00  0.00    -0.460 OA
BRANCH  41  42
ATOM     42  C   UNL A   1      53.043  26.031  27.812  1.00  0.00     0.338 C 
ATOM     43  O   UNL A   1      54.166  26.339  28.161  1.00  0.00    -0.246 OA
BRANCH  42  44
ATOM     44  C   UNL A   1      51.812  26.342  28.568  1.00  0.00     0.060 A 
ATOM     45  C   UNL A   1      50.603  25.747  28.185  1.00  0.00     0.016 A 
ATOM     46  C   UNL A   1      51.863  27.204  29.666  1.00  0.00     0.016 A 
ATOM     47  C   UNL A   1      49.429  26.043  28.880  1.00  0.00     0.010 A 
ATOM     48  C   UNL A   1      50.686  27.517  30.347  1.00  0.00     0.010 A 
ATOM     49  C   UNL A   1      49.458  26.965  29.935  1.00  0.00    -0.014 A 
BRANCH  49  50
ATOM     50  C   UNL A   1      48.192  27.515  30.472  1.00  0.00     0.031 A 
ATOM     51  C   UNL A   1      47.539  26.798  31.621  1.00  0.00     0.074 A 
ATOM     52  C   UNL A   1      47.634  28.627  29.961  1.00  0.00     0.049 A 
ATOM     53  N   UNL A   1      46.403  27.042  32.223  1.00  0.00    -0.248 NA
ATOM     54  C   UNL A   1      48.270  25.641  32.162  1.00  0.00     0.031 C 
ATOM     55  C   UNL A   1      48.194  29.435  28.882  1.00  0.00     0.029 A 
ATOM     56  N   UNL A   1      46.461  29.261  30.287  1.00  0.00    -0.354 N 
ATOM     57  C   UNL A   1      46.282  26.068  33.204  1.00  0.00     0.074 A 
ATOM     58  C   UNL A   1      47.438  25.206  33.094  1.00  0.00     0.031 C 
ATOM     59  C   UNL A   1      47.359  30.458  28.628  1.00  0.00     0.029 A 
ATOM     60  C   UNL A   1      46.190  30.352  29.501  1.00  0.00     0.049 A 
ATOM     61  H   UNL A   1      45.870  28.960  31.016  1.00  0.00     0.167 HD
ATOM     62  C   UNL A   1      45.298  25.910  34.121  1.00  0.00     0.037 A 
ATOM     63  C   UNL A   1      45.108  31.156  29.478  1.00  0.00     0.037 A 
ATOM     64  C   UNL A   1      44.144  26.764  34.220  1.00  0.00     0.049 A 
ATOM     65  C   UNL A   1      43.978  30.901  30.445  1.00  0.00     0.074 A 
ATOM     66  C   UNL A   1      43.096  26.700  35.120  1.00  0.00     0.029 A 
ATOM     67  N   UNL A   1      43.881  27.834  33.375  1.00  0.00    -0.354 N 
ATOM     68  N   UNL A   1      43.879  29.996  31.389  1.00  0.00    -0.248 NA
ATOM     69  C   UNL A   1      42.807  31.784  30.341  1.00  0.00     0.031 C 
ATOM     70  C   UNL A   1      42.167  27.689  34.781  1.00  0.00     0.029 A 
ATOM     71  C   UNL A   1      42.670  28.417  33.713  1.00  0.00     0.049 A 
ATOM     72  H   UNL A   1      44.468  28.135  32.644  1.00  0.00     0.167 HD
ATOM     73  C   UNL A   1      42.659  30.224  32.014  1.00  0.00     0.074 A 
ATOM     74  C   UNL A   1      42.056  31.361  31.348  1.00  0.00     0.031 C 
ATOM     75  C   UNL A   1      42.089  29.556  33.049  1.00  0.00     0.037 A 
BRANCH  62  76
ATOM     76  C   UNL A   1      45.412  24.745  35.063  1.00  0.00     0.064 A 
ATOM     77  C   UNL A   1      45.029  23.448  34.689  1.00  0.00     0.173 A 
ATOM     78  C   UNL A   1      45.922  24.930  36.358  1.00  0.00     0.173 A 
ATOM     79  F   UNL A   1      44.521  23.220  33.469  1.00  0.00    -0.203 F 
ATOM     80  C   UNL A   1      45.116  22.388  35.587  1.00  0.00     0.198 A 
ATOM     81  C   UNL A   1      46.041  23.860  37.240  1.00  0.00     0.198 A 
ATOM     82  F   UNL A   1      46.306  26.147  36.767  1.00  0.00    -0.203 F 
ATOM     83  F   UNL A   1      44.685  21.171  35.227  1.00  0.00    -0.200 F 
ATOM     84  C   UNL A   1      45.628  22.592  36.859  1.00  0.00     0.200 A 
ATOM     85  F   UNL A   1      46.549  24.058  38.465  1.00  0.00    -0.200 F 
ATOM     86  F   UNL A   1      45.714  21.570  37.722  1.00  0.00    -0.200 F 
ENDBRANCH  62  76
BRANCH  63  87
ATOM     87  C   UNL A   1      45.031  32.280  28.505  1.00  0.00     0.064 A 
ATOM     88  C   UNL A   1      44.380  32.124  27.274  1.00  0.00     0.173 A 
ATOM     89  C   UNL A   1      45.632  33.519  28.771  1.00  0.00     0.173 A 
ATOM     90  F   UNL A   1      43.815  30.948  26.960  1.00  0.00    -0.203 F 
ATOM     91  C   UNL A   1      44.349  33.156  26.338  1.00  0.00     0.198 A 
ATOM     92  C   UNL A   1      45.573  34.562  27.847  1.00  0.00     0.198 A 
ATOM     93  F   UNL A   1      46.274  33.720  29.931  1.00  0.00    -0.203 F 
ATOM     94  F   UNL A   1      43.766  32.960  25.146  1.00  0.00    -0.200 F 
ATOM     95  C   UNL A   1      44.941  34.376  26.628  1.00  0.00     0.200 A 
ATOM     96  F   UNL A   1      46.137  35.742  28.136  1.00  0.00    -0.200 F 
ATOM     97  F   UNL A   1      44.910  35.368  25.728  1.00  0.00    -0.200 F 
ENDBRANCH  63  87
BRANCH  75  98
ATOM     98  C   UNL A   1      40.771  30.066  33.564  1.00  0.00     0.064 A 
ATOM     99  C   UNL A   1      40.680  31.209  34.372  1.00  0.00     0.173 A 
ATOM    100  C   UNL A   1      39.576  29.421  33.206  1.00  0.00     0.173 A 
ATOM    101  F   UNL A   1      41.791  31.855  34.754  1.00  0.00    -0.203 F 
ATOM    102  C   UNL A   1      39.447  31.670  34.825  1.00  0.00     0.198 A 
ATOM    103  C   UNL A   1      38.342  29.906  33.630  1.00  0.00     0.198 A 
ATOM    104  F   UNL A   1      39.602  28.329  32.427  1.00  0.00    -0.203 F 
ATOM    105  F   UNL A   1      39.389  32.732  35.640  1.00  0.00    -0.200 F 
ATOM    106  C   UNL A   1      38.278  31.025  34.447  1.00  0.00     0.200 A 
ATOM    107  F   UNL A   1      37.214  29.292  33.248  1.00  0.00    -0.200 F 
ATOM    108  F   UNL A   1      37.092  31.476  34.876  1.00  0.00    -0.200 F 
ENDBRANCH  75  98
ENDBRANCH  49  50
ENDBRANCH  42  44
ENDBRANCH  41  42
ENDBRANCH  40  41
ENDBRANCH  39  40
ENDBRANCH  38  39
ENDBRANCH  37  38
ENDBRANCH  36  37
ENDBRANCH  35  36
ENDBRANCH   1  35
TORSDOF 25
ENDMDL
MODEL 3
REMARK VINA RESULT:      -8.5      4.149      9.646
REMARK SMILES COc1cc(NC(=O)CN2C(=O)c3ccccc3C2=O)c(C(=O)OCCOCCOCCOCCOC(=O)c2ccc(-c3c4nc(c(-c5c(F)c(F)c(F)c(F)c5F)c5ccc([nH]5)c(-c5c(F)c(F)c(F)c(F)c5F)c5nc(c(-c6c(F)c(F)c(F)c(F)c6F)c6ccc3[nH]6)C=C5)C=C4)cc2)cc1OC
REMARK SMILES IDX 29 1 28 2 27 3 26 4 25 5 24 6 22 7 23 8 21 9 3 10 4 11
REMARK SMILES IDX 103 12 5 13 102 14 2 15 1 16 104 17 105 18 6 19 7 20 8 22
REMARK SMILES IDX 9 23 10 24 11 25 19 26 12 27 13 28 18 29 20 30 14 31 17 32
REMARK SMILES IDX 15 33 16 34 30 35 31 36 32 37 33 38 34 39 35 40 36 41 37 42
REMARK SMILES IDX 38 43 39 44 40 45 101 46 41 47 100 48 42 49 43 50 44 51
REMARK SMILES IDX 94 52 45 53 99 54 93 55 95 56 46 57 98 58 92 59 91 60 47 62
REMARK SMILES IDX 79 63 59 64 78 65 60 66 63 67 77 68 96 69 61 70 62 71 76 73
REMARK SMILES IDX 97 74 64 75 48 76 49 77 57 78 50 79 51 80 55 81 58 82 52 83
REMARK SMILES IDX 53 84 56 85 54 86 80 87 81 88 89 89 82 90 83 91 87 92 90 93
REMARK SMILES IDX 84 94 85 95 88 96 86 97 65 98 66 99 74 100 67 101 68 102
REMARK SMILES IDX 72 103 75 104 69 105 70 106 73 107 71 108
REMARK H PARENT 6 21 95 61 63 72
REMARK Flexibility Score: inf
ROOT
ATOM      1  C   UNL A   1      39.318  33.148  36.044  1.00  0.00     0.188 C 
ENDROOT
BRANCH   1   2
ATOM      2  C   UNL A   1      39.838  33.393  34.612  1.00  0.00     0.188 C 
BRANCH   2   3
ATOM      3  O   UNL A   1      39.990  32.195  33.868  1.00  0.00    -0.376 OA
BRANCH   3   4
ATOM      4  C   UNL A   1      40.291  30.989  34.538  1.00  0.00     0.202 C 
BRANCH   4   5
ATOM      5  C   UNL A   1      40.545  29.704  33.739  1.00  0.00     0.261 C 
BRANCH   5   6
ATOM      6  O   UNL A   1      40.322  29.752  32.326  1.00  0.00    -0.460 OA
BRANCH   6   7
ATOM      7  C   UNL A   1      39.721  28.695  31.741  1.00  0.00     0.340 C 
ATOM      8  O   UNL A   1      39.721  27.546  32.148  1.00  0.00    -0.246 OA
BRANCH   7   9
ATOM      9  C   UNL A   1      38.924  29.165  30.577  1.00  0.00     0.087 A 
ATOM     10  C   UNL A   1      37.414  29.763  28.320  1.00  0.00     0.162 A 
ATOM     11  C   UNL A   1      36.887  29.962  29.607  1.00  0.00     0.077 A 
ATOM     12  C   UNL A   1      38.737  29.361  28.151  1.00  0.00     0.161 A 
ATOM     13  C   UNL A   1      37.657  29.764  30.746  1.00  0.00     0.059 A 
ATOM     14  C   UNL A   1      39.471  29.025  29.289  1.00  0.00     0.068 A 
BRANCH  10  15
ATOM     15  O   UNL A   1      36.618  30.062  27.248  1.00  0.00    -0.493 OA
ATOM     16  C   UNL A   1      35.416  30.722  27.652  1.00  0.00     0.278 C 
ENDBRANCH  10  15
BRANCH  12  17
ATOM     17  O   UNL A   1      39.447  29.226  26.992  1.00  0.00    -0.493 OA
ATOM     18  C   UNL A   1      40.405  28.182  26.912  1.00  0.00     0.278 C 
ENDBRANCH  12  17
BRANCH  13  19
ATOM     19  N   UNL A   1      37.249  30.192  32.028  1.00  0.00    -0.324 N 
ATOM     20  C   UNL A   1      37.080  31.401  32.638  1.00  0.00     0.244 C 
ATOM     21  H   UNL A   1      37.034  29.438  32.624  1.00  0.00     0.170 HD
ATOM     22  O   UNL A   1      36.718  31.356  33.824  1.00  0.00    -0.273 OA
BRANCH  20  23
ATOM     23  C   UNL A   1      37.199  32.773  31.966  1.00  0.00     0.229 C 
BRANCH  23  24
ATOM     24  N   UNL A   1      36.057  33.668  32.029  1.00  0.00    -0.265 N 
ATOM     25  C   UNL A   1      35.164  33.830  31.003  1.00  0.00     0.262 C 
ATOM     26  C   UNL A   1      35.928  34.669  32.953  1.00  0.00     0.262 C 
ATOM     27  O   UNL A   1      35.088  33.234  29.952  1.00  0.00    -0.269 OA
ATOM     28  C   UNL A   1      34.279  34.931  31.391  1.00  0.00     0.053 A 
ATOM     29  C   UNL A   1      34.737  35.431  32.594  1.00  0.00     0.053 A 
ATOM     30  O   UNL A   1      36.666  34.952  33.881  1.00  0.00    -0.269 OA
ATOM     31  C   UNL A   1      33.174  35.461  30.754  1.00  0.00     0.015 A 
ATOM     32  C   UNL A   1      34.110  36.479  33.240  1.00  0.00     0.015 A 
ATOM     33  C   UNL A   1      32.516  36.519  31.390  1.00  0.00     0.001 A 
ATOM     34  C   UNL A   1      32.976  37.021  32.626  1.00  0.00     0.001 A 
ENDBRANCH  23  24
ENDBRANCH  20  23
ENDBRANCH  13  19
ENDBRANCH   7   9
ENDBRANCH   6   7
ENDBRANCH   5   6
ENDBRANCH   4   5
ENDBRANCH   3   4
ENDBRANCH   2   3
ENDBRANCH   1   2
BRANCH   1  35
ATOM     35  O   UNL A   1      40.020  33.790  37.099  1.00  0.00    -0.377 OA
BRANCH  35  36
ATOM     36  C   UNL A   1      40.415  35.155  36.959  1.00  0.00     0.188 C 
BRANCH  36  37
ATOM     37  C   UNL A   1      41.744  35.711  37.533  1.00  0.00     0.188 C 
BRANCH  37  38
ATOM     38  O   UNL A   1      41.672  36.162  38.873  1.00  0.00    -0.376 OA
BRANCH  38  39
ATOM     39  C   UNL A   1      41.864  35.226  39.914  1.00  0.00     0.202 C 
BRANCH  39  40
ATOM     40  C   UNL A   1      43.242  35.224  40.585  1.00  0.00     0.261 C 
BRANCH  40  41
ATOM     41  O   UNL A   1      44.247  34.416  39.952  1.00  0.00    -0.460 OA
BRANCH  41  42
ATOM     42  C   UNL A   1      44.119  33.076  40.056  1.00  0.00     0.338 C 
ATOM     43  O   UNL A   1      43.938  32.424  41.065  1.00  0.00    -0.246 OA
BRANCH  42  44
ATOM     44  C   UNL A   1      44.058  32.533  38.682  1.00  0.00     0.060 A 
ATOM     45  C   UNL A   1      43.054  31.614  38.352  1.00  0.00     0.016 A 
ATOM     46  C   UNL A   1      44.982  32.952  37.722  1.00  0.00     0.016 A 
ATOM     47  C   UNL A   1      42.993  31.081  37.063  1.00  0.00     0.010 A 
ATOM     48  C   UNL A   1      44.934  32.402  36.440  1.00  0.00     0.010 A 
ATOM     49  C   UNL A   1      43.961  31.439  36.115  1.00  0.00    -0.014 A 
BRANCH  49  50
ATOM     50  C   UNL A   1      44.092  30.660  34.862  1.00  0.00     0.031 A 
ATOM     51  C   UNL A   1      43.759  31.344  33.564  1.00  0.00     0.074 A 
ATOM     52  C   UNL A   1      44.504  29.380  34.867  1.00  0.00     0.049 A 
ATOM     53  N   UNL A   1      43.733  30.864  32.347  1.00  0.00    -0.248 NA
ATOM     54  C   UNL A   1      43.399  32.769  33.657  1.00  0.00     0.031 C 
ATOM     55  C   UNL A   1      44.901  28.625  36.051  1.00  0.00     0.029 A 
ATOM     56  N   UNL A   1      44.648  28.490  33.831  1.00  0.00    -0.354 N 
ATOM     57  C   UNL A   1      43.349  31.923  31.536  1.00  0.00     0.074 A 
ATOM     58  C   UNL A   1      43.114  33.059  32.398  1.00  0.00     0.031 C 
ATOM     59  C   UNL A   1      45.239  27.377  35.676  1.00  0.00     0.029 A 
ATOM     60  C   UNL A   1      45.043  27.239  34.233  1.00  0.00     0.049 A 
ATOM     61  H   UNL A   1      44.482  28.727  32.889  1.00  0.00     0.167 HD
ATOM     62  C   UNL A   1      43.212  31.947  30.189  1.00  0.00     0.037 A 
ATOM     63  C   UNL A   1      45.205  26.110  33.516  1.00  0.00     0.037 A 
ATOM     64  C   UNL A   1      43.436  30.811  29.335  1.00  0.00     0.049 A 
ATOM     65  C   UNL A   1      44.951  26.137  32.029  1.00  0.00     0.074 A 
ATOM     66  C   UNL A   1      43.337  30.732  27.958  1.00  0.00     0.029 A 
ATOM     67  N   UNL A   1      43.793  29.546  29.784  1.00  0.00    -0.354 N 
ATOM     68  N   UNL A   1      44.614  27.145  31.260  1.00  0.00    -0.248 NA
ATOM     69  C   UNL A   1      45.101  24.864  31.308  1.00  0.00     0.031 C 
ATOM     70  C   UNL A   1      43.570  29.406  27.578  1.00  0.00     0.029 A 
ATOM     71  C   UNL A   1      43.885  28.672  28.712  1.00  0.00     0.049 A 
ATOM     72  H   UNL A   1      43.956  29.305  30.724  1.00  0.00     0.167 HD
ATOM     73  C   UNL A   1      44.551  26.639  29.967  1.00  0.00     0.074 A 
ATOM     74  C   UNL A   1      44.894  25.235  30.053  1.00  0.00     0.031 C 
ATOM     75  C   UNL A   1      44.240  27.279  28.811  1.00  0.00     0.037 A 
BRANCH  62  76
ATOM     76  C   UNL A   1      42.760  33.237  29.564  1.00  0.00     0.064 A 
ATOM     77  C   UNL A   1      41.420  33.652  29.605  1.00  0.00     0.173 A 
ATOM     78  C   UNL A   1      43.686  34.074  28.922  1.00  0.00     0.173 A 
ATOM     79  F   UNL A   1      40.492  32.881  30.191  1.00  0.00    -0.203 F 
ATOM     80  C   UNL A   1      41.018  34.837  28.994  1.00  0.00     0.198 A 
ATOM     81  C   UNL A   1      43.286  35.276  28.345  1.00  0.00     0.198 A 
ATOM     82  F   UNL A   1      44.980  33.729  28.857  1.00  0.00    -0.203 F 
ATOM     83  F   UNL A   1      39.722  35.180  28.991  1.00  0.00    -0.200 F 
ATOM     84  C   UNL A   1      41.951  35.651  28.371  1.00  0.00     0.200 A 
ATOM     85  F   UNL A   1      44.192  36.068  27.756  1.00  0.00    -0.200 F 
ATOM     86  F   UNL A   1      41.563  36.793  27.786  1.00  0.00    -0.200 F 
ENDBRANCH  62  76
BRANCH  63  87
ATOM     87  C   UNL A   1      45.626  24.850  34.188  1.00  0.00     0.064 A 
ATOM     88  C   UNL A   1      44.688  23.866  34.527  1.00  0.00     0.173 A 
ATOM     89  C   UNL A   1      46.966  24.619  34.532  1.00  0.00     0.173 A 
ATOM     90  F   UNL A   1      43.390  24.054  34.245  1.00  0.00    -0.203 F 
ATOM     91  C   UNL A   1      45.069  22.708  35.202  1.00  0.00     0.198 A 
ATOM     92  C   UNL A   1      47.351  23.445  35.178  1.00  0.00     0.198 A 
ATOM     93  F   UNL A   1      47.904  25.530  34.237  1.00  0.00    -0.203 F 
ATOM     94  F   UNL A   1      44.142  21.809  35.562  1.00  0.00    -0.200 F 
ATOM     95  C   UNL A   1      46.401  22.496  35.522  1.00  0.00     0.200 A 
ATOM     96  F   UNL A   1      48.641  23.239  35.477  1.00  0.00    -0.200 F 
ATOM     97  F   UNL A   1      46.767  21.382  36.170  1.00  0.00    -0.200 F 
ENDBRANCH  63  87
BRANCH  75  98
ATOM     98  C   UNL A   1      44.308  26.485  27.536  1.00  0.00     0.064 A 
ATOM     99  C   UNL A   1      45.425  26.531  26.690  1.00  0.00     0.173 A 
ATOM    100  C   UNL A   1      43.252  25.630  27.180  1.00  0.00     0.173 A 
ATOM    101  F   UNL A   1      46.456  27.340  26.976  1.00  0.00    -0.203 F 
ATOM    102  C   UNL A   1      45.471  25.775  25.521  1.00  0.00     0.198 A 
ATOM    103  C   UNL A   1      43.317  24.848  26.031  1.00  0.00     0.198 A 
ATOM    104  F   UNL A   1      42.163  25.539  27.958  1.00  0.00    -0.203 F 
ATOM    105  F   UNL A   1      46.526  25.877  24.701  1.00  0.00    -0.200 F 
ATOM    106  C   UNL A   1      44.422  24.927  25.197  1.00  0.00     0.200 A 
ATOM    107  F   UNL A   1      42.310  24.016  25.730  1.00  0.00    -0.200 F 
ATOM    108  F   UNL A   1      44.472  24.193  24.077  1.00  0.00    -0.200 F 
ENDBRANCH  75  98
ENDBRANCH  49  50
ENDBRANCH  42  44
ENDBRANCH  41  42
ENDBRANCH  40  41
ENDBRANCH  39  40
ENDBRANCH  38  39
ENDBRANCH  37  38
ENDBRANCH  36  37
ENDBRANCH  35  36
ENDBRANCH   1  35
TORSDOF 25
ENDMDL
