MODEL 1
REMARK VINA RESULT:     -10.3      0.000      0.000
REMARK SMILES Cc1ccccc1/C=C1\SC(=S)N(CCC(=O)N[C@@H](C)C(=O)OCCOCCOCCOCCOC(=O)c2ccc(-c3c4nc(c(-c5c(F)c(F)c(F)c(F)c5F)c5ccc([nH]5)c(-c5c(F)c(F)c(F)c(F)c5F)c5nc(c(-c6c(F)c(F)c(F)c(F)c6F)c6ccc3[nH]6)C=C5)C=C4)cc2)C1=O
REMARK SMILES IDX 27 1 26 2 25 3 24 4 23 5 21 6 22 7 19 8 20 9 18 10 16 11
REMARK SMILES IDX 17 12 15 14 14 15 13 16 8 17 9 18 10 19 101 20 11 21 102 22
REMARK SMILES IDX 12 23 7 24 1 25 2 26 3 27 4 28 6 29 5 30 28 31 29 32 30 33
REMARK SMILES IDX 31 34 32 35 33 36 34 37 35 38 36 39 37 40 38 41 39 42 100 43
REMARK SMILES IDX 40 44 99 45 41 46 42 47 43 48 93 49 44 50 98 51 92 52 94 53
REMARK SMILES IDX 45 54 97 55 91 56 90 57 46 59 78 60 58 61 77 62 59 63 62 64
REMARK SMILES IDX 76 65 95 66 60 67 61 68 75 70 96 71 63 72 47 73 48 74 56 75
REMARK SMILES IDX 49 76 50 77 54 78 57 79 51 80 52 81 55 82 53 83 79 84 80 85
REMARK SMILES IDX 88 86 81 87 82 88 86 89 89 90 83 91 84 92 87 93 85 94 64 95
REMARK SMILES IDX 65 96 73 97 66 98 67 99 71 100 74 101 68 102 69 103 72 104
REMARK SMILES IDX 70 105
REMARK H PARENT 18 13 94 58 62 69
REMARK Flexibility Score: inf
ROOT
ATOM      1  C   UNL A   1      37.430  30.179  29.105  1.00  0.00     0.188 C 
ENDROOT
BRANCH   1   2
ATOM      2  O   UNL A   1      38.878  29.603  28.845  1.00  0.00    -0.376 OA
BRANCH   2   3
ATOM      3  C   UNL A   1      39.598  28.916  27.506  1.00  0.00     0.202 C 
BRANCH   3   4
ATOM      4  C   UNL A   1      41.093  27.924  27.108  1.00  0.00     0.261 C 
BRANCH   4   5
ATOM      5  O   UNL A   1      41.328  26.156  26.673  1.00  0.00    -0.462 OA
BRANCH   5   6
ATOM      6  C   UNL A   1      42.201  25.168  25.896  1.00  0.00     0.328 C 
ATOM      7  O   UNL A   1      42.547  25.364  24.716  1.00  0.00    -0.250 OA
BRANCH   6   8
ATOM      8  C   UNL A   1      42.698  23.621  26.298  1.00  0.00     0.189 C 
ATOM      9  C   UNL A   1      43.446  23.376  24.999  1.00  0.00     0.043 C 
BRANCH   8  10
ATOM     10  N   UNL A   1      42.072  22.302  26.758  1.00  0.00    -0.343 N 
ATOM     11  C   UNL A   1      40.848  21.864  27.171  1.00  0.00     0.222 C 
ATOM     12  O   UNL A   1      40.786  20.720  27.628  1.00  0.00    -0.275 OA
ATOM     13  H   UNL A   1      42.733  21.571  26.755  1.00  0.00     0.164 HD
BRANCH  11  14
ATOM     14  C   UNL A   1      39.589  22.687  27.035  1.00  0.00     0.122 C 
BRANCH  14  15
ATOM     15  C   UNL A   1      38.865  22.559  25.664  1.00  0.00     0.137 C 
BRANCH  15  16
ATOM     16  N   UNL A   1      37.397  22.292  25.728  1.00  0.00    -0.292 N 
ATOM     17  C   UNL A   1      34.363  24.026  25.014  1.00  0.00     0.029 C 
ATOM     18  C   UNL A   1      35.135  23.010  25.448  1.00  0.00     0.081 C 
ATOM     19  S   UNL A   1      35.030  21.317  25.238  1.00  0.00    -0.054 SA
ATOM     20  C   UNL A   1      36.517  23.336  25.999  1.00  0.00     0.266 C 
ATOM     21  C   UNL A   1      36.792  21.094  25.382  1.00  0.00     0.148 C 
ATOM     22  O   UNL A   1      36.828  24.404  26.505  1.00  0.00    -0.268 OA
ATOM     23  S   UNL A   1      37.540  19.652  24.984  1.00  0.00    -0.052 S 
BRANCH  17  24
ATOM     24  C   UNL A   1      33.111  24.408  24.209  1.00  0.00    -0.021 A 
ATOM     25  C   UNL A   1      31.706  24.340  26.671  1.00  0.00     0.045 C 
ATOM     26  C   UNL A   1      31.684  24.843  25.258  1.00  0.00    -0.044 A 
ATOM     27  C   UNL A   1      30.376  25.988  24.690  1.00  0.00     0.004 A 
ATOM     28  C   UNL A   1      30.455  26.774  23.016  1.00  0.00     0.000 A 
ATOM     29  C   UNL A   1      33.162  25.132  22.457  1.00  0.00     0.008 A 
ATOM     30  C   UNL A   1      31.854  26.335  21.854  1.00  0.00     0.001 A 
ENDBRANCH  17  24
ENDBRANCH  15  16
ENDBRANCH  14  15
ENDBRANCH  11  14
ENDBRANCH   8  10
ENDBRANCH   6   8
ENDBRANCH   5   6
ENDBRANCH   4   5
ENDBRANCH   3   4
ENDBRANCH   2   3
ENDBRANCH   1   2
BRANCH   1  31
ATOM     31  C   UNL A   1      36.830  31.425  28.379  1.00  0.00     0.188 C 
BRANCH  31  32
ATOM     32  O   UNL A   1      35.513  31.350  27.894  1.00  0.00    -0.377 OA
BRANCH  32  33
ATOM     33  C   UNL A   1      34.526  32.068  28.604  1.00  0.00     0.188 C 
BRANCH  33  34
ATOM     34  C   UNL A   1      33.951  33.358  28.017  1.00  0.00     0.188 C 
BRANCH  34  35
ATOM     35  O   UNL A   1      34.109  34.481  28.876  1.00  0.00    -0.376 OA
BRANCH  35  36
ATOM     36  C   UNL A   1      33.001  35.176  29.412  1.00  0.00     0.202 C 
BRANCH  36  37
ATOM     37  C   UNL A   1      32.948  35.363  30.928  1.00  0.00     0.261 C 
BRANCH  37  38
ATOM     38  O   UNL A   1      34.192  34.912  31.516  1.00  0.00    -0.460 OA
BRANCH  38  39
ATOM     39  C   UNL A   1      34.193  33.710  32.152  1.00  0.00     0.338 C 
ATOM     40  O   UNL A   1      33.355  33.335  32.955  1.00  0.00    -0.246 OA
BRANCH  39  41
ATOM     41  C   UNL A   1      35.534  33.055  31.955  1.00  0.00     0.060 A 
ATOM     42  C   UNL A   1      35.937  32.012  32.784  1.00  0.00     0.016 A 
ATOM     43  C   UNL A   1      36.515  33.699  31.201  1.00  0.00     0.016 A 
ATOM     44  C   UNL A   1      37.317  31.795  33.008  1.00  0.00     0.010 A 
ATOM     45  C   UNL A   1      37.866  33.594  31.562  1.00  0.00     0.010 A 
ATOM     46  C   UNL A   1      38.295  32.733  32.587  1.00  0.00    -0.014 A 
BRANCH  46  47
ATOM     47  C   UNL A   1      39.849  32.938  33.081  1.00  0.00     0.031 A 
ATOM     48  C   UNL A   1      39.376  34.055  34.459  1.00  0.00     0.074 A 
ATOM     49  C   UNL A   1      41.343  32.573  32.403  1.00  0.00     0.049 A 
ATOM     50  N   UNL A   1      39.974  35.178  34.855  1.00  0.00    -0.248 NA
ATOM     51  C   UNL A   1      38.224  33.815  35.348  1.00  0.00     0.031 C 
ATOM     52  C   UNL A   1      42.828  32.399  32.893  1.00  0.00     0.029 A 
ATOM     53  N   UNL A   1      41.929  32.509  30.964  1.00  0.00    -0.354 N 
ATOM     54  C   UNL A   1      39.718  35.381  36.198  1.00  0.00     0.074 A 
ATOM     55  C   UNL A   1      38.450  34.675  36.359  1.00  0.00     0.031 C 
ATOM     56  C   UNL A   1      43.778  32.268  31.970  1.00  0.00     0.029 A 
ATOM     57  C   UNL A   1      43.279  32.811  30.800  1.00  0.00     0.049 A 
ATOM     58  H   UNL A   1      41.363  32.264  30.195  1.00  0.00     0.167 HD
ATOM     59  C   UNL A   1      40.695  35.746  37.127  1.00  0.00     0.037 A 
ATOM     60  C   UNL A   1      44.047  33.563  29.947  1.00  0.00     0.037 A 
ATOM     61  C   UNL A   1      42.151  35.706  36.661  1.00  0.00     0.049 A 
ATOM     62  C   UNL A   1      45.156  34.488  30.607  1.00  0.00     0.074 A 
ATOM     63  C   UNL A   1      43.195  34.911  37.137  1.00  0.00     0.029 A 
ATOM     64  N   UNL A   1      42.709  36.327  35.526  1.00  0.00    -0.354 N 
ATOM     65  N   UNL A   1      45.546  34.400  31.863  1.00  0.00    -0.248 NA
ATOM     66  C   UNL A   1      45.815  35.629  29.988  1.00  0.00     0.031 C 
ATOM     67  C   UNL A   1      44.400  35.222  36.477  1.00  0.00     0.029 A 
ATOM     68  C   UNL A   1      44.104  36.006  35.368  1.00  0.00     0.049 A 
ATOM     69  H   UNL A   1      42.205  36.910  34.913  1.00  0.00     0.167 HD
ATOM     70  C   UNL A   1      45.794  35.815  32.528  1.00  0.00     0.074 A 
ATOM     71  C   UNL A   1      46.402  36.255  31.039  1.00  0.00     0.031 C 
ATOM     72  C   UNL A   1      45.086  36.630  34.085  1.00  0.00     0.037 A 
BRANCH  59  73
ATOM     73  C   UNL A   1      40.409  35.688  38.676  1.00  0.00     0.064 A 
ATOM     74  C   UNL A   1      40.028  36.823  39.443  1.00  0.00     0.173 A 
ATOM     75  C   UNL A   1      40.485  34.517  39.455  1.00  0.00     0.173 A 
ATOM     76  F   UNL A   1      39.597  37.955  38.878  1.00  0.00    -0.203 F 
ATOM     77  C   UNL A   1      39.973  36.835  40.846  1.00  0.00     0.198 A 
ATOM     78  C   UNL A   1      40.443  34.522  40.863  1.00  0.00     0.198 A 
ATOM     79  F   UNL A   1      40.502  33.308  38.880  1.00  0.00    -0.203 F 
ATOM     80  F   UNL A   1      39.650  37.966  41.491  1.00  0.00    -0.200 F 
ATOM     81  C   UNL A   1      40.219  35.688  41.560  1.00  0.00     0.200 A 
ATOM     82  F   UNL A   1      40.595  33.372  41.536  1.00  0.00    -0.200 F 
ATOM     83  F   UNL A   1      40.159  35.692  42.899  1.00  0.00    -0.200 F 
ENDBRANCH  59  73
BRANCH  60  84
ATOM     84  C   UNL A   1      43.502  33.534  28.564  1.00  0.00     0.064 A 
ATOM     85  C   UNL A   1      42.988  34.783  28.144  1.00  0.00     0.173 A 
ATOM     86  C   UNL A   1      44.015  32.693  27.571  1.00  0.00     0.173 A 
ATOM     87  F   UNL A   1      42.442  35.606  29.053  1.00  0.00    -0.203 F 
ATOM     88  C   UNL A   1      43.198  35.262  26.854  1.00  0.00     0.198 A 
ATOM     89  C   UNL A   1      44.224  33.175  26.271  1.00  0.00     0.198 A 
ATOM     90  F   UNL A   1      44.481  31.478  27.895  1.00  0.00    -0.203 F 
ATOM     91  F   UNL A   1      42.865  36.523  26.547  1.00  0.00    -0.200 F 
ATOM     92  C   UNL A   1      43.855  34.471  25.928  1.00  0.00     0.200 A 
ATOM     93  F   UNL A   1      44.902  32.430  25.386  1.00  0.00    -0.200 F 
ATOM     94  F   UNL A   1      44.174  34.968  24.724  1.00  0.00    -0.200 F 
ENDBRANCH  60  84
BRANCH  72  95
ATOM     95  C   UNL A   1      44.798  38.319  34.683  1.00  0.00     0.064 A 
ATOM     96  C   UNL A   1      45.419  38.946  35.824  1.00  0.00     0.173 A 
ATOM     97  C   UNL A   1      44.017  39.231  33.931  1.00  0.00     0.173 A 
ATOM     98  F   UNL A   1      46.447  38.405  36.500  1.00  0.00    -0.203 F 
ATOM     99  C   UNL A   1      44.992  40.160  36.355  1.00  0.00     0.198 A 
ATOM    100  C   UNL A   1      43.757  40.541  34.376  1.00  0.00     0.198 A 
ATOM    101  F   UNL A   1      43.511  38.909  32.735  1.00  0.00    -0.203 F 
ATOM    102  F   UNL A   1      45.410  40.534  37.574  1.00  0.00    -0.200 F 
ATOM    103  C   UNL A   1      44.154  40.963  35.630  1.00  0.00     0.200 A 
ATOM    104  F   UNL A   1      43.114  41.405  33.578  1.00  0.00    -0.200 F 
ATOM    105  F   UNL A   1      43.767  42.148  36.120  1.00  0.00    -0.200 F 
ENDBRANCH  72  95
ENDBRANCH  46  47
ENDBRANCH  39  41
ENDBRANCH  38  39
ENDBRANCH  37  38
ENDBRANCH  36  37
ENDBRANCH  35  36
ENDBRANCH  34  35
ENDBRANCH  33  34
ENDBRANCH  32  33
ENDBRANCH  31  32
ENDBRANCH   1  31
TORSDOF 25
ENDMDL
MODEL 2
REMARK VINA RESULT:      -9.8      3.017      6.070
REMARK SMILES Cc1ccccc1/C=C1\SC(=S)N(CCC(=O)N[C@@H](C)C(=O)OCCOCCOCCOCCOC(=O)c2ccc(-c3c4nc(c(-c5c(F)c(F)c(F)c(F)c5F)c5ccc([nH]5)c(-c5c(F)c(F)c(F)c(F)c5F)c5nc(c(-c6c(F)c(F)c(F)c(F)c6F)c6ccc3[nH]6)C=C5)C=C4)cc2)C1=O
REMARK SMILES IDX 27 1 26 2 25 3 24 4 23 5 21 6 22 7 19 8 20 9 18 10 16 11
REMARK SMILES IDX 17 12 15 14 14 15 13 16 8 17 9 18 10 19 101 20 11 21 102 22
REMARK SMILES IDX 12 23 7 24 1 25 2 26 3 27 4 28 6 29 5 30 28 31 29 32 30 33
REMARK SMILES IDX 31 34 32 35 33 36 34 37 35 38 36 39 37 40 38 41 39 42 100 43
REMARK SMILES IDX 40 44 99 45 41 46 42 47 43 48 93 49 44 50 98 51 92 52 94 53
REMARK SMILES IDX 45 54 97 55 91 56 90 57 46 59 78 60 58 61 77 62 59 63 62 64
REMARK SMILES IDX 76 65 95 66 60 67 61 68 75 70 96 71 63 72 47 73 48 74 56 75
REMARK SMILES IDX 49 76 50 77 54 78 57 79 51 80 52 81 55 82 53 83 79 84 80 85
REMARK SMILES IDX 88 86 81 87 82 88 86 89 89 90 83 91 84 92 87 93 85 94 64 95
REMARK SMILES IDX 65 96 73 97 66 98 67 99 71 100 74 101 68 102 69 103 72 104
REMARK SMILES IDX 70 105
REMARK H PARENT 18 13 94 58 62 69
REMARK Flexibility Score: inf
ROOT
ATOM      1  C   UNL A   1      36.935  29.710  28.576  1.00  0.00     0.188 C 
ENDROOT
BRANCH   1   2
ATOM      2  O   UNL A   1      38.258  28.967  28.136  1.00  0.00    -0.376 OA
BRANCH   2   3
ATOM      3  C   UNL A   1      39.022  27.593  28.694  1.00  0.00     0.202 C 
BRANCH   3   4
ATOM      4  C   UNL A   1      39.247  25.843  28.182  1.00  0.00     0.261 C 
BRANCH   4   5
ATOM      5  O   UNL A   1      40.607  24.971  27.311  1.00  0.00    -0.462 OA
BRANCH   5   6
ATOM      6  C   UNL A   1      41.328  23.630  27.148  1.00  0.00     0.328 C 
ATOM      7  O   UNL A   1      41.843  23.028  28.107  1.00  0.00    -0.250 OA
BRANCH   6   8
ATOM      8  C   UNL A   1      41.763  22.802  25.761  1.00  0.00     0.189 C 
ATOM      9  C   UNL A   1      41.357  21.436  26.284  1.00  0.00     0.043 C 
BRANCH   8  10
ATOM     10  N   UNL A   1      42.995  22.636  24.866  1.00  0.00    -0.343 N 
ATOM     11  C   UNL A   1      44.199  23.255  24.694  1.00  0.00     0.222 C 
ATOM     12  O   UNL A   1      44.873  22.909  23.720  1.00  0.00    -0.275 OA
ATOM     13  H   UNL A   1      42.889  21.878  24.247  1.00  0.00     0.164 HD
BRANCH  11  14
ATOM     14  C   UNL A   1      44.746  24.277  25.662  1.00  0.00     0.122 C 
BRANCH  14  15
ATOM     15  C   UNL A   1      45.385  23.685  26.951  1.00  0.00     0.137 C 
BRANCH  15  16
ATOM     16  N   UNL A   1      46.156  24.646  27.794  1.00  0.00    -0.292 N 
ATOM     17  C   UNL A   1      48.495  27.296  27.313  1.00  0.00     0.029 C 
ATOM     18  C   UNL A   1      47.736  26.426  28.009  1.00  0.00     0.081 C 
ATOM     19  S   UNL A   1      46.756  26.611  29.397  1.00  0.00    -0.054 SA
ATOM     20  C   UNL A   1      47.409  25.081  27.373  1.00  0.00     0.266 C 
ATOM     21  C   UNL A   1      45.664  25.286  28.920  1.00  0.00     0.148 C 
ATOM     22  O   UNL A   1      48.101  24.525  26.533  1.00  0.00    -0.268 OA
ATOM     23  S   UNL A   1      44.199  25.025  29.683  1.00  0.00    -0.052 S 
BRANCH  17  24
ATOM     24  C   UNL A   1      48.978  28.751  27.211  1.00  0.00    -0.021 A 
ATOM     25  C   UNL A   1      46.384  29.371  26.246  1.00  0.00     0.045 C 
ATOM     26  C   UNL A   1      47.634  29.933  26.857  1.00  0.00    -0.044 A 
ATOM     27  C   UNL A   1      47.717  31.681  27.385  1.00  0.00     0.004 A 
ATOM     28  C   UNL A   1      49.174  32.329  28.324  1.00  0.00     0.000 A 
ATOM     29  C   UNL A   1      50.519  29.417  28.092  1.00  0.00     0.008 A 
ATOM     30  C   UNL A   1      50.623  31.197  28.676  1.00  0.00     0.001 A 
ENDBRANCH  17  24
ENDBRANCH  15  16
ENDBRANCH  14  15
ENDBRANCH  11  14
ENDBRANCH   8  10
ENDBRANCH   6   8
ENDBRANCH   5   6
ENDBRANCH   4   5
ENDBRANCH   3   4
ENDBRANCH   2   3
ENDBRANCH   1   2
BRANCH   1  31
ATOM     31  C   UNL A   1      36.594  31.193  28.224  1.00  0.00     0.188 C 
BRANCH  31  32
ATOM     32  O   UNL A   1      35.317  31.486  27.718  1.00  0.00    -0.377 OA
BRANCH  32  33
ATOM     33  C   UNL A   1      34.446  32.215  28.557  1.00  0.00     0.188 C 
BRANCH  33  34
ATOM     34  C   UNL A   1      33.952  33.598  28.129  1.00  0.00     0.188 C 
BRANCH  34  35
ATOM     35  O   UNL A   1      34.212  34.607  29.096  1.00  0.00    -0.376 OA
BRANCH  35  36
ATOM     36  C   UNL A   1      33.172  35.339  29.713  1.00  0.00     0.202 C 
BRANCH  36  37
ATOM     37  C   UNL A   1      33.092  35.309  31.239  1.00  0.00     0.261 C 
BRANCH  37  38
ATOM     38  O   UNL A   1      34.325  34.776  31.779  1.00  0.00    -0.460 OA
BRANCH  38  39
ATOM     39  C   UNL A   1      34.303  33.515  32.287  1.00  0.00     0.338 C 
ATOM     40  O   UNL A   1      33.408  33.043  32.967  1.00  0.00    -0.246 OA
BRANCH  39  41
ATOM     41  C   UNL A   1      35.674  32.908  32.145  1.00  0.00     0.060 A 
ATOM     42  C   UNL A   1      36.140  31.995  33.087  1.00  0.00     0.016 A 
ATOM     43  C   UNL A   1      36.611  33.503  31.300  1.00  0.00     0.016 A 
ATOM     44  C   UNL A   1      37.532  31.875  33.310  1.00  0.00     0.010 A 
ATOM     45  C   UNL A   1      37.970  33.510  31.646  1.00  0.00     0.010 A 
ATOM     46  C   UNL A   1      38.456  32.803  32.760  1.00  0.00    -0.014 A 
BRANCH  46  47
ATOM     47  C   UNL A   1      40.003  33.143  33.197  1.00  0.00     0.031 A 
ATOM     48  C   UNL A   1      39.486  34.293  34.531  1.00  0.00     0.074 A 
ATOM     49  C   UNL A   1      41.501  32.852  32.493  1.00  0.00     0.049 A 
ATOM     50  N   UNL A   1      40.011  35.474  34.853  1.00  0.00    -0.248 NA
ATOM     51  C   UNL A   1      38.378  34.017  35.465  1.00  0.00     0.031 C 
ATOM     52  C   UNL A   1      43.007  32.809  32.947  1.00  0.00     0.029 A 
ATOM     53  N   UNL A   1      42.052  32.755  31.042  1.00  0.00    -0.354 N 
ATOM     54  C   UNL A   1      39.776  35.728  36.191  1.00  0.00     0.074 A 
ATOM     55  C   UNL A   1      38.568  34.943  36.425  1.00  0.00     0.031 C 
ATOM     56  C   UNL A   1      43.940  32.698  32.003  1.00  0.00     0.029 A 
ATOM     57  C   UNL A   1      43.372  33.144  30.823  1.00  0.00     0.049 A 
ATOM     58  H   UNL A   1      41.486  32.431  30.304  1.00  0.00     0.167 HD
ATOM     59  C   UNL A   1      40.748  36.209  37.072  1.00  0.00     0.037 A 
ATOM     60  C   UNL A   1      44.060  33.903  29.912  1.00  0.00     0.037 A 
ATOM     61  C   UNL A   1      42.190  36.249  36.565  1.00  0.00     0.049 A 
ATOM     62  C   UNL A   1      45.116  34.939  30.491  1.00  0.00     0.074 A 
ATOM     63  C   UNL A   1      43.302  35.556  37.048  1.00  0.00     0.029 A 
ATOM     64  N   UNL A   1      42.672  36.848  35.384  1.00  0.00    -0.354 N 
ATOM     65  N   UNL A   1      45.544  34.943  31.738  1.00  0.00    -0.248 NA
ATOM     66  C   UNL A   1      45.674  36.090  29.797  1.00  0.00     0.031 C 
ATOM     67  C   UNL A   1      44.464  35.917  36.338  1.00  0.00     0.029 A 
ATOM     68  C   UNL A   1      44.082  36.620  35.201  1.00  0.00     0.049 A 
ATOM     69  H   UNL A   1      42.111  37.362  34.758  1.00  0.00     0.167 HD
ATOM     70  C   UNL A   1      45.706  36.405  32.325  1.00  0.00     0.074 A 
ATOM     71  C   UNL A   1      46.241  36.810  30.798  1.00  0.00     0.031 C 
ATOM     72  C   UNL A   1      44.982  37.246  33.859  1.00  0.00     0.037 A 
BRANCH  59  73
ATOM     73  C   UNL A   1      40.507  36.210  38.629  1.00  0.00     0.064 A 
ATOM     74  C   UNL A   1      40.150  35.048  39.366  1.00  0.00     0.173 A 
ATOM     75  C   UNL A   1      40.632  37.347  39.452  1.00  0.00     0.173 A 
ATOM     76  F   UNL A   1      40.276  33.816  38.861  1.00  0.00    -0.203 F 
ATOM     77  C   UNL A   1      39.731  35.070  40.705  1.00  0.00     0.198 A 
ATOM     78  C   UNL A   1      40.203  37.380  40.793  1.00  0.00     0.198 A 
ATOM     79  F   UNL A   1      41.268  38.442  39.019  1.00  0.00    -0.203 F 
ATOM     80  F   UNL A   1      39.365  33.929  41.309  1.00  0.00    -0.200 F 
ATOM     81  C   UNL A   1      39.721  36.248  41.411  1.00  0.00     0.200 A 
ATOM     82  F   UNL A   1      40.289  38.523  41.490  1.00  0.00    -0.200 F 
ATOM     83  F   UNL A   1      39.331  36.273  42.693  1.00  0.00    -0.200 F 
ENDBRANCH  59  73
BRANCH  60  84
ATOM     84  C   UNL A   1      43.483  33.765  28.548  1.00  0.00     0.064 A 
ATOM     85  C   UNL A   1      42.925  34.968  28.057  1.00  0.00     0.173 A 
ATOM     86  C   UNL A   1      43.994  32.870  27.603  1.00  0.00     0.173 A 
ATOM     87  F   UNL A   1      42.379  35.837  28.921  1.00  0.00    -0.203 F 
ATOM     88  C   UNL A   1      43.090  35.362  26.732  1.00  0.00     0.198 A 
ATOM     89  C   UNL A   1      44.158  33.266  26.267  1.00  0.00     0.198 A 
ATOM     90  F   UNL A   1      44.501  31.693  27.997  1.00  0.00    -0.203 F 
ATOM     91  F   UNL A   1      42.716  36.589  26.348  1.00  0.00    -0.200 F 
ATOM     92  C   UNL A   1      43.746  34.526  25.846  1.00  0.00     0.200 A 
ATOM     93  F   UNL A   1      44.835  32.479  25.418  1.00  0.00    -0.200 F 
ATOM     94  F   UNL A   1      44.021  34.946  24.603  1.00  0.00    -0.200 F 
ENDBRANCH  60  84
BRANCH  72  95
ATOM     95  C   UNL A   1      44.588  38.939  34.382  1.00  0.00     0.064 A 
ATOM     96  C   UNL A   1      45.159  39.651  35.498  1.00  0.00     0.173 A 
ATOM     97  C   UNL A   1      43.760  39.768  33.586  1.00  0.00     0.173 A 
ATOM     98  F   UNL A   1      46.212  39.202  36.204  1.00  0.00    -0.203 F 
ATOM     99  C   UNL A   1      44.655  40.858  35.974  1.00  0.00     0.198 A 
ATOM    100  C   UNL A   1      43.419  41.079  33.971  1.00  0.00     0.198 A 
ATOM    101  F   UNL A   1      43.285  39.366  32.402  1.00  0.00    -0.203 F 
ATOM    102  F   UNL A   1      45.039  41.309  37.178  1.00  0.00    -0.200 F 
ATOM    103  C   UNL A   1      43.777  41.578  35.209  1.00  0.00     0.200 A 
ATOM    104  F   UNL A   1      42.732  41.867  33.132  1.00  0.00    -0.200 F 
ATOM    105  F   UNL A   1      43.316  42.757  35.644  1.00  0.00    -0.200 F 
ENDBRANCH  72  95
ENDBRANCH  46  47
ENDBRANCH  39  41
ENDBRANCH  38  39
ENDBRANCH  37  38
ENDBRANCH  36  37
ENDBRANCH  35  36
ENDBRANCH  34  35
ENDBRANCH  33  34
ENDBRANCH  32  33
ENDBRANCH  31  32
ENDBRANCH   1  31
TORSDOF 25
ENDMDL
MODEL 3
REMARK VINA RESULT:      -9.2      8.608     14.262
REMARK SMILES Cc1ccccc1/C=C1\SC(=S)N(CCC(=O)N[C@@H](C)C(=O)OCCOCCOCCOCCOC(=O)c2ccc(-c3c4nc(c(-c5c(F)c(F)c(F)c(F)c5F)c5ccc([nH]5)c(-c5c(F)c(F)c(F)c(F)c5F)c5nc(c(-c6c(F)c(F)c(F)c(F)c6F)c6ccc3[nH]6)C=C5)C=C4)cc2)C1=O
REMARK SMILES IDX 27 1 26 2 25 3 24 4 23 5 21 6 22 7 19 8 20 9 18 10 16 11
REMARK SMILES IDX 17 12 15 14 14 15 13 16 8 17 9 18 10 19 101 20 11 21 102 22
REMARK SMILES IDX 12 23 7 24 1 25 2 26 3 27 4 28 6 29 5 30 28 31 29 32 30 33
REMARK SMILES IDX 31 34 32 35 33 36 34 37 35 38 36 39 37 40 38 41 39 42 100 43
REMARK SMILES IDX 40 44 99 45 41 46 42 47 43 48 93 49 44 50 98 51 92 52 94 53
REMARK SMILES IDX 45 54 97 55 91 56 90 57 46 59 78 60 58 61 77 62 59 63 62 64
REMARK SMILES IDX 76 65 95 66 60 67 61 68 75 70 96 71 63 72 47 73 48 74 56 75
REMARK SMILES IDX 49 76 50 77 54 78 57 79 51 80 52 81 55 82 53 83 79 84 80 85
REMARK SMILES IDX 88 86 81 87 82 88 86 89 89 90 83 91 84 92 87 93 85 94 64 95
REMARK SMILES IDX 65 96 73 97 66 98 67 99 71 100 74 101 68 102 69 103 72 104
REMARK SMILES IDX 70 105
REMARK H PARENT 18 13 94 58 62 69
REMARK Flexibility Score: inf
ROOT
ATOM      1  C   UNL A   1      54.370  23.316  35.526  1.00  0.00     0.188 C 
ENDROOT
BRANCH   1   2
ATOM      2  O   UNL A   1      54.329  21.770  35.850  1.00  0.00    -0.376 OA
BRANCH   2   3
ATOM      3  C   UNL A   1      53.209  20.577  35.526  1.00  0.00     0.202 C 
BRANCH   3   4
ATOM      4  C   UNL A   1      52.078  19.466  36.456  1.00  0.00     0.261 C 
BRANCH   4   5
ATOM      5  O   UNL A   1      50.579  19.786  37.464  1.00  0.00    -0.462 OA
BRANCH   5   6
ATOM      6  C   UNL A   1      49.893  20.786  38.398  1.00  0.00     0.328 C 
ATOM      7  O   UNL A   1      50.400  21.884  38.691  1.00  0.00    -0.250 OA
BRANCH   6   8
ATOM      8  C   UNL A   1      48.526  20.612  39.348  1.00  0.00     0.189 C 
ATOM      9  C   UNL A   1      48.519  19.094  39.299  1.00  0.00     0.043 C 
BRANCH   8  10
ATOM     10  N   UNL A   1      47.077  21.107  39.372  1.00  0.00    -0.343 N 
ATOM     11  C   UNL A   1      46.428  22.295  39.544  1.00  0.00     0.222 C 
ATOM     12  O   UNL A   1      45.200  22.250  39.660  1.00  0.00    -0.275 OA
ATOM     13  H   UNL A   1      46.443  20.369  39.220  1.00  0.00     0.164 HD
BRANCH  11  14
ATOM     14  C   UNL A   1      47.133  23.629  39.539  1.00  0.00     0.122 C 
BRANCH  14  15
ATOM     15  C   UNL A   1      46.265  24.830  39.066  1.00  0.00     0.137 C 
BRANCH  15  16
ATOM     16  N   UNL A   1      46.546  26.137  39.730  1.00  0.00    -0.292 N 
ATOM     17  C   UNL A   1      45.410  27.950  42.585  1.00  0.00     0.029 C 
ATOM     18  C   UNL A   1      46.115  27.733  41.457  1.00  0.00     0.081 C 
ATOM     19  S   UNL A   1      47.742  28.047  41.039  1.00  0.00    -0.054 SA
ATOM     20  C   UNL A   1      45.526  26.803  40.404  1.00  0.00     0.266 C 
ATOM     21  C   UNL A   1      47.804  26.699  39.876  1.00  0.00     0.148 C 
ATOM     22  O   UNL A   1      44.331  26.595  40.253  1.00  0.00    -0.268 OA
ATOM     23  S   UNL A   1      49.245  26.157  39.222  1.00  0.00    -0.052 S 
BRANCH  17  24
ATOM     24  C   UNL A   1      45.460  28.499  44.020  1.00  0.00    -0.021 A 
ATOM     25  C   UNL A   1      43.099  29.933  43.377  1.00  0.00     0.045 C 
ATOM     26  C   UNL A   1      43.952  29.410  44.494  1.00  0.00    -0.044 A 
ATOM     27  C   UNL A   1      43.398  29.528  46.232  1.00  0.00     0.004 A 
ATOM     28  C   UNL A   1      44.343  28.707  47.596  1.00  0.00     0.000 A 
ATOM     29  C   UNL A   1      46.490  27.728  45.412  1.00  0.00     0.008 A 
ATOM     30  C   UNL A   1      45.933  27.802  47.202  1.00  0.00     0.001 A 
ENDBRANCH  17  24
ENDBRANCH  15  16
ENDBRANCH  14  15
ENDBRANCH  11  14
ENDBRANCH   8  10
ENDBRANCH   6   8
ENDBRANCH   5   6
ENDBRANCH   4   5
ENDBRANCH   3   4
ENDBRANCH   2   3
ENDBRANCH   1   2
BRANCH   1  31
ATOM     31  C   UNL A   1      53.175  24.298  35.742  1.00  0.00     0.188 C 
BRANCH  31  32
ATOM     32  O   UNL A   1      52.273  24.500  34.683  1.00  0.00    -0.377 OA
BRANCH  32  33
ATOM     33  C   UNL A   1      52.162  23.466  33.728  1.00  0.00     0.188 C 
BRANCH  33  34
ATOM     34  C   UNL A   1      50.781  22.995  33.269  1.00  0.00     0.188 C 
BRANCH  34  35
ATOM     35  O   UNL A   1      50.188  22.056  34.158  1.00  0.00    -0.376 OA
BRANCH  35  36
ATOM     36  C   UNL A   1      48.829  22.143  34.540  1.00  0.00     0.202 C 
BRANCH  36  37
ATOM     37  C   UNL A   1      48.208  20.927  35.228  1.00  0.00     0.261 C 
BRANCH  37  38
ATOM     38  O   UNL A   1      47.109  21.355  36.068  1.00  0.00    -0.460 OA
BRANCH  38  39
ATOM     39  C   UNL A   1      45.845  21.107  35.632  1.00  0.00     0.338 C 
ATOM     40  O   UNL A   1      45.452  20.051  35.167  1.00  0.00    -0.246 OA
BRANCH  39  41
ATOM     41  C   UNL A   1      45.102  22.412  35.523  1.00  0.00     0.060 A 
ATOM     42  C   UNL A   1      43.860  22.465  34.897  1.00  0.00     0.016 A 
ATOM     43  C   UNL A   1      45.783  23.615  35.715  1.00  0.00     0.016 A 
ATOM     44  C   UNL A   1      43.442  23.669  34.282  1.00  0.00     0.010 A 
ATOM     45  C   UNL A   1      45.445  24.746  34.957  1.00  0.00     0.010 A 
ATOM     46  C   UNL A   1      44.333  24.759  34.098  1.00  0.00    -0.014 A 
BRANCH  46  47
ATOM     47  C   UNL A   1      44.243  26.041  33.074  1.00  0.00     0.031 A 
ATOM     48  C   UNL A   1      43.230  27.036  34.239  1.00  0.00     0.074 A 
ATOM     49  C   UNL A   1      44.612  26.261  31.449  1.00  0.00     0.049 A 
ATOM     50  N   UNL A   1      42.174  27.801  33.970  1.00  0.00    -0.248 NA
ATOM     51  C   UNL A   1      43.496  27.119  35.687  1.00  0.00     0.031 C 
ATOM     52  C   UNL A   1      44.894  27.465  30.477  1.00  0.00     0.029 A 
ATOM     53  N   UNL A   1      44.576  25.380  30.168  1.00  0.00    -0.354 N 
ATOM     54  C   UNL A   1      42.078  28.796  34.924  1.00  0.00     0.074 A 
ATOM     55  C   UNL A   1      42.738  28.166  36.064  1.00  0.00     0.031 C 
ATOM     56  C   UNL A   1      44.987  27.206  29.174  1.00  0.00     0.029 A 
ATOM     57  C   UNL A   1      44.321  26.014  28.953  1.00  0.00     0.049 A 
ATOM     58  H   UNL A   1      44.728  24.408  30.215  1.00  0.00     0.167 HD
ATOM     59  C   UNL A   1      41.840  30.139  34.623  1.00  0.00     0.037 A 
ATOM     60  C   UNL A   1      43.533  25.800  27.852  1.00  0.00     0.037 A 
ATOM     61  C   UNL A   1      41.904  30.547  33.151  1.00  0.00     0.049 A 
ATOM     62  C   UNL A   1      42.718  27.047  27.298  1.00  0.00     0.074 A 
ATOM     63  C   UNL A   1      42.783  31.437  32.531  1.00  0.00     0.029 A 
ATOM     64  N   UNL A   1      41.212  29.970  32.067  1.00  0.00    -0.354 N 
ATOM     65  N   UNL A   1      42.934  28.295  27.662  1.00  0.00    -0.248 NA
ATOM     66  C   UNL A   1      41.559  27.005  26.420  1.00  0.00     0.031 C 
ATOM     67  C   UNL A   1      42.470  31.580  31.165  1.00  0.00     0.029 A 
ATOM     68  C   UNL A   1      41.579  30.573  30.812  1.00  0.00     0.049 A 
ATOM     69  H   UNL A   1      40.555  29.242  32.157  1.00  0.00     0.167 HD
ATOM     70  C   UNL A   1      41.595  29.122  27.837  1.00  0.00     0.074 A 
ATOM     71  C   UNL A   1      41.053  28.261  26.515  1.00  0.00     0.031 C 
ATOM     72  C   UNL A   1      40.889  30.106  29.293  1.00  0.00     0.037 A 
BRANCH  59  73
ATOM     73  C   UNL A   1      42.021  31.263  35.713  1.00  0.00     0.064 A 
ATOM     74  C   UNL A   1      43.291  31.713  36.169  1.00  0.00     0.173 A 
ATOM     75  C   UNL A   1      40.958  31.945  36.337  1.00  0.00     0.173 A 
ATOM     76  F   UNL A   1      44.423  31.440  35.512  1.00  0.00    -0.203 F 
ATOM     77  C   UNL A   1      43.470  32.554  37.278  1.00  0.00     0.198 A 
ATOM     78  C   UNL A   1      41.127  32.782  37.457  1.00  0.00     0.198 A 
ATOM     79  F   UNL A   1      39.722  31.908  35.823  1.00  0.00    -0.203 F 
ATOM     80  F   UNL A   1      44.709  32.890  37.668  1.00  0.00    -0.200 F 
ATOM     81  C   UNL A   1      42.383  33.061  37.948  1.00  0.00     0.200 A 
ATOM     82  F   UNL A   1      40.055  33.339  38.039  1.00  0.00    -0.200 F 
ATOM     83  F   UNL A   1      42.548  33.873  39.002  1.00  0.00    -0.200 F 
ENDBRANCH  59  73
BRANCH  60  84
ATOM     84  C   UNL A   1      43.416  24.350  27.546  1.00  0.00     0.064 A 
ATOM     85  C   UNL A   1      42.258  23.757  28.101  1.00  0.00     0.173 A 
ATOM     86  C   UNL A   1      43.911  23.788  26.365  1.00  0.00     0.173 A 
ATOM     87  F   UNL A   1      41.771  24.230  29.259  1.00  0.00    -0.203 F 
ATOM     88  C   UNL A   1      41.504  22.825  27.394  1.00  0.00     0.198 A 
ATOM     89  C   UNL A   1      43.152  22.847  25.653  1.00  0.00     0.198 A 
ATOM     90  F   UNL A   1      45.029  24.275  25.806  1.00  0.00    -0.203 F 
ATOM     91  F   UNL A   1      40.316  22.428  27.869  1.00  0.00    -0.200 F 
ATOM     92  C   UNL A   1      41.931  22.401  26.148  1.00  0.00     0.200 A 
ATOM     93  F   UNL A   1      43.540  22.471  24.426  1.00  0.00    -0.200 F 
ATOM     94  F   UNL A   1      41.153  21.602  25.405  1.00  0.00    -0.200 F 
ENDBRANCH  60  84
BRANCH  72  95
ATOM     95  C   UNL A   1      39.248  30.611  29.881  1.00  0.00     0.064 A 
ATOM     96  C   UNL A   1      38.809  31.955  30.161  1.00  0.00     0.173 A 
ATOM     97  C   UNL A   1      38.187  29.675  29.957  1.00  0.00     0.173 A 
ATOM     98  F   UNL A   1      39.523  33.050  29.845  1.00  0.00    -0.203 F 
ATOM     99  C   UNL A   1      37.616  32.249  30.816  1.00  0.00     0.198 A 
ATOM    100  C   UNL A   1      36.907  30.028  30.428  1.00  0.00     0.198 A 
ATOM    101  F   UNL A   1      38.330  28.408  29.550  1.00  0.00    -0.203 F 
ATOM    102  F   UNL A   1      37.414  33.483  31.304  1.00  0.00    -0.200 F 
ATOM    103  C   UNL A   1      36.659  31.281  30.954  1.00  0.00     0.200 A 
ATOM    104  F   UNL A   1      35.904  29.141  30.370  1.00  0.00    -0.200 F 
ATOM    105  F   UNL A   1      35.495  31.566  31.551  1.00  0.00    -0.200 F 
ENDBRANCH  72  95
ENDBRANCH  46  47
ENDBRANCH  39  41
ENDBRANCH  38  39
ENDBRANCH  37  38
ENDBRANCH  36  37
ENDBRANCH  35  36
ENDBRANCH  34  35
ENDBRANCH  33  34
ENDBRANCH  32  33
ENDBRANCH  31  32
ENDBRANCH   1  31
TORSDOF 25
ENDMDL
