MODEL 1
REMARK VINA RESULT:     -10.7      0.000      0.000
REMARK SMILES CC(C)N1C(=O)C[C@@H]([N@@H+]2CC[C@H](C(=O)OCCOCCOCCOCCOC(=O)c3ccc(-c4c5nc(c(-c6c(F)c(F)c(F)c(F)c6F)c6ccc([nH]6)c(-c6c(F)c(F)c(F)c(F)c6F)c6nc(c(-c7c(F)c(F)c(F)c(F)c7F)c7ccc4[nH]7)C=C6)C=C5)cc3)[C@@H]2C)C1=O
REMARK SMILES IDX 21 1 20 2 19 3 18 4 17 5 16 6 15 7 13 8 14 9 12 10 9 11
REMARK SMILES IDX 10 12 93 13 11 15 94 16 8 17 4 18 5 19 95 20 6 21 7 22 96 23
REMARK SMILES IDX 2 24 1 25 3 26 22 27 23 28 24 29 25 30 26 31 27 32 28 33
REMARK SMILES IDX 29 34 30 35 31 36 92 37 32 38 91 39 33 40 34 41 35 42 85 43
REMARK SMILES IDX 36 44 90 45 84 46 86 47 37 48 89 49 83 50 82 51 38 53 70 54
REMARK SMILES IDX 50 55 69 56 51 57 54 58 68 59 87 60 52 61 53 62 67 64 88 65
REMARK SMILES IDX 55 66 39 67 40 68 48 69 41 70 42 71 46 72 49 73 43 74 44 75
REMARK SMILES IDX 47 76 45 77 71 78 72 79 80 80 73 81 74 82 78 83 81 84 75 85
REMARK SMILES IDX 76 86 79 87 77 88 56 89 57 90 65 91 58 92 59 93 63 94 66 95
REMARK SMILES IDX 60 96 61 97 64 98 62 99
REMARK H PARENT 9 14 86 52 54 63
REMARK Flexibility Score: inf
ROOT
ATOM      1  O   UNL A   1      39.482  22.080  26.549  1.00  0.00    -0.377 OA
ENDROOT
BRANCH   1   2
ATOM      2  C   UNL A   1      38.202  22.329  25.986  1.00  0.00     0.188 C 
BRANCH   2   3
ATOM      3  C   UNL A   1      37.655  23.753  25.756  1.00  0.00     0.188 C 
BRANCH   3   4
ATOM      4  O   UNL A   1      36.242  23.830  25.826  1.00  0.00    -0.376 OA
BRANCH   4   5
ATOM      5  C   UNL A   1      35.474  24.104  24.677  1.00  0.00     0.202 C 
BRANCH   5   6
ATOM      6  C   UNL A   1      34.372  25.166  24.727  1.00  0.00     0.261 C 
BRANCH   6   7
ATOM      7  O   UNL A   1      33.210  24.871  25.513  1.00  0.00    -0.463 OA
BRANCH   7   8
ATOM      8  C   UNL A   1      31.998  24.972  24.926  1.00  0.00     0.315 C 
ATOM      9  O   UNL A   1      31.439  26.041  24.710  1.00  0.00    -0.252 OA
BRANCH   8  10
ATOM     10  C   UNL A   1      31.410  23.621  24.526  1.00  0.00     0.162 C 
ATOM     11  N   UNL A   1      32.203  21.355  24.829  1.00  0.00    -0.321 N 
ATOM     12  C   UNL A   1      32.582  21.735  23.480  1.00  0.00     0.264 C 
ATOM     13  C   UNL A   1      31.495  22.442  25.514  1.00  0.00     0.196 C 
ATOM     14  H   UNL A   1      31.486  20.635  24.749  1.00  0.00     0.349 HD
ATOM     15  C   UNL A   1      31.927  23.081  23.194  1.00  0.00     0.083 C 
ATOM     16  C   UNL A   1      31.888  22.764  26.955  1.00  0.00     0.076 C 
BRANCH  11  17
ATOM     17  C   UNL A   1      33.087  20.445  25.570  1.00  0.00     0.284 C 
ATOM     18  N   UNL A   1      34.331  18.641  24.663  1.00  0.00    -0.275 N 
ATOM     19  C   UNL A   1      35.255  19.589  25.002  1.00  0.00     0.236 C 
ATOM     20  C   UNL A   1      33.060  19.019  25.028  1.00  0.00     0.288 C 
ATOM     21  O   UNL A   1      36.473  19.512  24.930  1.00  0.00    -0.274 OA
ATOM     22  C   UNL A   1      34.566  20.790  25.568  1.00  0.00     0.176 C 
ATOM     23  O   UNL A   1      32.057  18.318  24.961  1.00  0.00    -0.267 OA
BRANCH  18  24
ATOM     24  C   UNL A   1      34.610  17.306  24.105  1.00  0.00     0.087 C 
ATOM     25  C   UNL A   1      34.352  16.206  25.143  1.00  0.00     0.031 C 
ATOM     26  C   UNL A   1      33.850  16.952  22.822  1.00  0.00     0.031 C 
ENDBRANCH  18  24
ENDBRANCH  11  17
ENDBRANCH   8  10
ENDBRANCH   7   8
ENDBRANCH   6   7
ENDBRANCH   5   6
ENDBRANCH   4   5
ENDBRANCH   3   4
ENDBRANCH   2   3
ENDBRANCH   1   2
BRANCH   1  27
ATOM     27  C   UNL A   1      40.178  20.926  26.101  1.00  0.00     0.188 C 
BRANCH  27  28
ATOM     28  C   UNL A   1      41.618  20.879  26.647  1.00  0.00     0.188 C 
BRANCH  28  29
ATOM     29  O   UNL A   1      41.901  19.699  27.378  1.00  0.00    -0.376 OA
BRANCH  29  30
ATOM     30  C   UNL A   1      42.659  18.653  26.793  1.00  0.00     0.202 C 
BRANCH  30  31
ATOM     31  C   UNL A   1      43.206  18.632  25.349  1.00  0.00     0.261 C 
BRANCH  31  32
ATOM     32  O   UNL A   1      44.611  18.490  25.138  1.00  0.00    -0.460 OA
BRANCH  32  33
ATOM     33  C   UNL A   1      45.207  19.279  24.228  1.00  0.00     0.338 C 
ATOM     34  O   UNL A   1      45.682  18.951  23.152  1.00  0.00    -0.246 OA
BRANCH  33  35
ATOM     35  C   UNL A   1      45.028  20.669  24.691  1.00  0.00     0.060 A 
ATOM     36  C   UNL A   1      44.559  21.639  23.794  1.00  0.00     0.016 A 
ATOM     37  C   UNL A   1      45.300  21.004  26.019  1.00  0.00     0.016 A 
ATOM     38  C   UNL A   1      44.389  22.958  24.217  1.00  0.00     0.010 A 
ATOM     39  C   UNL A   1      45.163  22.328  26.433  1.00  0.00     0.010 A 
ATOM     40  C   UNL A   1      44.739  23.315  25.525  1.00  0.00    -0.014 A 
BRANCH  40  41
ATOM     41  C   UNL A   1      44.879  24.743  25.889  1.00  0.00     0.031 A 
ATOM     42  C   UNL A   1      46.239  25.368  25.760  1.00  0.00     0.074 A 
ATOM     43  C   UNL A   1      43.834  25.463  26.332  1.00  0.00     0.049 A 
ATOM     44  N   UNL A   1      46.650  26.554  26.125  1.00  0.00    -0.248 NA
ATOM     45  C   UNL A   1      47.281  24.532  25.140  1.00  0.00     0.031 C 
ATOM     46  C   UNL A   1      42.462  24.979  26.448  1.00  0.00     0.029 A 
ATOM     47  N   UNL A   1      43.779  26.756  26.789  1.00  0.00    -0.354 N 
ATOM     48  C   UNL A   1      47.997  26.600  25.794  1.00  0.00     0.074 A 
ATOM     49  C   UNL A   1      48.343  25.318  25.222  1.00  0.00     0.031 C 
ATOM     50  C   UNL A   1      41.700  25.957  26.968  1.00  0.00     0.029 A 
ATOM     51  C   UNL A   1      42.542  27.117  27.262  1.00  0.00     0.049 A 
ATOM     52  H   UNL A   1      44.552  27.366  26.778  1.00  0.00     0.167 HD
ATOM     53  C   UNL A   1      48.868  27.624  25.953  1.00  0.00     0.037 A 
ATOM     54  C   UNL A   1      42.151  28.242  27.893  1.00  0.00     0.037 A 
ATOM     55  C   UNL A   1      48.516  28.894  26.531  1.00  0.00     0.049 A 
ATOM     56  C   UNL A   1      43.162  29.336  28.140  1.00  0.00     0.074 A 
ATOM     57  C   UNL A   1      49.318  30.003  26.724  1.00  0.00     0.029 A 
ATOM     58  N   UNL A   1      47.258  29.216  27.018  1.00  0.00    -0.354 N 
ATOM     59  N   UNL A   1      44.429  29.387  27.807  1.00  0.00    -0.248 NA
ATOM     60  C   UNL A   1      42.686  30.532  28.852  1.00  0.00     0.031 C 
ATOM     61  C   UNL A   1      48.563  30.974  27.389  1.00  0.00     0.029 A 
ATOM     62  C   UNL A   1      47.270  30.498  27.540  1.00  0.00     0.049 A 
ATOM     63  H   UNL A   1      46.474  28.621  26.995  1.00  0.00     0.167 HD
ATOM     64  C   UNL A   1      44.890  30.628  28.230  1.00  0.00     0.074 A 
ATOM     65  C   UNL A   1      43.764  31.304  28.839  1.00  0.00     0.031 C 
ATOM     66  C   UNL A   1      46.132  31.163  28.123  1.00  0.00     0.037 A 
BRANCH  53  67
ATOM     67  C   UNL A   1      50.291  27.400  25.533  1.00  0.00     0.064 A 
ATOM     68  C   UNL A   1      50.710  27.581  24.207  1.00  0.00     0.173 A 
ATOM     69  C   UNL A   1      51.257  27.029  26.481  1.00  0.00     0.173 A 
ATOM     70  F   UNL A   1      49.823  27.919  23.258  1.00  0.00    -0.203 F 
ATOM     71  C   UNL A   1      52.038  27.377  23.840  1.00  0.00     0.198 A 
ATOM     72  C   UNL A   1      52.591  26.859  26.118  1.00  0.00     0.198 A 
ATOM     73  F   UNL A   1      50.911  26.843  27.764  1.00  0.00    -0.203 F 
ATOM     74  F   UNL A   1      52.405  27.509  22.558  1.00  0.00    -0.200 F 
ATOM     75  C   UNL A   1      52.978  27.025  24.798  1.00  0.00     0.200 A 
ATOM     76  F   UNL A   1      53.499  26.534  27.047  1.00  0.00    -0.200 F 
ATOM     77  F   UNL A   1      54.258  26.840  24.446  1.00  0.00    -0.200 F 
ENDBRANCH  53  67
BRANCH  54  78
ATOM     78  C   UNL A   1      40.749  28.387  28.365  1.00  0.00     0.064 A 
ATOM     79  C   UNL A   1      39.763  28.950  27.542  1.00  0.00     0.173 A 
ATOM     80  C   UNL A   1      40.370  28.001  29.660  1.00  0.00     0.173 A 
ATOM     81  F   UNL A   1      40.078  29.358  26.304  1.00  0.00    -0.203 F 
ATOM     82  C   UNL A   1      38.461  29.144  28.003  1.00  0.00     0.198 A 
ATOM     83  C   UNL A   1      39.061  28.164  30.109  1.00  0.00     0.198 A 
ATOM     84  F   UNL A   1      41.272  27.459  30.491  1.00  0.00    -0.203 F 
ATOM     85  F   UNL A   1      37.555  29.738  27.214  1.00  0.00    -0.200 F 
ATOM     86  C   UNL A   1      38.110  28.747  29.284  1.00  0.00     0.200 A 
ATOM     87  F   UNL A   1      38.722  27.764  31.341  1.00  0.00    -0.200 F 
ATOM     88  F   UNL A   1      36.859  28.932  29.727  1.00  0.00    -0.200 F 
ENDBRANCH  54  78
BRANCH  66  89
ATOM     89  C   UNL A   1      46.333  32.570  28.614  1.00  0.00     0.064 A 
ATOM     90  C   UNL A   1      46.828  32.845  29.897  1.00  0.00     0.173 A 
ATOM     91  C   UNL A   1      46.088  33.656  27.758  1.00  0.00     0.173 A 
ATOM     92  F   UNL A   1      47.067  31.845  30.759  1.00  0.00    -0.203 F 
ATOM     93  C   UNL A   1      47.050  34.156  30.311  1.00  0.00     0.198 A 
ATOM     94  C   UNL A   1      46.345  34.961  28.163  1.00  0.00     0.198 A 
ATOM     95  F   UNL A   1      45.623  33.447  26.518  1.00  0.00    -0.203 F 
ATOM     96  F   UNL A   1      47.481  34.399  31.557  1.00  0.00    -0.200 F 
ATOM     97  C   UNL A   1      46.819  35.212  29.441  1.00  0.00     0.200 A 
ATOM     98  F   UNL A   1      46.140  35.978  27.314  1.00  0.00    -0.200 F 
ATOM     99  F   UNL A   1      47.050  36.471  29.837  1.00  0.00    -0.200 F 
ENDBRANCH  66  89
ENDBRANCH  40  41
ENDBRANCH  33  35
ENDBRANCH  32  33
ENDBRANCH  31  32
ENDBRANCH  30  31
ENDBRANCH  29  30
ENDBRANCH  28  29
ENDBRANCH  27  28
ENDBRANCH   1  27
TORSDOF 22
ENDMDL
MODEL 2
REMARK VINA RESULT:     -10.1      4.503      7.522
REMARK SMILES CC(C)N1C(=O)C[C@@H]([N@@H+]2CC[C@H](C(=O)OCCOCCOCCOCCOC(=O)c3ccc(-c4c5nc(c(-c6c(F)c(F)c(F)c(F)c6F)c6ccc([nH]6)c(-c6c(F)c(F)c(F)c(F)c6F)c6nc(c(-c7c(F)c(F)c(F)c(F)c7F)c7ccc4[nH]7)C=C6)C=C5)cc3)[C@@H]2C)C1=O
REMARK SMILES IDX 21 1 20 2 19 3 18 4 17 5 16 6 15 7 13 8 14 9 12 10 9 11
REMARK SMILES IDX 10 12 93 13 11 15 94 16 8 17 4 18 5 19 95 20 6 21 7 22 96 23
REMARK SMILES IDX 2 24 1 25 3 26 22 27 23 28 24 29 25 30 26 31 27 32 28 33
REMARK SMILES IDX 29 34 30 35 31 36 92 37 32 38 91 39 33 40 34 41 35 42 85 43
REMARK SMILES IDX 36 44 90 45 84 46 86 47 37 48 89 49 83 50 82 51 38 53 70 54
REMARK SMILES IDX 50 55 69 56 51 57 54 58 68 59 87 60 52 61 53 62 67 64 88 65
REMARK SMILES IDX 55 66 39 67 40 68 48 69 41 70 42 71 46 72 49 73 43 74 44 75
REMARK SMILES IDX 47 76 45 77 71 78 72 79 80 80 73 81 74 82 78 83 81 84 75 85
REMARK SMILES IDX 76 86 79 87 77 88 56 89 57 90 65 91 58 92 59 93 63 94 66 95
REMARK SMILES IDX 60 96 61 97 64 98 62 99
REMARK H PARENT 9 14 86 52 54 63
REMARK Flexibility Score: inf
ROOT
ATOM      1  O   UNL A   1      40.445  19.911  26.467  1.00  0.00    -0.377 OA
ENDROOT
BRANCH   1   2
ATOM      2  C   UNL A   1      40.085  21.285  26.416  1.00  0.00     0.188 C 
BRANCH   2   3
ATOM      3  C   UNL A   1      38.712  21.768  25.905  1.00  0.00     0.188 C 
BRANCH   3   4
ATOM      4  O   UNL A   1      38.213  21.001  24.824  1.00  0.00    -0.376 OA
BRANCH   4   5
ATOM      5  C   UNL A   1      37.010  20.278  24.944  1.00  0.00     0.202 C 
BRANCH   5   6
ATOM      6  C   UNL A   1      35.708  21.011  25.284  1.00  0.00     0.261 C 
BRANCH   6   7
ATOM      7  O   UNL A   1      34.489  20.262  25.193  1.00  0.00    -0.463 OA
BRANCH   7   8
ATOM      8  C   UNL A   1      33.354  20.922  24.877  1.00  0.00     0.315 C 
ATOM      9  O   UNL A   1      32.234  20.517  25.164  1.00  0.00    -0.252 OA
BRANCH   8  10
ATOM     10  C   UNL A   1      33.610  22.244  24.158  1.00  0.00     0.162 C 
ATOM     11  N   UNL A   1      32.449  24.366  24.204  1.00  0.00    -0.321 N 
ATOM     12  C   UNL A   1      31.965  23.671  23.025  1.00  0.00     0.264 C 
ATOM     13  C   UNL A   1      33.440  23.566  24.931  1.00  0.00     0.196 C 
ATOM     14  H   UNL A   1      32.997  25.163  23.880  1.00  0.00     0.349 HD
ATOM     15  C   UNL A   1      32.819  22.418  22.863  1.00  0.00     0.083 C 
ATOM     16  C   UNL A   1      33.323  23.476  26.451  1.00  0.00     0.076 C 
BRANCH  11  17
ATOM     17  C   UNL A   1      31.520  25.250  24.921  1.00  0.00     0.284 C 
ATOM     18  N   UNL A   1      30.721  27.355  24.177  1.00  0.00    -0.275 N 
ATOM     19  C   UNL A   1      29.648  26.512  24.112  1.00  0.00     0.236 C 
ATOM     20  C   UNL A   1      31.824  26.730  24.708  1.00  0.00     0.288 C 
ATOM     21  O   UNL A   1      28.494  26.783  23.808  1.00  0.00    -0.274 OA
ATOM     22  C   UNL A   1      30.054  25.138  24.542  1.00  0.00     0.176 C 
ATOM     23  O   UNL A   1      32.884  27.272  24.998  1.00  0.00    -0.267 OA
BRANCH  18  24
ATOM     24  C   UNL A   1      30.722  28.795  23.866  1.00  0.00     0.087 C 
ATOM     25  C   UNL A   1      31.297  29.613  25.031  1.00  0.00     0.031 C 
ATOM     26  C   UNL A   1      31.459  29.195  22.583  1.00  0.00     0.031 C 
ENDBRANCH  18  24
ENDBRANCH  11  17
ENDBRANCH   8  10
ENDBRANCH   7   8
ENDBRANCH   6   7
ENDBRANCH   5   6
ENDBRANCH   4   5
ENDBRANCH   3   4
ENDBRANCH   2   3
ENDBRANCH   1   2
BRANCH   1  27
ATOM     27  C   UNL A   1      41.828  19.596  26.405  1.00  0.00     0.188 C 
BRANCH  27  28
ATOM     28  C   UNL A   1      42.675  20.819  26.003  1.00  0.00     0.188 C 
BRANCH  28  29
ATOM     29  O   UNL A   1      43.411  20.622  24.810  1.00  0.00    -0.376 OA
BRANCH  29  30
ATOM     30  C   UNL A   1      44.816  20.815  24.789  1.00  0.00     0.202 C 
BRANCH  30  31
ATOM     31  C   UNL A   1      45.542  22.176  24.864  1.00  0.00     0.261 C 
BRANCH  31  32
ATOM     32  O   UNL A   1      44.778  23.361  25.096  1.00  0.00    -0.460 OA
BRANCH  32  33
ATOM     33  C   UNL A   1      45.413  24.545  25.094  1.00  0.00     0.338 C 
ATOM     34  O   UNL A   1      46.369  24.877  24.411  1.00  0.00    -0.246 OA
BRANCH  33  35
ATOM     35  C   UNL A   1      44.626  25.450  25.954  1.00  0.00     0.060 A 
ATOM     36  C   UNL A   1      44.722  26.836  25.767  1.00  0.00     0.016 A 
ATOM     37  C   UNL A   1      43.775  24.923  26.928  1.00  0.00     0.016 A 
ATOM     38  C   UNL A   1      43.987  27.703  26.576  1.00  0.00     0.010 A 
ATOM     39  C   UNL A   1      43.067  25.790  27.759  1.00  0.00     0.010 A 
ATOM     40  C   UNL A   1      43.196  27.182  27.608  1.00  0.00    -0.014 A 
BRANCH  40  41
ATOM     41  C   UNL A   1      42.679  28.077  28.667  1.00  0.00     0.031 A 
ATOM     42  C   UNL A   1      43.508  28.242  29.909  1.00  0.00     0.074 A 
ATOM     43  C   UNL A   1      41.504  28.717  28.538  1.00  0.00     0.049 A 
ATOM     44  N   UNL A   1      43.226  28.866  31.023  1.00  0.00    -0.248 NA
ATOM     45  C   UNL A   1      44.836  27.606  29.893  1.00  0.00     0.031 C 
ATOM     46  C   UNL A   1      40.644  28.675  27.360  1.00  0.00     0.029 A 
ATOM     47  N   UNL A   1      40.827  29.514  29.427  1.00  0.00    -0.354 N 
ATOM     48  C   UNL A   1      44.332  28.683  31.843  1.00  0.00     0.074 A 
ATOM     49  C   UNL A   1      45.279  27.872  31.111  1.00  0.00     0.031 C 
ATOM     50  C   UNL A   1      39.535  29.396  27.607  1.00  0.00     0.029 A 
ATOM     51  C   UNL A   1      39.592  29.910  28.976  1.00  0.00     0.049 A 
ATOM     52  H   UNL A   1      41.191  29.776  30.304  1.00  0.00     0.167 HD
ATOM     53  C   UNL A   1      44.538  29.153  33.095  1.00  0.00     0.037 A 
ATOM     54  C   UNL A   1      38.612  30.578  29.615  1.00  0.00     0.037 A 
ATOM     55  C   UNL A   1      43.586  29.954  33.817  1.00  0.00     0.049 A 
ATOM     56  C   UNL A   1      38.829  31.017  31.043  1.00  0.00     0.074 A 
ATOM     57  C   UNL A   1      43.701  30.494  35.085  1.00  0.00     0.029 A 
ATOM     58  N   UNL A   1      42.337  30.318  33.336  1.00  0.00    -0.354 N 
ATOM     59  N   UNL A   1      39.883  30.863  31.808  1.00  0.00    -0.248 NA
ATOM     60  C   UNL A   1      37.717  31.723  31.698  1.00  0.00     0.031 C 
ATOM     61  C   UNL A   1      42.495  31.130  35.397  1.00  0.00     0.029 A 
ATOM     62  C   UNL A   1      41.658  31.051  34.296  1.00  0.00     0.049 A 
ATOM     63  H   UNL A   1      41.985  30.089  32.445  1.00  0.00     0.167 HD
ATOM     64  C   UNL A   1      39.578  31.484  33.014  1.00  0.00     0.074 A 
ATOM     65  C   UNL A   1      38.243  32.025  32.877  1.00  0.00     0.031 C 
ATOM     66  C   UNL A   1      40.336  31.601  34.133  1.00  0.00     0.037 A 
BRANCH  53  67
ATOM     67  C   UNL A   1      45.822  28.782  33.776  1.00  0.00     0.064 A 
ATOM     68  C   UNL A   1      46.958  29.604  33.715  1.00  0.00     0.173 A 
ATOM     69  C   UNL A   1      45.907  27.601  34.529  1.00  0.00     0.173 A 
ATOM     70  F   UNL A   1      46.935  30.736  32.995  1.00  0.00    -0.203 F 
ATOM     71  C   UNL A   1      48.137  29.245  34.363  1.00  0.00     0.198 A 
ATOM     72  C   UNL A   1      47.077  27.262  35.203  1.00  0.00     0.198 A 
ATOM     73  F   UNL A   1      44.850  26.780  34.621  1.00  0.00    -0.203 F 
ATOM     74  F   UNL A   1      49.224  30.021  34.251  1.00  0.00    -0.200 F 
ATOM     75  C   UNL A   1      48.192  28.079  35.113  1.00  0.00     0.200 A 
ATOM     76  F   UNL A   1      47.123  26.144  35.939  1.00  0.00    -0.200 F 
ATOM     77  F   UNL A   1      49.324  27.741  35.746  1.00  0.00    -0.200 F 
ENDBRANCH  53  67
BRANCH  54  78
ATOM     78  C   UNL A   1      37.322  30.854  28.927  1.00  0.00     0.064 A 
ATOM     79  C   UNL A   1      36.991  32.148  28.501  1.00  0.00     0.173 A 
ATOM     80  C   UNL A   1      36.378  29.838  28.711  1.00  0.00     0.173 A 
ATOM     81  F   UNL A   1      37.847  33.159  28.705  1.00  0.00    -0.203 F 
ATOM     82  C   UNL A   1      35.757  32.420  27.911  1.00  0.00     0.198 A 
ATOM     83  C   UNL A   1      35.159  30.104  28.091  1.00  0.00     0.198 A 
ATOM     84  F   UNL A   1      36.642  28.581  29.099  1.00  0.00    -0.203 F 
ATOM     85  F   UNL A   1      35.444  33.678  27.568  1.00  0.00    -0.200 F 
ATOM     86  C   UNL A   1      34.844  31.397  27.702  1.00  0.00     0.200 A 
ATOM     87  F   UNL A   1      34.288  29.110  27.876  1.00  0.00    -0.200 F 
ATOM     88  F   UNL A   1      33.659  31.659  27.135  1.00  0.00    -0.200 F 
ENDBRANCH  54  78
BRANCH  66  89
ATOM     89  C   UNL A   1      39.774  32.393  35.280  1.00  0.00     0.064 A 
ATOM     90  C   UNL A   1      39.983  33.774  35.403  1.00  0.00     0.173 A 
ATOM     91  C   UNL A   1      38.956  31.765  36.234  1.00  0.00     0.173 A 
ATOM     92  F   UNL A   1      40.766  34.420  34.526  1.00  0.00    -0.203 F 
ATOM     93  C   UNL A   1      39.411  34.493  36.450  1.00  0.00     0.198 A 
ATOM     94  C   UNL A   1      38.358  32.493  37.258  1.00  0.00     0.198 A 
ATOM     95  F   UNL A   1      38.717  30.447  36.158  1.00  0.00    -0.203 F 
ATOM     96  F   UNL A   1      39.660  35.804  36.574  1.00  0.00    -0.200 F 
ATOM     97  C   UNL A   1      38.592  33.855  37.370  1.00  0.00     0.200 A 
ATOM     98  F   UNL A   1      37.551  31.877  38.133  1.00  0.00    -0.200 F 
ATOM     99  F   UNL A   1      38.030  34.552  38.366  1.00  0.00    -0.200 F 
ENDBRANCH  66  89
ENDBRANCH  40  41
ENDBRANCH  33  35
ENDBRANCH  32  33
ENDBRANCH  31  32
ENDBRANCH  30  31
ENDBRANCH  29  30
ENDBRANCH  28  29
ENDBRANCH  27  28
ENDBRANCH   1  27
TORSDOF 22
ENDMDL
MODEL 3
REMARK VINA RESULT:     -10.0      2.274      4.449
REMARK SMILES CC(C)N1C(=O)C[C@@H]([N@@H+]2CC[C@H](C(=O)OCCOCCOCCOCCOC(=O)c3ccc(-c4c5nc(c(-c6c(F)c(F)c(F)c(F)c6F)c6ccc([nH]6)c(-c6c(F)c(F)c(F)c(F)c6F)c6nc(c(-c7c(F)c(F)c(F)c(F)c7F)c7ccc4[nH]7)C=C6)C=C5)cc3)[C@@H]2C)C1=O
REMARK SMILES IDX 21 1 20 2 19 3 18 4 17 5 16 6 15 7 13 8 14 9 12 10 9 11
REMARK SMILES IDX 10 12 93 13 11 15 94 16 8 17 4 18 5 19 95 20 6 21 7 22 96 23
REMARK SMILES IDX 2 24 1 25 3 26 22 27 23 28 24 29 25 30 26 31 27 32 28 33
REMARK SMILES IDX 29 34 30 35 31 36 92 37 32 38 91 39 33 40 34 41 35 42 85 43
REMARK SMILES IDX 36 44 90 45 84 46 86 47 37 48 89 49 83 50 82 51 38 53 70 54
REMARK SMILES IDX 50 55 69 56 51 57 54 58 68 59 87 60 52 61 53 62 67 64 88 65
REMARK SMILES IDX 55 66 39 67 40 68 48 69 41 70 42 71 46 72 49 73 43 74 44 75
REMARK SMILES IDX 47 76 45 77 71 78 72 79 80 80 73 81 74 82 78 83 81 84 75 85
REMARK SMILES IDX 76 86 79 87 77 88 56 89 57 90 65 91 58 92 59 93 63 94 66 95
REMARK SMILES IDX 60 96 61 97 64 98 62 99
REMARK H PARENT 9 14 86 52 54 63
REMARK Flexibility Score: inf
ROOT
ATOM      1  O   UNL A   1      39.897  23.352  26.508  1.00  0.00    -0.377 OA
ENDROOT
BRANCH   1   2
ATOM      2  C   UNL A   1      38.684  24.080  26.366  1.00  0.00     0.188 C 
BRANCH   2   3
ATOM      3  C   UNL A   1      37.349  23.408  25.984  1.00  0.00     0.188 C 
BRANCH   3   4
ATOM      4  O   UNL A   1      36.978  23.623  24.634  1.00  0.00    -0.376 OA
BRANCH   4   5
ATOM      5  C   UNL A   1      35.694  24.099  24.303  1.00  0.00     0.202 C 
BRANCH   5   6
ATOM      6  C   UNL A   1      34.468  23.588  25.067  1.00  0.00     0.261 C 
BRANCH   6   7
ATOM      7  O   UNL A   1      33.197  24.155  24.725  1.00  0.00    -0.463 OA
BRANCH   7   8
ATOM      8  C   UNL A   1      32.569  23.699  23.619  1.00  0.00     0.315 C 
ATOM      9  O   UNL A   1      33.005  22.793  22.920  1.00  0.00    -0.252 OA
BRANCH   8  10
ATOM     10  C   UNL A   1      31.242  24.405  23.349  1.00  0.00     0.162 C 
ATOM     11  N   UNL A   1      30.639  26.746  23.268  1.00  0.00    -0.321 N 
ATOM     12  C   UNL A   1      30.271  26.284  24.594  1.00  0.00     0.264 C 
ATOM     13  C   UNL A   1      31.228  25.668  22.467  1.00  0.00     0.196 C 
ATOM     14  H   UNL A   1      29.774  26.950  22.769  1.00  0.00     0.349 HD
ATOM     15  C   UNL A   1      30.458  24.772  24.608  1.00  0.00     0.083 C 
ATOM     16  C   UNL A   1      32.491  25.973  21.663  1.00  0.00     0.076 C 
BRANCH  11  17
ATOM     17  C   UNL A   1      31.096  28.135  23.117  1.00  0.00     0.284 C 
ATOM     18  N   UNL A   1      29.902  30.086  23.742  1.00  0.00    -0.275 N 
ATOM     19  C   UNL A   1      30.936  29.990  24.629  1.00  0.00     0.236 C 
ATOM     20  C   UNL A   1      29.962  29.101  22.785  1.00  0.00     0.288 C 
ATOM     21  O   UNL A   1      31.242  30.774  25.517  1.00  0.00    -0.274 OA
ATOM     22  C   UNL A   1      31.746  28.768  24.335  1.00  0.00     0.176 C 
ATOM     23  O   UNL A   1      29.241  29.016  21.798  1.00  0.00    -0.267 OA
BRANCH  18  24
ATOM     24  C   UNL A   1      28.899  31.165  23.679  1.00  0.00     0.087 C 
ATOM     25  C   UNL A   1      29.234  32.169  22.568  1.00  0.00     0.031 C 
ATOM     26  C   UNL A   1      27.447  30.709  23.501  1.00  0.00     0.031 C 
ENDBRANCH  18  24
ENDBRANCH  11  17
ENDBRANCH   8  10
ENDBRANCH   7   8
ENDBRANCH   6   7
ENDBRANCH   5   6
ENDBRANCH   4   5
ENDBRANCH   3   4
ENDBRANCH   2   3
ENDBRANCH   1   2
BRANCH   1  27
ATOM     27  C   UNL A   1      39.811  21.935  26.503  1.00  0.00     0.188 C 
BRANCH  27  28
ATOM     28  C   UNL A   1      40.956  21.290  27.306  1.00  0.00     0.188 C 
BRANCH  28  29
ATOM     29  O   UNL A   1      41.016  19.882  27.164  1.00  0.00    -0.376 OA
BRANCH  29  30
ATOM     30  C   UNL A   1      42.266  19.211  27.145  1.00  0.00     0.202 C 
BRANCH  30  31
ATOM     31  C   UNL A   1      42.950  18.614  25.896  1.00  0.00     0.261 C 
BRANCH  31  32
ATOM     32  O   UNL A   1      44.290  18.997  25.585  1.00  0.00    -0.460 OA
BRANCH  32  33
ATOM     33  C   UNL A   1      44.524  19.630  24.423  1.00  0.00     0.338 C 
ATOM     34  O   UNL A   1      44.335  19.208  23.293  1.00  0.00    -0.246 OA
BRANCH  33  35
ATOM     35  C   UNL A   1      44.896  21.017  24.763  1.00  0.00     0.060 A 
ATOM     36  C   UNL A   1      45.299  21.322  26.071  1.00  0.00     0.016 A 
ATOM     37  C   UNL A   1      44.872  22.007  23.779  1.00  0.00     0.016 A 
ATOM     38  C   UNL A   1      45.650  22.630  26.406  1.00  0.00     0.010 A 
ATOM     39  C   UNL A   1      45.189  23.321  24.122  1.00  0.00     0.010 A 
ATOM     40  C   UNL A   1      45.547  23.642  25.444  1.00  0.00    -0.014 A 
BRANCH  40  41
ATOM     41  C   UNL A   1      45.594  25.063  25.857  1.00  0.00     0.031 A 
ATOM     42  C   UNL A   1      46.923  25.760  25.815  1.00  0.00     0.074 A 
ATOM     43  C   UNL A   1      44.492  25.713  26.269  1.00  0.00     0.049 A 
ATOM     44  N   UNL A   1      47.252  26.954  26.236  1.00  0.00    -0.248 NA
ATOM     45  C   UNL A   1      48.036  25.000  25.223  1.00  0.00     0.031 C 
ATOM     46  C   UNL A   1      43.143  25.156  26.301  1.00  0.00     0.029 A 
ATOM     47  N   UNL A   1      44.346  26.987  26.760  1.00  0.00    -0.354 N 
ATOM     48  C   UNL A   1      48.610  27.079  25.974  1.00  0.00     0.074 A 
ATOM     49  C   UNL A   1      49.050  25.836  25.382  1.00  0.00     0.031 C 
ATOM     50  C   UNL A   1      42.306  26.076  26.811  1.00  0.00     0.029 A 
ATOM     51  C   UNL A   1      43.071  27.268  27.182  1.00  0.00     0.049 A 
ATOM     52  H   UNL A   1      45.085  27.636  26.806  1.00  0.00     0.167 HD
ATOM     53  C   UNL A   1      49.417  28.141  26.207  1.00  0.00     0.037 A 
ATOM     54  C   UNL A   1      42.591  28.351  27.826  1.00  0.00     0.037 A 
ATOM     55  C   UNL A   1      48.971  29.371  26.804  1.00  0.00     0.049 A 
ATOM     56  C   UNL A   1      43.530  29.487  28.155  1.00  0.00     0.074 A 
ATOM     57  C   UNL A   1      49.703  30.514  27.070  1.00  0.00     0.029 A 
ATOM     58  N   UNL A   1      47.676  29.612  27.237  1.00  0.00    -0.354 N 
ATOM     59  N   UNL A   1      44.807  29.613  27.887  1.00  0.00    -0.248 NA
ATOM     60  C   UNL A   1      42.957  30.632  28.878  1.00  0.00     0.031 C 
ATOM     61  C   UNL A   1      48.866  31.423  27.725  1.00  0.00     0.029 A 
ATOM     62  C   UNL A   1      47.594  30.876  27.797  1.00  0.00     0.049 A 
ATOM     63  H   UNL A   1      46.925  28.979  27.157  1.00  0.00     0.167 HD
ATOM     64  C   UNL A   1      45.180  30.862  28.371  1.00  0.00     0.074 A 
ATOM     65  C   UNL A   1      43.992  31.459  28.942  1.00  0.00     0.031 C 
ATOM     66  C   UNL A   1      46.396  31.463  28.341  1.00  0.00     0.037 A 
BRANCH  53  67
ATOM     67  C   UNL A   1      50.869  28.003  25.853  1.00  0.00     0.064 A 
ATOM     68  C   UNL A   1      51.334  28.202  24.544  1.00  0.00     0.173 A 
ATOM     69  C   UNL A   1      51.813  27.700  26.845  1.00  0.00     0.173 A 
ATOM     70  F   UNL A   1      50.471  28.477  23.554  1.00  0.00    -0.203 F 
ATOM     71  C   UNL A   1      52.687  28.079  24.238  1.00  0.00     0.198 A 
ATOM     72  C   UNL A   1      53.169  27.612  26.543  1.00  0.00     0.198 A 
ATOM     73  F   UNL A   1      51.422  27.502  28.113  1.00  0.00    -0.203 F 
ATOM     74  F   UNL A   1      53.103  28.225  22.973  1.00  0.00    -0.200 F 
ATOM     75  C   UNL A   1      53.604  27.793  25.240  1.00  0.00     0.200 A 
ATOM     76  F   UNL A   1      54.053  27.351  27.515  1.00  0.00    -0.200 F 
ATOM     77  F   UNL A   1      54.907  27.687  24.947  1.00  0.00    -0.200 F 
ENDBRANCH  53  67
BRANCH  54  78
ATOM     78  C   UNL A   1      41.161  28.409  28.231  1.00  0.00     0.064 A 
ATOM     79  C   UNL A   1      40.187  28.940  27.373  1.00  0.00     0.173 A 
ATOM     80  C   UNL A   1      40.742  27.969  29.496  1.00  0.00     0.173 A 
ATOM     81  F   UNL A   1      40.538  29.396  26.162  1.00  0.00    -0.203 F 
ATOM     82  C   UNL A   1      38.856  29.051  27.774  1.00  0.00     0.198 A 
ATOM     83  C   UNL A   1      39.406  28.050  29.883  1.00  0.00     0.198 A 
ATOM     84  F   UNL A   1      41.631  27.453  30.358  1.00  0.00    -0.203 F 
ATOM     85  F   UNL A   1      37.958  29.617  26.955  1.00  0.00    -0.200 F 
ATOM     86  C   UNL A   1      38.466  28.603  29.026  1.00  0.00     0.200 A 
ATOM     87  F   UNL A   1      39.031  27.600  31.087  1.00  0.00    -0.200 F 
ATOM     88  F   UNL A   1      37.186  28.710  29.410  1.00  0.00    -0.200 F 
ENDBRANCH  54  78
BRANCH  66  89
ATOM     89  C   UNL A   1      46.499  32.861  28.884  1.00  0.00     0.064 A 
ATOM     90  C   UNL A   1      46.112  33.980  28.133  1.00  0.00     0.173 A 
ATOM     91  C   UNL A   1      46.931  33.073  30.204  1.00  0.00     0.173 A 
ATOM     92  F   UNL A   1      45.705  33.834  26.863  1.00  0.00    -0.203 F 
ATOM     93  C   UNL A   1      46.173  35.261  28.677  1.00  0.00     0.198 A 
ATOM     94  C   UNL A   1      46.956  34.350  30.754  1.00  0.00     0.198 A 
ATOM     95  F   UNL A   1      47.303  32.036  30.968  1.00  0.00    -0.203 F 
ATOM     96  F   UNL A   1      45.841  36.321  27.926  1.00  0.00    -0.200 F 
ATOM     97  C   UNL A   1      46.584  35.444  29.988  1.00  0.00     0.200 A 
ATOM     98  F   UNL A   1      47.334  34.522  32.029  1.00  0.00    -0.200 F 
ATOM     99  F   UNL A   1      46.626  36.676  30.514  1.00  0.00    -0.200 F 
ENDBRANCH  66  89
ENDBRANCH  40  41
ENDBRANCH  33  35
ENDBRANCH  32  33
ENDBRANCH  31  32
ENDBRANCH  30  31
ENDBRANCH  29  30
ENDBRANCH  28  29
ENDBRANCH  27  28
ENDBRANCH   1  27
TORSDOF 22
ENDMDL
