MODEL 1
REMARK VINA RESULT:      -8.3      0.000      0.000
REMARK SMILES CCS(=O)(=O)N[C@H]1C=C[C@@H](C(=O)OCCOCCOCCOCCOC(=O)c2ccc(-c3c4nc(c(-c5c(F)c(F)c(F)c(F)c5F)c5ccc([nH]5)c(-c5c(F)c(F)c(F)c(F)c5F)c5nc(c(-c6c(F)c(F)c(F)c(F)c6F)c6ccc3[nH]6)C=C5)C=C4)cc2)C1
REMARK SMILES IDX 18 1 17 2 16 3 15 4 14 5 13 6 11 7 12 8 10 9 7 10 8 11 91 12
REMARK SMILES IDX 9 13 6 14 3 16 4 17 5 18 2 19 1 20 19 21 20 22 21 23 22 24
REMARK SMILES IDX 23 25 24 26 25 27 26 28 27 29 28 30 29 31 90 32 30 33 89 34
REMARK SMILES IDX 31 35 32 36 33 37 83 38 34 39 88 40 82 41 84 42 35 43 87 44
REMARK SMILES IDX 81 45 80 46 36 48 68 49 48 50 67 51 49 52 52 53 66 54 85 55
REMARK SMILES IDX 50 56 51 57 65 59 86 60 53 61 37 62 38 63 46 64 39 65 40 66
REMARK SMILES IDX 44 67 47 68 41 69 42 70 45 71 43 72 69 73 70 74 78 75 71 76
REMARK SMILES IDX 72 77 76 78 79 79 73 80 74 81 77 82 75 83 54 84 55 85 63 86
REMARK SMILES IDX 56 87 57 88 61 89 64 90 58 91 59 92 62 93 60 94
REMARK H PARENT 6 15 84 47 52 58
REMARK Flexibility Score: inf
ROOT
ATOM      1  C   UNL A   1      37.724  23.643  26.211  1.00  0.00     0.188 C 
ENDROOT
BRANCH   1   2
ATOM      2  C   UNL A   1      37.267  22.815  25.009  1.00  0.00     0.188 C 
BRANCH   2   3
ATOM      3  O   UNL A   1      37.175  21.443  25.323  1.00  0.00    -0.376 OA
BRANCH   3   4
ATOM      4  C   UNL A   1      35.978  20.747  25.007  1.00  0.00     0.202 C 
BRANCH   4   5
ATOM      5  C   UNL A   1      34.541  21.264  25.273  1.00  0.00     0.261 C 
BRANCH   5   6
ATOM      6  O   UNL A   1      33.672  21.537  24.157  1.00  0.00    -0.463 OA
BRANCH   6   7
ATOM      7  C   UNL A   1      32.867  22.623  24.291  1.00  0.00     0.312 C 
ATOM      8  O   UNL A   1      31.774  22.719  23.732  1.00  0.00    -0.252 OA
BRANCH   7   9
ATOM      9  C   UNL A   1      33.336  23.695  25.281  1.00  0.00     0.123 C 
ATOM     10  C   UNL A   1      32.617  26.066  25.575  1.00  0.00     0.093 C 
ATOM     11  C   UNL A   1      31.876  25.127  26.468  1.00  0.00    -0.011 C 
ATOM     12  C   UNL A   1      33.628  25.145  24.867  1.00  0.00     0.043 C 
ATOM     13  C   UNL A   1      32.266  23.858  26.322  1.00  0.00    -0.015 C 
BRANCH  10  14
ATOM     14  N   UNL A   1      31.621  26.660  24.672  1.00  0.00    -0.208 NA
ATOM     15  H   UNL A   1      31.636  26.124  23.804  1.00  0.00     0.141 HD
BRANCH  14  16
ATOM     16  S   UNL A   1      31.820  28.287  24.270  1.00  0.00     0.211 S 
ATOM     17  O   UNL A   1      32.668  28.924  25.247  1.00  0.00    -0.212 OA
ATOM     18  O   UNL A   1      30.481  28.772  23.996  1.00  0.00    -0.212 OA
BRANCH  16  19
ATOM     19  C   UNL A   1      32.679  28.168  22.705  1.00  0.00     0.150 C 
ATOM     20  C   UNL A   1      34.124  28.585  22.808  1.00  0.00     0.022 C 
ENDBRANCH  16  19
ENDBRANCH  14  16
ENDBRANCH  10  14
ENDBRANCH   7   9
ENDBRANCH   6   7
ENDBRANCH   5   6
ENDBRANCH   4   5
ENDBRANCH   3   4
ENDBRANCH   2   3
ENDBRANCH   1   2
BRANCH   1  21
ATOM     21  O   UNL A   1      39.019  24.229  26.120  1.00  0.00    -0.377 OA
BRANCH  21  22
ATOM     22  C   UNL A   1      40.079  23.676  26.901  1.00  0.00     0.188 C 
BRANCH  22  23
ATOM     23  C   UNL A   1      40.046  22.182  27.224  1.00  0.00     0.188 C 
BRANCH  23  24
ATOM     24  O   UNL A   1      40.844  21.298  26.436  1.00  0.00    -0.376 OA
BRANCH  24  25
ATOM     25  C   UNL A   1      41.371  20.115  27.026  1.00  0.00     0.202 C 
BRANCH  25  26
ATOM     26  C   UNL A   1      42.334  19.325  26.145  1.00  0.00     0.261 C 
BRANCH  26  27
ATOM     27  O   UNL A   1      42.812  20.101  25.034  1.00  0.00    -0.460 OA
BRANCH  27  28
ATOM     28  C   UNL A   1      44.129  19.949  24.773  1.00  0.00     0.338 C 
ATOM     29  O   UNL A   1      44.697  18.950  24.369  1.00  0.00    -0.246 OA
BRANCH  28  30
ATOM     30  C   UNL A   1      44.833  21.230  24.952  1.00  0.00     0.060 A 
ATOM     31  C   UNL A   1      45.351  21.506  26.221  1.00  0.00     0.016 A 
ATOM     32  C   UNL A   1      44.855  22.197  23.943  1.00  0.00     0.016 A 
ATOM     33  C   UNL A   1      45.811  22.784  26.515  1.00  0.00     0.010 A 
ATOM     34  C   UNL A   1      45.325  23.480  24.239  1.00  0.00     0.010 A 
ATOM     35  C   UNL A   1      45.750  23.791  25.542  1.00  0.00    -0.014 A 
BRANCH  35  36
ATOM     36  C   UNL A   1      45.984  25.194  25.957  1.00  0.00     0.031 A 
ATOM     37  C   UNL A   1      44.851  25.986  26.551  1.00  0.00     0.074 A 
ATOM     38  C   UNL A   1      47.218  25.721  25.877  1.00  0.00     0.049 A 
ATOM     39  N   UNL A   1      44.848  27.206  27.024  1.00  0.00    -0.248 NA
ATOM     40  C   UNL A   1      43.544  25.312  26.622  1.00  0.00     0.031 C 
ATOM     41  C   UNL A   1      48.393  25.031  25.351  1.00  0.00     0.029 A 
ATOM     42  N   UNL A   1      47.686  26.955  26.248  1.00  0.00    -0.354 N 
ATOM     43  C   UNL A   1      43.545  27.447  27.445  1.00  0.00     0.074 A 
ATOM     44  C   UNL A   1      42.776  26.262  27.134  1.00  0.00     0.031 C 
ATOM     45  C   UNL A   1      49.454  25.850  25.441  1.00  0.00     0.029 A 
ATOM     46  C   UNL A   1      49.024  27.130  25.999  1.00  0.00     0.049 A 
ATOM     47  H   UNL A   1      47.117  27.648  26.655  1.00  0.00     0.167 HD
ATOM     48  C   UNL A   1      43.042  28.551  28.048  1.00  0.00     0.037 A 
ATOM     49  C   UNL A   1      49.806  28.208  26.189  1.00  0.00     0.037 A 
ATOM     50  C   UNL A   1      43.819  29.726  28.353  1.00  0.00     0.049 A 
ATOM     51  C   UNL A   1      49.207  29.444  26.809  1.00  0.00     0.074 A 
ATOM     52  C   UNL A   1      43.413  30.892  28.976  1.00  0.00     0.029 A 
ATOM     53  N   UNL A   1      45.163  29.886  28.046  1.00  0.00    -0.354 N 
ATOM     54  N   UNL A   1      47.982  29.652  27.230  1.00  0.00    -0.248 NA
ATOM     55  C   UNL A   1      50.106  30.591  26.989  1.00  0.00     0.031 C 
ATOM     56  C   UNL A   1      44.494  31.782  28.987  1.00  0.00     0.029 A 
ATOM     57  C   UNL A   1      45.594  31.143  28.439  1.00  0.00     0.049 A 
ATOM     58  H   UNL A   1      45.728  29.205  27.612  1.00  0.00     0.167 HD
ATOM     59  C   UNL A   1      47.970  30.941  27.750  1.00  0.00     0.074 A 
ATOM     60  C   UNL A   1      49.319  31.452  27.615  1.00  0.00     0.031 C 
ATOM     61  C   UNL A   1      46.940  31.640  28.289  1.00  0.00     0.037 A 
BRANCH  48  62
ATOM     62  C   UNL A   1      41.578  28.554  28.390  1.00  0.00     0.064 A 
ATOM     63  C   UNL A   1      40.601  28.977  27.475  1.00  0.00     0.173 A 
ATOM     64  C   UNL A   1      41.143  28.097  29.643  1.00  0.00     0.173 A 
ATOM     65  F   UNL A   1      40.960  29.436  26.267  1.00  0.00    -0.203 F 
ATOM     66  C   UNL A   1      39.249  28.967  27.811  1.00  0.00     0.198 A 
ATOM     67  C   UNL A   1      39.788  28.055  29.964  1.00  0.00     0.198 A 
ATOM     68  F   UNL A   1      42.031  27.678  30.558  1.00  0.00    -0.203 F 
ATOM     69  F   UNL A   1      38.339  29.423  26.940  1.00  0.00    -0.200 F 
ATOM     70  C   UNL A   1      38.843  28.499  29.053  1.00  0.00     0.200 A 
ATOM     71  F   UNL A   1      39.397  27.588  31.159  1.00  0.00    -0.200 F 
ATOM     72  F   UNL A   1      37.541  28.481  29.371  1.00  0.00    -0.200 F 
ENDBRANCH  48  62
BRANCH  49  73
ATOM     73  C   UNL A   1      51.237  28.169  25.789  1.00  0.00     0.064 A 
ATOM     74  C   UNL A   1      51.627  28.390  24.461  1.00  0.00     0.173 A 
ATOM     75  C   UNL A   1      52.245  27.895  26.726  1.00  0.00     0.173 A 
ATOM     76  F   UNL A   1      50.702  28.638  23.522  1.00  0.00    -0.203 F 
ATOM     77  C   UNL A   1      52.966  28.313  24.082  1.00  0.00     0.198 A 
ATOM     78  C   UNL A   1      53.585  27.852  26.353  1.00  0.00     0.198 A 
ATOM     79  F   UNL A   1      51.926  27.679  28.011  1.00  0.00    -0.203 F 
ATOM     80  F   UNL A   1      53.306  28.476  22.796  1.00  0.00    -0.200 F 
ATOM     81  C   UNL A   1      53.945  28.051  25.029  1.00  0.00     0.200 A 
ATOM     82  F   UNL A   1      54.528  27.619  27.275  1.00  0.00    -0.200 F 
ATOM     83  F   UNL A   1      55.232  27.983  24.665  1.00  0.00    -0.200 F 
ENDBRANCH  49  73
BRANCH  61  84
ATOM     84  C   UNL A   1      47.247  33.020  28.802  1.00  0.00     0.064 A 
ATOM     85  C   UNL A   1      47.677  33.243  30.119  1.00  0.00     0.173 A 
ATOM     86  C   UNL A   1      47.103  34.137  27.964  1.00  0.00     0.173 A 
ATOM     87  F   UNL A   1      47.820  32.212  30.966  1.00  0.00    -0.203 F 
ATOM     88  C   UNL A   1      47.897  34.534  30.593  1.00  0.00     0.198 A 
ATOM     89  C   UNL A   1      47.366  35.423  28.429  1.00  0.00     0.198 A 
ATOM     90  F   UNL A   1      46.707  33.984  26.691  1.00  0.00    -0.203 F 
ATOM     91  F   UNL A   1      48.228  34.726  31.877  1.00  0.00    -0.200 F 
ATOM     92  C   UNL A   1      47.746  35.622  29.747  1.00  0.00     0.200 A 
ATOM     93  F   UNL A   1      47.238  36.471  27.604  1.00  0.00    -0.200 F 
ATOM     94  F   UNL A   1      47.953  36.863  30.206  1.00  0.00    -0.200 F 
ENDBRANCH  61  84
ENDBRANCH  35  36
ENDBRANCH  28  30
ENDBRANCH  27  28
ENDBRANCH  26  27
ENDBRANCH  25  26
ENDBRANCH  24  25
ENDBRANCH  23  24
ENDBRANCH  22  23
ENDBRANCH  21  22
ENDBRANCH   1  21
TORSDOF 23
ENDMDL
MODEL 2
REMARK VINA RESULT:      -8.3      5.047      8.628
REMARK SMILES CCS(=O)(=O)N[C@H]1C=C[C@@H](C(=O)OCCOCCOCCOCCOC(=O)c2ccc(-c3c4nc(c(-c5c(F)c(F)c(F)c(F)c5F)c5ccc([nH]5)c(-c5c(F)c(F)c(F)c(F)c5F)c5nc(c(-c6c(F)c(F)c(F)c(F)c6F)c6ccc3[nH]6)C=C5)C=C4)cc2)C1
REMARK SMILES IDX 18 1 17 2 16 3 15 4 14 5 13 6 11 7 12 8 10 9 7 10 8 11 91 12
REMARK SMILES IDX 9 13 6 14 3 16 4 17 5 18 2 19 1 20 19 21 20 22 21 23 22 24
REMARK SMILES IDX 23 25 24 26 25 27 26 28 27 29 28 30 29 31 90 32 30 33 89 34
REMARK SMILES IDX 31 35 32 36 33 37 83 38 34 39 88 40 82 41 84 42 35 43 87 44
REMARK SMILES IDX 81 45 80 46 36 48 68 49 48 50 67 51 49 52 52 53 66 54 85 55
REMARK SMILES IDX 50 56 51 57 65 59 86 60 53 61 37 62 38 63 46 64 39 65 40 66
REMARK SMILES IDX 44 67 47 68 41 69 42 70 45 71 43 72 69 73 70 74 78 75 71 76
REMARK SMILES IDX 72 77 76 78 79 79 73 80 74 81 77 82 75 83 54 84 55 85 63 86
REMARK SMILES IDX 56 87 57 88 61 89 64 90 58 91 59 92 62 93 60 94
REMARK H PARENT 6 15 84 47 52 58
REMARK Flexibility Score: inf
ROOT
ATOM      1  C   UNL A   1      39.776  21.671  26.653  1.00  0.00     0.188 C 
ENDROOT
BRANCH   1   2
ATOM      2  C   UNL A   1      38.559  22.301  25.972  1.00  0.00     0.188 C 
BRANCH   2   3
ATOM      3  O   UNL A   1      38.418  23.663  26.307  1.00  0.00    -0.376 OA
BRANCH   3   4
ATOM      4  C   UNL A   1      39.284  24.220  27.285  1.00  0.00     0.202 C 
BRANCH   4   5
ATOM      5  C   UNL A   1      40.310  25.356  27.035  1.00  0.00     0.261 C 
BRANCH   5   6
ATOM      6  O   UNL A   1      39.956  26.712  27.372  1.00  0.00    -0.463 OA
BRANCH   6   7
ATOM      7  C   UNL A   1      39.812  26.968  28.699  1.00  0.00     0.312 C 
ATOM      8  O   UNL A   1      39.163  26.243  29.454  1.00  0.00    -0.252 OA
BRANCH   7   9
ATOM      9  C   UNL A   1      40.605  28.158  29.249  1.00  0.00     0.123 C 
ATOM     10  C   UNL A   1      39.843  30.405  30.022  1.00  0.00     0.093 C 
ATOM     11  C   UNL A   1      39.954  29.421  31.139  1.00  0.00    -0.011 C 
ATOM     12  C   UNL A   1      40.352  29.607  28.806  1.00  0.00     0.043 C 
ATOM     13  C   UNL A   1      40.372  28.220  30.730  1.00  0.00    -0.015 C 
BRANCH  10  14
ATOM     14  N   UNL A   1      38.425  30.781  29.934  1.00  0.00    -0.208 NA
ATOM     15  H   UNL A   1      38.188  30.855  28.945  1.00  0.00     0.141 HD
BRANCH  14  16
ATOM     16  S   UNL A   1      37.965  32.225  30.677  1.00  0.00     0.211 S 
ATOM     17  O   UNL A   1      38.153  32.114  32.102  1.00  0.00    -0.212 OA
ATOM     18  O   UNL A   1      36.672  32.546  30.105  1.00  0.00    -0.212 OA
BRANCH  16  19
ATOM     19  C   UNL A   1      39.155  33.375  29.996  1.00  0.00     0.150 C 
ATOM     20  C   UNL A   1      39.740  34.287  31.044  1.00  0.00     0.022 C 
ENDBRANCH  16  19
ENDBRANCH  14  16
ENDBRANCH  10  14
ENDBRANCH   7   9
ENDBRANCH   6   7
ENDBRANCH   5   6
ENDBRANCH   4   5
ENDBRANCH   3   4
ENDBRANCH   2   3
ENDBRANCH   1   2
BRANCH   1  21
ATOM     21  O   UNL A   1      40.938  21.508  25.847  1.00  0.00    -0.377 OA
BRANCH  21  22
ATOM     22  C   UNL A   1      42.003  20.691  26.335  1.00  0.00     0.188 C 
BRANCH  22  23
ATOM     23  C   UNL A   1      43.391  20.850  25.714  1.00  0.00     0.188 C 
BRANCH  23  24
ATOM     24  O   UNL A   1      43.527  21.674  24.556  1.00  0.00    -0.376 OA
BRANCH  24  25
ATOM     25  C   UNL A   1      44.478  22.733  24.558  1.00  0.00     0.202 C 
BRANCH  25  26
ATOM     26  C   UNL A   1      44.121  23.922  25.445  1.00  0.00     0.261 C 
BRANCH  26  27
ATOM     27  O   UNL A   1      45.281  24.517  26.047  1.00  0.00    -0.460 OA
BRANCH  27  28
ATOM     28  C   UNL A   1      45.765  25.591  25.386  1.00  0.00     0.338 C 
ATOM     29  O   UNL A   1      46.381  25.602  24.335  1.00  0.00    -0.246 OA
BRANCH  28  30
ATOM     30  C   UNL A   1      45.361  26.831  26.069  1.00  0.00     0.060 A 
ATOM     31  C   UNL A   1      46.345  27.521  26.784  1.00  0.00     0.016 A 
ATOM     32  C   UNL A   1      44.022  27.228  26.128  1.00  0.00     0.016 A 
ATOM     33  C   UNL A   1      45.981  28.556  27.636  1.00  0.00     0.010 A 
ATOM     34  C   UNL A   1      43.659  28.274  26.982  1.00  0.00     0.010 A 
ATOM     35  C   UNL A   1      44.630  28.901  27.781  1.00  0.00    -0.014 A 
BRANCH  35  36
ATOM     36  C   UNL A   1      44.243  29.808  28.887  1.00  0.00     0.031 A 
ATOM     37  C   UNL A   1      43.995  29.236  30.256  1.00  0.00     0.074 A 
ATOM     38  C   UNL A   1      44.198  31.136  28.682  1.00  0.00     0.049 A 
ATOM     39  N   UNL A   1      43.697  29.851  31.372  1.00  0.00    -0.248 NA
ATOM     40  C   UNL A   1      44.096  27.773  30.386  1.00  0.00     0.031 C 
ATOM     41  C   UNL A   1      44.455  31.798  27.406  1.00  0.00     0.029 A 
ATOM     42  N   UNL A   1      43.929  32.163  29.550  1.00  0.00    -0.354 N 
ATOM     43  C   UNL A   1      43.573  28.854  32.333  1.00  0.00     0.074 A 
ATOM     44  C   UNL A   1      43.787  27.591  31.660  1.00  0.00     0.031 C 
ATOM     45  C   UNL A   1      44.339  33.126  27.574  1.00  0.00     0.029 A 
ATOM     46  C   UNL A   1      43.968  33.401  28.960  1.00  0.00     0.049 A 
ATOM     47  H   UNL A   1      43.727  32.025  30.504  1.00  0.00     0.167 HD
ATOM     48  C   UNL A   1      43.316  28.983  33.657  1.00  0.00     0.037 A 
ATOM     49  C   UNL A   1      43.720  34.616  29.482  1.00  0.00     0.037 A 
ATOM     50  C   UNL A   1      43.103  30.247  34.316  1.00  0.00     0.049 A 
ATOM     51  C   UNL A   1      43.380  34.726  30.945  1.00  0.00     0.074 A 
ATOM     52  C   UNL A   1      42.853  30.494  35.653  1.00  0.00     0.029 A 
ATOM     53  N   UNL A   1      43.107  31.481  33.678  1.00  0.00    -0.354 N 
ATOM     54  N   UNL A   1      43.293  33.783  31.852  1.00  0.00    -0.248 NA
ATOM     55  C   UNL A   1      43.114  36.077  31.458  1.00  0.00     0.031 C 
ATOM     56  C   UNL A   1      42.641  31.868  35.814  1.00  0.00     0.029 A 
ATOM     57  C   UNL A   1      42.833  32.488  34.590  1.00  0.00     0.049 A 
ATOM     58  H   UNL A   1      43.280  31.620  32.718  1.00  0.00     0.167 HD
ATOM     59  C   UNL A   1      42.992  34.425  33.046  1.00  0.00     0.074 A 
ATOM     60  C   UNL A   1      42.939  35.842  32.750  1.00  0.00     0.031 C 
ATOM     61  C   UNL A   1      42.776  33.895  34.276  1.00  0.00     0.037 A 
BRANCH  48  62
ATOM     62  C   UNL A   1      43.220  27.727  34.476  1.00  0.00     0.064 A 
ATOM     63  C   UNL A   1      42.012  27.026  34.626  1.00  0.00     0.173 A 
ATOM     64  C   UNL A   1      44.362  27.196  35.095  1.00  0.00     0.173 A 
ATOM     65  F   UNL A   1      40.886  27.494  34.066  1.00  0.00    -0.203 F 
ATOM     66  C   UNL A   1      41.947  25.860  35.386  1.00  0.00     0.198 A 
ATOM     67  C   UNL A   1      44.301  26.012  35.826  1.00  0.00     0.198 A 
ATOM     68  F   UNL A   1      45.544  27.821  34.985  1.00  0.00    -0.203 F 
ATOM     69  F   UNL A   1      40.773  25.238  35.556  1.00  0.00    -0.200 F 
ATOM     70  C   UNL A   1      43.093  25.349  35.979  1.00  0.00     0.200 A 
ATOM     71  F   UNL A   1      45.412  25.512  36.385  1.00  0.00    -0.200 F 
ATOM     72  F   UNL A   1      43.030  24.223  36.701  1.00  0.00    -0.200 F 
ENDBRANCH  48  62
BRANCH  49  73
ATOM     73  C   UNL A   1      43.781  35.823  28.616  1.00  0.00     0.064 A 
ATOM     74  C   UNL A   1      44.991  36.490  28.382  1.00  0.00     0.173 A 
ATOM     75  C   UNL A   1      42.624  36.343  28.015  1.00  0.00     0.173 A 
ATOM     76  F   UNL A   1      46.123  36.045  28.948  1.00  0.00    -0.203 F 
ATOM     77  C   UNL A   1      45.038  37.645  27.602  1.00  0.00     0.198 A 
ATOM     78  C   UNL A   1      42.678  37.476  27.208  1.00  0.00     0.198 A 
ATOM     79  F   UNL A   1      41.441  35.741  28.203  1.00  0.00    -0.203 F 
ATOM     80  F   UNL A   1      46.198  38.293  27.438  1.00  0.00    -0.200 F 
ATOM     81  C   UNL A   1      43.882  38.133  27.010  1.00  0.00     0.200 A 
ATOM     82  F   UNL A   1      41.562  37.932  26.622  1.00  0.00    -0.200 F 
ATOM     83  F   UNL A   1      43.929  39.239  26.256  1.00  0.00    -0.200 F 
ENDBRANCH  49  73
BRANCH  61  84
ATOM     84  C   UNL A   1      42.499  34.860  35.396  1.00  0.00     0.064 A 
ATOM     85  C   UNL A   1      43.532  35.457  36.133  1.00  0.00     0.173 A 
ATOM     86  C   UNL A   1      41.178  35.187  35.740  1.00  0.00     0.173 A 
ATOM     87  F   UNL A   1      44.813  35.172  35.854  1.00  0.00    -0.203 F 
ATOM     88  C   UNL A   1      43.254  36.301  37.205  1.00  0.00     0.198 A 
ATOM     89  C   UNL A   1      40.904  36.064  36.785  1.00  0.00     0.198 A 
ATOM     90  F   UNL A   1      40.149  34.656  35.062  1.00  0.00    -0.203 F 
ATOM     91  F   UNL A   1      44.257  36.795  37.945  1.00  0.00    -0.200 F 
ATOM     92  C   UNL A   1      41.940  36.607  37.528  1.00  0.00     0.200 A 
ATOM     93  F   UNL A   1      39.634  36.375  37.082  1.00  0.00    -0.200 F 
ATOM     94  F   UNL A   1      41.674  37.415  38.563  1.00  0.00    -0.200 F 
ENDBRANCH  61  84
ENDBRANCH  35  36
ENDBRANCH  28  30
ENDBRANCH  27  28
ENDBRANCH  26  27
ENDBRANCH  25  26
ENDBRANCH  24  25
ENDBRANCH  23  24
ENDBRANCH  22  23
ENDBRANCH  21  22
ENDBRANCH   1  21
TORSDOF 23
ENDMDL
MODEL 3
REMARK VINA RESULT:      -8.0      5.314      9.956
REMARK SMILES CCS(=O)(=O)N[C@H]1C=C[C@@H](C(=O)OCCOCCOCCOCCOC(=O)c2ccc(-c3c4nc(c(-c5c(F)c(F)c(F)c(F)c5F)c5ccc([nH]5)c(-c5c(F)c(F)c(F)c(F)c5F)c5nc(c(-c6c(F)c(F)c(F)c(F)c6F)c6ccc3[nH]6)C=C5)C=C4)cc2)C1
REMARK SMILES IDX 18 1 17 2 16 3 15 4 14 5 13 6 11 7 12 8 10 9 7 10 8 11 91 12
REMARK SMILES IDX 9 13 6 14 3 16 4 17 5 18 2 19 1 20 19 21 20 22 21 23 22 24
REMARK SMILES IDX 23 25 24 26 25 27 26 28 27 29 28 30 29 31 90 32 30 33 89 34
REMARK SMILES IDX 31 35 32 36 33 37 83 38 34 39 88 40 82 41 84 42 35 43 87 44
REMARK SMILES IDX 81 45 80 46 36 48 68 49 48 50 67 51 49 52 52 53 66 54 85 55
REMARK SMILES IDX 50 56 51 57 65 59 86 60 53 61 37 62 38 63 46 64 39 65 40 66
REMARK SMILES IDX 44 67 47 68 41 69 42 70 45 71 43 72 69 73 70 74 78 75 71 76
REMARK SMILES IDX 72 77 76 78 79 79 73 80 74 81 77 82 75 83 54 84 55 85 63 86
REMARK SMILES IDX 56 87 57 88 61 89 64 90 58 91 59 92 62 93 60 94
REMARK H PARENT 6 15 84 47 52 58
REMARK Flexibility Score: inf
ROOT
ATOM      1  C   UNL A   1      47.339  26.441  24.395  1.00  0.00     0.188 C 
ENDROOT
BRANCH   1   2
ATOM      2  C   UNL A   1      46.793  27.814  23.999  1.00  0.00     0.188 C 
BRANCH   2   3
ATOM      3  O   UNL A   1      45.686  28.185  24.790  1.00  0.00    -0.376 OA
BRANCH   3   4
ATOM      4  C   UNL A   1      45.595  27.689  26.117  1.00  0.00     0.202 C 
BRANCH   4   5
ATOM      5  C   UNL A   1      44.281  27.492  26.916  1.00  0.00     0.261 C 
BRANCH   5   6
ATOM      6  O   UNL A   1      44.043  26.238  27.584  1.00  0.00    -0.463 OA
BRANCH   6   7
ATOM      7  C   UNL A   1      43.840  26.317  28.925  1.00  0.00     0.312 C 
ATOM      8  O   UNL A   1      43.926  27.372  29.555  1.00  0.00    -0.252 OA
BRANCH   7   9
ATOM      9  C   UNL A   1      43.376  25.031  29.616  1.00  0.00     0.123 C 
ATOM     10  C   UNL A   1      43.140  22.706  28.742  1.00  0.00     0.093 C 
ATOM     11  C   UNL A   1      44.464  22.943  29.393  1.00  0.00    -0.011 C 
ATOM     12  C   UNL A   1      42.401  24.037  28.967  1.00  0.00     0.043 C 
ATOM     13  C   UNL A   1      44.588  24.183  29.872  1.00  0.00    -0.015 C 
BRANCH  10  14
ATOM     14  N   UNL A   1      43.416  22.410  27.329  1.00  0.00    -0.208 NA
ATOM     15  H   UNL A   1      43.296  23.277  26.805  1.00  0.00     0.141 HD
BRANCH  14  16
ATOM     16  S   UNL A   1      42.461  21.231  26.589  1.00  0.00     0.211 S 
ATOM     17  O   UNL A   1      42.148  20.197  27.544  1.00  0.00    -0.212 OA
ATOM     18  O   UNL A   1      43.134  20.933  25.340  1.00  0.00    -0.212 OA
BRANCH  16  19
ATOM     19  C   UNL A   1      40.984  22.161  26.196  1.00  0.00     0.150 C 
ATOM     20  C   UNL A   1      39.742  21.306  26.217  1.00  0.00     0.022 C 
ENDBRANCH  16  19
ENDBRANCH  14  16
ENDBRANCH  10  14
ENDBRANCH   7   9
ENDBRANCH   6   7
ENDBRANCH   5   6
ENDBRANCH   4   5
ENDBRANCH   3   4
ENDBRANCH   2   3
ENDBRANCH   1   2
BRANCH   1  21
ATOM     21  O   UNL A   1      48.702  26.185  24.074  1.00  0.00    -0.377 OA
BRANCH  21  22
ATOM     22  C   UNL A   1      49.683  27.167  24.412  1.00  0.00     0.188 C 
BRANCH  22  23
ATOM     23  C   UNL A   1      50.685  27.599  23.342  1.00  0.00     0.188 C 
BRANCH  23  24
ATOM     24  O   UNL A   1      51.927  26.900  23.252  1.00  0.00    -0.376 OA
BRANCH  24  25
ATOM     25  C   UNL A   1      53.084  27.446  23.876  1.00  0.00     0.202 C 
BRANCH  25  26
ATOM     26  C   UNL A   1      53.512  26.753  25.166  1.00  0.00     0.261 C 
BRANCH  26  27
ATOM     27  O   UNL A   1      52.818  27.267  26.314  1.00  0.00    -0.460 OA
BRANCH  27  28
ATOM     28  C   UNL A   1      52.996  26.547  27.443  1.00  0.00     0.338 C 
ATOM     29  O   UNL A   1      54.002  25.959  27.800  1.00  0.00    -0.246 OA
BRANCH  28  30
ATOM     30  C   UNL A   1      51.797  26.632  28.293  1.00  0.00     0.060 A 
ATOM     31  C   UNL A   1      50.659  25.938  27.869  1.00  0.00     0.016 A 
ATOM     32  C   UNL A   1      51.744  27.487  29.397  1.00  0.00     0.016 A 
ATOM     33  C   UNL A   1      49.439  26.167  28.494  1.00  0.00     0.010 A 
ATOM     34  C   UNL A   1      50.516  27.712  30.027  1.00  0.00     0.010 A 
ATOM     35  C   UNL A   1      49.351  27.096  29.539  1.00  0.00    -0.014 A 
BRANCH  35  36
ATOM     36  C   UNL A   1      48.010  27.525  29.999  1.00  0.00     0.031 A 
ATOM     37  C   UNL A   1      47.342  26.778  31.121  1.00  0.00     0.074 A 
ATOM     38  C   UNL A   1      47.437  28.621  29.471  1.00  0.00     0.049 A 
ATOM     39  N   UNL A   1      46.196  27.012  31.710  1.00  0.00    -0.248 NA
ATOM     40  C   UNL A   1      48.060  25.609  31.652  1.00  0.00     0.031 C 
ATOM     41  C   UNL A   1      48.012  29.439  28.406  1.00  0.00     0.029 A 
ATOM     42  N   UNL A   1      46.250  29.238  29.769  1.00  0.00    -0.354 N 
ATOM     43  C   UNL A   1      46.056  26.022  32.676  1.00  0.00     0.074 A 
ATOM     44  C   UNL A   1      47.213  25.160  32.566  1.00  0.00     0.031 C 
ATOM     45  C   UNL A   1      47.179  30.459  28.143  1.00  0.00     0.029 A 
ATOM     46  C   UNL A   1      46.000  30.344  28.998  1.00  0.00     0.049 A 
ATOM     47  H   UNL A   1      45.636  28.917  30.470  1.00  0.00     0.167 HD
ATOM     48  C   UNL A   1      45.060  25.857  33.578  1.00  0.00     0.037 A 
ATOM     49  C   UNL A   1      44.932  31.164  28.979  1.00  0.00     0.037 A 
ATOM     50  C   UNL A   1      43.912  26.722  33.677  1.00  0.00     0.049 A 
ATOM     51  C   UNL A   1      43.810  30.922  29.956  1.00  0.00     0.074 A 
ATOM     52  C   UNL A   1      42.853  26.656  34.564  1.00  0.00     0.029 A 
ATOM     53  N   UNL A   1      43.669  27.810  32.849  1.00  0.00    -0.354 N 
ATOM     54  N   UNL A   1      43.700  30.002  30.883  1.00  0.00    -0.248 NA
ATOM     55  C   UNL A   1      42.669  31.844  29.886  1.00  0.00     0.031 C 
ATOM     56  C   UNL A   1      41.938  27.662  34.232  1.00  0.00     0.029 A 
ATOM     57  C   UNL A   1      42.462  28.403  33.186  1.00  0.00     0.049 A 
ATOM     58  H   UNL A   1      44.266  28.116  32.128  1.00  0.00     0.167 HD
ATOM     59  C   UNL A   1      42.494  30.250  31.527  1.00  0.00     0.074 A 
ATOM     60  C   UNL A   1      41.926  31.425  30.899  1.00  0.00     0.031 C 
ATOM     61  C   UNL A   1      41.907  29.570  32.543  1.00  0.00     0.037 A 
BRANCH  48  62
ATOM     62  C   UNL A   1      45.149  24.681  34.510  1.00  0.00     0.064 A 
ATOM     63  C   UNL A   1      44.707  23.401  34.138  1.00  0.00     0.173 A 
ATOM     64  C   UNL A   1      45.717  24.829  35.785  1.00  0.00     0.173 A 
ATOM     65  F   UNL A   1      44.144  23.203  32.937  1.00  0.00    -0.203 F 
ATOM     66  C   UNL A   1      44.804  22.324  35.017  1.00  0.00     0.198 A 
ATOM     67  C   UNL A   1      45.845  23.743  36.648  1.00  0.00     0.198 A 
ATOM     68  F   UNL A   1      46.160  26.028  36.194  1.00  0.00    -0.203 F 
ATOM     69  F   UNL A   1      44.328  21.124  34.658  1.00  0.00    -0.200 F 
ATOM     70  C   UNL A   1      45.380  22.494  36.267  1.00  0.00     0.200 A 
ATOM     71  F   UNL A   1      46.416  23.907  37.849  1.00  0.00    -0.200 F 
ATOM     72  F   UNL A   1      45.482  21.454  37.107  1.00  0.00    -0.200 F 
ENDBRANCH  48  62
BRANCH  49  73
ATOM     73  C   UNL A   1      44.872  32.284  28.004  1.00  0.00     0.064 A 
ATOM     74  C   UNL A   1      45.463  33.524  28.282  1.00  0.00     0.173 A 
ATOM     75  C   UNL A   1      44.208  32.140  26.776  1.00  0.00     0.173 A 
ATOM     76  F   UNL A   1      46.094  33.719  29.450  1.00  0.00    -0.203 F 
ATOM     77  C   UNL A   1      45.369  34.584  27.382  1.00  0.00     0.198 A 
ATOM     78  C   UNL A   1      44.145  33.189  25.863  1.00  0.00     0.198 A 
ATOM     79  F   UNL A   1      43.628  30.973  26.458  1.00  0.00    -0.203 F 
ATOM     80  F   UNL A   1      45.897  35.774  27.696  1.00  0.00    -0.200 F 
ATOM     81  C   UNL A   1      44.717  34.414  26.170  1.00  0.00     0.200 A 
ATOM     82  F   UNL A   1      43.531  33.013  24.685  1.00  0.00    -0.200 F 
ATOM     83  F   UNL A   1      44.633  35.431  25.303  1.00  0.00    -0.200 F 
ENDBRANCH  49  73
BRANCH  61  84
ATOM     84  C   UNL A   1      40.598  30.105  33.057  1.00  0.00     0.064 A 
ATOM     85  C   UNL A   1      39.366  29.614  32.601  1.00  0.00     0.173 A 
ATOM     86  C   UNL A   1      40.579  31.129  34.017  1.00  0.00     0.173 A 
ATOM     87  F   UNL A   1      39.326  28.643  31.675  1.00  0.00    -0.203 F 
ATOM     88  C   UNL A   1      38.166  30.165  33.044  1.00  0.00     0.198 A 
ATOM     89  C   UNL A   1      39.376  31.648  34.489  1.00  0.00     0.198 A 
ATOM     90  F   UNL A   1      41.727  31.629  34.500  1.00  0.00    -0.203 F 
ATOM     91  F   UNL A   1      37.004  29.734  32.532  1.00  0.00    -0.200 F 
ATOM     92  C   UNL A   1      38.171  31.178  33.991  1.00  0.00     0.200 A 
ATOM     93  F   UNL A   1      39.384  32.613  35.420  1.00  0.00    -0.200 F 
ATOM     94  F   UNL A   1      37.017  31.710  34.412  1.00  0.00    -0.200 F 
ENDBRANCH  61  84
ENDBRANCH  35  36
ENDBRANCH  28  30
ENDBRANCH  27  28
ENDBRANCH  26  27
ENDBRANCH  25  26
ENDBRANCH  24  25
ENDBRANCH  23  24
ENDBRANCH  22  23
ENDBRANCH  21  22
ENDBRANCH   1  21
TORSDOF 23
ENDMDL
