MODEL 1
REMARK VINA RESULT:     -10.5      0.000      0.000
REMARK SMILES O=C(OCCOCCOCCOCCOC(=O)c1ccc(-c2c3nc(c(-c4c(F)c(F)c(F)c(F)c4F)c4ccc([nH]4)c(-c4c(F)c(F)c(F)c(F)c4F)c4nc(c(-c5c(F)c(F)c(F)c(F)c5F)c5ccc2[nH]5)C=C4)C=C3)cc1)C1=Cc2cc(Cl)cc(-c3ccc(O)cc3)c2O[C@@H]1C(F)(F)F
REMARK SMILES IDX 9 1 8 2 7 3 6 4 5 5 4 6 3 7 2 8 1 9 81 10 82 11 98 12 83 13
REMARK SMILES IDX 97 14 84 15 96 16 85 17 88 18 86 19 87 20 99 21 100 22
REMARK SMILES IDX 101 23 102 24 89 25 90 26 95 27 91 28 94 29 92 30 93 31
REMARK SMILES IDX 10 33 11 34 12 35 13 36 14 37 15 38 16 39 17 40 18 41 19 42
REMARK SMILES IDX 80 43 20 44 79 45 21 46 22 47 23 48 73 49 24 50 78 51 72 52
REMARK SMILES IDX 74 53 25 54 77 55 71 56 70 57 26 59 58 60 38 61 57 62 39 63
REMARK SMILES IDX 42 64 56 65 75 66 40 67 41 68 55 70 76 71 43 72 27 73 28 74
REMARK SMILES IDX 36 75 29 76 30 77 34 78 37 79 31 80 32 81 35 82 33 83 59 84
REMARK SMILES IDX 60 85 68 86 61 87 62 88 66 89 69 90 63 91 64 92 67 93 65 94
REMARK SMILES IDX 44 95 45 96 53 97 46 98 47 99 51 100 54 101 48 102 49 103
REMARK SMILES IDX 52 104 50 105
REMARK H PARENT 93 32 74 58 42 69
REMARK Flexibility Score: inf
ROOT
ATOM      1  O   UNL A   1      36.151  22.096  26.027  1.00  0.00    -0.377 OA
ENDROOT
BRANCH   1   2
ATOM      2  C   UNL A   1      35.025  21.253  26.106  1.00  0.00     0.188 C 
BRANCH   2   3
ATOM      3  C   UNL A   1      35.030  20.216  24.985  1.00  0.00     0.188 C 
BRANCH   3   4
ATOM      4  O   UNL A   1      33.796  19.505  24.711  1.00  0.00    -0.376 OA
BRANCH   4   5
ATOM      5  C   UNL A   1      32.331  20.003  24.202  1.00  0.00     0.202 C 
BRANCH   5   6
ATOM      6  C   UNL A   1      31.832  21.659  22.879  1.00  0.00     0.261 C 
BRANCH   6   7
ATOM      7  O   UNL A   1      30.888  22.844  23.225  1.00  0.00    -0.460 OA
BRANCH   7   8
ATOM      8  C   UNL A   1      31.349  23.622  24.210  1.00  0.00     0.338 C 
ATOM      9  O   UNL A   1      31.089  23.648  25.384  1.00  0.00    -0.246 OA
BRANCH   8  10
ATOM     10  C   UNL A   1      31.991  24.566  23.335  1.00  0.00     0.087 C 
ATOM     11  C   UNL A   1      31.070  25.673  23.008  1.00  0.00     0.027 C 
ATOM     12  C   UNL A   1      33.641  24.748  24.331  1.00  0.00     0.316 C 
ATOM     13  C   UNL A   1      31.256  27.349  23.654  1.00  0.00     0.019 A 
ATOM     14  O   UNL A   1      33.813  26.526  25.099  1.00  0.00    -0.475 OA
ATOM     15  C   UNL A   1      30.262  28.250  23.367  1.00  0.00     0.032 A 
ATOM     16  C   UNL A   1      32.539  27.793  24.742  1.00  0.00     0.135 A 
ATOM     17  C   UNL A   1      30.379  29.486  24.010  1.00  0.00     0.042 A 
ATOM     18  C   UNL A   1      32.520  29.025  25.377  1.00  0.00     0.026 A 
ATOM     19  Cl  UNL A   1      29.150  30.667  23.689  1.00  0.00    -0.084 Cl
ATOM     20  C   UNL A   1      31.422  29.841  24.946  1.00  0.00     0.033 A 
BRANCH  12  21
ATOM     21  C   UNL A   1      34.582  23.908  23.313  1.00  0.00     0.430 C 
ATOM     22  F   UNL A   1      34.556  24.284  22.019  1.00  0.00    -0.167 F 
ATOM     23  F   UNL A   1      35.877  24.120  23.699  1.00  0.00    -0.167 F 
ATOM     24  F   UNL A   1      34.420  22.567  23.361  1.00  0.00    -0.167 F 
ENDBRANCH  12  21
BRANCH  18  25
ATOM     25  C   UNL A   1      33.394  29.578  26.398  1.00  0.00    -0.014 A 
ATOM     26  C   UNL A   1      33.146  30.814  27.009  1.00  0.00     0.012 A 
ATOM     27  C   UNL A   1      34.623  28.974  26.654  1.00  0.00     0.012 A 
ATOM     28  C   UNL A   1      34.051  31.348  27.938  1.00  0.00     0.047 A 
ATOM     29  C   UNL A   1      35.448  29.423  27.679  1.00  0.00     0.047 A 
ATOM     30  C   UNL A   1      35.174  30.623  28.301  1.00  0.00     0.115 A 
BRANCH  30  31
ATOM     31  O   UNL A   1      36.020  31.137  29.232  1.00  0.00    -0.508 OA
ATOM     32  H   UNL A   1      36.839  31.508  28.968  1.00  0.00     0.293 HD
ENDBRANCH  30  31
ENDBRANCH  18  25
ENDBRANCH   8  10
ENDBRANCH   7   8
ENDBRANCH   6   7
ENDBRANCH   5   6
ENDBRANCH   4   5
ENDBRANCH   3   4
ENDBRANCH   2   3
ENDBRANCH   1   2
BRANCH   1  33
ATOM     33  C   UNL A   1      37.227  21.454  25.377  1.00  0.00     0.188 C 
BRANCH  33  34
ATOM     34  C   UNL A   1      38.653  21.900  25.717  1.00  0.00     0.188 C 
BRANCH  34  35
ATOM     35  O   UNL A   1      38.956  22.716  26.836  1.00  0.00    -0.376 OA
BRANCH  35  36
ATOM     36  C   UNL A   1      39.037  24.116  26.652  1.00  0.00     0.202 C 
BRANCH  36  37
ATOM     37  C   UNL A   1      40.253  24.778  27.328  1.00  0.00     0.261 C 
BRANCH  37  38
ATOM     38  O   UNL A   1      41.352  23.905  27.661  1.00  0.00    -0.460 OA
BRANCH  38  39
ATOM     39  C   UNL A   1      42.217  23.604  26.660  1.00  0.00     0.338 C 
ATOM     40  O   UNL A   1      42.150  22.679  25.872  1.00  0.00    -0.246 OA
BRANCH  39  41
ATOM     41  C   UNL A   1      43.258  24.663  26.588  1.00  0.00     0.060 A 
ATOM     42  C   UNL A   1      43.835  25.144  27.774  1.00  0.00     0.016 A 
ATOM     43  C   UNL A   1      43.655  25.196  25.360  1.00  0.00     0.016 A 
ATOM     44  C   UNL A   1      44.807  26.157  27.739  1.00  0.00     0.010 A 
ATOM     45  C   UNL A   1      44.612  26.219  25.326  1.00  0.00     0.010 A 
ATOM     46  C   UNL A   1      45.191  26.720  26.516  1.00  0.00    -0.014 A 
BRANCH  46  47
ATOM     47  C   UNL A   1      45.986  27.980  26.446  1.00  0.00     0.031 A 
ATOM     48  C   UNL A   1      47.476  27.831  26.330  1.00  0.00     0.074 A 
ATOM     49  C   UNL A   1      45.456  29.217  26.534  1.00  0.00     0.049 A 
ATOM     50  N   UNL A   1      48.415  28.738  26.387  1.00  0.00    -0.248 NA
ATOM     51  C   UNL A   1      47.972  26.459  26.129  1.00  0.00     0.031 C 
ATOM     52  C   UNL A   1      44.037  29.541  26.565  1.00  0.00     0.029 A 
ATOM     53  N   UNL A   1      46.072  30.443  26.664  1.00  0.00    -0.354 N 
ATOM     54  C   UNL A   1      49.604  28.048  26.210  1.00  0.00     0.074 A 
ATOM     55  C   UNL A   1      49.279  26.641  26.144  1.00  0.00     0.031 C 
ATOM     56  C   UNL A   1      43.882  30.853  26.818  1.00  0.00     0.029 A 
ATOM     57  C   UNL A   1      45.199  31.474  26.935  1.00  0.00     0.049 A 
ATOM     58  H   UNL A   1      47.043  30.570  26.574  1.00  0.00     0.167 HD
ATOM     59  C   UNL A   1      50.855  28.540  26.063  1.00  0.00     0.037 A 
ATOM     60  C   UNL A   1      45.436  32.764  27.250  1.00  0.00     0.037 A 
ATOM     61  C   UNL A   1      51.187  29.934  26.132  1.00  0.00     0.049 A 
ATOM     62  C   UNL A   1      46.853  33.281  27.228  1.00  0.00     0.074 A 
ATOM     63  C   UNL A   1      52.419  30.535  25.959  1.00  0.00     0.029 A 
ATOM     64  N   UNL A   1      50.280  30.944  26.415  1.00  0.00    -0.354 N 
ATOM     65  N   UNL A   1      47.965  32.635  26.971  1.00  0.00    -0.248 NA
ATOM     66  C   UNL A   1      47.047  34.715  27.494  1.00  0.00     0.031 C 
ATOM     67  C   UNL A   1      52.270  31.905  26.199  1.00  0.00     0.029 A 
ATOM     68  C   UNL A   1      50.933  32.164  26.458  1.00  0.00     0.049 A 
ATOM     69  H   UNL A   1      49.315  30.814  26.562  1.00  0.00     0.167 HD
ATOM     70  C   UNL A   1      48.975  33.589  26.980  1.00  0.00     0.074 A 
ATOM     71  C   UNL A   1      48.348  34.859  27.282  1.00  0.00     0.031 C 
ATOM     72  C   UNL A   1      50.298  33.428  26.736  1.00  0.00     0.037 A 
BRANCH  59  73
ATOM     73  C   UNL A   1      51.944  27.539  25.821  1.00  0.00     0.064 A 
ATOM     74  C   UNL A   1      52.685  26.992  26.883  1.00  0.00     0.173 A 
ATOM     75  C   UNL A   1      52.280  27.157  24.516  1.00  0.00     0.173 A 
ATOM     76  F   UNL A   1      52.416  27.347  28.148  1.00  0.00    -0.203 F 
ATOM     77  C   UNL A   1      53.756  26.138  26.640  1.00  0.00     0.198 A 
ATOM     78  C   UNL A   1      53.329  26.273  24.281  1.00  0.00     0.198 A 
ATOM     79  F   UNL A   1      51.604  27.653  23.469  1.00  0.00    -0.203 F 
ATOM     80  F   UNL A   1      54.500  25.694  27.662  1.00  0.00    -0.200 F 
ATOM     81  C   UNL A   1      54.075  25.778  25.340  1.00  0.00     0.200 A 
ATOM     82  F   UNL A   1      53.633  25.919  23.025  1.00  0.00    -0.200 F 
ATOM     83  F   UNL A   1      55.113  24.964  25.106  1.00  0.00    -0.200 F 
ENDBRANCH  59  73
BRANCH  60  84
ATOM     84  C   UNL A   1      44.312  33.679  27.594  1.00  0.00     0.064 A 
ATOM     85  C   UNL A   1      43.777  34.564  26.647  1.00  0.00     0.173 A 
ATOM     86  C   UNL A   1      43.792  33.731  28.897  1.00  0.00     0.173 A 
ATOM     87  F   UNL A   1      44.260  34.575  25.396  1.00  0.00    -0.203 F 
ATOM     88  C   UNL A   1      42.789  35.485  26.996  1.00  0.00     0.198 A 
ATOM     89  C   UNL A   1      42.787  34.636  29.238  1.00  0.00     0.198 A 
ATOM     90  F   UNL A   1      44.275  32.916  29.846  1.00  0.00    -0.203 F 
ATOM     91  F   UNL A   1      42.339  36.357  26.083  1.00  0.00    -0.200 F 
ATOM     92  C   UNL A   1      42.293  35.519  28.289  1.00  0.00     0.200 A 
ATOM     93  F   UNL A   1      42.307  34.665  30.489  1.00  0.00    -0.200 F 
ATOM     94  F   UNL A   1      41.352  36.412  28.625  1.00  0.00    -0.200 F 
ENDBRANCH  60  84
BRANCH  72  95
ATOM     95  C   UNL A   1      51.165  34.654  26.714  1.00  0.00     0.064 A 
ATOM     96  C   UNL A   1      51.326  35.431  25.559  1.00  0.00     0.173 A 
ATOM     97  C   UNL A   1      51.781  35.099  27.896  1.00  0.00     0.173 A 
ATOM     98  F   UNL A   1      50.771  35.042  24.401  1.00  0.00    -0.203 F 
ATOM     99  C   UNL A   1      52.080  36.601  25.583  1.00  0.00     0.198 A 
ATOM    100  C   UNL A   1      52.505  36.287  27.924  1.00  0.00     0.198 A 
ATOM    101  F   UNL A   1      51.654  34.395  29.031  1.00  0.00    -0.203 F 
ATOM    102  F   UNL A   1      52.251  37.310  24.458  1.00  0.00    -0.200 F 
ATOM    103  C   UNL A   1      52.658  37.034  26.767  1.00  0.00     0.200 A 
ATOM    104  F   UNL A   1      53.047  36.712  29.074  1.00  0.00    -0.200 F 
ATOM    105  F   UNL A   1      53.365  38.172  26.793  1.00  0.00    -0.200 F 
ENDBRANCH  72  95
ENDBRANCH  46  47
ENDBRANCH  39  41
ENDBRANCH  38  39
ENDBRANCH  37  38
ENDBRANCH  36  37
ENDBRANCH  35  36
ENDBRANCH  34  35
ENDBRANCH  33  34
ENDBRANCH   1  33
TORSDOF 23
ENDMDL
MODEL 2
REMARK VINA RESULT:     -10.4      6.535     10.893
REMARK SMILES O=C(OCCOCCOCCOCCOC(=O)c1ccc(-c2c3nc(c(-c4c(F)c(F)c(F)c(F)c4F)c4ccc([nH]4)c(-c4c(F)c(F)c(F)c(F)c4F)c4nc(c(-c5c(F)c(F)c(F)c(F)c5F)c5ccc2[nH]5)C=C4)C=C3)cc1)C1=Cc2cc(Cl)cc(-c3ccc(O)cc3)c2O[C@@H]1C(F)(F)F
REMARK SMILES IDX 9 1 8 2 7 3 6 4 5 5 4 6 3 7 2 8 1 9 81 10 82 11 98 12 83 13
REMARK SMILES IDX 97 14 84 15 96 16 85 17 88 18 86 19 87 20 99 21 100 22
REMARK SMILES IDX 101 23 102 24 89 25 90 26 95 27 91 28 94 29 92 30 93 31
REMARK SMILES IDX 10 33 11 34 12 35 13 36 14 37 15 38 16 39 17 40 18 41 19 42
REMARK SMILES IDX 80 43 20 44 79 45 21 46 22 47 23 48 73 49 24 50 78 51 72 52
REMARK SMILES IDX 74 53 25 54 77 55 71 56 70 57 26 59 58 60 38 61 57 62 39 63
REMARK SMILES IDX 42 64 56 65 75 66 40 67 41 68 55 70 76 71 43 72 27 73 28 74
REMARK SMILES IDX 36 75 29 76 30 77 34 78 37 79 31 80 32 81 35 82 33 83 59 84
REMARK SMILES IDX 60 85 68 86 61 87 62 88 66 89 69 90 63 91 64 92 67 93 65 94
REMARK SMILES IDX 44 95 45 96 53 97 46 98 47 99 51 100 54 101 48 102 49 103
REMARK SMILES IDX 52 104 50 105
REMARK H PARENT 93 32 74 58 42 69
REMARK Flexibility Score: inf
ROOT
ATOM      1  O   UNL A   1      34.355  30.927  28.199  1.00  0.00    -0.377 OA
ENDROOT
BRANCH   1   2
ATOM      2  C   UNL A   1      33.372  30.161  27.542  1.00  0.00     0.188 C 
BRANCH   2   3
ATOM      3  C   UNL A   1      32.354  31.054  26.837  1.00  0.00     0.188 C 
BRANCH   3   4
ATOM      4  O   UNL A   1      31.678  30.524  25.668  1.00  0.00    -0.376 OA
BRANCH   4   5
ATOM      5  C   UNL A   1      31.344  29.004  25.188  1.00  0.00     0.202 C 
BRANCH   5   6
ATOM      6  C   UNL A   1      32.627  27.244  25.227  1.00  0.00     0.261 C 
BRANCH   6   7
ATOM      7  O   UNL A   1      32.883  26.336  26.462  1.00  0.00    -0.460 OA
BRANCH   7   8
ATOM      8  C   UNL A   1      32.281  25.144  26.381  1.00  0.00     0.338 C 
ATOM      9  O   UNL A   1      31.726  24.481  27.216  1.00  0.00    -0.246 OA
BRANCH   8  10
ATOM     10  C   UNL A   1      32.797  24.831  25.076  1.00  0.00     0.087 C 
ATOM     11  C   UNL A   1      34.256  24.610  25.138  1.00  0.00     0.027 C 
ATOM     12  C   UNL A   1      31.487  23.485  24.605  1.00  0.00     0.316 C 
ATOM     13  C   UNL A   1      35.028  22.988  24.962  1.00  0.00     0.019 A 
ATOM     14  O   UNL A   1      32.294  21.720  24.491  1.00  0.00    -0.475 OA
ATOM     15  C   UNL A   1      36.383  22.908  25.161  1.00  0.00     0.032 A 
ATOM     16  C   UNL A   1      34.101  21.534  24.722  1.00  0.00     0.135 A 
ATOM     17  C   UNL A   1      36.907  21.612  25.159  1.00  0.00     0.042 A 
ATOM     18  C   UNL A   1      34.715  20.294  24.805  1.00  0.00     0.026 A 
ATOM     19  Cl  UNL A   1      38.615  21.446  25.408  1.00  0.00    -0.084 Cl
ATOM     20  C   UNL A   1      36.131  20.401  25.001  1.00  0.00     0.033 A 
BRANCH  12  21
ATOM     21  C   UNL A   1      30.664  24.376  23.528  1.00  0.00     0.430 C 
ATOM     22  F   UNL A   1      29.779  23.720  22.753  1.00  0.00    -0.167 F 
ATOM     23  F   UNL A   1      29.899  25.257  24.242  1.00  0.00    -0.167 F 
ATOM     24  F   UNL A   1      31.429  25.150  22.726  1.00  0.00    -0.167 F 
ENDBRANCH  12  21
BRANCH  18  25
ATOM     25  C   UNL A   1      34.154  18.955  24.759  1.00  0.00    -0.014 A 
ATOM     26  C   UNL A   1      32.945  18.625  25.386  1.00  0.00     0.012 A 
ATOM     27  C   UNL A   1      34.915  17.905  24.250  1.00  0.00     0.012 A 
ATOM     28  C   UNL A   1      32.471  17.305  25.380  1.00  0.00     0.047 A 
ATOM     29  C   UNL A   1      34.384  16.628  24.112  1.00  0.00     0.047 A 
ATOM     30  C   UNL A   1      33.174  16.325  24.700  1.00  0.00     0.115 A 
BRANCH  30  31
ATOM     31  O   UNL A   1      32.681  15.058  24.671  1.00  0.00    -0.508 OA
ATOM     32  H   UNL A   1      32.298  14.686  25.440  1.00  0.00     0.293 HD
ENDBRANCH  30  31
ENDBRANCH  18  25
ENDBRANCH   8  10
ENDBRANCH   7   8
ENDBRANCH   6   7
ENDBRANCH   5   6
ENDBRANCH   4   5
ENDBRANCH   3   4
ENDBRANCH   2   3
ENDBRANCH   1   2
BRANCH   1  33
ATOM     33  C   UNL A   1      35.631  30.717  27.633  1.00  0.00     0.188 C 
BRANCH  33  34
ATOM     34  C   UNL A   1      36.820  30.510  28.577  1.00  0.00     0.188 C 
BRANCH  34  35
ATOM     35  O   UNL A   1      37.319  29.226  28.913  1.00  0.00    -0.376 OA
BRANCH  35  36
ATOM     36  C   UNL A   1      38.601  29.131  29.503  1.00  0.00     0.202 C 
BRANCH  36  37
ATOM     37  C   UNL A   1      38.852  27.820  30.274  1.00  0.00     0.261 C 
BRANCH  37  38
ATOM     38  O   UNL A   1      39.312  27.959  31.633  1.00  0.00    -0.460 OA
BRANCH  38  39
ATOM     39  C   UNL A   1      38.458  28.543  32.511  1.00  0.00     0.338 C 
ATOM     40  O   UNL A   1      37.404  28.101  32.928  1.00  0.00    -0.246 OA
BRANCH  39  41
ATOM     41  C   UNL A   1      39.058  29.815  32.993  1.00  0.00     0.060 A 
ATOM     42  C   UNL A   1      38.297  30.994  32.957  1.00  0.00     0.016 A 
ATOM     43  C   UNL A   1      40.372  29.854  33.467  1.00  0.00     0.016 A 
ATOM     44  C   UNL A   1      38.843  32.214  33.388  1.00  0.00     0.010 A 
ATOM     45  C   UNL A   1      40.922  31.074  33.881  1.00  0.00     0.010 A 
ATOM     46  C   UNL A   1      40.169  32.270  33.836  1.00  0.00    -0.014 A 
BRANCH  46  47
ATOM     47  C   UNL A   1      40.880  33.567  34.023  1.00  0.00     0.031 A 
ATOM     48  C   UNL A   1      41.642  34.095  32.840  1.00  0.00     0.074 A 
ATOM     49  C   UNL A   1      40.921  34.250  35.185  1.00  0.00     0.049 A 
ATOM     50  N   UNL A   1      42.455  35.115  32.755  1.00  0.00    -0.248 NA
ATOM     51  C   UNL A   1      41.463  33.356  31.579  1.00  0.00     0.031 C 
ATOM     52  C   UNL A   1      40.176  33.928  36.395  1.00  0.00     0.029 A 
ATOM     53  N   UNL A   1      41.672  35.347  35.550  1.00  0.00    -0.354 N 
ATOM     54  C   UNL A   1      42.865  35.148  31.431  1.00  0.00     0.074 A 
ATOM     55  C   UNL A   1      42.294  33.993  30.775  1.00  0.00     0.031 C 
ATOM     56  C   UNL A   1      40.585  34.726  37.398  1.00  0.00     0.029 A 
ATOM     57  C   UNL A   1      41.601  35.644  36.892  1.00  0.00     0.049 A 
ATOM     58  H   UNL A   1      42.209  35.868  34.911  1.00  0.00     0.167 HD
ATOM     59  C   UNL A   1      43.610  36.083  30.799  1.00  0.00     0.037 A 
ATOM     60  C   UNL A   1      42.284  36.545  37.629  1.00  0.00     0.037 A 
ATOM     61  C   UNL A   1      44.184  37.229  31.444  1.00  0.00     0.049 A 
ATOM     62  C   UNL A   1      43.229  37.498  36.939  1.00  0.00     0.074 A 
ATOM     63  C   UNL A   1      44.922  38.253  30.882  1.00  0.00     0.029 A 
ATOM     64  N   UNL A   1      44.097  37.491  32.803  1.00  0.00    -0.354 N 
ATOM     65  N   UNL A   1      43.542  37.576  35.668  1.00  0.00    -0.248 NA
ATOM     66  C   UNL A   1      43.882  38.516  37.777  1.00  0.00     0.031 C 
ATOM     67  C   UNL A   1      45.336  39.103  31.912  1.00  0.00     0.029 A 
ATOM     68  C   UNL A   1      44.802  38.643  33.105  1.00  0.00     0.049 A 
ATOM     69  H   UNL A   1      43.606  36.940  33.455  1.00  0.00     0.167 HD
ATOM     70  C   UNL A   1      44.371  38.685  35.545  1.00  0.00     0.074 A 
ATOM     71  C   UNL A   1      44.526  39.241  36.872  1.00  0.00     0.031 C 
ATOM     72  C   UNL A   1      44.932  39.205  34.426  1.00  0.00     0.037 A 
BRANCH  59  73
ATOM     73  C   UNL A   1      43.838  35.876  29.332  1.00  0.00     0.064 A 
ATOM     74  C   UNL A   1      42.986  36.448  28.371  1.00  0.00     0.173 A 
ATOM     75  C   UNL A   1      44.888  35.065  28.884  1.00  0.00     0.173 A 
ATOM     76  F   UNL A   1      41.952  37.212  28.754  1.00  0.00    -0.203 F 
ATOM     77  C   UNL A   1      43.150  36.171  27.018  1.00  0.00     0.198 A 
ATOM     78  C   UNL A   1      45.069  34.821  27.526  1.00  0.00     0.198 A 
ATOM     79  F   UNL A   1      45.726  34.494  29.762  1.00  0.00    -0.203 F 
ATOM     80  F   UNL A   1      42.277  36.659  26.127  1.00  0.00    -0.200 F 
ATOM     81  C   UNL A   1      44.192  35.360  26.597  1.00  0.00     0.200 A 
ATOM     82  F   UNL A   1      46.081  34.043  27.118  1.00  0.00    -0.200 F 
ATOM     83  F   UNL A   1      44.343  35.085  25.294  1.00  0.00    -0.200 F 
ENDBRANCH  59  73
BRANCH  60  84
ATOM     84  C   UNL A   1      42.094  36.618  39.104  1.00  0.00     0.064 A 
ATOM     85  C   UNL A   1      41.029  37.338  39.667  1.00  0.00     0.173 A 
ATOM     86  C   UNL A   1      43.010  36.022  39.984  1.00  0.00     0.173 A 
ATOM     87  F   UNL A   1      40.144  37.952  38.869  1.00  0.00    -0.203 F 
ATOM     88  C   UNL A   1      40.906  37.484  41.048  1.00  0.00     0.198 A 
ATOM     89  C   UNL A   1      42.872  36.148  41.367  1.00  0.00     0.198 A 
ATOM     90  F   UNL A   1      44.053  35.332  39.502  1.00  0.00    -0.203 F 
ATOM     91  F   UNL A   1      39.911  38.226  41.554  1.00  0.00    -0.200 F 
ATOM     92  C   UNL A   1      41.825  36.888  41.897  1.00  0.00     0.200 A 
ATOM     93  F   UNL A   1      43.760  35.568  42.186  1.00  0.00    -0.200 F 
ATOM     94  F   UNL A   1      41.711  37.038  43.224  1.00  0.00    -0.200 F 
ENDBRANCH  60  84
BRANCH  72  95
ATOM     95  C   UNL A   1      45.715  40.480  34.558  1.00  0.00     0.064 A 
ATOM     96  C   UNL A   1      47.105  40.484  34.733  1.00  0.00     0.173 A 
ATOM     97  C   UNL A   1      45.066  41.719  34.427  1.00  0.00     0.173 A 
ATOM     98  F   UNL A   1      47.771  39.328  34.878  1.00  0.00    -0.203 F 
ATOM     99  C   UNL A   1      47.816  41.680  34.785  1.00  0.00     0.198 A 
ATOM    100  C   UNL A   1      45.784  42.910  34.444  1.00  0.00     0.198 A 
ATOM    101  F   UNL A   1      43.737  41.771  34.253  1.00  0.00    -0.203 F 
ATOM    102  F   UNL A   1      49.141  41.662  34.989  1.00  0.00    -0.200 F 
ATOM    103  C   UNL A   1      47.158  42.891  34.628  1.00  0.00     0.200 A 
ATOM    104  F   UNL A   1      45.147  44.078  34.274  1.00  0.00    -0.200 F 
ATOM    105  F   UNL A   1      47.847  44.039  34.655  1.00  0.00    -0.200 F 
ENDBRANCH  72  95
ENDBRANCH  46  47
ENDBRANCH  39  41
ENDBRANCH  38  39
ENDBRANCH  37  38
ENDBRANCH  36  37
ENDBRANCH  35  36
ENDBRANCH  34  35
ENDBRANCH  33  34
ENDBRANCH   1  33
TORSDOF 23
ENDMDL
MODEL 3
REMARK VINA RESULT:     -10.2      5.228      9.798
REMARK SMILES O=C(OCCOCCOCCOCCOC(=O)c1ccc(-c2c3nc(c(-c4c(F)c(F)c(F)c(F)c4F)c4ccc([nH]4)c(-c4c(F)c(F)c(F)c(F)c4F)c4nc(c(-c5c(F)c(F)c(F)c(F)c5F)c5ccc2[nH]5)C=C4)C=C3)cc1)C1=Cc2cc(Cl)cc(-c3ccc(O)cc3)c2O[C@@H]1C(F)(F)F
REMARK SMILES IDX 9 1 8 2 7 3 6 4 5 5 4 6 3 7 2 8 1 9 81 10 82 11 98 12 83 13
REMARK SMILES IDX 97 14 84 15 96 16 85 17 88 18 86 19 87 20 99 21 100 22
REMARK SMILES IDX 101 23 102 24 89 25 90 26 95 27 91 28 94 29 92 30 93 31
REMARK SMILES IDX 10 33 11 34 12 35 13 36 14 37 15 38 16 39 17 40 18 41 19 42
REMARK SMILES IDX 80 43 20 44 79 45 21 46 22 47 23 48 73 49 24 50 78 51 72 52
REMARK SMILES IDX 74 53 25 54 77 55 71 56 70 57 26 59 58 60 38 61 57 62 39 63
REMARK SMILES IDX 42 64 56 65 75 66 40 67 41 68 55 70 76 71 43 72 27 73 28 74
REMARK SMILES IDX 36 75 29 76 30 77 34 78 37 79 31 80 32 81 35 82 33 83 59 84
REMARK SMILES IDX 60 85 68 86 61 87 62 88 66 89 69 90 63 91 64 92 67 93 65 94
REMARK SMILES IDX 44 95 45 96 53 97 46 98 47 99 51 100 54 101 48 102 49 103
REMARK SMILES IDX 52 104 50 105
REMARK H PARENT 93 32 74 58 42 69
REMARK Flexibility Score: inf
ROOT
ATOM      1  O   UNL A   1      40.680  22.921  27.827  1.00  0.00    -0.377 OA
ENDROOT
BRANCH   1   2
ATOM      2  C   UNL A   1      40.956  24.146  27.190  1.00  0.00     0.188 C 
BRANCH   2   3
ATOM      3  C   UNL A   1      39.673  24.834  26.730  1.00  0.00     0.188 C 
BRANCH   3   4
ATOM      4  O   UNL A   1      38.432  24.088  26.816  1.00  0.00    -0.376 OA
BRANCH   4   5
ATOM      5  C   UNL A   1      37.701  23.052  25.795  1.00  0.00     0.202 C 
BRANCH   5   6
ATOM      6  C   UNL A   1      36.319  23.480  24.167  1.00  0.00     0.261 C 
BRANCH   6   7
ATOM      7  O   UNL A   1      34.768  23.495  24.274  1.00  0.00    -0.460 OA
BRANCH   7   8
ATOM      8  C   UNL A   1      34.204  24.557  23.690  1.00  0.00     0.338 C 
ATOM      9  O   UNL A   1      34.572  25.242  22.772  1.00  0.00    -0.246 OA
BRANCH   8  10
ATOM     10  C   UNL A   1      33.214  24.753  24.713  1.00  0.00     0.087 C 
ATOM     11  C   UNL A   1      33.659  25.786  25.670  1.00  0.00     0.027 C 
ATOM     12  C   UNL A   1      31.676  24.905  23.546  1.00  0.00     0.316 C 
ATOM     13  C   UNL A   1      32.936  27.438  25.763  1.00  0.00     0.019 A 
ATOM     14  O   UNL A   1      30.937  26.704  23.579  1.00  0.00    -0.475 OA
ATOM     15  C   UNL A   1      33.525  28.338  26.614  1.00  0.00     0.032 A 
ATOM     16  C   UNL A   1      31.654  27.957  24.706  1.00  0.00     0.135 A 
ATOM     17  C   UNL A   1      33.023  29.640  26.540  1.00  0.00     0.042 A 
ATOM     18  C   UNL A   1      31.279  29.290  24.669  1.00  0.00     0.026 A 
ATOM     19  Cl  UNL A   1      33.729  30.825  27.591  1.00  0.00    -0.084 Cl
ATOM     20  C   UNL A   1      31.985  30.081  25.633  1.00  0.00     0.033 A 
BRANCH  12  21
ATOM     21  C   UNL A   1      31.027  23.458  23.882  1.00  0.00     0.430 C 
ATOM     22  F   UNL A   1      30.404  23.338  25.071  1.00  0.00    -0.167 F 
ATOM     23  F   UNL A   1      30.040  23.241  22.961  1.00  0.00    -0.167 F 
ATOM     24  F   UNL A   1      31.869  22.410  23.743  1.00  0.00    -0.167 F 
ENDBRANCH  12  21
BRANCH  18  25
ATOM     25  C   UNL A   1      30.336  29.985  23.809  1.00  0.00    -0.014 A 
ATOM     26  C   UNL A   1      29.581  31.078  24.250  1.00  0.00     0.012 A 
ATOM     27  C   UNL A   1      30.011  29.447  22.565  1.00  0.00     0.012 A 
ATOM     28  C   UNL A   1      28.628  31.677  23.413  1.00  0.00     0.047 A 
ATOM     29  C   UNL A   1      29.179  30.122  21.680  1.00  0.00     0.047 A 
ATOM     30  C   UNL A   1      28.470  31.222  22.115  1.00  0.00     0.115 A 
BRANCH  30  31
ATOM     31  O   UNL A   1      27.570  31.839  21.303  1.00  0.00    -0.508 OA
ATOM     32  H   UNL A   1      26.659  31.634  21.371  1.00  0.00     0.293 HD
ENDBRANCH  30  31
ENDBRANCH  18  25
ENDBRANCH   8  10
ENDBRANCH   7   8
ENDBRANCH   6   7
ENDBRANCH   5   6
ENDBRANCH   4   5
ENDBRANCH   3   4
ENDBRANCH   2   3
ENDBRANCH   1   2
BRANCH   1  33
ATOM     33  C   UNL A   1      41.293  21.842  27.154  1.00  0.00     0.188 C 
BRANCH  33  34
ATOM     34  C   UNL A   1      41.864  22.090  25.754  1.00  0.00     0.188 C 
BRANCH  34  35
ATOM     35  O   UNL A   1      43.137  21.617  25.348  1.00  0.00    -0.376 OA
BRANCH  35  36
ATOM     36  C   UNL A   1      43.964  22.469  24.580  1.00  0.00     0.202 C 
BRANCH  36  37
ATOM     37  C   UNL A   1      44.780  23.481  25.407  1.00  0.00     0.261 C 
BRANCH  37  38
ATOM     38  O   UNL A   1      44.273  24.831  25.443  1.00  0.00    -0.460 OA
BRANCH  38  39
ATOM     39  C   UNL A   1      45.191  25.829  25.414  1.00  0.00     0.338 C 
ATOM     40  O   UNL A   1      46.108  25.974  24.627  1.00  0.00    -0.246 OA
BRANCH  39  41
ATOM     41  C   UNL A   1      44.853  26.826  26.464  1.00  0.00     0.060 A 
ATOM     42  C   UNL A   1      45.866  27.317  27.302  1.00  0.00     0.016 A 
ATOM     43  C   UNL A   1      43.538  27.265  26.639  1.00  0.00     0.016 A 
ATOM     44  C   UNL A   1      45.574  28.245  28.315  1.00  0.00     0.010 A 
ATOM     45  C   UNL A   1      43.243  28.178  27.660  1.00  0.00     0.010 A 
ATOM     46  C   UNL A   1      44.255  28.669  28.517  1.00  0.00    -0.014 A 
BRANCH  46  47
ATOM     47  C   UNL A   1      43.849  29.412  29.746  1.00  0.00     0.031 A 
ATOM     48  C   UNL A   1      43.764  30.908  29.633  1.00  0.00     0.074 A 
ATOM     49  C   UNL A   1      43.614  28.832  30.940  1.00  0.00     0.049 A 
ATOM     50  N   UNL A   1      43.573  31.808  30.560  1.00  0.00    -0.248 NA
ATOM     51  C   UNL A   1      43.928  31.459  28.277  1.00  0.00     0.031 C 
ATOM     52  C   UNL A   1      43.570  27.399  31.203  1.00  0.00     0.029 A 
ATOM     53  N   UNL A   1      43.412  29.395  32.181  1.00  0.00    -0.354 N 
ATOM     54  C   UNL A   1      43.574  33.025  29.896  1.00  0.00     0.074 A 
ATOM     55  C   UNL A   1      43.883  32.759  28.509  1.00  0.00     0.031 C 
ATOM     56  C   UNL A   1      43.471  27.191  32.529  1.00  0.00     0.029 A 
ATOM     57  C   UNL A   1      43.409  28.481  33.211  1.00  0.00     0.049 A 
ATOM     58  H   UNL A   1      43.283  30.361  32.319  1.00  0.00     0.167 HD
ATOM     59  C   UNL A   1      43.293  34.255  30.382  1.00  0.00     0.037 A 
ATOM     60  C   UNL A   1      43.371  28.663  34.546  1.00  0.00     0.037 A 
ATOM     61  C   UNL A   1      42.989  34.529  31.758  1.00  0.00     0.049 A 
ATOM     62  C   UNL A   1      43.202  30.058  35.097  1.00  0.00     0.074 A 
ATOM     63  C   UNL A   1      42.654  35.735  32.342  1.00  0.00     0.029 A 
ATOM     64  N   UNL A   1      43.004  33.580  32.769  1.00  0.00    -0.354 N 
ATOM     65  N   UNL A   1      43.115  31.196  34.451  1.00  0.00    -0.248 NA
ATOM     66  C   UNL A   1      43.081  30.191  36.557  1.00  0.00     0.031 C 
ATOM     67  C   UNL A   1      42.526  35.529  33.719  1.00  0.00     0.029 A 
ATOM     68  C   UNL A   1      42.720  34.182  33.983  1.00  0.00     0.049 A 
ATOM     69  H   UNL A   1      43.188  32.621  32.643  1.00  0.00     0.167 HD
ATOM     70  C   UNL A   1      42.864  32.165  35.415  1.00  0.00     0.074 A 
ATOM     71  C   UNL A   1      42.827  31.486  36.692  1.00  0.00     0.031 C 
ATOM     72  C   UNL A   1      42.660  33.495  35.248  1.00  0.00     0.037 A 
BRANCH  59  73
ATOM     73  C   UNL A   1      43.313  35.384  29.398  1.00  0.00     0.064 A 
ATOM     74  C   UNL A   1      42.178  35.715  28.638  1.00  0.00     0.173 A 
ATOM     75  C   UNL A   1      44.489  36.114  29.178  1.00  0.00     0.173 A 
ATOM     76  F   UNL A   1      41.037  35.028  28.796  1.00  0.00    -0.203 F 
ATOM     77  C   UNL A   1      42.237  36.701  27.659  1.00  0.00     0.198 A 
ATOM     78  C   UNL A   1      44.532  37.124  28.223  1.00  0.00     0.198 A 
ATOM     79  F   UNL A   1      45.600  35.834  29.876  1.00  0.00    -0.203 F 
ATOM     80  F   UNL A   1      41.166  36.942  26.890  1.00  0.00    -0.200 F 
ATOM     81  C   UNL A   1      43.413  37.406  27.454  1.00  0.00     0.200 A 
ATOM     82  F   UNL A   1      45.666  37.812  28.029  1.00  0.00    -0.200 F 
ATOM     83  F   UNL A   1      43.472  38.349  26.504  1.00  0.00    -0.200 F 
ENDBRANCH  59  73
BRANCH  60  84
ATOM     84  C   UNL A   1      43.473  27.501  35.474  1.00  0.00     0.064 A 
ATOM     85  C   UNL A   1      44.701  27.119  36.032  1.00  0.00     0.173 A 
ATOM     86  C   UNL A   1      42.352  26.710  35.770  1.00  0.00     0.173 A 
ATOM     87  F   UNL A   1      45.807  27.825  35.755  1.00  0.00    -0.203 F 
ATOM     88  C   UNL A   1      44.811  25.977  36.824  1.00  0.00     0.198 A 
ATOM     89  C   UNL A   1      42.459  25.581  36.583  1.00  0.00     0.198 A 
ATOM     90  F   UNL A   1      41.154  27.021  35.254  1.00  0.00    -0.203 F 
ATOM     91  F   UNL A   1      46.010  25.606  37.296  1.00  0.00    -0.200 F 
ATOM     92  C   UNL A   1      43.691  25.210  37.102  1.00  0.00     0.200 A 
ATOM     93  F   UNL A   1      41.373  24.843  36.852  1.00  0.00    -0.200 F 
ATOM     94  F   UNL A   1      43.801  24.107  37.854  1.00  0.00    -0.200 F 
ENDBRANCH  60  84
BRANCH  72  95
ATOM     95  C   UNL A   1      42.310  34.311  36.459  1.00  0.00     0.064 A 
ATOM     96  C   UNL A   1      43.287  34.951  37.234  1.00  0.00     0.173 A 
ATOM     97  C   UNL A   1      40.962  34.517  36.800  1.00  0.00     0.173 A 
ATOM     98  F   UNL A   1      44.588  34.775  36.959  1.00  0.00    -0.203 F 
ATOM     99  C   UNL A   1      42.930  35.757  38.312  1.00  0.00     0.198 A 
ATOM    100  C   UNL A   1      40.609  35.351  37.856  1.00  0.00     0.198 A 
ATOM    101  F   UNL A   1      39.987  33.931  36.088  1.00  0.00    -0.203 F 
ATOM    102  F   UNL A   1      43.882  36.331  39.061  1.00  0.00    -0.200 F 
ATOM    103  C   UNL A   1      41.593  35.967  38.614  1.00  0.00     0.200 A 
ATOM    104  F   UNL A   1      39.315  35.565  38.135  1.00  0.00    -0.200 F 
ATOM    105  F   UNL A   1      41.251  36.761  39.638  1.00  0.00    -0.200 F 
ENDBRANCH  72  95
ENDBRANCH  46  47
ENDBRANCH  39  41
ENDBRANCH  38  39
ENDBRANCH  37  38
ENDBRANCH  36  37
ENDBRANCH  35  36
ENDBRANCH  34  35
ENDBRANCH  33  34
ENDBRANCH   1  33
TORSDOF 23
ENDMDL
