MODEL 1
REMARK VINA RESULT:     -11.0      0.000      0.000
REMARK SMILES [NH3+]C1CC[NH+](CC(=O)Nc2cc(Cl)ccc2C(=O)OCCOCCOCCOCCOC(=O)c2ccc(-c3c4nc(c(-c5c(F)c(F)c(F)c(F)c5F)c5ccc([nH]5)c(-c5c(F)c(F)c(F)c(F)c5F)c5nc(c(-c6c(F)c(F)c(F)c(F)c6F)c6ccc3[nH]6)C=C5)C=C4)cc2)CC1
REMARK SMILES IDX 24 1 23 2 22 3 21 4 20 5 19 6 17 7 18 8 16 9 10 10 11 11
REMARK SMILES IDX 12 12 15 13 13 14 14 15 9 16 7 17 8 18 6 20 5 21 2 22 3 23
REMARK SMILES IDX 98 24 4 25 97 26 1 28 25 32 26 33 27 34 28 35 29 36 30 37
REMARK SMILES IDX 31 38 32 39 33 40 34 41 35 42 96 43 36 44 95 45 37 46 38 47
REMARK SMILES IDX 39 48 89 49 40 50 94 51 88 52 90 53 41 54 93 55 87 56 86 57
REMARK SMILES IDX 42 59 74 60 54 61 73 62 55 63 58 64 72 65 91 66 56 67 57 68
REMARK SMILES IDX 71 70 92 71 59 72 43 73 44 74 52 75 45 76 46 77 50 78 53 79
REMARK SMILES IDX 47 80 48 81 51 82 49 83 75 84 76 85 84 86 77 87 78 88 82 89
REMARK SMILES IDX 85 90 79 91 80 92 83 93 81 94 60 95 61 96 69 97 62 98 63 99
REMARK SMILES IDX 67 100 70 101 64 102 65 103 68 104 66 105
REMARK H PARENT 9 19 5 27 1 29 1 30 1 31 90 58 58 69
REMARK Flexibility Score: inf
ROOT
ATOM      1  C   UNL A   1      41.187  21.411  26.008  1.00  0.00     0.188 C 
ENDROOT
BRANCH   1   2
ATOM      2  C   UNL A   1      39.891  21.667  26.798  1.00  0.00     0.188 C 
BRANCH   2   3
ATOM      3  O   UNL A   1      39.664  23.035  27.123  1.00  0.00    -0.376 OA
BRANCH   3   4
ATOM      4  C   UNL A   1      38.634  23.694  26.395  1.00  0.00     0.202 C 
BRANCH   4   5
ATOM      5  C   UNL A   1      37.731  22.731  25.618  1.00  0.00     0.261 C 
BRANCH   5   6
ATOM      6  O   UNL A   1      36.643  23.401  24.966  1.00  0.00    -0.460 OA
BRANCH   6   7
ATOM      7  C   UNL A   1      35.430  23.336  25.571  1.00  0.00     0.340 C 
ATOM      8  O   UNL A   1      34.999  24.120  26.380  1.00  0.00    -0.246 OA
BRANCH   7   9
ATOM      9  C   UNL A   1      34.618  22.275  24.890  1.00  0.00     0.083 A 
ATOM     10  C   UNL A   1      33.936  22.441  23.651  1.00  0.00     0.057 A 
ATOM     11  C   UNL A   1      33.102  21.401  23.235  1.00  0.00     0.047 A 
ATOM     12  C   UNL A   1      32.992  20.215  23.972  1.00  0.00     0.043 A 
ATOM     13  C   UNL A   1      34.479  21.086  25.635  1.00  0.00     0.019 A 
ATOM     14  Cl  UNL A   1      31.991  18.941  23.391  1.00  0.00    -0.084 Cl
ATOM     15  C   UNL A   1      33.672  20.053  25.170  1.00  0.00     0.021 A 
BRANCH  10  16
ATOM     16  N   UNL A   1      34.105  23.652  22.936  1.00  0.00    -0.320 N 
ATOM     17  C   UNL A   1      33.540  24.890  22.864  1.00  0.00     0.279 C 
ATOM     18  O   UNL A   1      34.005  25.643  21.993  1.00  0.00    -0.268 OA
ATOM     19  H   UNL A   1      34.855  23.578  22.302  1.00  0.00     0.170 HD
BRANCH  17  20
ATOM     20  C   UNL A   1      32.396  25.382  23.733  1.00  0.00     0.363 C 
BRANCH  20  21
ATOM     21  N   UNL A   1      32.724  25.712  25.130  1.00  0.00    -0.327 N 
ATOM     22  C   UNL A   1      31.428  27.926  26.657  1.00  0.00     0.192 C 
ATOM     23  C   UNL A   1      32.585  28.187  25.680  1.00  0.00     0.126 C 
ATOM     24  C   UNL A   1      30.717  26.623  26.306  1.00  0.00     0.126 C 
ATOM     25  C   UNL A   1      33.448  26.961  25.362  1.00  0.00     0.268 C 
ATOM     26  C   UNL A   1      31.703  25.469  26.135  1.00  0.00     0.268 C 
ATOM     27  H   UNL A   1      33.410  24.974  25.288  1.00  0.00     0.348 HD
BRANCH  22  28
ATOM     28  N   UNL A   1      31.836  27.896  28.063  1.00  0.00    -0.355 N 
ATOM     29  H   UNL A   1      31.859  28.848  28.430  1.00  0.00     0.344 HD
ATOM     30  H   UNL A   1      32.763  27.479  28.139  1.00  0.00     0.344 HD
ATOM     31  H   UNL A   1      31.168  27.342  28.599  1.00  0.00     0.344 HD
ENDBRANCH  22  28
ENDBRANCH  20  21
ENDBRANCH  17  20
ENDBRANCH  10  16
ENDBRANCH   7   9
ENDBRANCH   6   7
ENDBRANCH   5   6
ENDBRANCH   4   5
ENDBRANCH   3   4
ENDBRANCH   2   3
ENDBRANCH   1   2
BRANCH   1  32
ATOM     32  O   UNL A   1      41.457  20.094  25.567  1.00  0.00    -0.377 OA
BRANCH  32  33
ATOM     33  C   UNL A   1      42.574  19.401  26.120  1.00  0.00     0.188 C 
BRANCH  33  34
ATOM     34  C   UNL A   1      43.924  19.316  25.365  1.00  0.00     0.188 C 
BRANCH  34  35
ATOM     35  O   UNL A   1      44.147  20.322  24.387  1.00  0.00    -0.376 OA
BRANCH  35  36
ATOM     36  C   UNL A   1      44.753  21.530  24.825  1.00  0.00     0.202 C 
BRANCH  36  37
ATOM     37  C   UNL A   1      44.497  22.748  23.926  1.00  0.00     0.261 C 
BRANCH  37  38
ATOM     38  O   UNL A   1      43.735  23.797  24.539  1.00  0.00    -0.460 OA
BRANCH  38  39
ATOM     39  C   UNL A   1      44.438  24.836  25.037  1.00  0.00     0.338 C 
ATOM     40  O   UNL A   1      45.572  25.174  24.751  1.00  0.00    -0.246 OA
BRANCH  39  41
ATOM     41  C   UNL A   1      43.529  25.637  25.874  1.00  0.00     0.060 A 
ATOM     42  C   UNL A   1      43.735  27.020  25.953  1.00  0.00     0.016 A 
ATOM     43  C   UNL A   1      42.505  25.020  26.596  1.00  0.00     0.016 A 
ATOM     44  C   UNL A   1      42.953  27.786  26.810  1.00  0.00     0.010 A 
ATOM     45  C   UNL A   1      41.737  25.785  27.474  1.00  0.00     0.010 A 
ATOM     46  C   UNL A   1      41.997  27.159  27.621  1.00  0.00    -0.014 A 
BRANCH  46  47
ATOM     47  C   UNL A   1      41.487  27.884  28.804  1.00  0.00     0.031 A 
ATOM     48  C   UNL A   1      42.236  27.720  30.099  1.00  0.00     0.074 A 
ATOM     49  C   UNL A   1      40.423  28.699  28.728  1.00  0.00     0.049 A 
ATOM     50  N   UNL A   1      42.002  28.247  31.273  1.00  0.00    -0.248 NA
ATOM     51  C   UNL A   1      43.415  26.837  30.061  1.00  0.00     0.031 C 
ATOM     52  C   UNL A   1      39.645  28.965  27.522  1.00  0.00     0.029 A 
ATOM     53  N   UNL A   1      39.818  29.456  29.698  1.00  0.00    -0.354 N 
ATOM     54  C   UNL A   1      43.000  27.761  32.107  1.00  0.00     0.074 A 
ATOM     55  C   UNL A   1      43.822  26.870  31.320  1.00  0.00     0.031 C 
ATOM     56  C   UNL A   1      38.654  29.823  27.826  1.00  0.00     0.029 A 
ATOM     57  C   UNL A   1      38.719  30.145  29.251  1.00  0.00     0.049 A 
ATOM     58  H   UNL A   1      40.141  29.501  30.627  1.00  0.00     0.167 HD
ATOM     59  C   UNL A   1      43.219  28.042  33.413  1.00  0.00     0.037 A 
ATOM     60  C   UNL A   1      37.862  30.934  29.927  1.00  0.00     0.037 A 
ATOM     61  C   UNL A   1      42.396  28.921  34.195  1.00  0.00     0.049 A 
ATOM     62  C   UNL A   1      38.094  31.185  31.396  1.00  0.00     0.074 A 
ATOM     63  C   UNL A   1      42.526  29.271  35.526  1.00  0.00     0.029 A 
ATOM     64  N   UNL A   1      41.278  29.587  33.712  1.00  0.00    -0.354 N 
ATOM     65  N   UNL A   1      39.052  30.742  32.175  1.00  0.00    -0.248 NA
ATOM     66  C   UNL A   1      37.127  32.059  32.077  1.00  0.00     0.031 C 
ATOM     67  C   UNL A   1      41.460  30.112  35.862  1.00  0.00     0.029 A 
ATOM     68  C   UNL A   1      40.701  30.334  34.725  1.00  0.00     0.049 A 
ATOM     69  H   UNL A   1      40.946  29.536  32.787  1.00  0.00     0.167 HD
ATOM     70  C   UNL A   1      38.828  31.313  33.423  1.00  0.00     0.074 A 
ATOM     71  C   UNL A   1      37.646  32.140  33.294  1.00  0.00     0.031 C 
ATOM     72  C   UNL A   1      39.536  31.169  34.571  1.00  0.00     0.037 A 
BRANCH  59  73
ATOM     73  C   UNL A   1      44.381  27.363  34.075  1.00  0.00     0.064 A 
ATOM     74  C   UNL A   1      45.649  27.962  34.138  1.00  0.00     0.173 A 
ATOM     75  C   UNL A   1      44.222  26.099  34.662  1.00  0.00     0.173 A 
ATOM     76  F   UNL A   1      45.858  29.160  33.572  1.00  0.00    -0.203 F 
ATOM     77  C   UNL A   1      46.720  27.309  34.741  1.00  0.00     0.198 A 
ATOM     78  C   UNL A   1      45.289  25.462  35.292  1.00  0.00     0.198 A 
ATOM     79  F   UNL A   1      43.033  25.481  34.626  1.00  0.00    -0.203 F 
ATOM     80  F   UNL A   1      47.934  27.877  34.744  1.00  0.00    -0.200 F 
ATOM     81  C   UNL A   1      46.538  26.064  35.324  1.00  0.00     0.200 A 
ATOM     82  F   UNL A   1      45.109  24.262  35.861  1.00  0.00    -0.200 F 
ATOM     83  F   UNL A   1      47.569  25.438  35.908  1.00  0.00    -0.200 F 
ENDBRANCH  59  73
BRANCH  60  84
ATOM     84  C   UNL A   1      36.707  31.552  29.226  1.00  0.00     0.064 A 
ATOM     85  C   UNL A   1      36.676  32.926  28.949  1.00  0.00     0.173 A 
ATOM     86  C   UNL A   1      35.594  30.786  28.846  1.00  0.00     0.173 A 
ATOM     87  F   UNL A   1      37.704  33.706  29.316  1.00  0.00    -0.203 F 
ATOM     88  C   UNL A   1      35.568  33.514  28.342  1.00  0.00     0.198 A 
ATOM     89  C   UNL A   1      34.499  31.370  28.214  1.00  0.00     0.198 A 
ATOM     90  F   UNL A   1      35.571  29.468  29.093  1.00  0.00    -0.203 F 
ATOM     91  F   UNL A   1      35.543  34.838  28.140  1.00  0.00    -0.200 F 
ATOM     92  C   UNL A   1      34.483  32.735  27.971  1.00  0.00     0.200 A 
ATOM     93  F   UNL A   1      33.456  30.613  27.850  1.00  0.00    -0.200 F 
ATOM     94  F   UNL A   1      33.416  33.302  27.391  1.00  0.00    -0.200 F 
ENDBRANCH  60  84
BRANCH  72  95
ATOM     95  C   UNL A   1      39.092  31.969  35.761  1.00  0.00     0.064 A 
ATOM     96  C   UNL A   1      38.235  31.440  36.736  1.00  0.00     0.173 A 
ATOM     97  C   UNL A   1      39.563  33.280  35.943  1.00  0.00     0.173 A 
ATOM     98  F   UNL A   1      37.749  30.196  36.604  1.00  0.00    -0.203 F 
ATOM     99  C   UNL A   1      37.837  32.204  37.831  1.00  0.00     0.198 A 
ATOM    100  C   UNL A   1      39.190  34.028  37.055  1.00  0.00     0.198 A 
ATOM    101  F   UNL A   1      40.395  33.830  35.046  1.00  0.00    -0.203 F 
ATOM    102  F   UNL A   1      36.972  31.696  38.720  1.00  0.00    -0.200 F 
ATOM    103  C   UNL A   1      38.319  33.494  37.993  1.00  0.00     0.200 A 
ATOM    104  F   UNL A   1      39.671  35.269  37.218  1.00  0.00    -0.200 F 
ATOM    105  F   UNL A   1      37.938  34.226  39.049  1.00  0.00    -0.200 F 
ENDBRANCH  72  95
ENDBRANCH  46  47
ENDBRANCH  39  41
ENDBRANCH  38  39
ENDBRANCH  37  38
ENDBRANCH  36  37
ENDBRANCH  35  36
ENDBRANCH  34  35
ENDBRANCH  33  34
ENDBRANCH  32  33
ENDBRANCH   1  32
TORSDOF 24
ENDMDL
MODEL 2
REMARK VINA RESULT:     -10.3      1.387      2.221
REMARK SMILES [NH3+]C1CC[NH+](CC(=O)Nc2cc(Cl)ccc2C(=O)OCCOCCOCCOCCOC(=O)c2ccc(-c3c4nc(c(-c5c(F)c(F)c(F)c(F)c5F)c5ccc([nH]5)c(-c5c(F)c(F)c(F)c(F)c5F)c5nc(c(-c6c(F)c(F)c(F)c(F)c6F)c6ccc3[nH]6)C=C5)C=C4)cc2)CC1
REMARK SMILES IDX 24 1 23 2 22 3 21 4 20 5 19 6 17 7 18 8 16 9 10 10 11 11
REMARK SMILES IDX 12 12 15 13 13 14 14 15 9 16 7 17 8 18 6 20 5 21 2 22 3 23
REMARK SMILES IDX 98 24 4 25 97 26 1 28 25 32 26 33 27 34 28 35 29 36 30 37
REMARK SMILES IDX 31 38 32 39 33 40 34 41 35 42 96 43 36 44 95 45 37 46 38 47
REMARK SMILES IDX 39 48 89 49 40 50 94 51 88 52 90 53 41 54 93 55 87 56 86 57
REMARK SMILES IDX 42 59 74 60 54 61 73 62 55 63 58 64 72 65 91 66 56 67 57 68
REMARK SMILES IDX 71 70 92 71 59 72 43 73 44 74 52 75 45 76 46 77 50 78 53 79
REMARK SMILES IDX 47 80 48 81 51 82 49 83 75 84 76 85 84 86 77 87 78 88 82 89
REMARK SMILES IDX 85 90 79 91 80 92 83 93 81 94 60 95 61 96 69 97 62 98 63 99
REMARK SMILES IDX 67 100 70 101 64 102 65 103 68 104 66 105
REMARK H PARENT 9 19 5 27 1 29 1 30 1 31 90 58 58 69
REMARK Flexibility Score: inf
ROOT
ATOM      1  C   UNL A   1      41.722  20.967  26.007  1.00  0.00     0.188 C 
ENDROOT
BRANCH   1   2
ATOM      2  C   UNL A   1      40.418  20.365  26.561  1.00  0.00     0.188 C 
BRANCH   2   3
ATOM      3  O   UNL A   1      39.307  20.459  25.675  1.00  0.00    -0.376 OA
BRANCH   3   4
ATOM      4  C   UNL A   1      38.572  21.677  25.712  1.00  0.00     0.202 C 
BRANCH   4   5
ATOM      5  C   UNL A   1      37.330  21.663  24.815  1.00  0.00     0.261 C 
BRANCH   5   6
ATOM      6  O   UNL A   1      36.119  21.901  25.547  1.00  0.00    -0.460 OA
BRANCH   6   7
ATOM      7  C   UNL A   1      35.560  23.131  25.425  1.00  0.00     0.340 C 
ATOM      8  O   UNL A   1      36.087  24.106  24.947  1.00  0.00    -0.246 OA
BRANCH   7   9
ATOM      9  C   UNL A   1      34.101  23.022  25.755  1.00  0.00     0.083 A 
ATOM     10  C   UNL A   1      33.040  23.429  24.898  1.00  0.00     0.057 A 
ATOM     11  C   UNL A   1      31.746  23.398  25.422  1.00  0.00     0.047 A 
ATOM     12  C   UNL A   1      31.494  22.923  26.715  1.00  0.00     0.043 A 
ATOM     13  C   UNL A   1      33.836  22.569  27.064  1.00  0.00     0.019 A 
ATOM     14  Cl  UNL A   1      29.875  22.855  27.297  1.00  0.00    -0.084 Cl
ATOM     15  C   UNL A   1      32.531  22.512  27.540  1.00  0.00     0.021 A 
BRANCH  10  16
ATOM     16  N   UNL A   1      33.352  23.877  23.591  1.00  0.00    -0.320 N 
ATOM     17  C   UNL A   1      33.521  25.051  22.920  1.00  0.00     0.279 C 
ATOM     18  O   UNL A   1      33.732  24.948  21.701  1.00  0.00    -0.268 OA
ATOM     19  H   UNL A   1      33.488  23.112  22.986  1.00  0.00     0.170 HD
BRANCH  17  20
ATOM     20  C   UNL A   1      33.443  26.434  23.543  1.00  0.00     0.363 C 
BRANCH  20  21
ATOM     21  N   UNL A   1      32.726  27.464  22.772  1.00  0.00    -0.327 N 
ATOM     22  C   UNL A   1      30.549  29.163  23.907  1.00  0.00     0.192 C 
ATOM     23  C   UNL A   1      30.283  27.734  23.411  1.00  0.00     0.126 C 
ATOM     24  C   UNL A   1      32.021  29.338  24.267  1.00  0.00     0.126 C 
ATOM     25  C   UNL A   1      31.330  27.185  22.435  1.00  0.00     0.268 C 
ATOM     26  C   UNL A   1      32.938  28.852  23.147  1.00  0.00     0.268 C 
ATOM     27  H   UNL A   1      33.237  27.361  21.896  1.00  0.00     0.348 HD
BRANCH  22  28
ATOM     28  N   UNL A   1      30.152  30.204  22.956  1.00  0.00    -0.355 N 
ATOM     29  H   UNL A   1      29.998  29.784  22.039  1.00  0.00     0.344 HD
ATOM     30  H   UNL A   1      30.890  30.904  22.891  1.00  0.00     0.344 HD
ATOM     31  H   UNL A   1      29.290  30.646  23.276  1.00  0.00     0.344 HD
ENDBRANCH  22  28
ENDBRANCH  20  21
ENDBRANCH  17  20
ENDBRANCH  10  16
ENDBRANCH   7   9
ENDBRANCH   6   7
ENDBRANCH   5   6
ENDBRANCH   4   5
ENDBRANCH   3   4
ENDBRANCH   2   3
ENDBRANCH   1   2
BRANCH   1  32
ATOM     32  O   UNL A   1      42.927  20.249  26.192  1.00  0.00    -0.377 OA
BRANCH  32  33
ATOM     33  C   UNL A   1      43.695  19.891  25.045  1.00  0.00     0.188 C 
BRANCH  33  34
ATOM     34  C   UNL A   1      45.132  19.330  25.181  1.00  0.00     0.188 C 
BRANCH  34  35
ATOM     35  O   UNL A   1      46.141  20.285  25.482  1.00  0.00    -0.376 OA
BRANCH  35  36
ATOM     36  C   UNL A   1      45.962  21.600  24.975  1.00  0.00     0.202 C 
BRANCH  36  37
ATOM     37  C   UNL A   1      45.862  22.700  26.040  1.00  0.00     0.261 C 
BRANCH  37  38
ATOM     38  O   UNL A   1      44.537  23.203  26.260  1.00  0.00    -0.460 OA
BRANCH  38  39
ATOM     39  C   UNL A   1      44.136  24.210  25.455  1.00  0.00     0.338 C 
ATOM     40  O   UNL A   1      44.293  24.308  24.252  1.00  0.00    -0.246 OA
BRANCH  39  41
ATOM     41  C   UNL A   1      43.291  25.116  26.250  1.00  0.00     0.060 A 
ATOM     42  C   UNL A   1      43.632  26.473  26.306  1.00  0.00     0.016 A 
ATOM     43  C   UNL A   1      42.194  24.620  26.958  1.00  0.00     0.016 A 
ATOM     44  C   UNL A   1      42.908  27.332  27.126  1.00  0.00     0.010 A 
ATOM     45  C   UNL A   1      41.484  25.477  27.799  1.00  0.00     0.010 A 
ATOM     46  C   UNL A   1      41.876  26.822  27.924  1.00  0.00    -0.014 A 
BRANCH  46  47
ATOM     47  C   UNL A   1      41.411  27.622  29.078  1.00  0.00     0.031 A 
ATOM     48  C   UNL A   1      42.185  27.505  30.363  1.00  0.00     0.074 A 
ATOM     49  C   UNL A   1      40.367  28.460  28.981  1.00  0.00     0.049 A 
ATOM     50  N   UNL A   1      41.991  28.099  31.512  1.00  0.00    -0.248 NA
ATOM     51  C   UNL A   1      43.339  26.589  30.347  1.00  0.00     0.031 C 
ATOM     52  C   UNL A   1      39.570  28.684  27.779  1.00  0.00     0.029 A 
ATOM     53  N   UNL A   1      39.805  29.283  29.923  1.00  0.00    -0.354 N 
ATOM     54  C   UNL A   1      42.994  27.630  32.350  1.00  0.00     0.074 A 
ATOM     55  C   UNL A   1      43.775  26.676  31.593  1.00  0.00     0.031 C 
ATOM     56  C   UNL A   1      38.609  29.583  28.058  1.00  0.00     0.029 A 
ATOM     57  C   UNL A   1      38.715  29.978  29.462  1.00  0.00     0.049 A 
ATOM     58  H   UNL A   1      40.150  29.367  30.840  1.00  0.00     0.167 HD
ATOM     59  C   UNL A   1      43.250  27.971  33.634  1.00  0.00     0.037 A 
ATOM     60  C   UNL A   1      37.894  30.824  30.114  1.00  0.00     0.037 A 
ATOM     61  C   UNL A   1      42.467  28.913  34.386  1.00  0.00     0.049 A 
ATOM     62  C   UNL A   1      38.165  31.144  31.563  1.00  0.00     0.074 A 
ATOM     63  C   UNL A   1      42.637  29.328  35.694  1.00  0.00     0.029 A 
ATOM     64  N   UNL A   1      41.357  29.582  33.892  1.00  0.00    -0.354 N 
ATOM     65  N   UNL A   1      39.128  30.717  32.343  1.00  0.00    -0.248 NA
ATOM     66  C   UNL A   1      37.237  32.078  32.217  1.00  0.00     0.031 C 
ATOM     67  C   UNL A   1      41.601  30.214  36.007  1.00  0.00     0.029 A 
ATOM     68  C   UNL A   1      40.822  30.397  34.876  1.00  0.00     0.049 A 
ATOM     69  H   UNL A   1      41.003  29.493  32.978  1.00  0.00     0.167 HD
ATOM     70  C   UNL A   1      38.947  31.357  33.564  1.00  0.00     0.074 A 
ATOM     71  C   UNL A   1      37.785  32.208  33.416  1.00  0.00     0.031 C 
ATOM     72  C   UNL A   1      39.676  31.254  34.703  1.00  0.00     0.037 A 
BRANCH  59  73
ATOM     73  C   UNL A   1      44.408  27.297  34.307  1.00  0.00     0.064 A 
ATOM     74  C   UNL A   1      45.696  27.855  34.296  1.00  0.00     0.173 A 
ATOM     75  C   UNL A   1      44.226  26.079  34.978  1.00  0.00     0.173 A 
ATOM     76  F   UNL A   1      45.927  29.007  33.649  1.00  0.00    -0.203 F 
ATOM     77  C   UNL A   1      46.763  27.205  34.911  1.00  0.00     0.198 A 
ATOM     78  C   UNL A   1      45.289  25.447  35.618  1.00  0.00     0.198 A 
ATOM     79  F   UNL A   1      43.016  25.501  35.014  1.00  0.00    -0.203 F 
ATOM     80  F   UNL A   1      47.994  27.730  34.844  1.00  0.00    -0.200 F 
ATOM     81  C   UNL A   1      46.558  26.007  35.577  1.00  0.00     0.200 A 
ATOM     82  F   UNL A   1      45.087  24.293  36.268  1.00  0.00    -0.200 F 
ATOM     83  F   UNL A   1      47.584  25.384  36.172  1.00  0.00    -0.200 F 
ENDBRANCH  59  73
BRANCH  60  84
ATOM     84  C   UNL A   1      36.739  31.436  29.406  1.00  0.00     0.064 A 
ATOM     85  C   UNL A   1      35.627  30.669  29.032  1.00  0.00     0.173 A 
ATOM     86  C   UNL A   1      36.738  32.796  29.061  1.00  0.00     0.173 A 
ATOM     87  F   UNL A   1      35.593  29.358  29.315  1.00  0.00    -0.203 F 
ATOM     88  C   UNL A   1      34.571  31.231  28.318  1.00  0.00     0.198 A 
ATOM     89  C   UNL A   1      35.669  33.364  28.373  1.00  0.00     0.198 A 
ATOM     90  F   UNL A   1      37.780  33.573  29.391  1.00  0.00    -0.203 F 
ATOM     91  F   UNL A   1      33.547  30.462  27.925  1.00  0.00    -0.200 F 
ATOM     92  C   UNL A   1      34.590  32.580  27.994  1.00  0.00     0.200 A 
ATOM     93  F   UNL A   1      35.688  34.668  28.068  1.00  0.00    -0.200 F 
ATOM     94  F   UNL A   1      33.575  33.119  27.305  1.00  0.00    -0.200 F 
ENDBRANCH  60  84
BRANCH  72  95
ATOM     95  C   UNL A   1      39.280  32.127  35.859  1.00  0.00     0.064 A 
ATOM     96  C   UNL A   1      39.812  33.412  36.035  1.00  0.00     0.173 A 
ATOM     97  C   UNL A   1      38.327  31.677  36.786  1.00  0.00     0.173 A 
ATOM     98  F   UNL A   1      40.733  33.885  35.182  1.00  0.00    -0.203 F 
ATOM     99  C   UNL A   1      39.429  34.203  37.117  1.00  0.00     0.198 A 
ATOM    100  C   UNL A   1      37.923  32.482  37.847  1.00  0.00     0.198 A 
ATOM    101  F   UNL A   1      37.778  30.460  36.657  1.00  0.00    -0.203 F 
ATOM    102  F   UNL A   1      39.992  35.406  37.296  1.00  0.00    -0.200 F 
ATOM    103  C   UNL A   1      38.481  33.740  38.017  1.00  0.00     0.200 A 
ATOM    104  F   UNL A   1      36.994  32.040  38.706  1.00  0.00    -0.200 F 
ATOM    105  F   UNL A   1      38.112  34.504  39.055  1.00  0.00    -0.200 F 
ENDBRANCH  72  95
ENDBRANCH  46  47
ENDBRANCH  39  41
ENDBRANCH  38  39
ENDBRANCH  37  38
ENDBRANCH  36  37
ENDBRANCH  35  36
ENDBRANCH  34  35
ENDBRANCH  33  34
ENDBRANCH  32  33
ENDBRANCH   1  32
TORSDOF 24
ENDMDL
MODEL 3
REMARK VINA RESULT:     -10.2      3.513      8.583
REMARK SMILES [NH3+]C1CC[NH+](CC(=O)Nc2cc(Cl)ccc2C(=O)OCCOCCOCCOCCOC(=O)c2ccc(-c3c4nc(c(-c5c(F)c(F)c(F)c(F)c5F)c5ccc([nH]5)c(-c5c(F)c(F)c(F)c(F)c5F)c5nc(c(-c6c(F)c(F)c(F)c(F)c6F)c6ccc3[nH]6)C=C5)C=C4)cc2)CC1
REMARK SMILES IDX 24 1 23 2 22 3 21 4 20 5 19 6 17 7 18 8 16 9 10 10 11 11
REMARK SMILES IDX 12 12 15 13 13 14 14 15 9 16 7 17 8 18 6 20 5 21 2 22 3 23
REMARK SMILES IDX 98 24 4 25 97 26 1 28 25 32 26 33 27 34 28 35 29 36 30 37
REMARK SMILES IDX 31 38 32 39 33 40 34 41 35 42 96 43 36 44 95 45 37 46 38 47
REMARK SMILES IDX 39 48 89 49 40 50 94 51 88 52 90 53 41 54 93 55 87 56 86 57
REMARK SMILES IDX 42 59 74 60 54 61 73 62 55 63 58 64 72 65 91 66 56 67 57 68
REMARK SMILES IDX 71 70 92 71 59 72 43 73 44 74 52 75 45 76 46 77 50 78 53 79
REMARK SMILES IDX 47 80 48 81 51 82 49 83 75 84 76 85 84 86 77 87 78 88 82 89
REMARK SMILES IDX 85 90 79 91 80 92 83 93 81 94 60 95 61 96 69 97 62 98 63 99
REMARK SMILES IDX 67 100 70 101 64 102 65 103 68 104 66 105
REMARK H PARENT 9 19 5 27 1 29 1 30 1 31 90 58 58 69
REMARK Flexibility Score: inf
ROOT
ATOM      1  C   UNL A   1      33.831  26.323  25.956  1.00  0.00     0.188 C 
ENDROOT
BRANCH   1   2
ATOM      2  C   UNL A   1      34.038  24.798  25.934  1.00  0.00     0.188 C 
BRANCH   2   3
ATOM      3  O   UNL A   1      35.364  24.392  25.610  1.00  0.00    -0.376 OA
BRANCH   3   4
ATOM      4  C   UNL A   1      35.489  23.202  24.840  1.00  0.00     0.202 C 
BRANCH   4   5
ATOM      5  C   UNL A   1      34.653  22.039  25.383  1.00  0.00     0.261 C 
BRANCH   5   6
ATOM      6  O   UNL A   1      33.862  21.407  24.367  1.00  0.00    -0.460 OA
BRANCH   6   7
ATOM      7  C   UNL A   1      32.641  20.944  24.737  1.00  0.00     0.340 C 
ATOM      8  O   UNL A   1      32.375  19.806  25.035  1.00  0.00    -0.246 OA
BRANCH   7   9
ATOM      9  C   UNL A   1      31.736  22.121  24.953  1.00  0.00     0.083 A 
ATOM     10  C   UNL A   1      31.572  23.200  24.039  1.00  0.00     0.057 A 
ATOM     11  C   UNL A   1      30.806  24.288  24.464  1.00  0.00     0.047 A 
ATOM     12  C   UNL A   1      30.170  24.289  25.712  1.00  0.00     0.043 A 
ATOM     13  C   UNL A   1      31.110  22.145  26.216  1.00  0.00     0.019 A 
ATOM     14  Cl  UNL A   1      29.193  25.631  26.169  1.00  0.00    -0.084 Cl
ATOM     15  C   UNL A   1      30.320  23.226  26.591  1.00  0.00     0.021 A 
BRANCH  10  16
ATOM     16  N   UNL A   1      32.219  23.133  22.780  1.00  0.00    -0.320 N 
ATOM     17  C   UNL A   1      33.037  23.897  22.004  1.00  0.00     0.279 C 
ATOM     18  O   UNL A   1      33.308  23.430  20.886  1.00  0.00    -0.268 OA
ATOM     19  H   UNL A   1      32.018  22.279  22.333  1.00  0.00     0.170 HD
BRANCH  17  20
ATOM     20  C   UNL A   1      33.599  25.254  22.394  1.00  0.00     0.363 C 
BRANCH  20  21
ATOM     21  N   UNL A   1      33.075  26.419  21.663  1.00  0.00    -0.327 N 
ATOM     22  C   UNL A   1      31.502  28.609  22.946  1.00  0.00     0.192 C 
ATOM     23  C   UNL A   1      30.849  27.282  22.528  1.00  0.00     0.126 C 
ATOM     24  C   UNL A   1      33.002  28.424  23.153  1.00  0.00     0.126 C 
ATOM     25  C   UNL A   1      31.626  26.485  21.474  1.00  0.00     0.268 C 
ATOM     26  C   UNL A   1      33.654  27.718  21.966  1.00  0.00     0.268 C 
ATOM     27  H   UNL A   1      33.453  26.186  20.744  1.00  0.00     0.348 HD
BRANCH  22  28
ATOM     28  N   UNL A   1      31.271  29.705  22.002  1.00  0.00    -0.355 N 
ATOM     29  H   UNL A   1      31.746  29.501  21.122  1.00  0.00     0.344 HD
ATOM     30  H   UNL A   1      31.637  30.573  22.393  1.00  0.00     0.344 HD
ATOM     31  H   UNL A   1      30.270  29.803  21.833  1.00  0.00     0.344 HD
ENDBRANCH  22  28
ENDBRANCH  20  21
ENDBRANCH  17  20
ENDBRANCH  10  16
ENDBRANCH   7   9
ENDBRANCH   6   7
ENDBRANCH   5   6
ENDBRANCH   4   5
ENDBRANCH   3   4
ENDBRANCH   2   3
ENDBRANCH   1   2
BRANCH   1  32
ATOM     32  O   UNL A   1      32.531  26.822  26.211  1.00  0.00    -0.377 OA
BRANCH  32  33
ATOM     33  C   UNL A   1      32.374  27.877  27.157  1.00  0.00     0.188 C 
BRANCH  33  34
ATOM     34  C   UNL A   1      32.755  29.336  26.807  1.00  0.00     0.188 C 
BRANCH  34  35
ATOM     35  O   UNL A   1      34.121  29.678  26.989  1.00  0.00    -0.376 OA
BRANCH  35  36
ATOM     36  C   UNL A   1      34.402  30.924  27.613  1.00  0.00     0.202 C 
BRANCH  36  37
ATOM     37  C   UNL A   1      33.235  31.921  27.626  1.00  0.00     0.261 C 
BRANCH  37  38
ATOM     38  O   UNL A   1      33.601  33.275  27.324  1.00  0.00    -0.460 OA
BRANCH  38  39
ATOM     39  C   UNL A   1      33.454  34.173  28.321  1.00  0.00     0.338 C 
ATOM     40  O   UNL A   1      32.529  34.943  28.501  1.00  0.00    -0.246 OA
BRANCH  39  41
ATOM     41  C   UNL A   1      34.534  33.946  29.296  1.00  0.00     0.060 A 
ATOM     42  C   UNL A   1      35.858  34.155  28.890  1.00  0.00     0.016 A 
ATOM     43  C   UNL A   1      34.240  33.501  30.586  1.00  0.00     0.016 A 
ATOM     44  C   UNL A   1      36.901  33.857  29.759  1.00  0.00     0.010 A 
ATOM     45  C   UNL A   1      35.287  33.178  31.449  1.00  0.00     0.010 A 
ATOM     46  C   UNL A   1      36.619  33.305  31.016  1.00  0.00    -0.014 A 
BRANCH  46  47
ATOM     47  C   UNL A   1      37.701  32.606  31.742  1.00  0.00     0.031 A 
ATOM     48  C   UNL A   1      38.355  31.435  31.060  1.00  0.00     0.074 A 
ATOM     49  C   UNL A   1      38.125  33.021  32.946  1.00  0.00     0.049 A 
ATOM     50  N   UNL A   1      39.324  30.661  31.475  1.00  0.00    -0.248 NA
ATOM     51  C   UNL A   1      37.842  31.092  29.722  1.00  0.00     0.031 C 
ATOM     52  C   UNL A   1      37.595  34.164  33.684  1.00  0.00     0.029 A 
ATOM     53  N   UNL A   1      39.110  32.518  33.757  1.00  0.00    -0.354 N 
ATOM     54  C   UNL A   1      39.534  29.744  30.453  1.00  0.00     0.074 A 
ATOM     55  C   UNL A   1      38.572  30.032  29.413  1.00  0.00     0.031 C 
ATOM     56  C   UNL A   1      38.257  34.272  34.850  1.00  0.00     0.029 A 
ATOM     57  C   UNL A   1      39.240  33.193  34.945  1.00  0.00     0.049 A 
ATOM     58  H   UNL A   1      39.671  31.748  33.511  1.00  0.00     0.167 HD
ATOM     59  C   UNL A   1      40.456  28.756  30.381  1.00  0.00     0.037 A 
ATOM     60  C   UNL A   1      40.054  32.950  35.990  1.00  0.00     0.037 A 
ATOM     61  C   UNL A   1      41.405  28.467  31.419  1.00  0.00     0.049 A 
ATOM     62  C   UNL A   1      41.033  31.805  35.911  1.00  0.00     0.074 A 
ATOM     63  C   UNL A   1      42.380  27.486  31.451  1.00  0.00     0.029 A 
ATOM     64  N   UNL A   1      41.494  29.159  32.618  1.00  0.00    -0.354 N 
ATOM     65  N   UNL A   1      41.244  30.957  34.934  1.00  0.00    -0.248 NA
ATOM     66  C   UNL A   1      41.898  31.595  37.082  1.00  0.00     0.031 C 
ATOM     67  C   UNL A   1      43.027  27.555  32.689  1.00  0.00     0.029 A 
ATOM     68  C   UNL A   1      42.497  28.617  33.404  1.00  0.00     0.049 A 
ATOM     69  H   UNL A   1      40.928  29.924  32.872  1.00  0.00     0.167 HD
ATOM     70  C   UNL A   1      42.288  30.139  35.353  1.00  0.00     0.074 A 
ATOM     71  C   UNL A   1      42.671  30.601  36.671  1.00  0.00     0.031 C 
ATOM     72  C   UNL A   1      42.878  29.104  34.706  1.00  0.00     0.037 A 
BRANCH  59  73
ATOM     73  C   UNL A   1      40.454  27.903  29.148  1.00  0.00     0.064 A 
ATOM     74  C   UNL A   1      41.233  28.225  28.025  1.00  0.00     0.173 A 
ATOM     75  C   UNL A   1      39.668  26.743  29.091  1.00  0.00     0.173 A 
ATOM     76  F   UNL A   1      41.984  29.336  28.021  1.00  0.00    -0.203 F 
ATOM     77  C   UNL A   1      41.204  27.430  26.882  1.00  0.00     0.198 A 
ATOM     78  C   UNL A   1      39.666  25.933  27.957  1.00  0.00     0.198 A 
ATOM     79  F   UNL A   1      38.903  26.392  30.135  1.00  0.00    -0.203 F 
ATOM     80  F   UNL A   1      41.916  27.785  25.804  1.00  0.00    -0.200 F 
ATOM     81  C   UNL A   1      40.428  26.283  26.852  1.00  0.00     0.200 A 
ATOM     82  F   UNL A   1      38.921  24.820  27.932  1.00  0.00    -0.200 F 
ATOM     83  F   UNL A   1      40.404  25.516  25.752  1.00  0.00    -0.200 F 
ENDBRANCH  59  73
BRANCH  60  84
ATOM     84  C   UNL A   1      39.987  33.807  37.203  1.00  0.00     0.064 A 
ATOM     85  C   UNL A   1      39.073  33.540  38.231  1.00  0.00     0.173 A 
ATOM     86  C   UNL A   1      40.816  34.931  37.342  1.00  0.00     0.173 A 
ATOM     87  F   UNL A   1      38.241  32.493  38.131  1.00  0.00    -0.203 F 
ATOM     88  C   UNL A   1      38.973  34.377  39.341  1.00  0.00     0.198 A 
ATOM     89  C   UNL A   1      40.734  35.751  38.466  1.00  0.00     0.198 A 
ATOM     90  F   UNL A   1      41.704  35.234  36.385  1.00  0.00    -0.203 F 
ATOM     91  F   UNL A   1      38.052  34.129  40.282  1.00  0.00    -0.200 F 
ATOM     92  C   UNL A   1      39.806  35.479  39.460  1.00  0.00     0.200 A 
ATOM     93  F   UNL A   1      41.547  36.810  38.580  1.00  0.00    -0.200 F 
ATOM     94  F   UNL A   1      39.707  36.285  40.525  1.00  0.00    -0.200 F 
ENDBRANCH  60  84
BRANCH  72  95
ATOM     95  C   UNL A   1      44.042  28.439  35.383  1.00  0.00     0.064 A 
ATOM     96  C   UNL A   1      45.361  28.870  35.187  1.00  0.00     0.173 A 
ATOM     97  C   UNL A   1      43.824  27.372  36.269  1.00  0.00     0.173 A 
ATOM     98  F   UNL A   1      45.623  29.879  34.342  1.00  0.00    -0.203 F 
ATOM     99  C   UNL A   1      46.424  28.235  35.826  1.00  0.00     0.198 A 
ATOM    100  C   UNL A   1      44.885  26.761  36.931  1.00  0.00     0.198 A 
ATOM    101  F   UNL A   1      42.579  26.928  36.502  1.00  0.00    -0.203 F 
ATOM    102  F   UNL A   1      47.682  28.628  35.580  1.00  0.00    -0.200 F 
ATOM    103  C   UNL A   1      46.185  27.187  36.701  1.00  0.00     0.200 A 
ATOM    104  F   UNL A   1      44.650  25.760  37.790  1.00  0.00    -0.200 F 
ATOM    105  F   UNL A   1      47.209  26.580  37.318  1.00  0.00    -0.200 F 
ENDBRANCH  72  95
ENDBRANCH  46  47
ENDBRANCH  39  41
ENDBRANCH  38  39
ENDBRANCH  37  38
ENDBRANCH  36  37
ENDBRANCH  35  36
ENDBRANCH  34  35
ENDBRANCH  33  34
ENDBRANCH  32  33
ENDBRANCH   1  32
TORSDOF 24
ENDMDL
