MODEL 1
REMARK VINA RESULT:     -10.4      0.000      0.000
REMARK SMILES O=C(OCCOCCOCCOCCOC(=O)c1csc(CNc2ccc(-n3cccn3)nc2)c1)c1ccc(-c2c3nc(c(-c4c(F)c(F)c(F)c(F)c4F)c4ccc([nH]4)c(-c4c(F)c(F)c(F)c(F)c4F)c4nc(c(-c5c(F)c(F)c(F)c(F)c5F)c5ccc2[nH]5)C=C4)C=C3)cc1
REMARK SMILES IDX 10 1 9 2 8 3 7 4 6 5 5 6 4 7 3 8 2 9 1 10 36 11 37 12 98 13
REMARK SMILES IDX 38 14 97 15 39 16 40 17 41 18 91 19 42 20 96 21 90 22 92 23
REMARK SMILES IDX 43 24 95 25 89 26 88 27 44 29 76 30 56 31 75 32 57 33 60 34
REMARK SMILES IDX 74 35 93 36 58 37 59 38 73 40 94 41 61 42 45 43 46 44 54 45
REMARK SMILES IDX 47 46 48 47 52 48 55 49 49 50 50 51 53 52 51 53 77 54 78 55
REMARK SMILES IDX 86 56 79 57 80 58 84 59 87 60 81 61 82 62 85 63 83 64 62 65
REMARK SMILES IDX 63 66 71 67 64 68 65 69 69 70 72 71 66 72 67 73 70 74 68 75
REMARK SMILES IDX 11 76 12 77 13 78 14 79 15 80 16 81 17 82 18 83 19 84 35 85
REMARK SMILES IDX 20 86 21 87 22 88 23 89 24 91 25 92 34 93 26 94 33 95 27 96
REMARK SMILES IDX 28 97 29 98 32 99 30 100 31 101
REMARK H PARENT 92 28 60 39 23 90
REMARK Flexibility Score: inf
ROOT
ATOM      1  C   UNL A   1      41.030  21.580  27.493  1.00  0.00     0.188 C 
ENDROOT
BRANCH   1   2
ATOM      2  O   UNL A   1      41.354  20.217  27.651  1.00  0.00    -0.377 OA
BRANCH   2   3
ATOM      3  C   UNL A   1      41.511  19.481  26.448  1.00  0.00     0.188 C 
BRANCH   3   4
ATOM      4  C   UNL A   1      42.751  18.574  26.404  1.00  0.00     0.188 C 
BRANCH   4   5
ATOM      5  O   UNL A   1      43.754  18.691  25.392  1.00  0.00    -0.376 OA
BRANCH   5   6
ATOM      6  C   UNL A   1      45.118  18.417  25.620  1.00  0.00     0.202 C 
BRANCH   6   7
ATOM      7  C   UNL A   1      46.097  19.163  24.709  1.00  0.00     0.261 C 
BRANCH   7   8
ATOM      8  O   UNL A   1      45.986  20.593  24.686  1.00  0.00    -0.460 OA
BRANCH   8   9
ATOM      9  C   UNL A   1      44.970  21.389  24.285  1.00  0.00     0.338 C 
ATOM     10  O   UNL A   1      44.554  21.269  23.133  1.00  0.00    -0.246 OA
BRANCH   9  11
ATOM     11  C   UNL A   1      44.354  22.453  25.120  1.00  0.00     0.060 A 
ATOM     12  C   UNL A   1      43.368  23.339  24.687  1.00  0.00     0.016 A 
ATOM     13  C   UNL A   1      44.883  22.607  26.418  1.00  0.00     0.016 A 
ATOM     14  C   UNL A   1      42.994  24.413  25.473  1.00  0.00     0.010 A 
ATOM     15  C   UNL A   1      44.518  23.686  27.211  1.00  0.00     0.010 A 
ATOM     16  C   UNL A   1      43.634  24.626  26.690  1.00  0.00    -0.014 A 
BRANCH  16  17
ATOM     17  C   UNL A   1      43.445  25.939  27.284  1.00  0.00     0.031 A 
ATOM     18  C   UNL A   1      44.475  26.972  27.001  1.00  0.00     0.074 A 
ATOM     19  C   UNL A   1      42.390  26.169  28.089  1.00  0.00     0.049 A 
ATOM     20  N   UNL A   1      45.179  27.659  27.845  1.00  0.00    -0.248 NA
ATOM     21  C   UNL A   1      44.799  27.234  25.593  1.00  0.00     0.031 C 
ATOM     22  C   UNL A   1      41.204  25.329  28.284  1.00  0.00     0.029 A 
ATOM     23  N   UNL A   1      42.119  27.271  28.840  1.00  0.00    -0.354 N 
ATOM     24  C   UNL A   1      45.923  28.556  27.082  1.00  0.00     0.074 A 
ATOM     25  C   UNL A   1      45.722  28.189  25.704  1.00  0.00     0.031 C 
ATOM     26  C   UNL A   1      40.248  26.053  28.902  1.00  0.00     0.029 A 
ATOM     27  C   UNL A   1      40.803  27.346  29.260  1.00  0.00     0.049 A 
ATOM     28  H   UNL A   1      42.796  27.951  29.063  1.00  0.00     0.167 HD
ATOM     29  C   UNL A   1      46.501  29.660  27.631  1.00  0.00     0.037 A 
ATOM     30  C   UNL A   1      40.184  28.433  29.775  1.00  0.00     0.037 A 
ATOM     31  C   UNL A   1      46.753  29.487  29.037  1.00  0.00     0.049 A 
ATOM     32  C   UNL A   1      41.227  29.354  30.285  1.00  0.00     0.074 A 
ATOM     33  C   UNL A   1      47.514  28.608  29.785  1.00  0.00     0.029 A 
ATOM     34  N   UNL A   1      45.956  30.136  29.945  1.00  0.00    -0.354 N 
ATOM     35  N   UNL A   1      41.967  29.120  31.334  1.00  0.00    -0.248 NA
ATOM     36  C   UNL A   1      41.735  30.376  29.380  1.00  0.00     0.031 C 
ATOM     37  C   UNL A   1      46.792  28.429  31.001  1.00  0.00     0.029 A 
ATOM     38  C   UNL A   1      45.650  29.224  30.922  1.00  0.00     0.049 A 
ATOM     39  H   UNL A   1      45.661  31.073  29.904  1.00  0.00     0.167 HD
ATOM     40  C   UNL A   1      43.209  29.649  31.016  1.00  0.00     0.074 A 
ATOM     41  C   UNL A   1      42.977  30.500  29.855  1.00  0.00     0.031 C 
ATOM     42  C   UNL A   1      44.354  29.131  31.549  1.00  0.00     0.037 A 
BRANCH  29  43
ATOM     43  C   UNL A   1      46.521  31.015  26.960  1.00  0.00     0.064 A 
ATOM     44  C   UNL A   1      47.727  31.746  26.912  1.00  0.00     0.173 A 
ATOM     45  C   UNL A   1      45.356  31.751  26.650  1.00  0.00     0.173 A 
ATOM     46  F   UNL A   1      48.898  31.154  27.195  1.00  0.00    -0.203 F 
ATOM     47  C   UNL A   1      47.749  33.123  26.675  1.00  0.00     0.198 A 
ATOM     48  C   UNL A   1      45.389  33.115  26.362  1.00  0.00     0.198 A 
ATOM     49  F   UNL A   1      44.133  31.214  26.718  1.00  0.00    -0.203 F 
ATOM     50  F   UNL A   1      48.904  33.796  26.776  1.00  0.00    -0.200 F 
ATOM     51  C   UNL A   1      46.578  33.808  26.412  1.00  0.00     0.200 A 
ATOM     52  F   UNL A   1      44.241  33.764  26.122  1.00  0.00    -0.200 F 
ATOM     53  F   UNL A   1      46.589  35.138  26.256  1.00  0.00    -0.200 F 
ENDBRANCH  29  43
BRANCH  30  54
ATOM     54  C   UNL A   1      38.781  28.834  29.544  1.00  0.00     0.064 A 
ATOM     55  C   UNL A   1      37.918  29.109  30.614  1.00  0.00     0.173 A 
ATOM     56  C   UNL A   1      38.322  29.190  28.258  1.00  0.00     0.173 A 
ATOM     57  F   UNL A   1      38.303  28.853  31.872  1.00  0.00    -0.203 F 
ATOM     58  C   UNL A   1      36.671  29.709  30.409  1.00  0.00     0.198 A 
ATOM     59  C   UNL A   1      37.074  29.772  28.054  1.00  0.00     0.198 A 
ATOM     60  F   UNL A   1      39.113  29.064  27.182  1.00  0.00    -0.203 F 
ATOM     61  F   UNL A   1      35.895  30.008  31.459  1.00  0.00    -0.200 F 
ATOM     62  C   UNL A   1      36.252  30.042  29.131  1.00  0.00     0.200 A 
ATOM     63  F   UNL A   1      36.698  30.122  26.815  1.00  0.00    -0.200 F 
ATOM     64  F   UNL A   1      35.078  30.659  28.940  1.00  0.00    -0.200 F 
ENDBRANCH  30  54
BRANCH  42  65
ATOM     65  C   UNL A   1      44.219  28.166  32.688  1.00  0.00     0.064 A 
ATOM     66  C   UNL A   1      44.027  26.785  32.510  1.00  0.00     0.173 A 
ATOM     67  C   UNL A   1      44.437  28.626  33.993  1.00  0.00     0.173 A 
ATOM     68  F   UNL A   1      43.926  26.257  31.284  1.00  0.00    -0.203 F 
ATOM     69  C   UNL A   1      43.999  25.915  33.598  1.00  0.00     0.198 A 
ATOM     70  C   UNL A   1      44.445  27.749  35.074  1.00  0.00     0.198 A 
ATOM     71  F   UNL A   1      44.695  29.925  34.215  1.00  0.00    -0.203 F 
ATOM     72  F   UNL A   1      43.802  24.602  33.403  1.00  0.00    -0.200 F 
ATOM     73  C   UNL A   1      44.213  26.397  34.878  1.00  0.00     0.200 A 
ATOM     74  F   UNL A   1      44.707  28.210  36.306  1.00  0.00    -0.200 F 
ATOM     75  F   UNL A   1      44.228  25.554  35.920  1.00  0.00    -0.200 F 
ENDBRANCH  42  65
ENDBRANCH  16  17
ENDBRANCH   9  11
ENDBRANCH   8   9
ENDBRANCH   7   8
ENDBRANCH   6   7
ENDBRANCH   5   6
ENDBRANCH   4   5
ENDBRANCH   3   4
ENDBRANCH   2   3
ENDBRANCH   1   2
BRANCH   1  76
ATOM     76  C   UNL A   1      39.844  21.848  26.543  1.00  0.00     0.188 C 
BRANCH  76  77
ATOM     77  O   UNL A   1      39.402  23.160  26.213  1.00  0.00    -0.376 OA
BRANCH  77  78
ATOM     78  C   UNL A   1      38.027  23.500  26.202  1.00  0.00     0.202 C 
BRANCH  78  79
ATOM     79  C   UNL A   1      37.064  22.597  25.417  1.00  0.00     0.261 C 
BRANCH  79  80
ATOM     80  O   UNL A   1      35.900  22.166  26.132  1.00  0.00    -0.460 OA
BRANCH  80  81
ATOM     81  C   UNL A   1      34.943  21.536  25.392  1.00  0.00     0.339 C 
ATOM     82  O   UNL A   1      35.106  20.493  24.768  1.00  0.00    -0.246 OA
BRANCH  81  83
ATOM     83  C   UNL A   1      33.627  22.137  25.586  1.00  0.00     0.071 A 
ATOM     84  C   UNL A   1      32.456  21.429  25.773  1.00  0.00     0.080 A 
ATOM     85  C   UNL A   1      33.360  23.547  25.513  1.00  0.00     0.033 A 
ATOM     86  S   UNL A   1      31.079  22.442  25.823  1.00  0.00    -0.146 S 
ATOM     87  C   UNL A   1      32.013  23.850  25.528  1.00  0.00     0.025 A 
BRANCH  87  88
ATOM     88  C   UNL A   1      31.384  25.210  25.332  1.00  0.00     0.159 C 
BRANCH  88  89
ATOM     89  N   UNL A   1      32.117  26.126  24.468  1.00  0.00    -0.379 N 
ATOM     90  H   UNL A   1      33.086  26.023  24.331  1.00  0.00     0.160 HD
BRANCH  89  91
ATOM     91  C   UNL A   1      31.418  27.150  23.842  1.00  0.00     0.053 A 
ATOM     92  C   UNL A   1      32.007  27.966  22.878  1.00  0.00     0.031 A 
ATOM     93  C   UNL A   1      30.118  27.480  24.219  1.00  0.00     0.139 A 
ATOM     94  C   UNL A   1      31.294  29.028  22.318  1.00  0.00     0.051 A 
ATOM     95  N   UNL A   1      29.413  28.531  23.738  1.00  0.00    -0.235 NA
ATOM     96  C   UNL A   1      30.005  29.287  22.780  1.00  0.00     0.153 A 
BRANCH  96  97
ATOM     97  N   UNL A   1      29.288  30.405  22.250  1.00  0.00    -0.223 N 
ATOM     98  C   UNL A   1      28.857  31.526  22.934  1.00  0.00     0.117 A 
ATOM     99  N   UNL A   1      28.916  30.460  20.942  1.00  0.00    -0.175 NA
ATOM    100  C   UNL A   1      28.139  32.292  22.047  1.00  0.00     0.042 A 
ATOM    101  C   UNL A   1      28.181  31.568  20.847  1.00  0.00     0.135 A 
ENDBRANCH  96  97
ENDBRANCH  89  91
ENDBRANCH  88  89
ENDBRANCH  87  88
ENDBRANCH  81  83
ENDBRANCH  80  81
ENDBRANCH  79  80
ENDBRANCH  78  79
ENDBRANCH  77  78
ENDBRANCH  76  77
ENDBRANCH   1  76
TORSDOF 24
ENDMDL
MODEL 2
REMARK VINA RESULT:     -10.4      3.105      4.881
REMARK SMILES O=C(OCCOCCOCCOCCOC(=O)c1csc(CNc2ccc(-n3cccn3)nc2)c1)c1ccc(-c2c3nc(c(-c4c(F)c(F)c(F)c(F)c4F)c4ccc([nH]4)c(-c4c(F)c(F)c(F)c(F)c4F)c4nc(c(-c5c(F)c(F)c(F)c(F)c5F)c5ccc2[nH]5)C=C4)C=C3)cc1
REMARK SMILES IDX 10 1 9 2 8 3 7 4 6 5 5 6 4 7 3 8 2 9 1 10 36 11 37 12 98 13
REMARK SMILES IDX 38 14 97 15 39 16 40 17 41 18 91 19 42 20 96 21 90 22 92 23
REMARK SMILES IDX 43 24 95 25 89 26 88 27 44 29 76 30 56 31 75 32 57 33 60 34
REMARK SMILES IDX 74 35 93 36 58 37 59 38 73 40 94 41 61 42 45 43 46 44 54 45
REMARK SMILES IDX 47 46 48 47 52 48 55 49 49 50 50 51 53 52 51 53 77 54 78 55
REMARK SMILES IDX 86 56 79 57 80 58 84 59 87 60 81 61 82 62 85 63 83 64 62 65
REMARK SMILES IDX 63 66 71 67 64 68 65 69 69 70 72 71 66 72 67 73 70 74 68 75
REMARK SMILES IDX 11 76 12 77 13 78 14 79 15 80 16 81 17 82 18 83 19 84 35 85
REMARK SMILES IDX 20 86 21 87 22 88 23 89 24 91 25 92 34 93 26 94 33 95 27 96
REMARK SMILES IDX 28 97 29 98 32 99 30 100 31 101
REMARK H PARENT 92 28 60 39 23 90
REMARK Flexibility Score: inf
ROOT
ATOM      1  C   UNL A   1      35.637  21.725  25.566  1.00  0.00     0.188 C 
ENDROOT
BRANCH   1   2
ATOM      2  O   UNL A   1      36.862  22.020  24.931  1.00  0.00    -0.377 OA
BRANCH   2   3
ATOM      3  C   UNL A   1      37.942  21.157  25.254  1.00  0.00     0.188 C 
BRANCH   3   4
ATOM      4  C   UNL A   1      39.064  21.809  26.077  1.00  0.00     0.188 C 
BRANCH   4   5
ATOM      5  O   UNL A   1      40.384  21.264  26.145  1.00  0.00    -0.376 OA
BRANCH   5   6
ATOM      6  C   UNL A   1      40.662  19.890  25.991  1.00  0.00     0.202 C 
BRANCH   6   7
ATOM      7  C   UNL A   1      42.126  19.492  26.193  1.00  0.00     0.261 C 
BRANCH   7   8
ATOM      8  O   UNL A   1      42.922  19.358  25.008  1.00  0.00    -0.460 OA
BRANCH   8   9
ATOM      9  C   UNL A   1      43.963  20.095  24.560  1.00  0.00     0.338 C 
ATOM     10  O   UNL A   1      44.681  19.618  23.683  1.00  0.00    -0.246 OA
BRANCH   9  11
ATOM     11  C   UNL A   1      44.346  21.427  25.098  1.00  0.00     0.060 A 
ATOM     12  C   UNL A   1      45.286  21.642  26.106  1.00  0.00     0.016 A 
ATOM     13  C   UNL A   1      43.630  22.530  24.590  1.00  0.00     0.016 A 
ATOM     14  C   UNL A   1      45.435  22.894  26.671  1.00  0.00     0.010 A 
ATOM     15  C   UNL A   1      43.769  23.789  25.156  1.00  0.00     0.010 A 
ATOM     16  C   UNL A   1      44.615  23.937  26.251  1.00  0.00    -0.014 A 
BRANCH  16  17
ATOM     17  C   UNL A   1      44.584  25.106  27.115  1.00  0.00     0.031 A 
ATOM     18  C   UNL A   1      45.817  25.933  27.190  1.00  0.00     0.074 A 
ATOM     19  C   UNL A   1      43.483  25.380  27.841  1.00  0.00     0.049 A 
ATOM     20  N   UNL A   1      46.503  26.262  28.239  1.00  0.00    -0.248 NA
ATOM     21  C   UNL A   1      46.386  26.410  25.923  1.00  0.00     0.031 C 
ATOM     22  C   UNL A   1      42.147  24.788  27.710  1.00  0.00     0.029 A 
ATOM     23  N   UNL A   1      43.311  26.330  28.799  1.00  0.00    -0.354 N 
ATOM     24  C   UNL A   1      47.503  27.121  27.788  1.00  0.00     0.074 A 
ATOM     25  C   UNL A   1      47.443  27.103  26.350  1.00  0.00     0.031 C 
ATOM     26  C   UNL A   1      41.261  25.552  28.381  1.00  0.00     0.029 A 
ATOM     27  C   UNL A   1      41.984  26.593  29.088  1.00  0.00     0.049 A 
ATOM     28  H   UNL A   1      44.061  26.789  29.242  1.00  0.00     0.167 HD
ATOM     29  C   UNL A   1      48.186  27.937  28.639  1.00  0.00     0.037 A 
ATOM     30  C   UNL A   1      41.506  27.653  29.779  1.00  0.00     0.037 A 
ATOM     31  C   UNL A   1      48.194  27.423  29.982  1.00  0.00     0.049 A 
ATOM     32  C   UNL A   1      42.614  28.204  30.594  1.00  0.00     0.074 A 
ATOM     33  C   UNL A   1      48.661  26.265  30.575  1.00  0.00     0.029 A 
ATOM     34  N   UNL A   1      47.404  28.019  30.932  1.00  0.00    -0.354 N 
ATOM     35  N   UNL A   1      43.136  27.603  31.629  1.00  0.00    -0.248 NA
ATOM     36  C   UNL A   1      43.428  29.262  30.013  1.00  0.00     0.031 C 
ATOM     37  C   UNL A   1      47.748  25.991  31.635  1.00  0.00     0.029 A 
ATOM     38  C   UNL A   1      46.795  27.009  31.630  1.00  0.00     0.049 A 
ATOM     39  H   UNL A   1      47.295  28.985  31.083  1.00  0.00     0.167 HD
ATOM     40  C   UNL A   1      44.487  27.911  31.573  1.00  0.00     0.074 A 
ATOM     41  C   UNL A   1      44.588  29.017  30.627  1.00  0.00     0.031 C 
ATOM     42  C   UNL A   1      45.427  27.063  32.082  1.00  0.00     0.037 A 
BRANCH  29  43
ATOM     43  C   UNL A   1      48.553  29.367  28.311  1.00  0.00     0.064 A 
ATOM     44  C   UNL A   1      47.551  30.252  27.859  1.00  0.00     0.173 A 
ATOM     45  C   UNL A   1      49.880  29.809  28.119  1.00  0.00     0.173 A 
ATOM     46  F   UNL A   1      46.253  29.936  27.981  1.00  0.00    -0.203 F 
ATOM     47  C   UNL A   1      47.859  31.434  27.179  1.00  0.00     0.198 A 
ATOM     48  C   UNL A   1      50.183  31.014  27.486  1.00  0.00     0.198 A 
ATOM     49  F   UNL A   1      50.937  29.051  28.434  1.00  0.00    -0.203 F 
ATOM     50  F   UNL A   1      46.874  32.172  26.650  1.00  0.00    -0.200 F 
ATOM     51  C   UNL A   1      49.175  31.807  26.983  1.00  0.00     0.200 A 
ATOM     52  F   UNL A   1      51.466  31.353  27.296  1.00  0.00    -0.200 F 
ATOM     53  F   UNL A   1      49.473  32.900  26.270  1.00  0.00    -0.200 F 
ENDBRANCH  29  43
BRANCH  30  54
ATOM     54  C   UNL A   1      40.250  28.382  29.507  1.00  0.00     0.064 A 
ATOM     55  C   UNL A   1      39.977  28.913  28.239  1.00  0.00     0.173 A 
ATOM     56  C   UNL A   1      39.180  28.365  30.427  1.00  0.00     0.173 A 
ATOM     57  F   UNL A   1      40.926  28.913  27.291  1.00  0.00    -0.203 F 
ATOM     58  C   UNL A   1      38.707  29.395  27.909  1.00  0.00     0.198 A 
ATOM     59  C   UNL A   1      37.919  28.860  30.102  1.00  0.00     0.198 A 
ATOM     60  F   UNL A   1      39.309  27.784  31.628  1.00  0.00    -0.203 F 
ATOM     61  F   UNL A   1      38.466  29.845  26.670  1.00  0.00    -0.200 F 
ATOM     62  C   UNL A   1      37.679  29.366  28.839  1.00  0.00     0.200 A 
ATOM     63  F   UNL A   1      36.926  28.791  31.000  1.00  0.00    -0.200 F 
ATOM     64  F   UNL A   1      36.450  29.784  28.506  1.00  0.00    -0.200 F 
ENDBRANCH  30  54
BRANCH  42  65
ATOM     65  C   UNL A   1      44.952  25.930  32.942  1.00  0.00     0.064 A 
ATOM     66  C   UNL A   1      44.455  24.722  32.422  1.00  0.00     0.173 A 
ATOM     67  C   UNL A   1      45.140  26.010  34.328  1.00  0.00     0.173 A 
ATOM     68  F   UNL A   1      44.356  24.532  31.100  1.00  0.00    -0.203 F 
ATOM     69  C   UNL A   1      44.111  23.665  33.260  1.00  0.00     0.198 A 
ATOM     70  C   UNL A   1      44.828  24.937  35.159  1.00  0.00     0.198 A 
ATOM     71  F   UNL A   1      45.675  27.113  34.873  1.00  0.00    -0.203 F 
ATOM     72  F   UNL A   1      43.627  22.526  32.740  1.00  0.00    -0.200 F 
ATOM     73  C   UNL A   1      44.303  23.771  34.627  1.00  0.00     0.200 A 
ATOM     74  F   UNL A   1      45.066  25.022  36.476  1.00  0.00    -0.200 F 
ATOM     75  F   UNL A   1      44.011  22.737  35.429  1.00  0.00    -0.200 F 
ENDBRANCH  42  65
ENDBRANCH  16  17
ENDBRANCH   9  11
ENDBRANCH   8   9
ENDBRANCH   7   8
ENDBRANCH   6   7
ENDBRANCH   5   6
ENDBRANCH   4   5
ENDBRANCH   3   4
ENDBRANCH   2   3
ENDBRANCH   1   2
BRANCH   1  76
ATOM     76  C   UNL A   1      34.562  21.131  24.632  1.00  0.00     0.188 C 
BRANCH  76  77
ATOM     77  O   UNL A   1      33.414  21.862  24.217  1.00  0.00    -0.376 OA
BRANCH  77  78
ATOM     78  C   UNL A   1      32.746  22.755  25.090  1.00  0.00     0.202 C 
BRANCH  78  79
ATOM     79  C   UNL A   1      32.220  24.076  24.511  1.00  0.00     0.261 C 
BRANCH  79  80
ATOM     80  O   UNL A   1      33.222  24.992  24.050  1.00  0.00    -0.460 OA
BRANCH  80  81
ATOM     81  C   UNL A   1      33.945  25.624  25.018  1.00  0.00     0.339 C 
ATOM     82  O   UNL A   1      34.957  25.179  25.547  1.00  0.00    -0.246 OA
BRANCH  81  83
ATOM     83  C   UNL A   1      33.493  26.998  25.219  1.00  0.00     0.071 A 
ATOM     84  C   UNL A   1      33.046  27.836  24.216  1.00  0.00     0.080 A 
ATOM     85  C   UNL A   1      33.542  27.693  26.476  1.00  0.00     0.033 A 
ATOM     86  S   UNL A   1      32.733  29.420  24.778  1.00  0.00    -0.146 S 
ATOM     87  C   UNL A   1      33.252  29.039  26.367  1.00  0.00     0.025 A 
BRANCH  87  88
ATOM     88  C   UNL A   1      33.344  30.080  27.458  1.00  0.00     0.159 C 
BRANCH  88  89
ATOM     89  N   UNL A   1      34.073  31.294  27.113  1.00  0.00    -0.379 N 
ATOM     90  H   UNL A   1      34.567  31.360  26.265  1.00  0.00     0.160 HD
BRANCH  89  91
ATOM     91  C   UNL A   1      34.055  32.355  28.008  1.00  0.00     0.053 A 
ATOM     92  C   UNL A   1      34.827  32.358  29.169  1.00  0.00     0.031 A 
ATOM     93  C   UNL A   1      33.185  33.432  27.843  1.00  0.00     0.139 A 
ATOM     94  C   UNL A   1      34.733  33.413  30.078  1.00  0.00     0.051 A 
ATOM     95  N   UNL A   1      33.029  34.446  28.726  1.00  0.00    -0.235 NA
ATOM     96  C   UNL A   1      33.816  34.433  29.830  1.00  0.00     0.153 A 
BRANCH  96  97
ATOM     97  N   UNL A   1      33.676  35.489  30.784  1.00  0.00    -0.223 N 
ATOM     98  C   UNL A   1      34.111  35.498  32.096  1.00  0.00     0.117 A 
ATOM     99  N   UNL A   1      33.037  36.651  30.475  1.00  0.00    -0.175 NA
ATOM    100  C   UNL A   1      33.685  36.678  32.657  1.00  0.00     0.042 A 
ATOM    101  C   UNL A   1      33.000  37.330  31.621  1.00  0.00     0.135 A 
ENDBRANCH  96  97
ENDBRANCH  89  91
ENDBRANCH  88  89
ENDBRANCH  87  88
ENDBRANCH  81  83
ENDBRANCH  80  81
ENDBRANCH  79  80
ENDBRANCH  78  79
ENDBRANCH  77  78
ENDBRANCH  76  77
ENDBRANCH   1  76
TORSDOF 24
ENDMDL
MODEL 3
REMARK VINA RESULT:     -10.3      1.404      2.193
REMARK SMILES O=C(OCCOCCOCCOCCOC(=O)c1csc(CNc2ccc(-n3cccn3)nc2)c1)c1ccc(-c2c3nc(c(-c4c(F)c(F)c(F)c(F)c4F)c4ccc([nH]4)c(-c4c(F)c(F)c(F)c(F)c4F)c4nc(c(-c5c(F)c(F)c(F)c(F)c5F)c5ccc2[nH]5)C=C4)C=C3)cc1
REMARK SMILES IDX 10 1 9 2 8 3 7 4 6 5 5 6 4 7 3 8 2 9 1 10 36 11 37 12 98 13
REMARK SMILES IDX 38 14 97 15 39 16 40 17 41 18 91 19 42 20 96 21 90 22 92 23
REMARK SMILES IDX 43 24 95 25 89 26 88 27 44 29 76 30 56 31 75 32 57 33 60 34
REMARK SMILES IDX 74 35 93 36 58 37 59 38 73 40 94 41 61 42 45 43 46 44 54 45
REMARK SMILES IDX 47 46 48 47 52 48 55 49 49 50 50 51 53 52 51 53 77 54 78 55
REMARK SMILES IDX 86 56 79 57 80 58 84 59 87 60 81 61 82 62 85 63 83 64 62 65
REMARK SMILES IDX 63 66 71 67 64 68 65 69 69 70 72 71 66 72 67 73 70 74 68 75
REMARK SMILES IDX 11 76 12 77 13 78 14 79 15 80 16 81 17 82 18 83 19 84 35 85
REMARK SMILES IDX 20 86 21 87 22 88 23 89 24 91 25 92 34 93 26 94 33 95 27 96
REMARK SMILES IDX 28 97 29 98 32 99 30 100 31 101
REMARK H PARENT 92 28 60 39 23 90
REMARK Flexibility Score: inf
ROOT
ATOM      1  C   UNL A   1      39.211  22.653  26.500  1.00  0.00     0.188 C 
ENDROOT
BRANCH   1   2
ATOM      2  O   UNL A   1      40.177  21.774  27.034  1.00  0.00    -0.377 OA
BRANCH   2   3
ATOM      3  C   UNL A   1      40.290  20.519  26.382  1.00  0.00     0.188 C 
BRANCH   3   4
ATOM      4  C   UNL A   1      41.663  19.841  26.521  1.00  0.00     0.188 C 
BRANCH   4   5
ATOM      5  O   UNL A   1      42.356  19.274  25.407  1.00  0.00    -0.376 OA
BRANCH   5   6
ATOM      6  C   UNL A   1      43.580  18.583  25.528  1.00  0.00     0.202 C 
BRANCH   6   7
ATOM      7  C   UNL A   1      44.622  18.905  24.454  1.00  0.00     0.261 C 
BRANCH   7   8
ATOM      8  O   UNL A   1      44.599  20.235  23.918  1.00  0.00    -0.460 OA
BRANCH   8   9
ATOM      9  C   UNL A   1      45.209  21.365  24.342  1.00  0.00     0.338 C 
ATOM     10  O   UNL A   1      46.418  21.483  24.147  1.00  0.00    -0.246 OA
BRANCH   9  11
ATOM     11  C   UNL A   1      44.532  22.457  25.090  1.00  0.00     0.060 A 
ATOM     12  C   UNL A   1      43.743  23.451  24.511  1.00  0.00     0.016 A 
ATOM     13  C   UNL A   1      44.792  22.516  26.474  1.00  0.00     0.016 A 
ATOM     14  C   UNL A   1      43.313  24.531  25.259  1.00  0.00     0.010 A 
ATOM     15  C   UNL A   1      44.370  23.599  27.231  1.00  0.00     0.010 A 
ATOM     16  C   UNL A   1      43.703  24.639  26.591  1.00  0.00    -0.014 A 
BRANCH  16  17
ATOM     17  C   UNL A   1      43.515  25.945  27.201  1.00  0.00     0.031 A 
ATOM     18  C   UNL A   1      44.531  26.989  26.909  1.00  0.00     0.074 A 
ATOM     19  C   UNL A   1      42.475  26.159  28.030  1.00  0.00     0.049 A 
ATOM     20  N   UNL A   1      45.246  27.673  27.746  1.00  0.00    -0.248 NA
ATOM     21  C   UNL A   1      44.825  27.267  25.497  1.00  0.00     0.031 C 
ATOM     22  C   UNL A   1      41.299  25.307  28.239  1.00  0.00     0.029 A 
ATOM     23  N   UNL A   1      42.210  27.250  28.797  1.00  0.00    -0.354 N 
ATOM     24  C   UNL A   1      45.969  28.584  26.977  1.00  0.00     0.074 A 
ATOM     25  C   UNL A   1      45.743  28.228  25.600  1.00  0.00     0.031 C 
ATOM     26  C   UNL A   1      40.350  26.017  28.883  1.00  0.00     0.029 A 
ATOM     27  C   UNL A   1      40.901  27.311  29.243  1.00  0.00     0.049 A 
ATOM     28  H   UNL A   1      42.885  27.933  29.013  1.00  0.00     0.167 HD
ATOM     29  C   UNL A   1      46.548  29.687  27.526  1.00  0.00     0.037 A 
ATOM     30  C   UNL A   1      40.285  28.387  29.781  1.00  0.00     0.037 A 
ATOM     31  C   UNL A   1      46.830  29.502  28.925  1.00  0.00     0.049 A 
ATOM     32  C   UNL A   1      41.330  29.312  30.279  1.00  0.00     0.074 A 
ATOM     33  C   UNL A   1      47.611  28.622  29.649  1.00  0.00     0.029 A 
ATOM     34  N   UNL A   1      46.045  30.135  29.855  1.00  0.00    -0.354 N 
ATOM     35  N   UNL A   1      42.092  29.073  31.311  1.00  0.00    -0.248 NA
ATOM     36  C   UNL A   1      41.812  30.347  29.375  1.00  0.00     0.031 C 
ATOM     37  C   UNL A   1      46.915  28.425  30.877  1.00  0.00     0.029 A 
ATOM     38  C   UNL A   1      45.765  29.212  30.829  1.00  0.00     0.049 A 
ATOM     39  H   UNL A   1      45.742  31.071  29.829  1.00  0.00     0.167 HD
ATOM     40  C   UNL A   1      43.323  29.615  30.975  1.00  0.00     0.074 A 
ATOM     41  C   UNL A   1      43.062  30.477  29.827  1.00  0.00     0.031 C 
ATOM     42  C   UNL A   1      44.483  29.102  31.479  1.00  0.00     0.037 A 
BRANCH  29  43
ATOM     43  C   UNL A   1      46.544  31.049  26.868  1.00  0.00     0.064 A 
ATOM     44  C   UNL A   1      47.732  31.810  26.847  1.00  0.00     0.173 A 
ATOM     45  C   UNL A   1      45.366  31.758  26.546  1.00  0.00     0.173 A 
ATOM     46  F   UNL A   1      48.913  31.245  27.143  1.00  0.00    -0.203 F 
ATOM     47  C   UNL A   1      47.723  33.190  26.623  1.00  0.00     0.198 A 
ATOM     48  C   UNL A   1      45.369  33.125  26.273  1.00  0.00     0.198 A 
ATOM     49  F   UNL A   1      44.156  31.189  26.590  1.00  0.00    -0.203 F 
ATOM     50  F   UNL A   1      48.858  33.890  26.749  1.00  0.00    -0.200 F 
ATOM     51  C   UNL A   1      46.539  33.848  26.348  1.00  0.00     0.200 A 
ATOM     52  F   UNL A   1      44.209  33.747  26.019  1.00  0.00    -0.200 F 
ATOM     53  F   UNL A   1      46.518  35.178  26.205  1.00  0.00    -0.200 F 
ENDBRANCH  29  43
BRANCH  30  54
ATOM     54  C   UNL A   1      38.874  28.780  29.581  1.00  0.00     0.064 A 
ATOM     55  C   UNL A   1      38.022  29.009  30.671  1.00  0.00     0.173 A 
ATOM     56  C   UNL A   1      38.395  29.172  28.314  1.00  0.00     0.173 A 
ATOM     57  F   UNL A   1      38.427  28.715  31.915  1.00  0.00    -0.203 F 
ATOM     58  C   UNL A   1      36.766  29.600  30.502  1.00  0.00     0.198 A 
ATOM     59  C   UNL A   1      37.137  29.746  28.145  1.00  0.00     0.198 A 
ATOM     60  F   UNL A   1      39.173  29.091  27.225  1.00  0.00    -0.203 F 
ATOM     61  F   UNL A   1      36.000  29.855  31.572  1.00  0.00    -0.200 F 
ATOM     62  C   UNL A   1      36.326  29.971  29.241  1.00  0.00     0.200 A 
ATOM     63  F   UNL A   1      36.741  30.133  26.924  1.00  0.00    -0.200 F 
ATOM     64  F   UNL A   1      35.143  30.580  29.086  1.00  0.00    -0.200 F 
ENDBRANCH  30  54
BRANCH  42  65
ATOM     65  C   UNL A   1      44.378  28.124  32.612  1.00  0.00     0.064 A 
ATOM     66  C   UNL A   1      44.265  28.513  33.958  1.00  0.00     0.173 A 
ATOM     67  C   UNL A   1      44.241  26.762  32.317  1.00  0.00     0.173 A 
ATOM     68  F   UNL A   1      44.272  29.806  34.303  1.00  0.00    -0.203 F 
ATOM     69  C   UNL A   1      44.079  27.570  34.966  1.00  0.00     0.198 A 
ATOM     70  C   UNL A   1      44.019  25.826  33.324  1.00  0.00     0.198 A 
ATOM     71  F   UNL A   1      44.271  26.342  31.042  1.00  0.00    -0.203 F 
ATOM     72  F   UNL A   1      43.986  27.965  36.246  1.00  0.00    -0.200 F 
ATOM     73  C   UNL A   1      43.951  26.229  34.648  1.00  0.00     0.200 A 
ATOM     74  F   UNL A   1      43.840  24.536  33.008  1.00  0.00    -0.200 F 
ATOM     75  F   UNL A   1      43.729  25.327  35.615  1.00  0.00    -0.200 F 
ENDBRANCH  42  65
ENDBRANCH  16  17
ENDBRANCH   9  11
ENDBRANCH   8   9
ENDBRANCH   7   8
ENDBRANCH   6   7
ENDBRANCH   5   6
ENDBRANCH   4   5
ENDBRANCH   3   4
ENDBRANCH   2   3
ENDBRANCH   1   2
BRANCH   1  76
ATOM     76  C   UNL A   1      38.286  22.016  25.442  1.00  0.00     0.188 C 
BRANCH  76  77
ATOM     77  O   UNL A   1      36.871  22.156  25.473  1.00  0.00    -0.376 OA
BRANCH  77  78
ATOM     78  C   UNL A   1      36.012  21.029  25.439  1.00  0.00     0.202 C 
BRANCH  78  79
ATOM     79  C   UNL A   1      34.618  21.162  26.070  1.00  0.00     0.261 C 
BRANCH  79  80
ATOM     80  O   UNL A   1      34.447  22.269  26.964  1.00  0.00    -0.460 OA
BRANCH  80  81
ATOM     81  C   UNL A   1      33.158  22.610  27.253  1.00  0.00     0.339 C 
ATOM     82  O   UNL A   1      32.612  22.447  28.339  1.00  0.00    -0.246 OA
BRANCH  81  83
ATOM     83  C   UNL A   1      32.549  23.384  26.176  1.00  0.00     0.071 A 
ATOM     84  C   UNL A   1      31.250  23.854  26.179  1.00  0.00     0.080 A 
ATOM     85  C   UNL A   1      33.192  23.678  24.925  1.00  0.00     0.033 A 
ATOM     86  S   UNL A   1      30.820  24.594  24.699  1.00  0.00    -0.146 S 
ATOM     87  C   UNL A   1      32.343  24.245  23.994  1.00  0.00     0.025 A 
BRANCH  87  88
ATOM     88  C   UNL A   1      32.653  24.551  22.548  1.00  0.00     0.159 C 
BRANCH  88  89
ATOM     89  N   UNL A   1      33.461  25.742  22.313  1.00  0.00    -0.379 N 
ATOM     90  H   UNL A   1      34.128  25.764  21.590  1.00  0.00     0.160 HD
BRANCH  89  91
ATOM     91  C   UNL A   1      33.269  26.846  23.133  1.00  0.00     0.053 A 
ATOM     92  C   UNL A   1      33.966  27.010  24.329  1.00  0.00     0.031 A 
ATOM     93  C   UNL A   1      32.291  27.799  22.853  1.00  0.00     0.139 A 
ATOM     94  C   UNL A   1      33.699  28.099  25.160  1.00  0.00     0.051 A 
ATOM     95  N   UNL A   1      31.967  28.838  23.658  1.00  0.00    -0.235 NA
ATOM     96  C   UNL A   1      32.685  28.986  24.799  1.00  0.00     0.153 A 
BRANCH  96  97
ATOM     97  N   UNL A   1      32.369  30.074  25.671  1.00  0.00    -0.223 N 
ATOM     98  C   UNL A   1      31.235  30.863  25.650  1.00  0.00     0.117 A 
ATOM     99  N   UNL A   1      33.224  30.475  26.652  1.00  0.00    -0.175 NA
ATOM    100  C   UNL A   1      31.399  31.834  26.609  1.00  0.00     0.042 A 
ATOM    101  C   UNL A   1      32.656  31.565  27.168  1.00  0.00     0.135 A 
ENDBRANCH  96  97
ENDBRANCH  89  91
ENDBRANCH  88  89
ENDBRANCH  87  88
ENDBRANCH  81  83
ENDBRANCH  80  81
ENDBRANCH  79  80
ENDBRANCH  78  79
ENDBRANCH  77  78
ENDBRANCH  76  77
ENDBRANCH   1  76
TORSDOF 24
ENDMDL
