MODEL 1
REMARK VINA RESULT:      -9.3      0.000      0.000
REMARK SMILES COc1ccc(/C=N/NC(=O)c2cc(C)nc3ccccc23)c(C(=O)OCCOCCOCCOCCOC(=O)c2ccc(-c3c4nc(c(-c5c(F)c(F)c(F)c(F)c5F)c5ccc([nH]5)c(-c5c(F)c(F)c(F)c(F)c5F)c5nc(c(-c6c(F)c(F)c(F)c(F)c6F)c6ccc3[nH]6)C=C5)C=C4)cc2)c1OC
REMARK SMILES IDX 31 1 30 2 29 3 28 4 27 5 26 6 24 7 25 8 23 9 3 10 4 11
REMARK SMILES IDX 104 12 5 13 6 14 2 15 1 16 105 17 106 18 7 19 8 20 9 21
REMARK SMILES IDX 10 22 11 24 12 25 13 26 22 27 14 28 17 29 21 30 15 31 16 32
REMARK SMILES IDX 18 33 20 34 19 35 32 36 33 37 34 38 35 39 36 40 37 41 38 42
REMARK SMILES IDX 39 43 40 44 41 45 42 46 103 47 43 48 102 49 44 50 45 51
REMARK SMILES IDX 46 52 96 53 47 54 101 55 95 56 97 57 48 58 100 59 94 60
REMARK SMILES IDX 93 61 49 63 81 64 61 65 80 66 62 67 65 68 79 69 98 70 63 71
REMARK SMILES IDX 64 72 78 74 99 75 66 76 50 77 51 78 59 79 52 80 53 81 57 82
REMARK SMILES IDX 60 83 54 84 55 85 58 86 56 87 82 88 83 89 91 90 84 91 85 92
REMARK SMILES IDX 89 93 92 94 86 95 87 96 90 97 88 98 67 99 68 100 76 101
REMARK SMILES IDX 69 102 70 103 74 104 77 105 71 106 72 107 75 108 73 109
REMARK H PARENT 9 23 97 62 65 73
REMARK Flexibility Score: inf
ROOT
ATOM      1  C   UNL A   1      31.425  32.388  27.099  1.00  0.00     0.188 C 
ENDROOT
BRANCH   1   2
ATOM      2  C   UNL A   1      31.910  31.131  26.326  1.00  0.00     0.188 C 
BRANCH   2   3
ATOM      3  O   UNL A   1      31.118  30.313  25.490  1.00  0.00    -0.376 OA
BRANCH   3   4
ATOM      4  C   UNL A   1      31.592  29.332  24.590  1.00  0.00     0.202 C 
BRANCH   4   5
ATOM      5  C   UNL A   1      30.961  27.960  24.379  1.00  0.00     0.261 C 
BRANCH   5   6
ATOM      6  O   UNL A   1      30.582  27.314  25.580  1.00  0.00    -0.460 OA
BRANCH   6   7
ATOM      7  C   UNL A   1      31.536  27.218  26.542  1.00  0.00     0.342 C 
ATOM      8  O   UNL A   1      31.515  27.734  27.631  1.00  0.00    -0.246 OA
BRANCH   7   9
ATOM      9  C   UNL A   1      32.513  26.170  26.140  1.00  0.00     0.114 A 
ATOM     10  C   UNL A   1      33.034  23.797  25.850  1.00  0.00     0.161 A 
ATOM     11  C   UNL A   1      34.282  24.204  25.348  1.00  0.00     0.051 A 
ATOM     12  C   UNL A   1      32.143  24.780  26.289  1.00  0.00     0.175 A 
ATOM     13  C   UNL A   1      34.676  25.568  25.307  1.00  0.00     0.015 A 
ATOM     14  C   UNL A   1      33.807  26.592  25.716  1.00  0.00     0.013 A 
BRANCH  10  15
ATOM     15  O   UNL A   1      32.885  22.446  26.034  1.00  0.00    -0.493 OA
ATOM     16  C   UNL A   1      33.938  21.796  26.751  1.00  0.00     0.278 C 
ENDBRANCH  10  15
BRANCH  12  17
ATOM     17  O   UNL A   1      30.954  24.586  26.937  1.00  0.00    -0.492 OA
ATOM     18  C   UNL A   1      30.138  23.439  26.810  1.00  0.00     0.278 C 
ENDBRANCH  12  17
BRANCH  14  19
ATOM     19  C   UNL A   1      34.310  28.070  25.840  1.00  0.00     0.142 C 
ATOM     20  N   UNL A   1      34.577  28.611  26.984  1.00  0.00    -0.180 NA
BRANCH  20  21
ATOM     21  N   UNL A   1      35.016  29.884  27.304  1.00  0.00    -0.243 N 
ATOM     22  C   UNL A   1      35.825  30.759  28.046  1.00  0.00     0.272 C 
ATOM     23  H   UNL A   1      34.498  30.476  26.711  1.00  0.00     0.194 HD
ATOM     24  O   UNL A   1      35.578  31.940  27.736  1.00  0.00    -0.267 OA
BRANCH  22  25
ATOM     25  C   UNL A   1      36.924  30.621  29.091  1.00  0.00     0.052 A 
ATOM     26  C   UNL A   1      37.208  29.393  29.718  1.00  0.00     0.038 A 
ATOM     27  C   UNL A   1      37.826  31.805  29.395  1.00  0.00     0.013 A 
ATOM     28  C   UNL A   1      38.233  29.366  30.667  1.00  0.00     0.039 A 
ATOM     29  C   UNL A   1      38.823  31.551  30.351  1.00  0.00     0.071 A 
ATOM     30  C   UNL A   1      37.939  33.176  28.925  1.00  0.00     0.011 A 
ATOM     31  C   UNL A   1      38.846  28.233  31.401  1.00  0.00     0.067 C 
ATOM     32  N   UNL A   1      38.960  30.432  30.987  1.00  0.00    -0.253 NA
ATOM     33  C   UNL A   1      39.827  32.403  30.752  1.00  0.00     0.029 A 
ATOM     34  C   UNL A   1      38.948  34.085  29.368  1.00  0.00     0.001 A 
ATOM     35  C   UNL A   1      39.913  33.684  30.273  1.00  0.00     0.002 A 
ENDBRANCH  22  25
ENDBRANCH  20  21
ENDBRANCH  14  19
ENDBRANCH   7   9
ENDBRANCH   6   7
ENDBRANCH   5   6
ENDBRANCH   4   5
ENDBRANCH   3   4
ENDBRANCH   2   3
ENDBRANCH   1   2
BRANCH   1  36
ATOM     36  O   UNL A   1      32.134  33.598  27.188  1.00  0.00    -0.377 OA
BRANCH  36  37
ATOM     37  C   UNL A   1      32.869  33.868  28.351  1.00  0.00     0.188 C 
BRANCH  37  38
ATOM     38  C   UNL A   1      33.838  35.074  28.413  1.00  0.00     0.188 C 
BRANCH  38  39
ATOM     39  O   UNL A   1      33.799  35.949  29.515  1.00  0.00    -0.376 OA
BRANCH  39  40
ATOM     40  C   UNL A   1      32.859  35.828  30.563  1.00  0.00     0.202 C 
BRANCH  40  41
ATOM     41  C   UNL A   1      33.198  35.491  32.027  1.00  0.00     0.261 C 
BRANCH  41  42
ATOM     42  O   UNL A   1      34.575  35.395  32.412  1.00  0.00    -0.460 OA
BRANCH  42  43
ATOM     43  C   UNL A   1      35.161  34.185  32.237  1.00  0.00     0.338 C 
ATOM     44  O   UNL A   1      34.956  33.397  31.332  1.00  0.00    -0.246 OA
BRANCH  43  45
ATOM     45  C   UNL A   1      36.268  34.044  33.213  1.00  0.00     0.060 A 
ATOM     46  C   UNL A   1      37.591  34.349  32.839  1.00  0.00     0.016 A 
ATOM     47  C   UNL A   1      35.994  33.583  34.496  1.00  0.00     0.016 A 
ATOM     48  C   UNL A   1      38.640  34.188  33.744  1.00  0.00     0.010 A 
ATOM     49  C   UNL A   1      37.050  33.374  35.384  1.00  0.00     0.010 A 
ATOM     50  C   UNL A   1      38.378  33.651  35.006  1.00  0.00    -0.014 A 
BRANCH  50  51
ATOM     51  C   UNL A   1      39.494  33.240  35.890  1.00  0.00     0.031 A 
ATOM     52  C   UNL A   1      39.990  34.206  36.926  1.00  0.00     0.074 A 
ATOM     53  C   UNL A   1      40.069  32.032  35.760  1.00  0.00     0.049 A 
ATOM     54  N   UNL A   1      41.025  34.112  37.720  1.00  0.00    -0.248 NA
ATOM     55  C   UNL A   1      39.225  35.454  37.076  1.00  0.00     0.031 C 
ATOM     56  C   UNL A   1      39.644  30.993  34.826  1.00  0.00     0.029 A 
ATOM     57  N   UNL A   1      41.152  31.487  36.403  1.00  0.00    -0.354 N 
ATOM     58  C   UNL A   1      41.047  35.292  38.450  1.00  0.00     0.074 A 
ATOM     59  C   UNL A   1      39.947  36.104  37.977  1.00  0.00     0.031 C 
ATOM     60  C   UNL A   1      40.466  29.938  34.947  1.00  0.00     0.029 A 
ATOM     61  C   UNL A   1      41.504  30.248  35.927  1.00  0.00     0.049 A 
ATOM     62  H   UNL A   1      41.629  31.939  37.136  1.00  0.00     0.167 HD
ATOM     63  C   UNL A   1      41.908  35.659  39.429  1.00  0.00     0.037 A 
ATOM     64  C   UNL A   1      42.566  29.472  36.219  1.00  0.00     0.037 A 
ATOM     65  C   UNL A   1      43.009  34.848  39.878  1.00  0.00     0.049 A 
ATOM     66  C   UNL A   1      43.569  29.950  37.239  1.00  0.00     0.074 A 
ATOM     67  C   UNL A   1      43.926  35.124  40.877  1.00  0.00     0.029 A 
ATOM     68  N   UNL A   1      43.355  33.615  39.346  1.00  0.00    -0.354 N 
ATOM     69  N   UNL A   1      43.569  31.051  37.949  1.00  0.00    -0.248 NA
ATOM     70  C   UNL A   1      44.721  29.074  37.501  1.00  0.00     0.031 C 
ATOM     71  C   UNL A   1      44.881  34.106  40.883  1.00  0.00     0.029 A 
ATOM     72  C   UNL A   1      44.503  33.142  39.965  1.00  0.00     0.049 A 
ATOM     73  H   UNL A   1      42.861  33.146  38.636  1.00  0.00     0.167 HD
ATOM     74  C   UNL A   1      44.692  30.984  38.765  1.00  0.00     0.074 A 
ATOM     75  C   UNL A   1      45.342  29.724  38.474  1.00  0.00     0.031 C 
ATOM     76  C   UNL A   1      45.141  31.883  39.674  1.00  0.00     0.037 A 
BRANCH  63  77
ATOM     77  C   UNL A   1      41.722  37.014  40.051  1.00  0.00     0.064 A 
ATOM     78  C   UNL A   1      42.280  38.173  39.490  1.00  0.00     0.173 A 
ATOM     79  C   UNL A   1      40.940  37.160  41.207  1.00  0.00     0.173 A 
ATOM     80  F   UNL A   1      43.035  38.093  38.384  1.00  0.00    -0.203 F 
ATOM     81  C   UNL A   1      42.101  39.417  40.090  1.00  0.00     0.198 A 
ATOM     82  C   UNL A   1      40.721  38.411  41.775  1.00  0.00     0.198 A 
ATOM     83  F   UNL A   1      40.370  36.088  41.780  1.00  0.00    -0.203 F 
ATOM     84  F   UNL A   1      42.703  40.498  39.575  1.00  0.00    -0.200 F 
ATOM     85  C   UNL A   1      41.315  39.536  41.226  1.00  0.00     0.200 A 
ATOM     86  F   UNL A   1      39.938  38.527  42.856  1.00  0.00    -0.200 F 
ATOM     87  F   UNL A   1      41.135  40.735  41.794  1.00  0.00    -0.200 F 
ENDBRANCH  63  77
BRANCH  64  88
ATOM     88  C   UNL A   1      42.755  28.170  35.524  1.00  0.00     0.064 A 
ATOM     89  C   UNL A   1      42.170  26.996  36.018  1.00  0.00     0.173 A 
ATOM     90  C   UNL A   1      43.550  28.065  34.373  1.00  0.00     0.173 A 
ATOM     91  F   UNL A   1      41.416  27.038  37.126  1.00  0.00    -0.203 F 
ATOM     92  C   UNL A   1      42.403  25.764  35.411  1.00  0.00     0.198 A 
ATOM     93  C   UNL A   1      43.742  26.840  33.738  1.00  0.00     0.198 A 
ATOM     94  F   UNL A   1      44.133  29.156  33.854  1.00  0.00    -0.203 F 
ATOM     95  F   UNL A   1      41.892  24.648  35.949  1.00  0.00    -0.200 F 
ATOM     96  C   UNL A   1      43.183  25.688  34.267  1.00  0.00     0.200 A 
ATOM     97  F   UNL A   1      44.477  26.777  32.619  1.00  0.00    -0.200 F 
ATOM     98  F   UNL A   1      43.402  24.504  33.680  1.00  0.00    -0.200 F 
ENDBRANCH  64  88
BRANCH  76  99
ATOM     99  C   UNL A   1      46.367  31.526  40.468  1.00  0.00     0.064 A 
ATOM    100  C   UNL A   1      47.658  31.875  40.042  1.00  0.00     0.173 A 
ATOM    101  C   UNL A   1      46.242  30.874  41.706  1.00  0.00     0.173 A 
ATOM    102  F   UNL A   1      47.838  32.495  38.867  1.00  0.00    -0.203 F 
ATOM    103  C   UNL A   1      48.775  31.550  40.807  1.00  0.00     0.198 A 
ATOM    104  C   UNL A   1      47.356  30.597  42.490  1.00  0.00     0.198 A 
ATOM    105  F   UNL A   1      45.031  30.528  42.169  1.00  0.00    -0.203 F 
ATOM    106  F   UNL A   1      50.003  31.834  40.349  1.00  0.00    -0.200 F 
ATOM    107  C   UNL A   1      48.623  30.923  42.034  1.00  0.00     0.200 A 
ATOM    108  F   UNL A   1      47.202  30.019  43.689  1.00  0.00    -0.200 F 
ATOM    109  F   UNL A   1      49.700  30.628  42.776  1.00  0.00    -0.200 F 
ENDBRANCH  76  99
ENDBRANCH  50  51
ENDBRANCH  43  45
ENDBRANCH  42  43
ENDBRANCH  41  42
ENDBRANCH  40  41
ENDBRANCH  39  40
ENDBRANCH  38  39
ENDBRANCH  37  38
ENDBRANCH  36  37
ENDBRANCH   1  36
TORSDOF 25
ENDMDL
MODEL 2
REMARK VINA RESULT:      -9.0      0.791      2.076
REMARK SMILES COc1ccc(/C=N/NC(=O)c2cc(C)nc3ccccc23)c(C(=O)OCCOCCOCCOCCOC(=O)c2ccc(-c3c4nc(c(-c5c(F)c(F)c(F)c(F)c5F)c5ccc([nH]5)c(-c5c(F)c(F)c(F)c(F)c5F)c5nc(c(-c6c(F)c(F)c(F)c(F)c6F)c6ccc3[nH]6)C=C5)C=C4)cc2)c1OC
REMARK SMILES IDX 31 1 30 2 29 3 28 4 27 5 26 6 24 7 25 8 23 9 3 10 4 11
REMARK SMILES IDX 104 12 5 13 6 14 2 15 1 16 105 17 106 18 7 19 8 20 9 21
REMARK SMILES IDX 10 22 11 24 12 25 13 26 22 27 14 28 17 29 21 30 15 31 16 32
REMARK SMILES IDX 18 33 20 34 19 35 32 36 33 37 34 38 35 39 36 40 37 41 38 42
REMARK SMILES IDX 39 43 40 44 41 45 42 46 103 47 43 48 102 49 44 50 45 51
REMARK SMILES IDX 46 52 96 53 47 54 101 55 95 56 97 57 48 58 100 59 94 60
REMARK SMILES IDX 93 61 49 63 81 64 61 65 80 66 62 67 65 68 79 69 98 70 63 71
REMARK SMILES IDX 64 72 78 74 99 75 66 76 50 77 51 78 59 79 52 80 53 81 57 82
REMARK SMILES IDX 60 83 54 84 55 85 58 86 56 87 82 88 83 89 91 90 84 91 85 92
REMARK SMILES IDX 89 93 92 94 86 95 87 96 90 97 88 98 67 99 68 100 76 101
REMARK SMILES IDX 69 102 70 103 74 104 77 105 71 106 72 107 75 108 73 109
REMARK H PARENT 9 23 97 62 65 73
REMARK Flexibility Score: inf
ROOT
ATOM      1  C   UNL A   1      31.401  32.217  26.978  1.00  0.00     0.188 C 
ENDROOT
BRANCH   1   2
ATOM      2  C   UNL A   1      31.878  30.922  26.264  1.00  0.00     0.188 C 
BRANCH   2   3
ATOM      3  O   UNL A   1      31.096  30.102  25.421  1.00  0.00    -0.376 OA
BRANCH   3   4
ATOM      4  C   UNL A   1      31.575  29.071  24.581  1.00  0.00     0.202 C 
BRANCH   4   5
ATOM      5  C   UNL A   1      30.913  27.710  24.403  1.00  0.00     0.261 C 
BRANCH   5   6
ATOM      6  O   UNL A   1      30.552  27.085  25.621  1.00  0.00    -0.460 OA
BRANCH   6   7
ATOM      7  C   UNL A   1      31.537  26.950  26.546  1.00  0.00     0.342 C 
ATOM      8  O   UNL A   1      31.570  27.452  27.642  1.00  0.00    -0.246 OA
BRANCH   7   9
ATOM      9  C   UNL A   1      32.468  25.879  26.097  1.00  0.00     0.114 A 
ATOM     10  C   UNL A   1      32.919  23.496  25.782  1.00  0.00     0.161 A 
ATOM     11  C   UNL A   1      34.149  23.874  25.218  1.00  0.00     0.051 A 
ATOM     12  C   UNL A   1      32.073  24.498  26.264  1.00  0.00     0.175 A 
ATOM     13  C   UNL A   1      34.573  25.229  25.157  1.00  0.00     0.015 A 
ATOM     14  C   UNL A   1      33.749  26.272  25.608  1.00  0.00     0.013 A 
BRANCH  10  15
ATOM     15  O   UNL A   1      32.748  22.148  25.974  1.00  0.00    -0.493 OA
ATOM     16  C   UNL A   1      33.299  21.617  27.182  1.00  0.00     0.278 C 
ENDBRANCH  10  15
BRANCH  12  17
ATOM     17  O   UNL A   1      30.914  24.332  26.971  1.00  0.00    -0.492 OA
ATOM     18  C   UNL A   1      30.020  23.247  26.820  1.00  0.00     0.278 C 
ENDBRANCH  12  17
BRANCH  14  19
ATOM     19  C   UNL A   1      34.291  27.738  25.706  1.00  0.00     0.142 C 
ATOM     20  N   UNL A   1      34.590  28.285  26.839  1.00  0.00    -0.180 NA
BRANCH  20  21
ATOM     21  N   UNL A   1      35.066  29.550  27.136  1.00  0.00    -0.243 N 
ATOM     22  C   UNL A   1      35.838  30.425  27.919  1.00  0.00     0.272 C 
ATOM     23  H   UNL A   1      34.657  30.131  26.455  1.00  0.00     0.194 HD
ATOM     24  O   UNL A   1      35.700  31.596  27.516  1.00  0.00    -0.267 OA
BRANCH  22  25
ATOM     25  C   UNL A   1      36.799  30.293  29.091  1.00  0.00     0.052 A 
ATOM     26  C   UNL A   1      36.386  30.488  30.423  1.00  0.00     0.038 A 
ATOM     27  C   UNL A   1      38.224  29.827  28.846  1.00  0.00     0.013 A 
ATOM     28  C   UNL A   1      37.342  30.348  31.431  1.00  0.00     0.039 A 
ATOM     29  C   UNL A   1      39.010  29.711  30.004  1.00  0.00     0.071 A 
ATOM     30  C   UNL A   1      39.008  29.439  27.684  1.00  0.00     0.011 A 
ATOM     31  C   UNL A   1      37.206  30.369  32.907  1.00  0.00     0.067 C 
ATOM     32  N   UNL A   1      38.609  30.022  31.195  1.00  0.00    -0.253 NA
ATOM     33  C   UNL A   1      40.297  29.230  30.092  1.00  0.00     0.029 A 
ATOM     34  C   UNL A   1      40.360  28.982  27.757  1.00  0.00     0.001 A 
ATOM     35  C   UNL A   1      41.000  28.856  28.976  1.00  0.00     0.002 A 
ENDBRANCH  22  25
ENDBRANCH  20  21
ENDBRANCH  14  19
ENDBRANCH   7   9
ENDBRANCH   6   7
ENDBRANCH   5   6
ENDBRANCH   4   5
ENDBRANCH   3   4
ENDBRANCH   2   3
ENDBRANCH   1   2
BRANCH   1  36
ATOM     36  O   UNL A   1      32.106  33.432  26.993  1.00  0.00    -0.377 OA
BRANCH  36  37
ATOM     37  C   UNL A   1      32.948  33.713  28.078  1.00  0.00     0.188 C 
BRANCH  37  38
ATOM     38  C   UNL A   1      33.809  35.000  28.100  1.00  0.00     0.188 C 
BRANCH  38  39
ATOM     39  O   UNL A   1      33.828  35.811  29.250  1.00  0.00    -0.376 OA
BRANCH  39  40
ATOM     40  C   UNL A   1      33.049  35.542  30.397  1.00  0.00     0.202 C 
BRANCH  40  41
ATOM     41  C   UNL A   1      33.608  35.196  31.790  1.00  0.00     0.261 C 
BRANCH  41  42
ATOM     42  O   UNL A   1      35.017  35.319  32.018  1.00  0.00    -0.460 OA
BRANCH  42  43
ATOM     43  C   UNL A   1      35.765  34.222  31.744  1.00  0.00     0.338 C 
ATOM     44  O   UNL A   1      35.720  33.539  30.738  1.00  0.00    -0.246 OA
BRANCH  43  45
ATOM     45  C   UNL A   1      36.818  34.090  32.779  1.00  0.00     0.060 A 
ATOM     46  C   UNL A   1      38.174  34.265  32.443  1.00  0.00     0.016 A 
ATOM     47  C   UNL A   1      36.459  33.766  34.083  1.00  0.00     0.016 A 
ATOM     48  C   UNL A   1      39.171  34.111  33.406  1.00  0.00     0.010 A 
ATOM     49  C   UNL A   1      37.460  33.563  35.034  1.00  0.00     0.010 A 
ATOM     50  C   UNL A   1      38.819  33.709  34.696  1.00  0.00    -0.014 A 
BRANCH  50  51
ATOM     51  C   UNL A   1      39.864  33.300  35.663  1.00  0.00     0.031 A 
ATOM     52  C   UNL A   1      40.316  34.286  36.701  1.00  0.00     0.074 A 
ATOM     53  C   UNL A   1      40.417  32.076  35.606  1.00  0.00     0.049 A 
ATOM     54  N   UNL A   1      41.294  34.192  37.564  1.00  0.00    -0.248 NA
ATOM     55  C   UNL A   1      39.573  35.555  36.765  1.00  0.00     0.031 C 
ATOM     56  C   UNL A   1      40.028  31.019  34.676  1.00  0.00     0.029 A 
ATOM     57  N   UNL A   1      41.442  31.526  36.335  1.00  0.00    -0.354 N 
ATOM     58  C   UNL A   1      41.297  35.393  38.259  1.00  0.00     0.074 A 
ATOM     59  C   UNL A   1      40.250  36.215  37.692  1.00  0.00     0.031 C 
ATOM     60  C   UNL A   1      40.814  29.950  34.881  1.00  0.00     0.029 A 
ATOM     61  C   UNL A   1      41.794  30.266  35.919  1.00  0.00     0.049 A 
ATOM     62  H   UNL A   1      41.882  31.989  37.084  1.00  0.00     0.167 HD
ATOM     63  C   UNL A   1      42.101  35.770  39.282  1.00  0.00     0.037 A 
ATOM     64  C   UNL A   1      42.816  29.476  36.302  1.00  0.00     0.037 A 
ATOM     65  C   UNL A   1      43.150  34.949  39.826  1.00  0.00     0.049 A 
ATOM     66  C   UNL A   1      43.761  29.961  37.372  1.00  0.00     0.074 A 
ATOM     67  C   UNL A   1      44.007  35.234  40.874  1.00  0.00     0.029 A 
ATOM     68  N   UNL A   1      43.500  33.693  39.353  1.00  0.00    -0.354 N 
ATOM     69  N   UNL A   1      43.742  31.083  38.048  1.00  0.00    -0.248 NA
ATOM     70  C   UNL A   1      44.872  29.068  37.733  1.00  0.00     0.031 C 
ATOM     71  C   UNL A   1      44.934  34.195  40.973  1.00  0.00     0.029 A 
ATOM     72  C   UNL A   1      44.593  33.213  40.059  1.00  0.00     0.049 A 
ATOM     73  H   UNL A   1      43.042  33.214  38.626  1.00  0.00     0.167 HD
ATOM     74  C   UNL A   1      44.807  31.015  38.937  1.00  0.00     0.074 A 
ATOM     75  C   UNL A   1      45.444  29.733  38.726  1.00  0.00     0.031 C 
ATOM     76  C   UNL A   1      45.217  31.932  39.848  1.00  0.00     0.037 A 
BRANCH  63  77
ATOM     77  C   UNL A   1      41.909  37.148  39.851  1.00  0.00     0.064 A 
ATOM     78  C   UNL A   1      40.981  37.409  40.869  1.00  0.00     0.173 A 
ATOM     79  C   UNL A   1      42.695  38.217  39.394  1.00  0.00     0.173 A 
ATOM     80  F   UNL A   1      40.205  36.423  41.346  1.00  0.00    -0.203 F 
ATOM     81  C   UNL A   1      40.814  38.695  41.375  1.00  0.00     0.198 A 
ATOM     82  C   UNL A   1      42.561  39.491  39.936  1.00  0.00     0.198 A 
ATOM     83  F   UNL A   1      43.608  38.024  38.429  1.00  0.00    -0.203 F 
ATOM     84  F   UNL A   1      39.871  38.933  42.298  1.00  0.00    -0.200 F 
ATOM     85  C   UNL A   1      41.610  39.733  40.914  1.00  0.00     0.200 A 
ATOM     86  F   UNL A   1      43.352  40.486  39.509  1.00  0.00    -0.200 F 
ATOM     87  F   UNL A   1      41.456  40.968  41.410  1.00  0.00    -0.200 F 
ENDBRANCH  63  77
BRANCH  64  88
ATOM     88  C   UNL A   1      43.017  28.149  35.659  1.00  0.00     0.064 A 
ATOM     89  C   UNL A   1      43.935  27.985  34.612  1.00  0.00     0.173 A 
ATOM     90  C   UNL A   1      42.274  27.026  36.052  1.00  0.00     0.173 A 
ATOM     91  F   UNL A   1      44.658  29.030  34.186  1.00  0.00    -0.203 F 
ATOM     92  C   UNL A   1      44.075  26.761  33.961  1.00  0.00     0.198 A 
ATOM     93  C   UNL A   1      42.449  25.791  35.432  1.00  0.00     0.198 A 
ATOM     94  F   UNL A   1      41.381  27.123  37.049  1.00  0.00    -0.203 F 
ATOM     95  F   UNL A   1      44.906  26.653  32.915  1.00  0.00    -0.200 F 
ATOM     96  C   UNL A   1      43.337  25.663  34.377  1.00  0.00     0.200 A 
ATOM     97  F   UNL A   1      41.751  24.728  35.854  1.00  0.00    -0.200 F 
ATOM     98  F   UNL A   1      43.475  24.485  33.754  1.00  0.00    -0.200 F 
ENDBRANCH  64  88
BRANCH  76  99
ATOM     99  C   UNL A   1      46.381  31.571  40.731  1.00  0.00     0.064 A 
ATOM    100  C   UNL A   1      46.207  30.931  41.968  1.00  0.00     0.173 A 
ATOM    101  C   UNL A   1      47.695  31.817  40.302  1.00  0.00     0.173 A 
ATOM    102  F   UNL A   1      44.975  30.673  42.429  1.00  0.00    -0.203 F 
ATOM    103  C   UNL A   1      47.304  30.588  42.755  1.00  0.00     0.198 A 
ATOM    104  C   UNL A   1      48.788  31.428  41.068  1.00  0.00     0.198 A 
ATOM    105  F   UNL A   1      47.921  32.415  39.122  1.00  0.00    -0.203 F 
ATOM    106  F   UNL A   1      47.111  30.037  43.962  1.00  0.00    -0.200 F 
ATOM    107  C   UNL A   1      48.591  30.826  42.300  1.00  0.00     0.200 A 
ATOM    108  F   UNL A   1      50.031  31.632  40.611  1.00  0.00    -0.200 F 
ATOM    109  F   UNL A   1      49.644  30.478  43.053  1.00  0.00    -0.200 F 
ENDBRANCH  76  99
ENDBRANCH  50  51
ENDBRANCH  43  45
ENDBRANCH  42  43
ENDBRANCH  41  42
ENDBRANCH  40  41
ENDBRANCH  39  40
ENDBRANCH  38  39
ENDBRANCH  37  38
ENDBRANCH  36  37
ENDBRANCH   1  36
TORSDOF 25
ENDMDL
MODEL 3
REMARK VINA RESULT:      -9.0      4.493      7.333
REMARK SMILES COc1ccc(/C=N/NC(=O)c2cc(C)nc3ccccc23)c(C(=O)OCCOCCOCCOCCOC(=O)c2ccc(-c3c4nc(c(-c5c(F)c(F)c(F)c(F)c5F)c5ccc([nH]5)c(-c5c(F)c(F)c(F)c(F)c5F)c5nc(c(-c6c(F)c(F)c(F)c(F)c6F)c6ccc3[nH]6)C=C5)C=C4)cc2)c1OC
REMARK SMILES IDX 31 1 30 2 29 3 28 4 27 5 26 6 24 7 25 8 23 9 3 10 4 11
REMARK SMILES IDX 104 12 5 13 6 14 2 15 1 16 105 17 106 18 7 19 8 20 9 21
REMARK SMILES IDX 10 22 11 24 12 25 13 26 22 27 14 28 17 29 21 30 15 31 16 32
REMARK SMILES IDX 18 33 20 34 19 35 32 36 33 37 34 38 35 39 36 40 37 41 38 42
REMARK SMILES IDX 39 43 40 44 41 45 42 46 103 47 43 48 102 49 44 50 45 51
REMARK SMILES IDX 46 52 96 53 47 54 101 55 95 56 97 57 48 58 100 59 94 60
REMARK SMILES IDX 93 61 49 63 81 64 61 65 80 66 62 67 65 68 79 69 98 70 63 71
REMARK SMILES IDX 64 72 78 74 99 75 66 76 50 77 51 78 59 79 52 80 53 81 57 82
REMARK SMILES IDX 60 83 54 84 55 85 58 86 56 87 82 88 83 89 91 90 84 91 85 92
REMARK SMILES IDX 89 93 92 94 86 95 87 96 90 97 88 98 67 99 68 100 76 101
REMARK SMILES IDX 69 102 70 103 74 104 77 105 71 106 72 107 75 108 73 109
REMARK H PARENT 9 23 97 62 65 73
REMARK Flexibility Score: inf
ROOT
ATOM      1  C   UNL A   1      40.223  29.240  30.113  1.00  0.00     0.188 C 
ENDROOT
BRANCH   1   2
ATOM      2  C   UNL A   1      41.318  29.206  29.011  1.00  0.00     0.188 C 
BRANCH   2   3
ATOM      3  O   UNL A   1      41.117  28.891  27.650  1.00  0.00    -0.376 OA
BRANCH   3   4
ATOM      4  C   UNL A   1      42.108  28.879  26.641  1.00  0.00     0.202 C 
BRANCH   4   5
ATOM      5  C   UNL A   1      43.496  29.495  26.771  1.00  0.00     0.261 C 
BRANCH   5   6
ATOM      6  O   UNL A   1      44.519  28.553  27.036  1.00  0.00    -0.460 OA
BRANCH   6   7
ATOM      7  C   UNL A   1      44.800  27.673  26.040  1.00  0.00     0.342 C 
ATOM      8  O   UNL A   1      44.601  27.830  24.861  1.00  0.00    -0.246 OA
BRANCH   7   9
ATOM      9  C   UNL A   1      45.627  26.569  26.601  1.00  0.00     0.114 A 
ATOM     10  C   UNL A   1      47.839  25.591  26.966  1.00  0.00     0.161 A 
ATOM     11  C   UNL A   1      47.191  24.567  27.679  1.00  0.00     0.051 A 
ATOM     12  C   UNL A   1      47.056  26.591  26.384  1.00  0.00     0.175 A 
ATOM     13  C   UNL A   1      45.777  24.498  27.795  1.00  0.00     0.015 A 
ATOM     14  C   UNL A   1      44.951  25.492  27.245  1.00  0.00     0.013 A 
BRANCH  10  15
ATOM     15  O   UNL A   1      49.180  25.402  26.753  1.00  0.00    -0.493 OA
ATOM     16  C   UNL A   1      49.939  24.985  27.891  1.00  0.00     0.278 C 
ENDBRANCH  10  15
BRANCH  12  17
ATOM     17  O   UNL A   1      47.476  27.580  25.537  1.00  0.00    -0.492 OA
ATOM     18  C   UNL A   1      47.937  27.376  24.216  1.00  0.00     0.278 C 
ENDBRANCH  12  17
BRANCH  14  19
ATOM     19  C   UNL A   1      43.394  25.317  27.218  1.00  0.00     0.142 C 
ATOM     20  N   UNL A   1      42.638  25.751  28.173  1.00  0.00    -0.180 NA
BRANCH  20  21
ATOM     21  N   UNL A   1      41.266  25.688  28.340  1.00  0.00    -0.243 N 
ATOM     22  C   UNL A   1      40.014  25.116  28.060  1.00  0.00     0.272 C 
ATOM     23  H   UNL A   1      41.065  26.411  28.979  1.00  0.00     0.194 HD
ATOM     24  O   UNL A   1      39.115  25.733  28.663  1.00  0.00    -0.267 OA
BRANCH  22  25
ATOM     25  C   UNL A   1      39.502  23.938  27.243  1.00  0.00     0.052 A 
ATOM     26  C   UNL A   1      38.396  24.051  26.381  1.00  0.00     0.038 A 
ATOM     27  C   UNL A   1      40.264  22.624  27.259  1.00  0.00     0.013 A 
ATOM     28  C   UNL A   1      37.998  22.914  25.675  1.00  0.00     0.039 A 
ATOM     29  C   UNL A   1      39.718  21.621  26.443  1.00  0.00     0.071 A 
ATOM     30  C   UNL A   1      41.465  22.124  27.910  1.00  0.00     0.011 A 
ATOM     31  C   UNL A   1      36.971  22.736  24.620  1.00  0.00     0.067 C 
ATOM     32  N   UNL A   1      38.624  21.745  25.763  1.00  0.00    -0.253 NA
ATOM     33  C   UNL A   1      40.243  20.372  26.195  1.00  0.00     0.029 A 
ATOM     34  C   UNL A   1      41.994  20.814  27.697  1.00  0.00     0.001 A 
ATOM     35  C   UNL A   1      41.387  19.940  26.814  1.00  0.00     0.002 A 
ENDBRANCH  22  25
ENDBRANCH  20  21
ENDBRANCH  14  19
ENDBRANCH   7   9
ENDBRANCH   6   7
ENDBRANCH   5   6
ENDBRANCH   4   5
ENDBRANCH   3   4
ENDBRANCH   2   3
ENDBRANCH   1   2
BRANCH   1  36
ATOM     36  O   UNL A   1      39.132  28.357  30.186  1.00  0.00    -0.377 OA
BRANCH  36  37
ATOM     37  C   UNL A   1      37.837  28.866  30.012  1.00  0.00     0.188 C 
BRANCH  37  38
ATOM     38  C   UNL A   1      37.371  29.389  28.631  1.00  0.00     0.188 C 
BRANCH  38  39
ATOM     39  O   UNL A   1      36.018  29.714  28.425  1.00  0.00    -0.376 OA
BRANCH  39  40
ATOM     40  C   UNL A   1      35.595  30.926  27.834  1.00  0.00     0.202 C 
BRANCH  40  41
ATOM     41  C   UNL A   1      35.163  32.187  28.605  1.00  0.00     0.261 C 
BRANCH  41  42
ATOM     42  O   UNL A   1      36.056  32.741  29.579  1.00  0.00    -0.460 OA
BRANCH  42  43
ATOM     43  C   UNL A   1      35.623  32.725  30.864  1.00  0.00     0.338 C 
ATOM     44  O   UNL A   1      34.490  32.931  31.256  1.00  0.00    -0.246 OA
BRANCH  43  45
ATOM     45  C   UNL A   1      36.708  32.201  31.728  1.00  0.00     0.060 A 
ATOM     46  C   UNL A   1      36.419  31.295  32.765  1.00  0.00     0.016 A 
ATOM     47  C   UNL A   1      38.014  32.633  31.522  1.00  0.00     0.016 A 
ATOM     48  C   UNL A   1      37.432  30.824  33.600  1.00  0.00     0.010 A 
ATOM     49  C   UNL A   1      39.018  32.202  32.390  1.00  0.00     0.010 A 
ATOM     50  C   UNL A   1      38.729  31.317  33.447  1.00  0.00    -0.014 A 
BRANCH  50  51
ATOM     51  C   UNL A   1      39.765  31.028  34.466  1.00  0.00     0.031 A 
ATOM     52  C   UNL A   1      40.012  32.033  35.553  1.00  0.00     0.074 A 
ATOM     53  C   UNL A   1      40.490  29.897  34.412  1.00  0.00     0.049 A 
ATOM     54  N   UNL A   1      40.944  32.050  36.472  1.00  0.00    -0.248 NA
ATOM     55  C   UNL A   1      39.093  33.181  35.603  1.00  0.00     0.031 C 
ATOM     56  C   UNL A   1      40.309  28.827  33.435  1.00  0.00     0.029 A 
ATOM     57  N   UNL A   1      41.540  29.473  35.188  1.00  0.00    -0.354 N 
ATOM     58  C   UNL A   1      40.736  33.215  37.195  1.00  0.00     0.074 A 
ATOM     59  C   UNL A   1      39.616  33.900  36.585  1.00  0.00     0.031 C 
ATOM     60  C   UNL A   1      41.227  27.873  33.661  1.00  0.00     0.029 A 
ATOM     61  C   UNL A   1      42.091  28.290  34.763  1.00  0.00     0.049 A 
ATOM     62  H   UNL A   1      41.866  29.969  35.973  1.00  0.00     0.167 HD
ATOM     63  C   UNL A   1      41.419  33.668  38.274  1.00  0.00     0.037 A 
ATOM     64  C   UNL A   1      43.192  27.639  35.188  1.00  0.00     0.037 A 
ATOM     65  C   UNL A   1      42.542  32.985  38.860  1.00  0.00     0.049 A 
ATOM     66  C   UNL A   1      43.996  28.217  36.325  1.00  0.00     0.074 A 
ATOM     67  C   UNL A   1      43.288  33.354  39.965  1.00  0.00     0.029 A 
ATOM     68  N   UNL A   1      43.094  31.808  38.378  1.00  0.00    -0.354 N 
ATOM     69  N   UNL A   1      43.779  29.303  37.026  1.00  0.00    -0.248 NA
ATOM     70  C   UNL A   1      45.201  27.479  36.731  1.00  0.00     0.031 C 
ATOM     71  C   UNL A   1      44.347  32.454  40.094  1.00  0.00     0.029 A 
ATOM     72  C   UNL A   1      44.202  31.464  39.138  1.00  0.00     0.049 A 
ATOM     73  H   UNL A   1      42.751  31.293  37.613  1.00  0.00     0.167 HD
ATOM     74  C   UNL A   1      44.791  29.356  37.977  1.00  0.00     0.074 A 
ATOM     75  C   UNL A   1      45.615  28.185  37.773  1.00  0.00     0.031 C 
ATOM     76  C   UNL A   1      45.014  30.291  38.933  1.00  0.00     0.037 A 
BRANCH  63  77
ATOM     77  C   UNL A   1      40.999  34.985  38.864  1.00  0.00     0.064 A 
ATOM     78  C   UNL A   1      41.711  36.169  38.622  1.00  0.00     0.173 A 
ATOM     79  C   UNL A   1      39.842  35.068  39.654  1.00  0.00     0.173 A 
ATOM     80  F   UNL A   1      42.823  36.148  37.871  1.00  0.00    -0.203 F 
ATOM     81  C   UNL A   1      41.308  37.376  39.187  1.00  0.00     0.198 A 
ATOM     82  C   UNL A   1      39.413  36.285  40.175  1.00  0.00     0.198 A 
ATOM     83  F   UNL A   1      39.113  33.970  39.908  1.00  0.00    -0.203 F 
ATOM     84  F   UNL A   1      42.045  38.479  38.999  1.00  0.00    -0.200 F 
ATOM     85  C   UNL A   1      40.155  37.435  39.956  1.00  0.00     0.200 A 
ATOM     86  F   UNL A   1      38.284  36.344  40.894  1.00  0.00    -0.200 F 
ATOM     87  F   UNL A   1      39.763  38.599  40.489  1.00  0.00    -0.200 F 
ENDBRANCH  63  77
BRANCH  64  88
ATOM     88  C   UNL A   1      43.617  26.377  34.526  1.00  0.00     0.064 A 
ATOM     89  C   UNL A   1      44.422  26.398  33.379  1.00  0.00     0.173 A 
ATOM     90  C   UNL A   1      43.200  25.125  35.004  1.00  0.00     0.173 A 
ATOM     91  F   UNL A   1      44.833  27.568  32.870  1.00  0.00    -0.203 F 
ATOM     92  C   UNL A   1      44.763  25.220  32.715  1.00  0.00     0.198 A 
ATOM     93  C   UNL A   1      43.582  23.946  34.368  1.00  0.00     0.198 A 
ATOM     94  F   UNL A   1      42.429  25.044  36.099  1.00  0.00    -0.203 F 
ATOM     95  F   UNL A   1      45.471  25.276  31.579  1.00  0.00    -0.200 F 
ATOM     96  C   UNL A   1      44.348  23.995  33.215  1.00  0.00     0.200 A 
ATOM     97  F   UNL A   1      43.199  22.764  34.869  1.00  0.00    -0.200 F 
ATOM     98  F   UNL A   1      44.680  22.863  32.580  1.00  0.00    -0.200 F 
ENDBRANCH  64  88
BRANCH  76  99
ATOM     99  C   UNL A   1      46.165  30.069  39.876  1.00  0.00     0.064 A 
ATOM    100  C   UNL A   1      47.446  30.583  39.622  1.00  0.00     0.173 A 
ATOM    101  C   UNL A   1      45.965  29.379  41.083  1.00  0.00     0.173 A 
ATOM    102  F   UNL A   1      47.695  31.246  38.483  1.00  0.00    -0.203 F 
ATOM    103  C   UNL A   1      48.489  30.381  40.522  1.00  0.00     0.198 A 
ATOM    104  C   UNL A   1      46.997  29.224  42.002  1.00  0.00     0.198 A 
ATOM    105  F   UNL A   1      44.758  28.877  41.384  1.00  0.00    -0.203 F 
ATOM    106  F   UNL A   1      49.719  30.823  40.227  1.00  0.00    -0.200 F 
ATOM    107  C   UNL A   1      48.261  29.712  41.715  1.00  0.00     0.200 A 
ATOM    108  F   UNL A   1      46.766  28.604  43.167  1.00  0.00    -0.200 F 
ATOM    109  F   UNL A   1      49.264  29.535  42.587  1.00  0.00    -0.200 F 
ENDBRANCH  76  99
ENDBRANCH  50  51
ENDBRANCH  43  45
ENDBRANCH  42  43
ENDBRANCH  41  42
ENDBRANCH  40  41
ENDBRANCH  39  40
ENDBRANCH  38  39
ENDBRANCH  37  38
ENDBRANCH  36  37
ENDBRANCH   1  36
TORSDOF 25
ENDMDL
