MODEL 1
REMARK VINA RESULT:      -8.9      0.000      0.000
REMARK SMILES CCCCCCNC(=O)Oc1cccc(-c2ccc([C@@H](C)C(=O)OCCOCCOCCOCCOC(=O)c3ccc(-c4c5nc(c(-c6c(F)c(F)c(F)c(F)c6F)c6ccc([nH]6)c(-c6c(F)c(F)c(F)c(F)c6F)c6nc(c(-c7c(F)c(F)c(F)c(F)c7F)c7ccc4[nH]7)C=C6)C=C5)cc3)cc2C(F)(F)F)c1
REMARK SMILES IDX 26 1 25 2 24 3 22 4 23 5 20 6 21 7 19 8 16 9 17 10 103 11
REMARK SMILES IDX 18 12 102 13 15 14 11 15 12 16 108 17 13 18 14 19 10 20 8 21
REMARK SMILES IDX 7 22 9 24 6 25 5 26 4 27 3 28 2 29 1 30 104 31 105 32 106 33
REMARK SMILES IDX 107 34 27 35 28 36 29 37 30 38 31 39 32 40 33 41 34 42 35 43
REMARK SMILES IDX 36 44 37 45 38 46 39 47 40 48 101 49 41 50 100 51 42 52
REMARK SMILES IDX 43 53 44 54 94 55 45 56 99 57 93 58 95 59 46 60 98 61 92 62
REMARK SMILES IDX 91 63 47 65 79 66 59 67 78 68 60 69 63 70 77 71 96 72 61 73
REMARK SMILES IDX 62 74 76 76 97 77 64 78 48 79 49 80 57 81 50 82 51 83 55 84
REMARK SMILES IDX 58 85 52 86 53 87 56 88 54 89 80 90 81 91 89 92 82 93 83 94
REMARK SMILES IDX 87 95 90 96 84 97 85 98 88 99 86 100 65 101 66 102 74 103
REMARK SMILES IDX 67 104 68 105 72 106 75 107 69 108 70 109 73 110 71 111
REMARK H PARENT 7 23 95 64 63 75
REMARK Flexibility Score: inf
ROOT
ATOM      1  C   UNL A   1      43.879  22.270  26.388  1.00  0.00     0.202 C 
ENDROOT
BRANCH   1   2
ATOM      2  C   UNL A   1      42.798  21.193  26.170  1.00  0.00     0.261 C 
BRANCH   2   3
ATOM      3  O   UNL A   1      41.573  21.608  25.528  1.00  0.00    -0.463 OA
BRANCH   3   4
ATOM      4  C   UNL A   1      40.573  22.002  26.349  1.00  0.00     0.313 C 
ATOM      5  O   UNL A   1      40.673  22.949  27.128  1.00  0.00    -0.252 OA
BRANCH   4   6
ATOM      6  C   UNL A   1      39.288  21.175  26.293  1.00  0.00     0.126 C 
ATOM      7  C   UNL A   1      39.614  19.823  25.669  1.00  0.00     0.025 C 
BRANCH   6   8
ATOM      8  C   UNL A   1      37.987  21.751  25.728  1.00  0.00    -0.033 A 
ATOM      9  C   UNL A   1      35.462  22.695  24.703  1.00  0.00    -0.006 A 
ATOM     10  C   UNL A   1      36.563  23.555  24.920  1.00  0.00     0.009 A 
ATOM     11  C   UNL A   1      35.639  21.330  25.008  1.00  0.00     0.064 A 
ATOM     12  C   UNL A   1      37.800  23.097  25.417  1.00  0.00     0.005 A 
ATOM     13  C   UNL A   1      36.894  20.885  25.505  1.00  0.00     0.018 A 
BRANCH   9  14
ATOM     14  C   UNL A   1      34.225  23.241  24.095  1.00  0.00    -0.014 A 
ATOM     15  C   UNL A   1      31.877  23.881  24.172  1.00  0.00     0.133 A 
ATOM     16  C   UNL A   1      31.859  24.100  22.796  1.00  0.00     0.047 A 
ATOM     17  C   UNL A   1      33.044  23.466  24.828  1.00  0.00     0.056 A 
ATOM     18  C   UNL A   1      33.027  23.917  22.064  1.00  0.00     0.004 A 
ATOM     19  C   UNL A   1      34.193  23.488  22.707  1.00  0.00     0.009 A 
BRANCH  15  20
ATOM     20  O   UNL A   1      30.624  23.936  24.818  1.00  0.00    -0.410 OA
BRANCH  20  21
ATOM     21  C   UNL A   1      30.472  24.704  25.961  1.00  0.00     0.412 C 
ATOM     22  N   UNL A   1      30.106  25.997  25.702  1.00  0.00    -0.321 N 
ATOM     23  H   UNL A   1      29.943  26.571  26.485  1.00  0.00     0.167 HD
ATOM     24  O   UNL A   1      30.652  24.317  27.110  1.00  0.00    -0.224 OA
BRANCH  22  25
ATOM     25  C   UNL A   1      29.929  26.618  24.401  1.00  0.00     0.119 C 
BRANCH  25  26
ATOM     26  C   UNL A   1      30.623  27.978  24.303  1.00  0.00     0.021 C 
BRANCH  26  27
ATOM     27  C   UNL A   1      31.676  28.094  23.192  1.00  0.00     0.002 C 
BRANCH  27  28
ATOM     28  C   UNL A   1      33.129  28.225  23.665  1.00  0.00    -0.000 C 
BRANCH  28  29
ATOM     29  C   UNL A   1      33.734  26.968  24.296  1.00  0.00    -0.003 C 
ATOM     30  C   UNL A   1      33.704  26.979  25.818  1.00  0.00     0.004 C 
ENDBRANCH  28  29
ENDBRANCH  27  28
ENDBRANCH  26  27
ENDBRANCH  25  26
ENDBRANCH  22  25
ENDBRANCH  20  21
ENDBRANCH  15  20
ENDBRANCH   9  14
BRANCH  11  31
ATOM     31  C   UNL A   1      34.542  20.293  24.882  1.00  0.00     0.417 C 
ATOM     32  F   UNL A   1      35.036  19.024  24.764  1.00  0.00    -0.166 F 
ATOM     33  F   UNL A   1      33.749  20.267  25.993  1.00  0.00    -0.166 F 
ATOM     34  F   UNL A   1      33.703  20.439  23.824  1.00  0.00    -0.166 F 
ENDBRANCH  11  31
ENDBRANCH   6   8
ENDBRANCH   4   6
ENDBRANCH   3   4
ENDBRANCH   2   3
ENDBRANCH   1   2
BRANCH   1  35
ATOM     35  O   UNL A   1      44.618  22.798  25.298  1.00  0.00    -0.376 OA
BRANCH  35  36
ATOM     36  C   UNL A   1      44.311  24.075  24.758  1.00  0.00     0.188 C 
BRANCH  36  37
ATOM     37  C   UNL A   1      43.181  24.931  25.349  1.00  0.00     0.188 C 
BRANCH  37  38
ATOM     38  O   UNL A   1      43.556  25.766  26.425  1.00  0.00    -0.377 OA
BRANCH  38  39
ATOM     39  C   UNL A   1      42.786  26.942  26.614  1.00  0.00     0.188 C 
BRANCH  39  40
ATOM     40  C   UNL A   1      42.510  27.379  28.065  1.00  0.00     0.188 C 
BRANCH  40  41
ATOM     41  O   UNL A   1      41.528  26.594  28.731  1.00  0.00    -0.376 OA
BRANCH  41  42
ATOM     42  C   UNL A   1      40.281  26.369  28.086  1.00  0.00     0.202 C 
BRANCH  42  43
ATOM     43  C   UNL A   1      39.175  27.424  28.258  1.00  0.00     0.261 C 
BRANCH  43  44
ATOM     44  O   UNL A   1      39.338  28.347  29.342  1.00  0.00    -0.460 OA
BRANCH  44  45
ATOM     45  C   UNL A   1      38.463  29.372  29.440  1.00  0.00     0.338 C 
ATOM     46  O   UNL A   1      37.255  29.305  29.505  1.00  0.00    -0.246 OA
BRANCH  45  47
ATOM     47  C   UNL A   1      39.246  30.604  29.694  1.00  0.00     0.060 A 
ATOM     48  C   UNL A   1      40.635  30.495  29.844  1.00  0.00     0.016 A 
ATOM     49  C   UNL A   1      38.624  31.850  29.794  1.00  0.00     0.016 A 
ATOM     50  C   UNL A   1      41.399  31.622  30.149  1.00  0.00     0.010 A 
ATOM     51  C   UNL A   1      39.387  32.976  30.121  1.00  0.00     0.010 A 
ATOM     52  C   UNL A   1      40.772  32.860  30.343  1.00  0.00    -0.014 A 
BRANCH  52  53
ATOM     53  C   UNL A   1      41.527  33.962  30.989  1.00  0.00     0.031 A 
ATOM     54  C   UNL A   1      41.478  34.077  32.490  1.00  0.00     0.074 A 
ATOM     55  C   UNL A   1      42.284  34.814  30.277  1.00  0.00     0.049 A 
ATOM     56  N   UNL A   1      42.041  34.954  33.282  1.00  0.00    -0.248 NA
ATOM     57  C   UNL A   1      40.681  33.057  33.192  1.00  0.00     0.031 C 
ATOM     58  C   UNL A   1      42.459  34.780  28.828  1.00  0.00     0.029 A 
ATOM     59  N   UNL A   1      43.048  35.882  30.684  1.00  0.00    -0.354 N 
ATOM     60  C   UNL A   1      41.662  34.596  34.569  1.00  0.00     0.074 A 
ATOM     61  C   UNL A   1      40.792  33.447  34.452  1.00  0.00     0.031 C 
ATOM     62  C   UNL A   1      43.274  35.786  28.463  1.00  0.00     0.029 A 
ATOM     63  C   UNL A   1      43.651  36.554  29.650  1.00  0.00     0.049 A 
ATOM     64  H   UNL A   1      43.154  36.139  31.629  1.00  0.00     0.167 HD
ATOM     65  C   UNL A   1      42.017  35.167  35.746  1.00  0.00     0.037 A 
ATOM     66  C   UNL A   1      44.403  37.673  29.662  1.00  0.00     0.037 A 
ATOM     67  C   UNL A   1      42.876  36.315  35.860  1.00  0.00     0.049 A 
ATOM     68  C   UNL A   1      44.712  38.345  30.978  1.00  0.00     0.074 A 
ATOM     69  C   UNL A   1      43.305  36.962  37.006  1.00  0.00     0.029 A 
ATOM     70  N   UNL A   1      43.429  36.997  34.786  1.00  0.00    -0.354 N 
ATOM     71  N   UNL A   1      44.373  37.987  32.193  1.00  0.00    -0.248 NA
ATOM     72  C   UNL A   1      45.515  39.576  30.922  1.00  0.00     0.031 C 
ATOM     73  C   UNL A   1      44.062  38.072  36.623  1.00  0.00     0.029 A 
ATOM     74  C   UNL A   1      44.169  38.077  35.241  1.00  0.00     0.049 A 
ATOM     75  H   UNL A   1      43.314  36.750  33.839  1.00  0.00     0.167 HD
ATOM     76  C   UNL A   1      44.948  38.923  33.045  1.00  0.00     0.074 A 
ATOM     77  C   UNL A   1      45.668  39.860  32.207  1.00  0.00     0.031 C 
ATOM     78  C   UNL A   1      44.889  38.999  34.397  1.00  0.00     0.037 A 
BRANCH  65  79
ATOM     79  C   UNL A   1      41.439  34.578  37.001  1.00  0.00     0.064 A 
ATOM     80  C   UNL A   1      40.209  35.007  37.525  1.00  0.00     0.173 A 
ATOM     81  C   UNL A   1      42.119  33.557  37.683  1.00  0.00     0.173 A 
ATOM     82  F   UNL A   1      39.524  35.990  36.922  1.00  0.00    -0.203 F 
ATOM     83  C   UNL A   1      39.700  34.462  38.702  1.00  0.00     0.198 A 
ATOM     84  C   UNL A   1      41.591  32.989  38.839  1.00  0.00     0.198 A 
ATOM     85  F   UNL A   1      43.296  33.106  37.226  1.00  0.00    -0.203 F 
ATOM     86  F   UNL A   1      38.554  34.929  39.214  1.00  0.00    -0.200 F 
ATOM     87  C   UNL A   1      40.388  33.448  39.354  1.00  0.00     0.200 A 
ATOM     88  F   UNL A   1      42.249  32.000  39.459  1.00  0.00    -0.200 F 
ATOM     89  F   UNL A   1      39.895  32.921  40.482  1.00  0.00    -0.200 F 
ENDBRANCH  65  79
BRANCH  66  90
ATOM     90  C   UNL A   1      44.914  38.240  28.385  1.00  0.00     0.064 A 
ATOM     91  C   UNL A   1      46.192  37.915  27.907  1.00  0.00     0.173 A 
ATOM     92  C   UNL A   1      44.144  39.134  27.626  1.00  0.00     0.173 A 
ATOM     93  F   UNL A   1      46.979  37.087  28.610  1.00  0.00    -0.203 F 
ATOM     94  C   UNL A   1      46.686  38.477  26.730  1.00  0.00     0.198 A 
ATOM     95  C   UNL A   1      44.627  39.670  26.433  1.00  0.00     0.198 A 
ATOM     96  F   UNL A   1      42.917  39.482  28.040  1.00  0.00    -0.203 F 
ATOM     97  F   UNL A   1      47.929  38.188  26.325  1.00  0.00    -0.200 F 
ATOM     98  C   UNL A   1      45.899  39.348  25.991  1.00  0.00     0.200 A 
ATOM     99  F   UNL A   1      43.859  40.501  25.717  1.00  0.00    -0.200 F 
ATOM    100  F   UNL A   1      46.373  39.884  24.858  1.00  0.00    -0.200 F 
ENDBRANCH  66  90
BRANCH  78 101
ATOM    101  C   UNL A   1      45.661  40.102  35.069  1.00  0.00     0.064 A 
ATOM    102  C   UNL A   1      46.968  39.913  35.542  1.00  0.00     0.173 A 
ATOM    103  C   UNL A   1      45.096  41.381  35.197  1.00  0.00     0.173 A 
ATOM    104  F   UNL A   1      47.550  38.708  35.454  1.00  0.00    -0.203 F 
ATOM    105  C   UNL A   1      47.669  40.955  36.145  1.00  0.00     0.198 A 
ATOM    106  C   UNL A   1      45.813  42.429  35.768  1.00  0.00     0.198 A 
ATOM    107  F   UNL A   1      43.854  41.621  34.753  1.00  0.00    -0.203 F 
ATOM    108  F   UNL A   1      48.896  40.737  36.637  1.00  0.00    -0.200 F 
ATOM    109  C   UNL A   1      47.095  42.213  36.249  1.00  0.00     0.200 A 
ATOM    110  F   UNL A   1      45.264  43.649  35.850  1.00  0.00    -0.200 F 
ATOM    111  F   UNL A   1      47.776  43.217  36.820  1.00  0.00    -0.200 F 
ENDBRANCH  78 101
ENDBRANCH  52  53
ENDBRANCH  45  47
ENDBRANCH  44  45
ENDBRANCH  43  44
ENDBRANCH  42  43
ENDBRANCH  41  42
ENDBRANCH  40  41
ENDBRANCH  39  40
ENDBRANCH  38  39
ENDBRANCH  37  38
ENDBRANCH  36  37
ENDBRANCH  35  36
ENDBRANCH   1  35
TORSDOF 30
ENDMDL
MODEL 2
REMARK VINA RESULT:      -8.4      0.968      2.229
REMARK SMILES CCCCCCNC(=O)Oc1cccc(-c2ccc([C@@H](C)C(=O)OCCOCCOCCOCCOC(=O)c3ccc(-c4c5nc(c(-c6c(F)c(F)c(F)c(F)c6F)c6ccc([nH]6)c(-c6c(F)c(F)c(F)c(F)c6F)c6nc(c(-c7c(F)c(F)c(F)c(F)c7F)c7ccc4[nH]7)C=C6)C=C5)cc3)cc2C(F)(F)F)c1
REMARK SMILES IDX 26 1 25 2 24 3 22 4 23 5 20 6 21 7 19 8 16 9 17 10 103 11
REMARK SMILES IDX 18 12 102 13 15 14 11 15 12 16 108 17 13 18 14 19 10 20 8 21
REMARK SMILES IDX 7 22 9 24 6 25 5 26 4 27 3 28 2 29 1 30 104 31 105 32 106 33
REMARK SMILES IDX 107 34 27 35 28 36 29 37 30 38 31 39 32 40 33 41 34 42 35 43
REMARK SMILES IDX 36 44 37 45 38 46 39 47 40 48 101 49 41 50 100 51 42 52
REMARK SMILES IDX 43 53 44 54 94 55 45 56 99 57 93 58 95 59 46 60 98 61 92 62
REMARK SMILES IDX 91 63 47 65 79 66 59 67 78 68 60 69 63 70 77 71 96 72 61 73
REMARK SMILES IDX 62 74 76 76 97 77 64 78 48 79 49 80 57 81 50 82 51 83 55 84
REMARK SMILES IDX 58 85 52 86 53 87 56 88 54 89 80 90 81 91 89 92 82 93 83 94
REMARK SMILES IDX 87 95 90 96 84 97 85 98 88 99 86 100 65 101 66 102 74 103
REMARK SMILES IDX 67 104 68 105 72 106 75 107 69 108 70 109 73 110 71 111
REMARK H PARENT 7 23 95 64 63 75
REMARK Flexibility Score: inf
ROOT
ATOM      1  C   UNL A   1      43.801  22.190  26.400  1.00  0.00     0.202 C 
ENDROOT
BRANCH   1   2
ATOM      2  C   UNL A   1      42.709  21.171  26.020  1.00  0.00     0.261 C 
BRANCH   2   3
ATOM      3  O   UNL A   1      41.486  21.695  25.457  1.00  0.00    -0.463 OA
BRANCH   3   4
ATOM      4  C   UNL A   1      40.507  21.999  26.338  1.00  0.00     0.313 C 
ATOM      5  O   UNL A   1      40.634  22.843  27.225  1.00  0.00    -0.252 OA
BRANCH   4   6
ATOM      6  C   UNL A   1      39.208  21.203  26.204  1.00  0.00     0.126 C 
ATOM      7  C   UNL A   1      39.521  19.885  25.506  1.00  0.00     0.025 C 
BRANCH   6   8
ATOM      8  C   UNL A   1      37.930  21.839  25.649  1.00  0.00    -0.033 A 
ATOM      9  C   UNL A   1      35.444  22.897  24.642  1.00  0.00    -0.006 A 
ATOM     10  C   UNL A   1      36.584  23.707  24.855  1.00  0.00     0.009 A 
ATOM     11  C   UNL A   1      35.562  21.524  24.941  1.00  0.00     0.064 A 
ATOM     12  C   UNL A   1      37.802  23.193  25.343  1.00  0.00     0.005 A 
ATOM     13  C   UNL A   1      36.798  21.023  25.430  1.00  0.00     0.018 A 
BRANCH   9  14
ATOM     14  C   UNL A   1      34.229  23.500  24.043  1.00  0.00    -0.014 A 
ATOM     15  C   UNL A   1      31.998  24.464  24.184  1.00  0.00     0.133 A 
ATOM     16  C   UNL A   1      31.869  24.449  22.796  1.00  0.00     0.047 A 
ATOM     17  C   UNL A   1      33.165  24.007  24.812  1.00  0.00     0.056 A 
ATOM     18  C   UNL A   1      32.926  23.984  22.022  1.00  0.00     0.004 A 
ATOM     19  C   UNL A   1      34.088  23.511  22.639  1.00  0.00     0.009 A 
BRANCH  15  20
ATOM     20  O   UNL A   1      30.833  24.801  24.904  1.00  0.00    -0.410 OA
BRANCH  20  21
ATOM     21  C   UNL A   1      30.837  25.903  25.744  1.00  0.00     0.412 C 
ATOM     22  N   UNL A   1      30.245  27.008  25.193  1.00  0.00    -0.321 N 
ATOM     23  H   UNL A   1      30.185  27.805  25.769  1.00  0.00     0.167 HD
ATOM     24  O   UNL A   1      31.323  25.942  26.869  1.00  0.00    -0.224 OA
BRANCH  22  25
ATOM     25  C   UNL A   1      29.694  27.137  23.856  1.00  0.00     0.119 C 
BRANCH  25  26
ATOM     26  C   UNL A   1      29.632  28.593  23.388  1.00  0.00     0.021 C 
BRANCH  26  27
ATOM     27  C   UNL A   1      28.343  28.987  22.655  1.00  0.00     0.002 C 
BRANCH  27  28
ATOM     28  C   UNL A   1      27.740  30.340  23.053  1.00  0.00    -0.000 C 
BRANCH  28  29
ATOM     29  C   UNL A   1      28.526  31.572  22.599  1.00  0.00    -0.003 C 
ATOM     30  C   UNL A   1      28.166  32.038  21.195  1.00  0.00     0.004 C 
ENDBRANCH  28  29
ENDBRANCH  27  28
ENDBRANCH  26  27
ENDBRANCH  25  26
ENDBRANCH  22  25
ENDBRANCH  20  21
ENDBRANCH  15  20
ENDBRANCH   9  14
BRANCH  11  31
ATOM     31  C   UNL A   1      34.419  20.538  24.819  1.00  0.00     0.417 C 
ATOM     32  F   UNL A   1      34.852  19.242  24.777  1.00  0.00    -0.166 F 
ATOM     33  F   UNL A   1      33.585  20.602  25.899  1.00  0.00    -0.166 F 
ATOM     34  F   UNL A   1      33.628  20.676  23.724  1.00  0.00    -0.166 F 
ENDBRANCH  11  31
ENDBRANCH   6   8
ENDBRANCH   4   6
ENDBRANCH   3   4
ENDBRANCH   2   3
ENDBRANCH   1   2
BRANCH   1  35
ATOM     35  O   UNL A   1      44.669  22.735  25.419  1.00  0.00    -0.376 OA
BRANCH  35  36
ATOM     36  C   UNL A   1      44.386  23.985  24.808  1.00  0.00     0.188 C 
BRANCH  36  37
ATOM     37  C   UNL A   1      43.170  24.818  25.240  1.00  0.00     0.188 C 
BRANCH  37  38
ATOM     38  O   UNL A   1      43.352  25.593  26.407  1.00  0.00    -0.377 OA
BRANCH  38  39
ATOM     39  C   UNL A   1      42.553  26.757  26.528  1.00  0.00     0.188 C 
BRANCH  39  40
ATOM     40  C   UNL A   1      42.232  27.249  27.952  1.00  0.00     0.188 C 
BRANCH  40  41
ATOM     41  O   UNL A   1      41.231  26.488  28.617  1.00  0.00    -0.376 OA
BRANCH  41  42
ATOM     42  C   UNL A   1      39.926  26.438  28.056  1.00  0.00     0.202 C 
BRANCH  42  43
ATOM     43  C   UNL A   1      38.931  27.549  28.433  1.00  0.00     0.261 C 
BRANCH  43  44
ATOM     44  O   UNL A   1      39.449  28.627  29.223  1.00  0.00    -0.460 OA
BRANCH  44  45
ATOM     45  C   UNL A   1      38.596  29.606  29.598  1.00  0.00     0.338 C 
ATOM     46  O   UNL A   1      37.429  29.489  29.899  1.00  0.00    -0.246 OA
BRANCH  45  47
ATOM     47  C   UNL A   1      39.395  30.836  29.812  1.00  0.00     0.060 A 
ATOM     48  C   UNL A   1      40.785  30.716  29.944  1.00  0.00     0.016 A 
ATOM     49  C   UNL A   1      38.786  32.089  29.893  1.00  0.00     0.016 A 
ATOM     50  C   UNL A   1      41.564  31.842  30.211  1.00  0.00     0.010 A 
ATOM     51  C   UNL A   1      39.564  33.215  30.183  1.00  0.00     0.010 A 
ATOM     52  C   UNL A   1      40.952  33.090  30.386  1.00  0.00    -0.014 A 
BRANCH  52  53
ATOM     53  C   UNL A   1      41.727  34.199  30.996  1.00  0.00     0.031 A 
ATOM     54  C   UNL A   1      41.673  34.371  32.491  1.00  0.00     0.074 A 
ATOM     55  C   UNL A   1      42.506  35.008  30.257  1.00  0.00     0.049 A 
ATOM     56  N   UNL A   1      42.250  35.264  33.253  1.00  0.00    -0.248 NA
ATOM     57  C   UNL A   1      40.851  33.395  33.226  1.00  0.00     0.031 C 
ATOM     58  C   UNL A   1      42.688  34.915  28.812  1.00  0.00     0.029 A 
ATOM     59  N   UNL A   1      43.291  36.073  30.629  1.00  0.00    -0.354 N 
ATOM     60  C   UNL A   1      41.858  34.962  34.551  1.00  0.00     0.074 A 
ATOM     61  C   UNL A   1      40.963  33.829  34.472  1.00  0.00     0.031 C 
ATOM     62  C   UNL A   1      43.526  35.890  28.415  1.00  0.00     0.029 A 
ATOM     63  C   UNL A   1      43.914  36.693  29.574  1.00  0.00     0.049 A 
ATOM     64  H   UNL A   1      43.397  36.363  31.564  1.00  0.00     0.167 HD
ATOM     65  C   UNL A   1      42.218  35.569  35.707  1.00  0.00     0.037 A 
ATOM     66  C   UNL A   1      44.690  37.796  29.549  1.00  0.00     0.037 A 
ATOM     67  C   UNL A   1      43.101  36.702  35.784  1.00  0.00     0.049 A 
ATOM     68  C   UNL A   1      45.006  38.509  30.842  1.00  0.00     0.074 A 
ATOM     69  C   UNL A   1      43.538  37.382  36.908  1.00  0.00     0.029 A 
ATOM     70  N   UNL A   1      43.675  37.332  34.689  1.00  0.00    -0.354 N 
ATOM     71  N   UNL A   1      44.653  38.204  32.067  1.00  0.00    -0.248 NA
ATOM     72  C   UNL A   1      45.836  39.720  30.745  1.00  0.00     0.031 C 
ATOM     73  C   UNL A   1      44.321  38.461  36.489  1.00  0.00     0.029 A 
ATOM     74  C   UNL A   1      44.435  38.412  35.108  1.00  0.00     0.049 A 
ATOM     75  H   UNL A   1      43.559  37.052  33.752  1.00  0.00     0.167 HD
ATOM     76  C   UNL A   1      45.244  39.159  32.887  1.00  0.00     0.074 A 
ATOM     77  C   UNL A   1      45.988  40.048  32.019  1.00  0.00     0.031 C 
ATOM     78  C   UNL A   1      45.180  39.286  34.235  1.00  0.00     0.037 A 
BRANCH  65  79
ATOM     79  C   UNL A   1      41.621  35.040  36.981  1.00  0.00     0.064 A 
ATOM     80  C   UNL A   1      42.217  33.994  37.702  1.00  0.00     0.173 A 
ATOM     81  C   UNL A   1      40.440  35.598  37.496  1.00  0.00     0.173 A 
ATOM     82  F   UNL A   1      43.338  33.414  37.248  1.00  0.00    -0.203 F 
ATOM     83  C   UNL A   1      41.637  33.504  38.870  1.00  0.00     0.198 A 
ATOM     84  C   UNL A   1      39.882  35.131  38.682  1.00  0.00     0.198 A 
ATOM     85  F   UNL A   1      39.829  36.603  36.850  1.00  0.00    -0.203 F 
ATOM     86  F   UNL A   1      42.193  32.466  39.508  1.00  0.00    -0.200 F 
ATOM     87  C   UNL A   1      40.473  34.078  39.362  1.00  0.00     0.200 A 
ATOM     88  F   UNL A   1      38.766  35.696  39.164  1.00  0.00    -0.200 F 
ATOM     89  F   UNL A   1      39.918  33.610  40.488  1.00  0.00    -0.200 F 
ENDBRANCH  65  79
BRANCH  66  90
ATOM     90  C   UNL A   1      45.220  38.303  28.256  1.00  0.00     0.064 A 
ATOM     91  C   UNL A   1      44.507  39.243  27.498  1.00  0.00     0.173 A 
ATOM     92  C   UNL A   1      46.441  37.843  27.740  1.00  0.00     0.173 A 
ATOM     93  F   UNL A   1      43.321  39.693  27.933  1.00  0.00    -0.203 F 
ATOM     94  C   UNL A   1      44.986  39.689  26.266  1.00  0.00     0.198 A 
ATOM     95  C   UNL A   1      46.934  38.314  26.524  1.00  0.00     0.198 A 
ATOM     96  F   UNL A   1      47.161  36.940  28.421  1.00  0.00    -0.203 F 
ATOM     97  F   UNL A   1      44.260  40.549  25.540  1.00  0.00    -0.200 F 
ATOM     98  C   UNL A   1      46.203  39.229  25.785  1.00  0.00     0.200 A 
ATOM     99  F   UNL A   1      48.115  37.875  26.068  1.00  0.00    -0.200 F 
ATOM    100  F   UNL A   1      46.664  39.661  24.603  1.00  0.00    -0.200 F 
ENDBRANCH  66  90
BRANCH  78 101
ATOM    101  C   UNL A   1      45.971  40.396  34.870  1.00  0.00     0.064 A 
ATOM    102  C   UNL A   1      45.399  41.643  35.165  1.00  0.00     0.173 A 
ATOM    103  C   UNL A   1      47.312  40.190  35.233  1.00  0.00     0.173 A 
ATOM    104  F   UNL A   1      44.125  41.897  34.829  1.00  0.00    -0.203 F 
ATOM    105  C   UNL A   1      46.147  42.650  35.769  1.00  0.00     0.198 A 
ATOM    106  C   UNL A   1      48.046  41.186  35.870  1.00  0.00     0.198 A 
ATOM    107  F   UNL A   1      47.907  39.014  34.986  1.00  0.00    -0.203 F 
ATOM    108  F   UNL A   1      45.594  43.851  35.992  1.00  0.00    -0.200 F 
ATOM    109  C   UNL A   1      47.466  42.418  36.129  1.00  0.00     0.200 A 
ATOM    110  F   UNL A   1      49.315  40.954  36.235  1.00  0.00    -0.200 F 
ATOM    111  F   UNL A   1      48.181  43.386  36.721  1.00  0.00    -0.200 F 
ENDBRANCH  78 101
ENDBRANCH  52  53
ENDBRANCH  45  47
ENDBRANCH  44  45
ENDBRANCH  43  44
ENDBRANCH  42  43
ENDBRANCH  41  42
ENDBRANCH  40  41
ENDBRANCH  39  40
ENDBRANCH  38  39
ENDBRANCH  37  38
ENDBRANCH  36  37
ENDBRANCH  35  36
ENDBRANCH   1  35
TORSDOF 30
ENDMDL
MODEL 3
REMARK VINA RESULT:      -7.6      6.143     10.453
REMARK SMILES CCCCCCNC(=O)Oc1cccc(-c2ccc([C@@H](C)C(=O)OCCOCCOCCOCCOC(=O)c3ccc(-c4c5nc(c(-c6c(F)c(F)c(F)c(F)c6F)c6ccc([nH]6)c(-c6c(F)c(F)c(F)c(F)c6F)c6nc(c(-c7c(F)c(F)c(F)c(F)c7F)c7ccc4[nH]7)C=C6)C=C5)cc3)cc2C(F)(F)F)c1
REMARK SMILES IDX 26 1 25 2 24 3 22 4 23 5 20 6 21 7 19 8 16 9 17 10 103 11
REMARK SMILES IDX 18 12 102 13 15 14 11 15 12 16 108 17 13 18 14 19 10 20 8 21
REMARK SMILES IDX 7 22 9 24 6 25 5 26 4 27 3 28 2 29 1 30 104 31 105 32 106 33
REMARK SMILES IDX 107 34 27 35 28 36 29 37 30 38 31 39 32 40 33 41 34 42 35 43
REMARK SMILES IDX 36 44 37 45 38 46 39 47 40 48 101 49 41 50 100 51 42 52
REMARK SMILES IDX 43 53 44 54 94 55 45 56 99 57 93 58 95 59 46 60 98 61 92 62
REMARK SMILES IDX 91 63 47 65 79 66 59 67 78 68 60 69 63 70 77 71 96 72 61 73
REMARK SMILES IDX 62 74 76 76 97 77 64 78 48 79 49 80 57 81 50 82 51 83 55 84
REMARK SMILES IDX 58 85 52 86 53 87 56 88 54 89 80 90 81 91 89 92 82 93 83 94
REMARK SMILES IDX 87 95 90 96 84 97 85 98 88 99 86 100 65 101 66 102 74 103
REMARK SMILES IDX 67 104 68 105 72 106 75 107 69 108 70 109 73 110 71 111
REMARK H PARENT 7 23 95 64 63 75
REMARK Flexibility Score: inf
ROOT
ATOM      1  C   UNL A   1      51.776  28.912  19.935  1.00  0.00     0.202 C 
ENDROOT
BRANCH   1   2
ATOM      2  C   UNL A   1      50.519  28.057  20.187  1.00  0.00     0.261 C 
BRANCH   2   3
ATOM      3  O   UNL A   1      50.664  26.911  21.054  1.00  0.00    -0.463 OA
BRANCH   3   4
ATOM      4  C   UNL A   1      49.622  26.649  21.875  1.00  0.00     0.313 C 
ATOM      5  O   UNL A   1      48.603  26.066  21.508  1.00  0.00    -0.252 OA
BRANCH   4   6
ATOM      6  C   UNL A   1      49.753  27.153  23.313  1.00  0.00     0.126 C 
ATOM      7  C   UNL A   1      51.056  26.617  23.894  1.00  0.00     0.025 C 
BRANCH   6   8
ATOM      8  C   UNL A   1      48.602  27.028  24.315  1.00  0.00    -0.033 A 
ATOM      9  C   UNL A   1      46.545  26.742  26.316  1.00  0.00    -0.006 A 
ATOM     10  C   UNL A   1      46.323  27.405  25.088  1.00  0.00     0.009 A 
ATOM     11  C   UNL A   1      47.832  26.209  26.539  1.00  0.00     0.064 A 
ATOM     12  C   UNL A   1      47.325  27.544  24.105  1.00  0.00     0.005 A 
ATOM     13  C   UNL A   1      48.828  26.355  25.537  1.00  0.00     0.018 A 
BRANCH   9  14
ATOM     14  C   UNL A   1      45.414  26.563  27.258  1.00  0.00    -0.014 A 
ATOM     15  C   UNL A   1      43.456  25.375  28.086  1.00  0.00     0.133 A 
ATOM     16  C   UNL A   1      43.162  26.413  28.969  1.00  0.00     0.047 A 
ATOM     17  C   UNL A   1      44.574  25.433  27.241  1.00  0.00     0.056 A 
ATOM     18  C   UNL A   1      44.003  27.518  29.022  1.00  0.00     0.004 A 
ATOM     19  C   UNL A   1      45.112  27.593  28.172  1.00  0.00     0.009 A 
BRANCH  15  20
ATOM     20  O   UNL A   1      42.477  24.366  27.978  1.00  0.00    -0.410 OA
BRANCH  20  21
ATOM     21  C   UNL A   1      41.612  24.358  26.896  1.00  0.00     0.412 C 
ATOM     22  N   UNL A   1      40.801  23.255  26.857  1.00  0.00    -0.321 N 
ATOM     23  H   UNL A   1      40.139  23.225  26.129  1.00  0.00     0.167 HD
ATOM     24  O   UNL A   1      41.551  25.217  26.024  1.00  0.00    -0.224 OA
BRANCH  22  25
ATOM     25  C   UNL A   1      40.807  22.125  27.770  1.00  0.00     0.119 C 
BRANCH  25  26
ATOM     26  C   UNL A   1      41.918  21.123  27.451  1.00  0.00     0.021 C 
BRANCH  26  27
ATOM     27  C   UNL A   1      42.190  20.903  25.957  1.00  0.00     0.002 C 
BRANCH  27  28
ATOM     28  C   UNL A   1      43.668  20.854  25.551  1.00  0.00    -0.000 C 
BRANCH  28  29
ATOM     29  C   UNL A   1      44.245  19.453  25.329  1.00  0.00    -0.003 C 
ATOM     30  C   UNL A   1      44.895  19.276  23.964  1.00  0.00     0.004 C 
ENDBRANCH  28  29
ENDBRANCH  27  28
ENDBRANCH  26  27
ENDBRANCH  25  26
ENDBRANCH  22  25
ENDBRANCH  20  21
ENDBRANCH  15  20
ENDBRANCH   9  14
BRANCH  11  31
ATOM     31  C   UNL A   1      48.243  25.519  27.823  1.00  0.00     0.417 C 
ATOM     32  F   UNL A   1      47.339  24.573  28.218  1.00  0.00    -0.166 F 
ATOM     33  F   UNL A   1      49.423  24.848  27.676  1.00  0.00    -0.166 F 
ATOM     34  F   UNL A   1      48.399  26.323  28.907  1.00  0.00    -0.166 F 
ENDBRANCH  11  31
ENDBRANCH   6   8
ENDBRANCH   4   6
ENDBRANCH   3   4
ENDBRANCH   2   3
ENDBRANCH   1   2
BRANCH   1  35
ATOM     35  O   UNL A   1      51.696  30.146  19.240  1.00  0.00    -0.376 OA
BRANCH  35  36
ATOM     36  C   UNL A   1      51.568  31.373  19.944  1.00  0.00     0.188 C 
BRANCH  36  37
ATOM     37  C   UNL A   1      52.762  32.326  20.095  1.00  0.00     0.188 C 
BRANCH  37  38
ATOM     38  O   UNL A   1      53.174  32.573  21.423  1.00  0.00    -0.377 OA
BRANCH  38  39
ATOM     39  C   UNL A   1      53.111  31.478  22.322  1.00  0.00     0.188 C 
BRANCH  39  40
ATOM     40  C   UNL A   1      52.291  31.670  23.611  1.00  0.00     0.188 C 
BRANCH  40  41
ATOM     41  O   UNL A   1      51.783  30.460  24.162  1.00  0.00    -0.376 OA
BRANCH  41  42
ATOM     42  C   UNL A   1      52.574  29.757  25.111  1.00  0.00     0.202 C 
BRANCH  42  43
ATOM     43  C   UNL A   1      52.636  30.299  26.548  1.00  0.00     0.261 C 
BRANCH  43  44
ATOM     44  O   UNL A   1      52.553  29.329  27.600  1.00  0.00    -0.460 OA
BRANCH  44  45
ATOM     45  C   UNL A   1      51.512  28.468  27.589  1.00  0.00     0.338 C 
ATOM     46  O   UNL A   1      51.545  27.275  27.380  1.00  0.00    -0.246 OA
BRANCH  45  47
ATOM     47  C   UNL A   1      50.329  29.192  28.114  1.00  0.00     0.060 A 
ATOM     48  C   UNL A   1      50.423  29.802  29.372  1.00  0.00     0.016 A 
ATOM     49  C   UNL A   1      49.142  29.261  27.385  1.00  0.00     0.016 A 
ATOM     50  C   UNL A   1      49.312  30.437  29.927  1.00  0.00     0.010 A 
ATOM     51  C   UNL A   1      48.021  29.878  27.952  1.00  0.00     0.010 A 
ATOM     52  C   UNL A   1      48.089  30.431  29.244  1.00  0.00    -0.014 A 
BRANCH  52  53
ATOM     53  C   UNL A   1      46.849  30.799  29.973  1.00  0.00     0.031 A 
ATOM     54  C   UNL A   1      46.291  29.820  30.972  1.00  0.00     0.074 A 
ATOM     55  C   UNL A   1      46.254  31.992  29.800  1.00  0.00     0.049 A 
ATOM     56  N   UNL A   1      45.221  29.906  31.721  1.00  0.00    -0.248 NA
ATOM     57  C   UNL A   1      47.049  28.570  31.147  1.00  0.00     0.031 C 
ATOM     58  C   UNL A   1      46.721  33.046  28.905  1.00  0.00     0.029 A 
ATOM     59  N   UNL A   1      45.119  32.513  30.373  1.00  0.00    -0.354 N 
ATOM     60  C   UNL A   1      45.176  28.724  32.449  1.00  0.00     0.074 A 
ATOM     61  C   UNL A   1      46.301  27.920  32.026  1.00  0.00     0.031 C 
ATOM     62  C   UNL A   1      45.875  34.089  28.983  1.00  0.00     0.029 A 
ATOM     63  C   UNL A   1      44.791  33.762  29.908  1.00  0.00     0.049 A 
ATOM     64  H   UNL A   1      44.592  32.035  31.055  1.00  0.00     0.167 HD
ATOM     65  C   UNL A   1      44.282  28.345  33.394  1.00  0.00     0.037 A 
ATOM     66  C   UNL A   1      43.724  34.540  30.184  1.00  0.00     0.037 A 
ATOM     67  C   UNL A   1      43.159  29.142  33.809  1.00  0.00     0.049 A 
ATOM     68  C   UNL A   1      42.692  34.058  31.176  1.00  0.00     0.074 A 
ATOM     69  C   UNL A   1      42.202  28.853  34.767  1.00  0.00     0.029 A 
ATOM     70  N   UNL A   1      42.832  30.382  33.280  1.00  0.00    -0.354 N 
ATOM     71  N   UNL A   1      42.668  32.952  31.879  1.00  0.00    -0.248 NA
ATOM     72  C   UNL A   1      41.540  34.941  31.414  1.00  0.00     0.031 C 
ATOM     73  C   UNL A   1      41.262  29.887  34.770  1.00  0.00     0.029 A 
ATOM     74  C   UNL A   1      41.670  30.857  33.868  1.00  0.00     0.049 A 
ATOM     75  H   UNL A   1      43.350  30.856  32.588  1.00  0.00     0.167 HD
ATOM     76  C   UNL A   1      41.525  33.021  32.667  1.00  0.00     0.074 A 
ATOM     77  C   UNL A   1      40.886  34.284  32.361  1.00  0.00     0.031 C 
ATOM     78  C   UNL A   1      41.048  32.122  33.563  1.00  0.00     0.037 A 
BRANCH  65  79
ATOM     79  C   UNL A   1      44.465  26.988  34.014  1.00  0.00     0.064 A 
ATOM     80  C   UNL A   1      44.943  26.829  35.325  1.00  0.00     0.173 A 
ATOM     81  C   UNL A   1      44.144  25.829  33.291  1.00  0.00     0.173 A 
ATOM     82  F   UNL A   1      45.279  27.903  36.055  1.00  0.00    -0.203 F 
ATOM     83  C   UNL A   1      45.124  25.562  35.874  1.00  0.00     0.198 A 
ATOM     84  C   UNL A   1      44.292  24.566  33.855  1.00  0.00     0.198 A 
ATOM     85  F   UNL A   1      43.680  25.922  32.036  1.00  0.00    -0.203 F 
ATOM     86  F   UNL A   1      45.637  25.435  37.105  1.00  0.00    -0.200 F 
ATOM     87  C   UNL A   1      44.792  24.432  35.141  1.00  0.00     0.200 A 
ATOM     88  F   UNL A   1      43.956  23.476  33.151  1.00  0.00    -0.200 F 
ATOM     89  F   UNL A   1      44.962  23.214  35.672  1.00  0.00    -0.200 F 
ENDBRANCH  65  79
BRANCH  66  90
ATOM     90  C   UNL A   1      43.568  35.856  29.509  1.00  0.00     0.064 A 
ATOM     91  C   UNL A   1      42.999  35.954  28.231  1.00  0.00     0.173 A 
ATOM     92  C   UNL A   1      44.005  37.042  30.120  1.00  0.00     0.173 A 
ATOM     93  F   UNL A   1      42.592  34.847  27.594  1.00  0.00    -0.203 F 
ATOM     94  C   UNL A   1      42.889  37.183  27.583  1.00  0.00     0.198 A 
ATOM     95  C   UNL A   1      43.865  38.274  29.483  1.00  0.00     0.198 A 
ATOM     96  F   UNL A   1      44.562  37.005  31.339  1.00  0.00    -0.203 F 
ATOM     97  F   UNL A   1      42.388  37.240  26.343  1.00  0.00    -0.200 F 
ATOM     98  C   UNL A   1      43.316  38.343  28.213  1.00  0.00     0.200 A 
ATOM     99  F   UNL A   1      44.268  39.393  30.100  1.00  0.00    -0.200 F 
ATOM    100  F   UNL A   1      43.206  39.524  27.591  1.00  0.00    -0.200 F 
ENDBRANCH  66  90
BRANCH  78 101
ATOM    101  C   UNL A   1      39.800  32.485  34.320  1.00  0.00     0.064 A 
ATOM    102  C   UNL A   1      39.845  33.190  35.532  1.00  0.00     0.173 A 
ATOM    103  C   UNL A   1      38.538  32.163  33.797  1.00  0.00     0.173 A 
ATOM    104  F   UNL A   1      41.025  33.513  36.082  1.00  0.00    -0.203 F 
ATOM    105  C   UNL A   1      38.675  33.531  36.206  1.00  0.00     0.198 A 
ATOM    106  C   UNL A   1      37.369  32.537  34.455  1.00  0.00     0.198 A 
ATOM    107  F   UNL A   1      38.435  31.499  32.636  1.00  0.00    -0.203 F 
ATOM    108  F   UNL A   1      38.744  34.157  37.390  1.00  0.00    -0.200 F 
ATOM    109  C   UNL A   1      37.439  33.212  35.663  1.00  0.00     0.200 A 
ATOM    110  F   UNL A   1      36.176  32.245  33.919  1.00  0.00    -0.200 F 
ATOM    111  F   UNL A   1      36.315  33.551  36.310  1.00  0.00    -0.200 F 
ENDBRANCH  78 101
ENDBRANCH  52  53
ENDBRANCH  45  47
ENDBRANCH  44  45
ENDBRANCH  43  44
ENDBRANCH  42  43
ENDBRANCH  41  42
ENDBRANCH  40  41
ENDBRANCH  39  40
ENDBRANCH  38  39
ENDBRANCH  37  38
ENDBRANCH  36  37
ENDBRANCH  35  36
ENDBRANCH   1  35
TORSDOF 30
ENDMDL
