MODEL 1
REMARK VINA RESULT:      -8.9      0.000      0.000
REMARK SMILES CS(=O)(=O)c1ccc(/C=C(/C(=O)OCCOCCOCCOCCOC(=O)c2ccc(-c3c4nc(c(-c5c(F)c(F)c(F)c(F)c5F)c5ccc([nH]5)c(-c5c(F)c(F)c(F)c(F)c5F)c5nc(c(-c6c(F)c(F)c(F)c(F)c6F)c6ccc3[nH]6)C=C5)C=C4)cc2)c2cccc(Br)c2)cc1
REMARK SMILES IDX 19 1 18 2 17 3 16 4 15 5 14 6 13 7 11 8 12 9 10 10 9 11 8 12
REMARK SMILES IDX 5 13 6 14 99 15 7 16 98 17 2 18 1 19 3 20 4 21 91 22 92 23
REMARK SMILES IDX 97 24 93 25 95 26 94 27 96 28 20 29 21 30 22 31 23 32 24 33
REMARK SMILES IDX 25 34 26 35 27 36 28 37 29 38 90 39 30 40 89 41 31 42 32 43
REMARK SMILES IDX 33 44 83 45 34 46 88 47 82 48 84 49 35 50 87 51 81 52 80 53
REMARK SMILES IDX 36 55 68 56 48 57 67 58 49 59 52 60 66 61 85 62 50 63 51 64
REMARK SMILES IDX 65 66 86 67 53 68 37 69 38 70 46 71 39 72 40 73 44 74 47 75
REMARK SMILES IDX 41 76 42 77 45 78 43 79 69 80 70 81 78 82 71 83 72 84 76 85
REMARK SMILES IDX 79 86 73 87 74 88 77 89 75 90 54 91 55 92 63 93 56 94 57 95
REMARK SMILES IDX 61 96 64 97 58 98 59 99 62 100 60 101
REMARK H PARENT 84 54 52 65
REMARK Flexibility Score: inf
ROOT
ATOM      1  O   UNL A   1      37.819  28.357  30.204  1.00  0.00    -0.377 OA
ENDROOT
BRANCH   1   2
ATOM      2  C   UNL A   1      37.540  29.726  29.962  1.00  0.00     0.188 C 
BRANCH   2   3
ATOM      3  C   UNL A   1      37.929  30.333  28.597  1.00  0.00     0.188 C 
BRANCH   3   4
ATOM      4  O   UNL A   1      36.819  30.775  27.826  1.00  0.00    -0.376 OA
BRANCH   4   5
ATOM      5  C   UNL A   1      35.642  31.089  28.552  1.00  0.00     0.202 C 
BRANCH   5   6
ATOM      6  C   UNL A   1      34.403  31.394  27.697  1.00  0.00     0.261 C 
BRANCH   6   7
ATOM      7  O   UNL A   1      33.344  30.425  27.783  1.00  0.00    -0.460 OA
BRANCH   7   8
ATOM      8  C   UNL A   1      32.337  30.523  26.882  1.00  0.00     0.338 C 
ATOM      9  O   UNL A   1      31.693  31.536  26.656  1.00  0.00    -0.246 OA
BRANCH   8  10
ATOM     10  C   UNL A   1      32.202  29.250  26.093  1.00  0.00     0.067 C 
ATOM     11  C   UNL A   1      32.494  28.071  26.697  1.00  0.00     0.024 C 
BRANCH  11  12
ATOM     12  C   UNL A   1      32.272  26.686  26.212  1.00  0.00    -0.025 A 
ATOM     13  C   UNL A   1      32.024  23.926  25.751  1.00  0.00     0.067 A 
ATOM     14  C   UNL A   1      30.884  24.714  25.862  1.00  0.00     0.021 A 
ATOM     15  C   UNL A   1      33.288  24.517  25.734  1.00  0.00     0.021 A 
ATOM     16  C   UNL A   1      31.014  26.091  26.046  1.00  0.00     0.009 A 
ATOM     17  C   UNL A   1      33.405  25.891  25.969  1.00  0.00     0.009 A 
BRANCH  13  18
ATOM     18  S   UNL A   1      31.859  22.158  25.721  1.00  0.00     0.175 S 
ATOM     19  C   UNL A   1      32.260  21.695  24.055  1.00  0.00     0.163 C 
ATOM     20  O   UNL A   1      30.461  21.862  25.962  1.00  0.00    -0.224 OA
ATOM     21  O   UNL A   1      32.902  21.611  26.571  1.00  0.00    -0.224 OA
ENDBRANCH  13  18
ENDBRANCH  11  12
BRANCH  10  22
ATOM     22  C   UNL A   1      31.728  29.353  24.697  1.00  0.00    -0.010 A 
ATOM     23  C   UNL A   1      32.587  29.008  23.636  1.00  0.00     0.009 A 
ATOM     24  C   UNL A   1      30.397  29.669  24.413  1.00  0.00     0.024 A 
ATOM     25  C   UNL A   1      32.126  28.966  22.321  1.00  0.00     0.002 A 
ATOM     26  C   UNL A   1      29.936  29.604  23.097  1.00  0.00     0.018 A 
ATOM     27  C   UNL A   1      30.793  29.257  22.051  1.00  0.00     0.016 A 
ATOM     28  Br  UNL A   1      28.112  29.933  22.733  1.00  0.00    -0.051 Br
ENDBRANCH  10  22
ENDBRANCH   8  10
ENDBRANCH   7   8
ENDBRANCH   6   7
ENDBRANCH   5   6
ENDBRANCH   4   5
ENDBRANCH   3   4
ENDBRANCH   2   3
ENDBRANCH   1   2
BRANCH   1  29
ATOM     29  C   UNL A   1      39.169  27.942  30.358  1.00  0.00     0.188 C 
BRANCH  29  30
ATOM     30  C   UNL A   1      39.946  27.315  29.178  1.00  0.00     0.188 C 
BRANCH  30  31
ATOM     31  O   UNL A   1      39.323  26.185  28.583  1.00  0.00    -0.376 OA
BRANCH  31  32
ATOM     32  C   UNL A   1      40.170  25.242  27.947  1.00  0.00     0.202 C 
BRANCH  32  33
ATOM     33  C   UNL A   1      39.980  25.114  26.431  1.00  0.00     0.261 C 
BRANCH  33  34
ATOM     34  O   UNL A   1      40.750  26.028  25.634  1.00  0.00    -0.460 OA
BRANCH  34  35
ATOM     35  C   UNL A   1      42.095  25.900  25.670  1.00  0.00     0.338 C 
ATOM     36  O   UNL A   1      42.767  24.990  25.232  1.00  0.00    -0.246 OA
BRANCH  35  37
ATOM     37  C   UNL A   1      42.640  27.176  26.178  1.00  0.00     0.060 A 
ATOM     38  C   UNL A   1      43.730  27.149  27.057  1.00  0.00     0.016 A 
ATOM     39  C   UNL A   1      42.091  28.389  25.759  1.00  0.00     0.016 A 
ATOM     40  C   UNL A   1      44.257  28.344  27.547  1.00  0.00     0.010 A 
ATOM     41  C   UNL A   1      42.603  29.583  26.268  1.00  0.00     0.010 A 
ATOM     42  C   UNL A   1      43.666  29.562  27.188  1.00  0.00    -0.014 A 
BRANCH  42  43
ATOM     43  C   UNL A   1      44.006  30.793  27.937  1.00  0.00     0.031 A 
ATOM     44  C   UNL A   1      43.090  31.214  29.053  1.00  0.00     0.074 A 
ATOM     45  C   UNL A   1      45.097  31.520  27.643  1.00  0.00     0.049 A 
ATOM     46  N   UNL A   1      43.140  32.272  29.821  1.00  0.00    -0.248 NA
ATOM     47  C   UNL A   1      41.958  30.316  29.336  1.00  0.00     0.031 C 
ATOM     48  C   UNL A   1      46.079  31.192  26.613  1.00  0.00     0.029 A 
ATOM     49  N   UNL A   1      45.553  32.695  28.187  1.00  0.00    -0.354 N 
ATOM     50  C   UNL A   1      42.045  32.171  30.668  1.00  0.00     0.074 A 
ATOM     51  C   UNL A   1      41.331  30.967  30.301  1.00  0.00     0.031 C 
ATOM     52  C   UNL A   1      47.021  32.151  26.593  1.00  0.00     0.029 A 
ATOM     53  C   UNL A   1      46.688  33.174  27.584  1.00  0.00     0.049 A 
ATOM     54  H   UNL A   1      45.107  33.151  28.937  1.00  0.00     0.167 HD
ATOM     55  C   UNL A   1      41.671  33.005  31.667  1.00  0.00     0.037 A 
ATOM     56  C   UNL A   1      47.364  34.320  27.800  1.00  0.00     0.037 A 
ATOM     57  C   UNL A   1      42.380  34.204  32.022  1.00  0.00     0.049 A 
ATOM     58  C   UNL A   1      46.882  35.275  28.862  1.00  0.00     0.074 A 
ATOM     59  C   UNL A   1      42.101  35.104  33.035  1.00  0.00     0.029 A 
ATOM     60  N   UNL A   1      43.505  34.679  31.363  1.00  0.00    -0.354 N 
ATOM     61  N   UNL A   1      45.868  35.159  29.686  1.00  0.00    -0.248 NA
ATOM     62  C   UNL A   1      47.644  36.522  29.026  1.00  0.00     0.031 C 
ATOM     63  C   UNL A   1      43.019  36.156  32.948  1.00  0.00     0.029 A 
ATOM     64  C   UNL A   1      43.911  35.879  31.925  1.00  0.00     0.049 A 
ATOM     65  H   UNL A   1      43.949  34.230  30.608  1.00  0.00     0.167 HD
ATOM     66  C   UNL A   1      45.888  36.296  30.484  1.00  0.00     0.074 A 
ATOM     67  C   UNL A   1      47.022  37.086  30.053  1.00  0.00     0.031 C 
ATOM     68  C   UNL A   1      45.047  36.652  31.487  1.00  0.00     0.037 A 
BRANCH  55  69
ATOM     69  C   UNL A   1      40.414  32.663  32.413  1.00  0.00     0.064 A 
ATOM     70  C   UNL A   1      39.154  33.114  31.990  1.00  0.00     0.173 A 
ATOM     71  C   UNL A   1      40.472  31.870  33.568  1.00  0.00     0.173 A 
ATOM     72  F   UNL A   1      39.044  33.891  30.901  1.00  0.00    -0.203 F 
ATOM     73  C   UNL A   1      38.005  32.813  32.716  1.00  0.00     0.198 A 
ATOM     74  C   UNL A   1      39.318  31.542  34.273  1.00  0.00     0.198 A 
ATOM     75  F   UNL A   1      41.651  31.411  34.016  1.00  0.00    -0.203 F 
ATOM     76  F   UNL A   1      36.820  33.305  32.328  1.00  0.00    -0.200 F 
ATOM     77  C   UNL A   1      38.086  32.022  33.853  1.00  0.00     0.200 A 
ATOM     78  F   UNL A   1      39.397  30.769  35.364  1.00  0.00    -0.200 F 
ATOM     79  F   UNL A   1      36.980  31.732  34.551  1.00  0.00    -0.200 F 
ENDBRANCH  55  69
BRANCH  56  80
ATOM     80  C   UNL A   1      48.573  34.632  26.991  1.00  0.00     0.064 A 
ATOM     81  C   UNL A   1      48.483  35.416  25.832  1.00  0.00     0.173 A 
ATOM     82  C   UNL A   1      49.838  34.143  27.351  1.00  0.00     0.173 A 
ATOM     83  F   UNL A   1      47.291  35.883  25.432  1.00  0.00    -0.203 F 
ATOM     84  C   UNL A   1      49.609  35.688  25.058  1.00  0.00     0.198 A 
ATOM     85  C   UNL A   1      50.968  34.441  26.591  1.00  0.00     0.198 A 
ATOM     86  F   UNL A   1      49.979  33.384  28.447  1.00  0.00    -0.203 F 
ATOM     87  F   UNL A   1      49.487  36.404  23.932  1.00  0.00    -0.200 F 
ATOM     88  C   UNL A   1      50.852  35.207  25.441  1.00  0.00     0.200 A 
ATOM     89  F   UNL A   1      52.168  33.982  26.971  1.00  0.00    -0.200 F 
ATOM     90  F   UNL A   1      51.935  35.475  24.699  1.00  0.00    -0.200 F 
ENDBRANCH  56  80
BRANCH  68  91
ATOM     91  C   UNL A   1      45.341  37.931  32.220  1.00  0.00     0.064 A 
ATOM     92  C   UNL A   1      46.222  37.974  33.310  1.00  0.00     0.173 A 
ATOM     93  C   UNL A   1      44.766  39.139  31.793  1.00  0.00     0.173 A 
ATOM     94  F   UNL A   1      46.787  36.846  33.766  1.00  0.00    -0.203 F 
ATOM     95  C   UNL A   1      46.496  39.174  33.962  1.00  0.00     0.198 A 
ATOM     96  C   UNL A   1      45.069  40.342  32.426  1.00  0.00     0.198 A 
ATOM     97  F   UNL A   1      43.923  39.155  30.750  1.00  0.00    -0.203 F 
ATOM     98  F   UNL A   1      47.303  39.184  35.032  1.00  0.00    -0.200 F 
ATOM     99  C   UNL A   1      45.928  40.357  33.514  1.00  0.00     0.200 A 
ATOM    100  F   UNL A   1      44.531  41.485  31.980  1.00  0.00    -0.200 F 
ATOM    101  F   UNL A   1      46.201  41.512  34.137  1.00  0.00    -0.200 F 
ENDBRANCH  68  91
ENDBRANCH  42  43
ENDBRANCH  35  37
ENDBRANCH  34  35
ENDBRANCH  33  34
ENDBRANCH  32  33
ENDBRANCH  31  32
ENDBRANCH  30  31
ENDBRANCH  29  30
ENDBRANCH   1  29
TORSDOF 23
ENDMDL
MODEL 2
REMARK VINA RESULT:      -8.8      6.394     11.670
REMARK SMILES CS(=O)(=O)c1ccc(/C=C(/C(=O)OCCOCCOCCOCCOC(=O)c2ccc(-c3c4nc(c(-c5c(F)c(F)c(F)c(F)c5F)c5ccc([nH]5)c(-c5c(F)c(F)c(F)c(F)c5F)c5nc(c(-c6c(F)c(F)c(F)c(F)c6F)c6ccc3[nH]6)C=C5)C=C4)cc2)c2cccc(Br)c2)cc1
REMARK SMILES IDX 19 1 18 2 17 3 16 4 15 5 14 6 13 7 11 8 12 9 10 10 9 11 8 12
REMARK SMILES IDX 5 13 6 14 99 15 7 16 98 17 2 18 1 19 3 20 4 21 91 22 92 23
REMARK SMILES IDX 97 24 93 25 95 26 94 27 96 28 20 29 21 30 22 31 23 32 24 33
REMARK SMILES IDX 25 34 26 35 27 36 28 37 29 38 90 39 30 40 89 41 31 42 32 43
REMARK SMILES IDX 33 44 83 45 34 46 88 47 82 48 84 49 35 50 87 51 81 52 80 53
REMARK SMILES IDX 36 55 68 56 48 57 67 58 49 59 52 60 66 61 85 62 50 63 51 64
REMARK SMILES IDX 65 66 86 67 53 68 37 69 38 70 46 71 39 72 40 73 44 74 47 75
REMARK SMILES IDX 41 76 42 77 45 78 43 79 69 80 70 81 78 82 71 83 72 84 76 85
REMARK SMILES IDX 79 86 73 87 74 88 77 89 75 90 54 91 55 92 63 93 56 94 57 95
REMARK SMILES IDX 61 96 64 97 58 98 59 99 62 100 60 101
REMARK H PARENT 84 54 52 65
REMARK Flexibility Score: inf
ROOT
ATOM      1  O   UNL A   1      38.856  32.740  32.226  1.00  0.00    -0.377 OA
ENDROOT
BRANCH   1   2
ATOM      2  C   UNL A   1      38.212  31.872  33.143  1.00  0.00     0.188 C 
BRANCH   2   3
ATOM      3  C   UNL A   1      39.078  30.942  34.020  1.00  0.00     0.188 C 
BRANCH   3   4
ATOM      4  O   UNL A   1      40.458  31.281  34.030  1.00  0.00    -0.376 OA
BRANCH   4   5
ATOM      5  C   UNL A   1      41.346  30.291  33.534  1.00  0.00     0.202 C 
BRANCH   5   6
ATOM      6  C   UNL A   1      40.682  28.993  33.054  1.00  0.00     0.261 C 
BRANCH   6   7
ATOM      7  O   UNL A   1      41.257  27.781  33.571  1.00  0.00    -0.460 OA
BRANCH   7   8
ATOM      8  C   UNL A   1      41.529  27.738  34.898  1.00  0.00     0.338 C 
ATOM      9  O   UNL A   1      40.878  28.298  35.767  1.00  0.00    -0.246 OA
BRANCH   8  10
ATOM     10  C   UNL A   1      42.665  26.793  35.178  1.00  0.00     0.067 C 
ATOM     11  C   UNL A   1      42.381  25.534  35.598  1.00  0.00     0.024 C 
BRANCH  11  12
ATOM     12  C   UNL A   1      43.289  24.371  35.763  1.00  0.00    -0.025 A 
ATOM     13  C   UNL A   1      45.233  22.347  35.655  1.00  0.00     0.067 A 
ATOM     14  C   UNL A   1      45.270  23.288  36.679  1.00  0.00     0.021 A 
ATOM     15  C   UNL A   1      44.162  22.323  34.761  1.00  0.00     0.021 A 
ATOM     16  C   UNL A   1      44.275  24.264  36.752  1.00  0.00     0.009 A 
ATOM     17  C   UNL A   1      43.200  23.337  34.817  1.00  0.00     0.009 A 
BRANCH  13  18
ATOM     18  S   UNL A   1      46.604  21.237  35.446  1.00  0.00     0.175 S 
ATOM     19  C   UNL A   1      48.020  22.163  35.982  1.00  0.00     0.163 C 
ATOM     20  O   UNL A   1      46.726  20.983  34.024  1.00  0.00    -0.224 OA
ATOM     21  O   UNL A   1      46.429  20.151  36.393  1.00  0.00    -0.224 OA
ENDBRANCH  13  18
ENDBRANCH  11  12
BRANCH  10  22
ATOM     22  C   UNL A   1      44.040  27.283  34.952  1.00  0.00    -0.010 A 
ATOM     23  C   UNL A   1      44.786  26.803  33.859  1.00  0.00     0.009 A 
ATOM     24  C   UNL A   1      44.572  28.313  35.733  1.00  0.00     0.024 A 
ATOM     25  C   UNL A   1      46.031  27.346  33.542  1.00  0.00     0.002 A 
ATOM     26  C   UNL A   1      45.809  28.866  35.398  1.00  0.00     0.018 A 
ATOM     27  C   UNL A   1      46.541  28.388  34.310  1.00  0.00     0.016 A 
ATOM     28  Br  UNL A   1      46.477  30.324  36.397  1.00  0.00    -0.051 Br
ENDBRANCH  10  22
ENDBRANCH   8  10
ENDBRANCH   7   8
ENDBRANCH   6   7
ENDBRANCH   5   6
ENDBRANCH   4   5
ENDBRANCH   3   4
ENDBRANCH   2   3
ENDBRANCH   1   2
BRANCH   1  29
ATOM     29  C   UNL A   1      38.226  33.026  30.985  1.00  0.00     0.188 C 
BRANCH  29  30
ATOM     30  C   UNL A   1      36.964  33.916  30.921  1.00  0.00     0.188 C 
BRANCH  30  31
ATOM     31  O   UNL A   1      35.732  33.220  31.051  1.00  0.00    -0.376 OA
BRANCH  31  32
ATOM     32  C   UNL A   1      34.734  33.489  30.080  1.00  0.00     0.202 C 
BRANCH  32  33
ATOM     33  C   UNL A   1      34.425  32.329  29.126  1.00  0.00     0.261 C 
BRANCH  33  34
ATOM     34  O   UNL A   1      35.570  31.713  28.514  1.00  0.00    -0.460 OA
BRANCH  34  35
ATOM     35  C   UNL A   1      35.519  30.378  28.306  1.00  0.00     0.338 C 
ATOM     36  O   UNL A   1      34.568  29.718  27.942  1.00  0.00    -0.246 OA
BRANCH  35  37
ATOM     37  C   UNL A   1      36.900  29.868  28.419  1.00  0.00     0.060 A 
ATOM     38  C   UNL A   1      37.352  29.392  29.657  1.00  0.00     0.016 A 
ATOM     39  C   UNL A   1      37.729  29.834  27.296  1.00  0.00     0.016 A 
ATOM     40  C   UNL A   1      38.654  28.906  29.781  1.00  0.00     0.010 A 
ATOM     41  C   UNL A   1      39.038  29.370  27.427  1.00  0.00     0.010 A 
ATOM     42  C   UNL A   1      39.514  28.936  28.676  1.00  0.00    -0.014 A 
BRANCH  42  43
ATOM     43  C   UNL A   1      40.967  28.726  28.870  1.00  0.00     0.031 A 
ATOM     44  C   UNL A   1      41.558  27.424  28.409  1.00  0.00     0.074 A 
ATOM     45  C   UNL A   1      41.746  29.663  29.437  1.00  0.00     0.049 A 
ATOM     46  N   UNL A   1      42.785  26.980  28.510  1.00  0.00    -0.248 NA
ATOM     47  C   UNL A   1      40.632  26.491  27.744  1.00  0.00     0.031 C 
ATOM     48  C   UNL A   1      41.297  30.977  29.886  1.00  0.00     0.029 A 
ATOM     49  N   UNL A   1      43.085  29.640  29.736  1.00  0.00    -0.354 N 
ATOM     50  C   UNL A   1      42.774  25.717  27.932  1.00  0.00     0.074 A 
ATOM     51  C   UNL A   1      41.416  25.452  27.512  1.00  0.00     0.031 C 
ATOM     52  C   UNL A   1      42.344  31.635  30.415  1.00  0.00     0.029 A 
ATOM     53  C   UNL A   1      43.526  30.774  30.370  1.00  0.00     0.049 A 
ATOM     54  H   UNL A   1      43.674  28.881  29.518  1.00  0.00     0.167 HD
ATOM     55  C   UNL A   1      43.807  24.858  27.764  1.00  0.00     0.037 A 
ATOM     56  C   UNL A   1      44.741  31.068  30.872  1.00  0.00     0.037 A 
ATOM     57  C   UNL A   1      45.153  25.124  28.191  1.00  0.00     0.049 A 
ATOM     58  C   UNL A   1      45.857  30.062  30.746  1.00  0.00     0.074 A 
ATOM     59  C   UNL A   1      46.278  24.332  28.044  1.00  0.00     0.029 A 
ATOM     60  N   UNL A   1      45.555  26.268  28.866  1.00  0.00    -0.354 N 
ATOM     61  N   UNL A   1      45.853  28.884  30.167  1.00  0.00    -0.248 NA
ATOM     62  C   UNL A   1      47.150  30.429  31.342  1.00  0.00     0.031 C 
ATOM     63  C   UNL A   1      47.346  24.969  28.685  1.00  0.00     0.029 A 
ATOM     64  C   UNL A   1      46.903  26.188  29.173  1.00  0.00     0.049 A 
ATOM     65  H   UNL A   1      44.968  27.026  29.092  1.00  0.00     0.167 HD
ATOM     66  C   UNL A   1      47.143  28.386  30.301  1.00  0.00     0.074 A 
ATOM     67  C   UNL A   1      47.907  29.393  31.006  1.00  0.00     0.031 C 
ATOM     68  C   UNL A   1      47.652  27.204  29.873  1.00  0.00     0.037 A 
BRANCH  55  69
ATOM     69  C   UNL A   1      43.502  23.534  27.125  1.00  0.00     0.064 A 
ATOM     70  C   UNL A   1      42.812  22.521  27.810  1.00  0.00     0.173 A 
ATOM     71  C   UNL A   1      43.905  23.276  25.807  1.00  0.00     0.173 A 
ATOM     72  F   UNL A   1      42.420  22.710  29.079  1.00  0.00    -0.203 F 
ATOM     73  C   UNL A   1      42.569  21.288  27.209  1.00  0.00     0.198 A 
ATOM     74  C   UNL A   1      43.631  22.055  25.198  1.00  0.00     0.198 A 
ATOM     75  F   UNL A   1      44.567  24.210  25.106  1.00  0.00    -0.203 F 
ATOM     76  F   UNL A   1      41.963  20.315  27.903  1.00  0.00    -0.200 F 
ATOM     77  C   UNL A   1      42.973  21.059  25.903  1.00  0.00     0.200 A 
ATOM     78  F   UNL A   1      44.012  21.839  23.932  1.00  0.00    -0.200 F 
ATOM     79  F   UNL A   1      42.738  19.873  25.325  1.00  0.00    -0.200 F 
ENDBRANCH  55  69
BRANCH  56  80
ATOM     80  C   UNL A   1      44.970  32.375  31.543  1.00  0.00     0.064 A 
ATOM     81  C   UNL A   1      45.323  33.514  30.805  1.00  0.00     0.173 A 
ATOM     82  C   UNL A   1      44.855  32.511  32.934  1.00  0.00     0.173 A 
ATOM     83  F   UNL A   1      45.474  33.428  29.475  1.00  0.00    -0.203 F 
ATOM     84  C   UNL A   1      45.564  34.734  31.434  1.00  0.00     0.198 A 
ATOM     85  C   UNL A   1      45.067  33.739  33.559  1.00  0.00     0.198 A 
ATOM     86  F   UNL A   1      44.525  31.452  33.689  1.00  0.00    -0.203 F 
ATOM     87  F   UNL A   1      45.942  35.795  30.708  1.00  0.00    -0.200 F 
ATOM     88  C   UNL A   1      45.429  34.848  32.809  1.00  0.00     0.200 A 
ATOM     89  F   UNL A   1      44.925  33.847  34.887  1.00  0.00    -0.200 F 
ATOM     90  F   UNL A   1      45.654  36.023  33.411  1.00  0.00    -0.200 F 
ENDBRANCH  56  80
BRANCH  68  91
ATOM     91  C   UNL A   1      49.112  26.946  30.116  1.00  0.00     0.064 A 
ATOM     92  C   UNL A   1      50.093  27.305  29.180  1.00  0.00     0.173 A 
ATOM     93  C   UNL A   1      49.538  26.373  31.325  1.00  0.00     0.173 A 
ATOM     94  F   UNL A   1      49.739  27.843  28.004  1.00  0.00    -0.203 F 
ATOM     95  C   UNL A   1      51.443  27.076  29.434  1.00  0.00     0.198 A 
ATOM     96  C   UNL A   1      50.891  26.177  31.590  1.00  0.00     0.198 A 
ATOM     97  F   UNL A   1      48.642  26.019  32.258  1.00  0.00    -0.203 F 
ATOM     98  F   UNL A   1      52.360  27.381  28.505  1.00  0.00    -0.200 F 
ATOM     99  C   UNL A   1      51.842  26.522  30.642  1.00  0.00     0.200 A 
ATOM    100  F   UNL A   1      51.274  25.656  32.764  1.00  0.00    -0.200 F 
ATOM    101  F   UNL A   1      53.142  26.312  30.888  1.00  0.00    -0.200 F 
ENDBRANCH  68  91
ENDBRANCH  42  43
ENDBRANCH  35  37
ENDBRANCH  34  35
ENDBRANCH  33  34
ENDBRANCH  32  33
ENDBRANCH  31  32
ENDBRANCH  30  31
ENDBRANCH  29  30
ENDBRANCH   1  29
TORSDOF 23
ENDMDL
MODEL 3
REMARK VINA RESULT:      -8.6      3.615      7.368
REMARK SMILES CS(=O)(=O)c1ccc(/C=C(/C(=O)OCCOCCOCCOCCOC(=O)c2ccc(-c3c4nc(c(-c5c(F)c(F)c(F)c(F)c5F)c5ccc([nH]5)c(-c5c(F)c(F)c(F)c(F)c5F)c5nc(c(-c6c(F)c(F)c(F)c(F)c6F)c6ccc3[nH]6)C=C5)C=C4)cc2)c2cccc(Br)c2)cc1
REMARK SMILES IDX 19 1 18 2 17 3 16 4 15 5 14 6 13 7 11 8 12 9 10 10 9 11 8 12
REMARK SMILES IDX 5 13 6 14 99 15 7 16 98 17 2 18 1 19 3 20 4 21 91 22 92 23
REMARK SMILES IDX 97 24 93 25 95 26 94 27 96 28 20 29 21 30 22 31 23 32 24 33
REMARK SMILES IDX 25 34 26 35 27 36 28 37 29 38 90 39 30 40 89 41 31 42 32 43
REMARK SMILES IDX 33 44 83 45 34 46 88 47 82 48 84 49 35 50 87 51 81 52 80 53
REMARK SMILES IDX 36 55 68 56 48 57 67 58 49 59 52 60 66 61 85 62 50 63 51 64
REMARK SMILES IDX 65 66 86 67 53 68 37 69 38 70 46 71 39 72 40 73 44 74 47 75
REMARK SMILES IDX 41 76 42 77 45 78 43 79 69 80 70 81 78 82 71 83 72 84 76 85
REMARK SMILES IDX 79 86 73 87 74 88 77 89 75 90 54 91 55 92 63 93 56 94 57 95
REMARK SMILES IDX 61 96 64 97 58 98 59 99 62 100 60 101
REMARK H PARENT 84 54 52 65
REMARK Flexibility Score: inf
ROOT
ATOM      1  O   UNL A   1      35.024  34.603  29.130  1.00  0.00    -0.377 OA
ENDROOT
BRANCH   1   2
ATOM      2  C   UNL A   1      34.230  34.098  28.070  1.00  0.00     0.188 C 
BRANCH   2   3
ATOM      3  C   UNL A   1      33.683  32.658  28.173  1.00  0.00     0.188 C 
BRANCH   3   4
ATOM      4  O   UNL A   1      34.412  31.708  27.407  1.00  0.00    -0.376 OA
BRANCH   4   5
ATOM      5  C   UNL A   1      33.658  30.636  26.863  1.00  0.00     0.202 C 
BRANCH   5   6
ATOM      6  C   UNL A   1      33.667  29.341  27.687  1.00  0.00     0.261 C 
BRANCH   6   7
ATOM      7  O   UNL A   1      33.552  28.127  26.925  1.00  0.00    -0.460 OA
BRANCH   7   8
ATOM      8  C   UNL A   1      32.385  27.444  27.017  1.00  0.00     0.338 C 
ATOM      9  O   UNL A   1      31.438  27.762  27.719  1.00  0.00    -0.246 OA
BRANCH   8  10
ATOM     10  C   UNL A   1      32.354  26.308  26.031  1.00  0.00     0.067 C 
ATOM     11  C   UNL A   1      32.686  25.063  26.457  1.00  0.00     0.024 C 
BRANCH  11  12
ATOM     12  C   UNL A   1      32.561  23.764  25.749  1.00  0.00    -0.025 A 
ATOM     13  C   UNL A   1      32.631  21.130  24.776  1.00  0.00     0.067 A 
ATOM     14  C   UNL A   1      31.452  21.638  25.311  1.00  0.00     0.021 A 
ATOM     15  C   UNL A   1      33.738  21.960  24.599  1.00  0.00     0.021 A 
ATOM     16  C   UNL A   1      31.412  22.962  25.752  1.00  0.00     0.009 A 
ATOM     17  C   UNL A   1      33.698  23.269  25.089  1.00  0.00     0.009 A 
BRANCH  13  18
ATOM     18  S   UNL A   1      32.740  19.396  24.406  1.00  0.00     0.175 S 
ATOM     19  C   UNL A   1      34.463  19.005  24.578  1.00  0.00     0.163 C 
ATOM     20  O   UNL A   1      32.364  19.239  23.016  1.00  0.00    -0.224 OA
ATOM     21  O   UNL A   1      32.040  18.685  25.461  1.00  0.00    -0.224 OA
ENDBRANCH  13  18
ENDBRANCH  11  12
BRANCH  10  22
ATOM     22  C   UNL A   1      31.934  26.609  24.648  1.00  0.00    -0.010 A 
ATOM     23  C   UNL A   1      32.425  25.836  23.579  1.00  0.00     0.009 A 
ATOM     24  C   UNL A   1      30.956  27.573  24.389  1.00  0.00     0.024 A 
ATOM     25  C   UNL A   1      31.943  26.009  22.282  1.00  0.00     0.002 A 
ATOM     26  C   UNL A   1      30.462  27.727  23.093  1.00  0.00     0.018 A 
ATOM     27  C   UNL A   1      30.951  26.953  22.040  1.00  0.00     0.016 A 
ATOM     28  Br  UNL A   1      29.068  28.962  22.768  1.00  0.00    -0.051 Br
ENDBRANCH  10  22
ENDBRANCH   8  10
ENDBRANCH   7   8
ENDBRANCH   6   7
ENDBRANCH   5   6
ENDBRANCH   4   5
ENDBRANCH   3   4
ENDBRANCH   2   3
ENDBRANCH   1   2
BRANCH   1  29
ATOM     29  C   UNL A   1      35.313  33.764  30.240  1.00  0.00     0.188 C 
BRANCH  29  30
ATOM     30  C   UNL A   1      36.644  32.982  30.318  1.00  0.00     0.188 C 
BRANCH  30  31
ATOM     31  O   UNL A   1      37.173  32.828  31.627  1.00  0.00    -0.376 OA
BRANCH  31  32
ATOM     32  C   UNL A   1      36.601  31.817  32.441  1.00  0.00     0.202 C 
BRANCH  32  33
ATOM     33  C   UNL A   1      36.288  30.501  31.719  1.00  0.00     0.261 C 
BRANCH  33  34
ATOM     34  O   UNL A   1      37.431  29.710  31.357  1.00  0.00    -0.460 OA
BRANCH  34  35
ATOM     35  C   UNL A   1      38.398  29.555  32.288  1.00  0.00     0.338 C 
ATOM     36  O   UNL A   1      38.314  28.995  33.362  1.00  0.00    -0.246 OA
BRANCH  35  37
ATOM     37  C   UNL A   1      39.661  30.030  31.687  1.00  0.00     0.060 A 
ATOM     38  C   UNL A   1      40.629  30.619  32.511  1.00  0.00     0.016 A 
ATOM     39  C   UNL A   1      39.894  29.863  30.321  1.00  0.00     0.016 A 
ATOM     40  C   UNL A   1      41.827  31.074  31.960  1.00  0.00     0.010 A 
ATOM     41  C   UNL A   1      41.083  30.339  29.767  1.00  0.00     0.010 A 
ATOM     42  C   UNL A   1      42.038  30.975  30.579  1.00  0.00    -0.014 A 
BRANCH  42  43
ATOM     43  C   UNL A   1      43.146  31.728  29.949  1.00  0.00     0.031 A 
ATOM     44  C   UNL A   1      44.443  31.006  29.714  1.00  0.00     0.074 A 
ATOM     45  C   UNL A   1      43.010  33.015  29.589  1.00  0.00     0.049 A 
ATOM     46  N   UNL A   1      45.572  31.454  29.228  1.00  0.00    -0.248 NA
ATOM     47  C   UNL A   1      44.469  29.582  30.086  1.00  0.00     0.031 C 
ATOM     48  C   UNL A   1      41.791  33.807  29.728  1.00  0.00     0.029 A 
ATOM     49  N   UNL A   1      43.919  33.883  29.038  1.00  0.00    -0.354 N 
ATOM     50  C   UNL A   1      46.442  30.371  29.245  1.00  0.00     0.074 A 
ATOM     51  C   UNL A   1      45.722  29.255  29.817  1.00  0.00     0.031 C 
ATOM     52  C   UNL A   1      42.031  35.052  29.280  1.00  0.00     0.029 A 
ATOM     53  C   UNL A   1      43.428  35.151  28.856  1.00  0.00     0.049 A 
ATOM     54  H   UNL A   1      44.837  33.620  28.797  1.00  0.00     0.167 HD
ATOM     55  C   UNL A   1      47.724  30.313  28.816  1.00  0.00     0.037 A 
ATOM     56  C   UNL A   1      44.047  36.264  28.417  1.00  0.00     0.037 A 
ATOM     57  C   UNL A   1      48.437  31.428  28.255  1.00  0.00     0.049 A 
ATOM     58  C   UNL A   1      45.500  36.195  28.022  1.00  0.00     0.074 A 
ATOM     59  C   UNL A   1      49.731  31.468  27.765  1.00  0.00     0.029 A 
ATOM     60  N   UNL A   1      47.920  32.709  28.123  1.00  0.00    -0.354 N 
ATOM     61  N   UNL A   1      46.309  35.162  28.005  1.00  0.00    -0.248 NA
ATOM     62  C   UNL A   1      46.127  37.450  27.581  1.00  0.00     0.031 C 
ATOM     63  C   UNL A   1      50.016  32.787  27.396  1.00  0.00     0.029 A 
ATOM     64  C   UNL A   1      48.880  33.555  27.592  1.00  0.00     0.049 A 
ATOM     65  H   UNL A   1      47.005  32.977  28.370  1.00  0.00     0.167 HD
ATOM     66  C   UNL A   1      47.525  35.633  27.524  1.00  0.00     0.074 A 
ATOM     67  C   UNL A   1      47.345  37.043  27.250  1.00  0.00     0.031 C 
ATOM     68  C   UNL A   1      48.683  34.958  27.321  1.00  0.00     0.037 A 
BRANCH  55  69
ATOM     69  C   UNL A   1      48.445  29.006  28.981  1.00  0.00     0.064 A 
ATOM     70  C   UNL A   1      49.182  28.705  30.137  1.00  0.00     0.173 A 
ATOM     71  C   UNL A   1      48.396  28.040  27.965  1.00  0.00     0.173 A 
ATOM     72  F   UNL A   1      49.277  29.603  31.130  1.00  0.00    -0.203 F 
ATOM     73  C   UNL A   1      49.870  27.501  30.254  1.00  0.00     0.198 A 
ATOM     74  C   UNL A   1      49.057  26.823  28.100  1.00  0.00     0.198 A 
ATOM     75  F   UNL A   1      47.705  28.275  26.839  1.00  0.00    -0.203 F 
ATOM     76  F   UNL A   1      50.617  27.260  31.340  1.00  0.00    -0.200 F 
ATOM     77  C   UNL A   1      49.802  26.558  29.239  1.00  0.00     0.200 A 
ATOM     78  F   UNL A   1      48.980  25.909  27.123  1.00  0.00    -0.200 F 
ATOM     79  F   UNL A   1      50.463  25.398  29.353  1.00  0.00    -0.200 F 
ENDBRANCH  55  69
BRANCH  56  80
ATOM     80  C   UNL A   1      43.296  37.544  28.327  1.00  0.00     0.064 A 
ATOM     81  C   UNL A   1      43.346  38.485  29.366  1.00  0.00     0.173 A 
ATOM     82  C   UNL A   1      42.505  37.850  27.209  1.00  0.00     0.173 A 
ATOM     83  F   UNL A   1      44.066  38.226  30.467  1.00  0.00    -0.203 F 
ATOM     84  C   UNL A   1      42.622  39.674  29.296  1.00  0.00     0.198 A 
ATOM     85  C   UNL A   1      41.805  39.053  27.129  1.00  0.00     0.198 A 
ATOM     86  F   UNL A   1      42.418  36.983  26.189  1.00  0.00    -0.203 F 
ATOM     87  F   UNL A   1      42.654  40.534  30.323  1.00  0.00    -0.200 F 
ATOM     88  C   UNL A   1      41.858  39.960  28.175  1.00  0.00     0.200 A 
ATOM     89  F   UNL A   1      41.077  39.330  26.038  1.00  0.00    -0.200 F 
ATOM     90  F   UNL A   1      41.169  41.107  28.107  1.00  0.00    -0.200 F 
ENDBRANCH  56  80
BRANCH  68  91
ATOM     91  C   UNL A   1      49.840  35.721  26.739  1.00  0.00     0.064 A 
ATOM     92  C   UNL A   1      50.806  36.335  27.549  1.00  0.00     0.173 A 
ATOM     93  C   UNL A   1      50.008  35.797  25.347  1.00  0.00     0.173 A 
ATOM     94  F   UNL A   1      50.685  36.304  28.885  1.00  0.00    -0.203 F 
ATOM     95  C   UNL A   1      51.881  37.019  26.988  1.00  0.00     0.198 A 
ATOM     96  C   UNL A   1      51.104  36.452  24.790  1.00  0.00     0.198 A 
ATOM     97  F   UNL A   1      49.119  35.219  24.525  1.00  0.00    -0.203 F 
ATOM     98  F   UNL A   1      52.765  37.641  27.782  1.00  0.00    -0.200 F 
ATOM     99  C   UNL A   1      52.035  37.069  25.611  1.00  0.00     0.200 A 
ATOM    100  F   UNL A   1      51.258  36.485  23.459  1.00  0.00    -0.200 F 
ATOM    101  F   UNL A   1      53.076  37.720  25.074  1.00  0.00    -0.200 F 
ENDBRANCH  68  91
ENDBRANCH  42  43
ENDBRANCH  35  37
ENDBRANCH  34  35
ENDBRANCH  33  34
ENDBRANCH  32  33
ENDBRANCH  31  32
ENDBRANCH  30  31
ENDBRANCH  29  30
ENDBRANCH   1  29
TORSDOF 23
ENDMDL
