MODEL 1
REMARK VINA RESULT:     -11.6      0.000      0.000
REMARK SMILES Cc1ccn(CC(=O)N2CCC3(CC2)NC(=O)C[C@@H]3C(=O)OCCOCCOCCOCCOC(=O)c2ccc(-c3c4nc(c(-c5c(F)c(F)c(F)c(F)c5F)c5ccc([nH]5)c(-c5c(F)c(F)c(F)c(F)c5F)c5nc(c(-c6c(F)c(F)c(F)c(F)c6F)c6ccc3[nH]6)C=C5)C=C4)cc2)n1
REMARK SMILES IDX 28 1 27 2 26 3 25 4 24 5 23 6 22 7 20 8 21 9 19 10 7 11 8 12
REMARK SMILES IDX 9 13 10 14 14 15 11 16 13 17 12 18 15 19 16 20 18 22 17 23
REMARK SMILES IDX 6 24 5 25 1 26 2 27 3 28 100 29 4 30 29 31 30 32 31 33 32 34
REMARK SMILES IDX 33 35 34 36 35 37 36 38 37 39 38 40 99 41 39 42 98 43 40 44
REMARK SMILES IDX 41 45 42 46 92 47 43 48 97 49 91 50 93 51 44 52 96 53 90 54
REMARK SMILES IDX 89 55 45 57 77 58 57 59 76 60 58 61 61 62 75 63 94 64 59 65
REMARK SMILES IDX 60 66 74 68 95 69 62 70 46 71 47 72 55 73 48 74 49 75 53 76
REMARK SMILES IDX 56 77 50 78 51 79 54 80 52 81 78 82 79 83 87 84 80 85 81 86
REMARK SMILES IDX 85 87 88 88 82 89 83 90 86 91 84 92 63 93 64 94 72 95 65 96
REMARK SMILES IDX 66 97 70 98 73 99 67 100 68 101 71 102 69 103
REMARK H PARENT 15 21 93 56 61 67
REMARK Flexibility Score: inf
ROOT
ATOM      1  O   UNL A   1      41.811  20.728  25.724  1.00  0.00    -0.377 OA
ENDROOT
BRANCH   1   2
ATOM      2  C   UNL A   1      40.560  20.369  26.292  1.00  0.00     0.188 C 
BRANCH   2   3
ATOM      3  C   UNL A   1      39.661  21.586  26.484  1.00  0.00     0.188 C 
BRANCH   3   4
ATOM      4  O   UNL A   1      38.770  21.856  25.403  1.00  0.00    -0.376 OA
BRANCH   4   5
ATOM      5  C   UNL A   1      37.657  20.974  25.229  1.00  0.00     0.202 C 
BRANCH   5   6
ATOM      6  C   UNL A   1      36.263  21.619  25.228  1.00  0.00     0.261 C 
BRANCH   6   7
ATOM      7  O   UNL A   1      35.588  21.543  26.509  1.00  0.00    -0.463 OA
BRANCH   7   8
ATOM      8  C   UNL A   1      34.261  21.306  26.489  1.00  0.00     0.311 C 
ATOM      9  O   UNL A   1      33.535  21.399  27.475  1.00  0.00    -0.252 OA
BRANCH   8  10
ATOM     10  C   UNL A   1      33.679  20.983  25.131  1.00  0.00     0.134 C 
ATOM     11  C   UNL A   1      31.596  25.756  25.783  1.00  0.00     0.244 C 
ATOM     12  O   UNL A   1      31.075  25.950  26.888  1.00  0.00    -0.273 OA
ATOM     13  N   UNL A   1      31.919  24.463  25.373  1.00  0.00    -0.341 N 
ATOM     14  C   UNL A   1      31.223  23.356  26.014  1.00  0.00     0.122 C 
ATOM     15  C   UNL A   1      33.214  24.124  24.799  1.00  0.00     0.122 C 
ATOM     16  C   UNL A   1      31.233  22.078  25.169  1.00  0.00     0.051 C 
ATOM     17  C   UNL A   1      33.071  23.035  23.759  1.00  0.00     0.051 C 
ATOM     18  C   UNL A   1      32.543  21.757  24.419  1.00  0.00     0.057 C 
ATOM     19  N   UNL A   1      32.203  20.780  23.382  1.00  0.00    -0.350 N 
ATOM     20  C   UNL A   1      32.534  19.491  23.720  1.00  0.00     0.221 C 
ATOM     21  H   UNL A   1      31.780  21.024  22.528  1.00  0.00     0.164 HD
ATOM     22  C   UNL A   1      33.278  19.512  25.019  1.00  0.00     0.117 C 
ATOM     23  O   UNL A   1      32.224  18.492  23.074  1.00  0.00    -0.275 OA
BRANCH  11  24
ATOM     24  C   UNL A   1      31.623  26.886  24.767  1.00  0.00     0.244 C 
BRANCH  24  25
ATOM     25  N   UNL A   1      32.085  28.167  25.253  1.00  0.00    -0.263 N 
ATOM     26  C   UNL A   1      34.412  29.896  27.275  1.00  0.00     0.069 C 
ATOM     27  C   UNL A   1      33.311  29.485  26.372  1.00  0.00     0.059 A 
ATOM     28  C   UNL A   1      32.178  30.232  25.967  1.00  0.00     0.045 A 
ATOM     29  N   UNL A   1      33.274  28.239  25.888  1.00  0.00    -0.178 NA
ATOM     30  C   UNL A   1      31.420  29.358  25.222  1.00  0.00     0.109 A 
ENDBRANCH  24  25
ENDBRANCH  11  24
ENDBRANCH   8  10
ENDBRANCH   7   8
ENDBRANCH   6   7
ENDBRANCH   5   6
ENDBRANCH   4   5
ENDBRANCH   3   4
ENDBRANCH   2   3
ENDBRANCH   1   2
BRANCH   1  31
ATOM     31  C   UNL A   1      42.884  19.789  25.761  1.00  0.00     0.188 C 
BRANCH  31  32
ATOM     32  C   UNL A   1      44.226  20.211  25.159  1.00  0.00     0.188 C 
BRANCH  32  33
ATOM     33  O   UNL A   1      44.230  21.311  24.236  1.00  0.00    -0.376 OA
BRANCH  33  34
ATOM     34  C   UNL A   1      45.273  22.288  24.276  1.00  0.00     0.202 C 
BRANCH  34  35
ATOM     35  C   UNL A   1      44.822  23.697  24.626  1.00  0.00     0.261 C 
BRANCH  35  36
ATOM     36  O   UNL A   1      43.430  23.661  24.908  1.00  0.00    -0.460 OA
BRANCH  36  37
ATOM     37  C   UNL A   1      42.915  24.821  25.362  1.00  0.00     0.338 C 
ATOM     38  O   UNL A   1      43.391  25.948  25.202  1.00  0.00    -0.246 OA
BRANCH  37  39
ATOM     39  C   UNL A   1      41.675  24.537  26.147  1.00  0.00     0.060 A 
ATOM     40  C   UNL A   1      40.688  25.459  25.797  1.00  0.00     0.016 A 
ATOM     41  C   UNL A   1      41.954  24.272  27.491  1.00  0.00     0.016 A 
ATOM     42  C   UNL A   1      40.541  26.526  26.646  1.00  0.00     0.010 A 
ATOM     43  C   UNL A   1      41.890  25.358  28.321  1.00  0.00     0.010 A 
ATOM     44  C   UNL A   1      41.265  26.510  27.840  1.00  0.00    -0.014 A 
BRANCH  44  45
ATOM     45  C   UNL A   1      41.282  27.706  28.639  1.00  0.00     0.031 A 
ATOM     46  C   UNL A   1      42.415  28.583  28.297  1.00  0.00     0.074 A 
ATOM     47  C   UNL A   1      40.283  28.028  29.476  1.00  0.00     0.049 A 
ATOM     48  N   UNL A   1      43.443  28.865  29.023  1.00  0.00    -0.248 NA
ATOM     49  C   UNL A   1      42.516  29.027  26.897  1.00  0.00     0.031 C 
ATOM     50  C   UNL A   1      38.980  27.383  29.640  1.00  0.00     0.029 A 
ATOM     51  N   UNL A   1      40.191  29.123  30.271  1.00  0.00    -0.354 N 
ATOM     52  C   UNL A   1      44.232  29.675  28.218  1.00  0.00     0.074 A 
ATOM     53  C   UNL A   1      43.751  29.520  26.873  1.00  0.00     0.031 C 
ATOM     54  C   UNL A   1      38.152  28.232  30.293  1.00  0.00     0.029 A 
ATOM     55  C   UNL A   1      38.895  29.427  30.659  1.00  0.00     0.049 A 
ATOM     56  H   UNL A   1      40.971  29.653  30.548  1.00  0.00     0.167 HD
ATOM     57  C   UNL A   1      45.023  30.642  28.746  1.00  0.00     0.037 A 
ATOM     58  C   UNL A   1      38.497  30.656  31.074  1.00  0.00     0.037 A 
ATOM     59  C   UNL A   1      45.261  30.421  30.149  1.00  0.00     0.049 A 
ATOM     60  C   UNL A   1      39.727  31.398  31.493  1.00  0.00     0.074 A 
ATOM     61  C   UNL A   1      45.785  29.367  30.876  1.00  0.00     0.029 A 
ATOM     62  N   UNL A   1      44.582  31.195  31.060  1.00  0.00    -0.354 N 
ATOM     63  N   UNL A   1      40.454  31.078  32.532  1.00  0.00    -0.248 NA
ATOM     64  C   UNL A   1      40.414  32.197  30.485  1.00  0.00     0.031 C 
ATOM     65  C   UNL A   1      44.988  29.297  32.057  1.00  0.00     0.029 A 
ATOM     66  C   UNL A   1      44.065  30.342  32.003  1.00  0.00     0.049 A 
ATOM     67  H   UNL A   1      44.484  32.174  31.039  1.00  0.00     0.167 HD
ATOM     68  C   UNL A   1      41.769  31.272  32.127  1.00  0.00     0.074 A 
ATOM     69  C   UNL A   1      41.679  32.032  30.885  1.00  0.00     0.031 C 
ATOM     70  C   UNL A   1      42.799  30.553  32.664  1.00  0.00     0.037 A 
BRANCH  57  71
ATOM     71  C   UNL A   1      45.262  31.966  28.067  1.00  0.00     0.064 A 
ATOM     72  C   UNL A   1      44.165  32.809  27.824  1.00  0.00     0.173 A 
ATOM     73  C   UNL A   1      46.464  32.327  27.415  1.00  0.00     0.173 A 
ATOM     74  F   UNL A   1      42.968  32.545  28.369  1.00  0.00    -0.203 F 
ATOM     75  C   UNL A   1      44.250  33.891  26.946  1.00  0.00     0.198 A 
ATOM     76  C   UNL A   1      46.564  33.446  26.594  1.00  0.00     0.198 A 
ATOM     77  F   UNL A   1      47.561  31.561  27.442  1.00  0.00    -0.203 F 
ATOM     78  F   UNL A   1      43.148  34.589  26.646  1.00  0.00    -0.200 F 
ATOM     79  C   UNL A   1      45.449  34.208  26.331  1.00  0.00     0.200 A 
ATOM     80  F   UNL A   1      47.732  33.722  25.998  1.00  0.00    -0.200 F 
ATOM     81  F   UNL A   1      45.519  35.213  25.448  1.00  0.00    -0.200 F 
ENDBRANCH  57  71
BRANCH  58  82
ATOM     82  C   UNL A   1      37.211  31.323  30.740  1.00  0.00     0.064 A 
ATOM     83  C   UNL A   1      36.265  31.611  31.737  1.00  0.00     0.173 A 
ATOM     84  C   UNL A   1      36.970  31.904  29.477  1.00  0.00     0.173 A 
ATOM     85  F   UNL A   1      36.443  31.155  32.986  1.00  0.00    -0.203 F 
ATOM     86  C   UNL A   1      35.153  32.425  31.485  1.00  0.00     0.198 A 
ATOM     87  C   UNL A   1      35.852  32.697  29.220  1.00  0.00     0.198 A 
ATOM     88  F   UNL A   1      37.857  31.796  28.477  1.00  0.00    -0.203 F 
ATOM     89  F   UNL A   1      34.304  32.723  32.478  1.00  0.00    -0.200 F 
ATOM     90  C   UNL A   1      34.949  32.968  30.227  1.00  0.00     0.200 A 
ATOM     91  F   UNL A   1      35.691  33.244  28.006  1.00  0.00    -0.200 F 
ATOM     92  F   UNL A   1      33.910  33.781  29.995  1.00  0.00    -0.200 F 
ENDBRANCH  58  82
BRANCH  70  93
ATOM     93  C   UNL A   1      42.525  29.699  33.871  1.00  0.00     0.064 A 
ATOM     94  C   UNL A   1      42.012  28.391  33.796  1.00  0.00     0.173 A 
ATOM     95  C   UNL A   1      42.967  30.143  35.124  1.00  0.00     0.173 A 
ATOM     96  F   UNL A   1      41.680  27.851  32.618  1.00  0.00    -0.203 F 
ATOM     97  C   UNL A   1      41.903  27.588  34.929  1.00  0.00     0.198 A 
ATOM     98  C   UNL A   1      42.895  29.323  36.249  1.00  0.00     0.198 A 
ATOM     99  F   UNL A   1      43.526  31.356  35.249  1.00  0.00    -0.203 F 
ATOM    100  F   UNL A   1      41.402  26.348  34.828  1.00  0.00    -0.200 F 
ATOM    101  C   UNL A   1      42.355  28.051  36.153  1.00  0.00     0.200 A 
ATOM    102  F   UNL A   1      43.385  29.755  37.420  1.00  0.00    -0.200 F 
ATOM    103  F   UNL A   1      42.298  27.261  37.234  1.00  0.00    -0.200 F 
ENDBRANCH  70  93
ENDBRANCH  44  45
ENDBRANCH  37  39
ENDBRANCH  36  37
ENDBRANCH  35  36
ENDBRANCH  34  35
ENDBRANCH  33  34
ENDBRANCH  32  33
ENDBRANCH  31  32
ENDBRANCH   1  31
TORSDOF 22
ENDMDL
MODEL 2
REMARK VINA RESULT:     -10.9      1.505      4.202
REMARK SMILES Cc1ccn(CC(=O)N2CCC3(CC2)NC(=O)C[C@@H]3C(=O)OCCOCCOCCOCCOC(=O)c2ccc(-c3c4nc(c(-c5c(F)c(F)c(F)c(F)c5F)c5ccc([nH]5)c(-c5c(F)c(F)c(F)c(F)c5F)c5nc(c(-c6c(F)c(F)c(F)c(F)c6F)c6ccc3[nH]6)C=C5)C=C4)cc2)n1
REMARK SMILES IDX 28 1 27 2 26 3 25 4 24 5 23 6 22 7 20 8 21 9 19 10 7 11 8 12
REMARK SMILES IDX 9 13 10 14 14 15 11 16 13 17 12 18 15 19 16 20 18 22 17 23
REMARK SMILES IDX 6 24 5 25 1 26 2 27 3 28 100 29 4 30 29 31 30 32 31 33 32 34
REMARK SMILES IDX 33 35 34 36 35 37 36 38 37 39 38 40 99 41 39 42 98 43 40 44
REMARK SMILES IDX 41 45 42 46 92 47 43 48 97 49 91 50 93 51 44 52 96 53 90 54
REMARK SMILES IDX 89 55 45 57 77 58 57 59 76 60 58 61 61 62 75 63 94 64 59 65
REMARK SMILES IDX 60 66 74 68 95 69 62 70 46 71 47 72 55 73 48 74 49 75 53 76
REMARK SMILES IDX 56 77 50 78 51 79 54 80 52 81 78 82 79 83 87 84 80 85 81 86
REMARK SMILES IDX 85 87 88 88 82 89 83 90 86 91 84 92 63 93 64 94 72 95 65 96
REMARK SMILES IDX 66 97 70 98 73 99 67 100 68 101 71 102 69 103
REMARK H PARENT 15 21 93 56 61 67
REMARK Flexibility Score: inf
ROOT
ATOM      1  O   UNL A   1      42.335  21.064  25.541  1.00  0.00    -0.377 OA
ENDROOT
BRANCH   1   2
ATOM      2  C   UNL A   1      41.448  20.905  26.638  1.00  0.00     0.188 C 
BRANCH   2   3
ATOM      3  C   UNL A   1      40.003  20.756  26.175  1.00  0.00     0.188 C 
BRANCH   3   4
ATOM      4  O   UNL A   1      39.232  21.956  26.200  1.00  0.00    -0.376 OA
BRANCH   4   5
ATOM      5  C   UNL A   1      37.974  21.947  25.520  1.00  0.00     0.202 C 
BRANCH   5   6
ATOM      6  C   UNL A   1      37.031  23.127  25.804  1.00  0.00     0.261 C 
BRANCH   6   7
ATOM      7  O   UNL A   1      36.778  23.959  24.645  1.00  0.00    -0.463 OA
BRANCH   7   8
ATOM      8  C   UNL A   1      35.499  24.056  24.228  1.00  0.00     0.311 C 
ATOM      9  O   UNL A   1      35.126  23.774  23.093  1.00  0.00    -0.252 OA
BRANCH   8  10
ATOM     10  C   UNL A   1      34.502  24.473  25.286  1.00  0.00     0.134 C 
ATOM     11  C   UNL A   1      32.665  19.656  24.301  1.00  0.00     0.244 C 
ATOM     12  O   UNL A   1      32.542  19.381  23.101  1.00  0.00    -0.273 OA
ATOM     13  N   UNL A   1      32.857  20.976  24.705  1.00  0.00    -0.341 N 
ATOM     14  C   UNL A   1      32.438  22.032  23.794  1.00  0.00     0.122 C 
ATOM     15  C   UNL A   1      33.890  21.361  25.658  1.00  0.00     0.122 C 
ATOM     16  C   UNL A   1      32.189  23.367  24.503  1.00  0.00     0.051 C 
ATOM     17  C   UNL A   1      33.428  22.521  26.511  1.00  0.00     0.051 C 
ATOM     18  C   UNL A   1      33.178  23.747  25.626  1.00  0.00     0.057 C 
ATOM     19  N   UNL A   1      32.528  24.793  26.418  1.00  0.00    -0.350 N 
ATOM     20  C   UNL A   1      32.978  26.057  26.123  1.00  0.00     0.221 C 
ATOM     21  H   UNL A   1      31.838  24.609  27.095  1.00  0.00     0.164 HD
ATOM     22  C   UNL A   1      34.115  25.946  25.154  1.00  0.00     0.117 C 
ATOM     23  O   UNL A   1      32.489  27.098  26.557  1.00  0.00    -0.275 OA
BRANCH  11  24
ATOM     24  C   UNL A   1      32.328  18.602  25.342  1.00  0.00     0.244 C 
BRANCH  24  25
ATOM     25  N   UNL A   1      32.965  17.316  25.175  1.00  0.00    -0.263 N 
ATOM     26  C   UNL A   1      32.783  13.831  25.740  1.00  0.00     0.069 C 
ATOM     27  C   UNL A   1      33.165  15.214  25.366  1.00  0.00     0.059 A 
ATOM     28  C   UNL A   1      34.441  15.710  25.007  1.00  0.00     0.045 A 
ATOM     29  N   UNL A   1      32.255  16.193  25.415  1.00  0.00    -0.178 NA
ATOM     30  C   UNL A   1      34.271  17.068  24.864  1.00  0.00     0.109 A 
ENDBRANCH  24  25
ENDBRANCH  11  24
ENDBRANCH   8  10
ENDBRANCH   7   8
ENDBRANCH   6   7
ENDBRANCH   5   6
ENDBRANCH   4   5
ENDBRANCH   3   4
ENDBRANCH   2   3
ENDBRANCH   1   2
BRANCH   1  31
ATOM     31  C   UNL A   1      43.522  20.274  25.490  1.00  0.00     0.188 C 
BRANCH  31  32
ATOM     32  C   UNL A   1      44.806  20.945  24.998  1.00  0.00     0.188 C 
BRANCH  32  33
ATOM     33  O   UNL A   1      44.686  22.191  24.296  1.00  0.00    -0.376 OA
BRANCH  33  34
ATOM     34  C   UNL A   1      45.409  23.344  24.733  1.00  0.00     0.202 C 
BRANCH  34  35
ATOM     35  C   UNL A   1      44.558  24.576  24.999  1.00  0.00     0.261 C 
BRANCH  35  36
ATOM     36  O   UNL A   1      43.206  24.160  25.136  1.00  0.00    -0.460 OA
BRANCH  36  37
ATOM     37  C   UNL A   1      42.329  25.157  25.373  1.00  0.00     0.338 C 
ATOM     38  O   UNL A   1      42.337  26.278  24.860  1.00  0.00    -0.246 OA
BRANCH  37  39
ATOM     39  C   UNL A   1      41.346  24.713  26.408  1.00  0.00     0.060 A 
ATOM     40  C   UNL A   1      40.217  25.531  26.349  1.00  0.00     0.016 A 
ATOM     41  C   UNL A   1      41.961  24.440  27.633  1.00  0.00     0.016 A 
ATOM     42  C   UNL A   1      40.170  26.549  27.268  1.00  0.00     0.010 A 
ATOM     43  C   UNL A   1      41.988  25.486  28.515  1.00  0.00     0.010 A 
ATOM     44  C   UNL A   1      41.155  26.576  28.257  1.00  0.00    -0.014 A 
BRANCH  44  45
ATOM     45  C   UNL A   1      41.240  27.742  29.096  1.00  0.00     0.031 A 
ATOM     46  C   UNL A   1      42.321  28.648  28.673  1.00  0.00     0.074 A 
ATOM     47  C   UNL A   1      40.331  28.016  30.044  1.00  0.00     0.049 A 
ATOM     48  N   UNL A   1      43.417  28.919  29.298  1.00  0.00    -0.248 NA
ATOM     49  C   UNL A   1      42.271  29.146  27.288  1.00  0.00     0.031 C 
ATOM     50  C   UNL A   1      39.059  27.345  30.317  1.00  0.00     0.029 A 
ATOM     51  N   UNL A   1      40.309  29.079  30.886  1.00  0.00    -0.354 N 
ATOM     52  C   UNL A   1      44.108  29.770  28.447  1.00  0.00     0.074 A 
ATOM     53  C   UNL A   1      43.490  29.658  27.155  1.00  0.00     0.031 C 
ATOM     54  C   UNL A   1      38.294  28.157  31.084  1.00  0.00     0.029 A 
ATOM     55  C   UNL A   1      39.058  29.348  31.418  1.00  0.00     0.049 A 
ATOM     56  H   UNL A   1      41.108  29.611  31.101  1.00  0.00     0.167 HD
ATOM     57  C   UNL A   1      44.938  30.730  28.928  1.00  0.00     0.037 A 
ATOM     58  C   UNL A   1      38.691  30.555  31.919  1.00  0.00     0.037 A 
ATOM     59  C   UNL A   1      45.323  30.459  30.289  1.00  0.00     0.049 A 
ATOM     60  C   UNL A   1      39.949  31.300  32.237  1.00  0.00     0.074 A 
ATOM     61  C   UNL A   1      45.932  29.388  30.917  1.00  0.00     0.029 A 
ATOM     62  N   UNL A   1      44.734  31.189  31.295  1.00  0.00    -0.354 N 
ATOM     63  N   UNL A   1      40.784  30.953  33.181  1.00  0.00    -0.248 NA
ATOM     64  C   UNL A   1      40.518  32.146  31.194  1.00  0.00     0.031 C 
ATOM     65  C   UNL A   1      45.264  29.261  32.170  1.00  0.00     0.029 A 
ATOM     66  C   UNL A   1      44.328  30.293  32.253  1.00  0.00     0.049 A 
ATOM     67  H   UNL A   1      44.623  32.166  31.322  1.00  0.00     0.167 HD
ATOM     68  C   UNL A   1      42.048  31.182  32.650  1.00  0.00     0.074 A 
ATOM     69  C   UNL A   1      41.819  31.987  31.454  1.00  0.00     0.031 C 
ATOM     70  C   UNL A   1      43.136  30.459  33.049  1.00  0.00     0.037 A 
BRANCH  57  71
ATOM     71  C   UNL A   1      45.089  32.081  28.280  1.00  0.00     0.064 A 
ATOM     72  C   UNL A   1      46.353  32.464  27.800  1.00  0.00     0.173 A 
ATOM     73  C   UNL A   1      44.123  33.113  28.342  1.00  0.00     0.173 A 
ATOM     74  F   UNL A   1      47.353  31.573  27.727  1.00  0.00    -0.203 F 
ATOM     75  C   UNL A   1      46.643  33.790  27.470  1.00  0.00     0.198 A 
ATOM     76  C   UNL A   1      44.396  34.419  27.948  1.00  0.00     0.198 A 
ATOM     77  F   UNL A   1      42.915  32.941  28.891  1.00  0.00    -0.203 F 
ATOM     78  F   UNL A   1      47.895  34.131  27.141  1.00  0.00    -0.200 F 
ATOM     79  C   UNL A   1      45.664  34.766  27.545  1.00  0.00     0.200 A 
ATOM     80  F   UNL A   1      43.435  35.349  28.044  1.00  0.00    -0.200 F 
ATOM     81  F   UNL A   1      45.955  36.046  27.280  1.00  0.00    -0.200 F 
ENDBRANCH  57  71
BRANCH  58  82
ATOM     82  C   UNL A   1      37.369  31.214  31.746  1.00  0.00     0.064 A 
ATOM     83  C   UNL A   1      36.642  31.678  32.854  1.00  0.00     0.173 A 
ATOM     84  C   UNL A   1      36.886  31.615  30.482  1.00  0.00     0.173 A 
ATOM     85  F   UNL A   1      37.060  31.401  34.098  1.00  0.00    -0.203 F 
ATOM     86  C   UNL A   1      35.508  32.488  32.705  1.00  0.00     0.198 A 
ATOM     87  C   UNL A   1      35.747  32.403  30.333  1.00  0.00     0.198 A 
ATOM     88  F   UNL A   1      37.557  31.330  29.356  1.00  0.00    -0.203 F 
ATOM     89  F   UNL A   1      34.875  32.958  33.789  1.00  0.00    -0.200 F 
ATOM     90  C   UNL A   1      35.063  32.850  31.444  1.00  0.00     0.200 A 
ATOM     91  F   UNL A   1      35.352  32.774  29.105  1.00  0.00    -0.200 F 
ATOM     92  F   UNL A   1      34.005  33.659  31.301  1.00  0.00    -0.200 F 
ENDBRANCH  58  82
BRANCH  70  93
ATOM     93  C   UNL A   1      42.999  29.557  34.244  1.00  0.00     0.064 A 
ATOM     94  C   UNL A   1      42.469  28.255  34.176  1.00  0.00     0.173 A 
ATOM     95  C   UNL A   1      43.590  29.946  35.453  1.00  0.00     0.173 A 
ATOM     96  F   UNL A   1      41.996  27.766  33.025  1.00  0.00    -0.203 F 
ATOM     97  C   UNL A   1      42.488  27.406  35.281  1.00  0.00     0.198 A 
ATOM     98  C   UNL A   1      43.644  29.081  36.544  1.00  0.00     0.198 A 
ATOM     99  F   UNL A   1      44.170  31.151  35.561  1.00  0.00    -0.203 F 
ATOM    100  F   UNL A   1      41.968  26.173  35.189  1.00  0.00    -0.200 F 
ATOM    101  C   UNL A   1      43.085  27.816  36.461  1.00  0.00     0.200 A 
ATOM    102  F   UNL A   1      44.272  29.461  37.666  1.00  0.00    -0.200 F 
ATOM    103  F   UNL A   1      43.150  26.982  37.508  1.00  0.00    -0.200 F 
ENDBRANCH  70  93
ENDBRANCH  44  45
ENDBRANCH  37  39
ENDBRANCH  36  37
ENDBRANCH  35  36
ENDBRANCH  34  35
ENDBRANCH  33  34
ENDBRANCH  32  33
ENDBRANCH  31  32
ENDBRANCH   1  31
TORSDOF 22
ENDMDL
MODEL 3
REMARK VINA RESULT:     -10.6      3.305      9.736
REMARK SMILES Cc1ccn(CC(=O)N2CCC3(CC2)NC(=O)C[C@@H]3C(=O)OCCOCCOCCOCCOC(=O)c2ccc(-c3c4nc(c(-c5c(F)c(F)c(F)c(F)c5F)c5ccc([nH]5)c(-c5c(F)c(F)c(F)c(F)c5F)c5nc(c(-c6c(F)c(F)c(F)c(F)c6F)c6ccc3[nH]6)C=C5)C=C4)cc2)n1
REMARK SMILES IDX 28 1 27 2 26 3 25 4 24 5 23 6 22 7 20 8 21 9 19 10 7 11 8 12
REMARK SMILES IDX 9 13 10 14 14 15 11 16 13 17 12 18 15 19 16 20 18 22 17 23
REMARK SMILES IDX 6 24 5 25 1 26 2 27 3 28 100 29 4 30 29 31 30 32 31 33 32 34
REMARK SMILES IDX 33 35 34 36 35 37 36 38 37 39 38 40 99 41 39 42 98 43 40 44
REMARK SMILES IDX 41 45 42 46 92 47 43 48 97 49 91 50 93 51 44 52 96 53 90 54
REMARK SMILES IDX 89 55 45 57 77 58 57 59 76 60 58 61 61 62 75 63 94 64 59 65
REMARK SMILES IDX 60 66 74 68 95 69 62 70 46 71 47 72 55 73 48 74 49 75 53 76
REMARK SMILES IDX 56 77 50 78 51 79 54 80 52 81 78 82 79 83 87 84 80 85 81 86
REMARK SMILES IDX 85 87 88 88 82 89 83 90 86 91 84 92 63 93 64 94 72 95 65 96
REMARK SMILES IDX 66 97 70 98 73 99 67 100 68 101 71 102 69 103
REMARK H PARENT 15 21 93 56 61 67
REMARK Flexibility Score: inf
ROOT
ATOM      1  O   UNL A   1      33.753  35.254  29.019  1.00  0.00    -0.377 OA
ENDROOT
BRANCH   1   2
ATOM      2  C   UNL A   1      33.543  34.055  28.288  1.00  0.00     0.188 C 
BRANCH   2   3
ATOM      3  C   UNL A   1      33.927  32.826  29.106  1.00  0.00     0.188 C 
BRANCH   3   4
ATOM      4  O   UNL A   1      34.434  31.729  28.348  1.00  0.00    -0.376 OA
BRANCH   4   5
ATOM      5  C   UNL A   1      33.775  31.416  27.117  1.00  0.00     0.202 C 
BRANCH   5   6
ATOM      6  C   UNL A   1      32.872  30.174  27.118  1.00  0.00     0.261 C 
BRANCH   6   7
ATOM      7  O   UNL A   1      32.830  29.486  25.843  1.00  0.00    -0.463 OA
BRANCH   7   8
ATOM      8  C   UNL A   1      32.347  28.228  25.840  1.00  0.00     0.311 C 
ATOM      9  O   UNL A   1      32.740  27.343  26.595  1.00  0.00    -0.252 OA
BRANCH   8  10
ATOM     10  C   UNL A   1      31.207  27.972  24.881  1.00  0.00     0.134 C 
ATOM     11  C   UNL A   1      33.001  23.059  25.328  1.00  0.00     0.244 C 
ATOM     12  O   UNL A   1      34.227  22.941  25.216  1.00  0.00    -0.273 OA
ATOM     13  N   UNL A   1      32.369  24.241  24.944  1.00  0.00    -0.341 N 
ATOM     14  C   UNL A   1      33.064  25.105  23.999  1.00  0.00     0.122 C 
ATOM     15  C   UNL A   1      31.389  24.915  25.786  1.00  0.00     0.122 C 
ATOM     16  C   UNL A   1      32.118  26.050  23.250  1.00  0.00     0.051 C 
ATOM     17  C   UNL A   1      30.329  25.586  24.942  1.00  0.00     0.051 C 
ATOM     18  C   UNL A   1      30.971  26.673  24.073  1.00  0.00     0.057 C 
ATOM     19  N   UNL A   1      29.986  27.167  23.108  1.00  0.00    -0.350 N 
ATOM     20  C   UNL A   1      30.058  28.523  22.904  1.00  0.00     0.221 C 
ATOM     21  H   UNL A   1      29.336  26.586  22.652  1.00  0.00     0.164 HD
ATOM     22  C   UNL A   1      31.059  29.098  23.858  1.00  0.00     0.117 C 
ATOM     23  O   UNL A   1      29.431  29.141  22.047  1.00  0.00    -0.275 OA
BRANCH  11  24
ATOM     24  C   UNL A   1      32.160  21.827  25.616  1.00  0.00     0.244 C 
BRANCH  24  25
ATOM     25  N   UNL A   1      32.503  20.635  24.874  1.00  0.00    -0.263 N 
ATOM     26  C   UNL A   1      34.723  17.906  24.528  1.00  0.00     0.069 C 
ATOM     27  C   UNL A   1      33.646  18.916  24.393  1.00  0.00     0.059 A 
ATOM     28  C   UNL A   1      32.812  19.172  23.279  1.00  0.00     0.045 A 
ATOM     29  N   UNL A   1      33.415  19.781  25.386  1.00  0.00    -0.178 NA
ATOM     30  C   UNL A   1      32.066  20.273  23.633  1.00  0.00     0.109 A 
ENDBRANCH  24  25
ENDBRANCH  11  24
ENDBRANCH   8  10
ENDBRANCH   7   8
ENDBRANCH   6   7
ENDBRANCH   5   6
ENDBRANCH   4   5
ENDBRANCH   3   4
ENDBRANCH   2   3
ENDBRANCH   1   2
BRANCH   1  31
ATOM     31  C   UNL A   1      33.018  35.469  30.223  1.00  0.00     0.188 C 
BRANCH  31  32
ATOM     32  C   UNL A   1      33.773  35.371  31.550  1.00  0.00     0.188 C 
BRANCH  32  33
ATOM     33  O   UNL A   1      33.684  34.140  32.283  1.00  0.00    -0.376 OA
BRANCH  33  34
ATOM     34  C   UNL A   1      34.451  33.947  33.474  1.00  0.00     0.202 C 
BRANCH  34  35
ATOM     35  C   UNL A   1      35.761  33.199  33.283  1.00  0.00     0.261 C 
BRANCH  35  36
ATOM     36  O   UNL A   1      35.467  31.920  32.738  1.00  0.00    -0.460 OA
BRANCH  36  37
ATOM     37  C   UNL A   1      36.547  31.202  32.368  1.00  0.00     0.338 C 
ATOM     38  O   UNL A   1      37.453  30.808  33.105  1.00  0.00    -0.246 OA
BRANCH  37  39
ATOM     39  C   UNL A   1      36.511  30.983  30.889  1.00  0.00     0.060 A 
ATOM     40  C   UNL A   1      36.507  29.613  30.628  1.00  0.00     0.016 A 
ATOM     41  C   UNL A   1      37.391  31.832  30.212  1.00  0.00     0.016 A 
ATOM     42  C   UNL A   1      37.723  29.063  30.311  1.00  0.00     0.010 A 
ATOM     43  C   UNL A   1      38.633  31.309  29.974  1.00  0.00     0.010 A 
ATOM     44  C   UNL A   1      38.800  29.932  30.127  1.00  0.00    -0.014 A 
BRANCH  44  45
ATOM     45  C   UNL A   1      40.115  29.363  29.999  1.00  0.00     0.031 A 
ATOM     46  C   UNL A   1      40.780  29.210  31.304  1.00  0.00     0.074 A 
ATOM     47  C   UNL A   1      40.588  28.895  28.833  1.00  0.00     0.049 A 
ATOM     48  N   UNL A   1      41.810  29.849  31.747  1.00  0.00    -0.248 NA
ATOM     49  C   UNL A   1      40.083  28.400  32.317  1.00  0.00     0.031 C 
ATOM     50  C   UNL A   1      39.882  28.714  27.563  1.00  0.00     0.029 A 
ATOM     51  N   UNL A   1      41.802  28.340  28.596  1.00  0.00    -0.354 N 
ATOM     52  C   UNL A   1      41.989  29.377  33.039  1.00  0.00     0.074 A 
ATOM     53  C   UNL A   1      40.773  28.709  33.410  1.00  0.00     0.031 C 
ATOM     54  C   UNL A   1      40.604  27.880  26.779  1.00  0.00     0.029 A 
ATOM     55  C   UNL A   1      41.845  27.548  27.459  1.00  0.00     0.049 A 
ATOM     56  H   UNL A   1      42.583  28.486  29.177  1.00  0.00     0.167 HD
ATOM     57  C   UNL A   1      43.222  29.302  33.601  1.00  0.00     0.037 A 
ATOM     58  C   UNL A   1      42.770  26.579  27.246  1.00  0.00     0.037 A 
ATOM     59  C   UNL A   1      44.168  30.137  32.906  1.00  0.00     0.049 A 
ATOM     60  C   UNL A   1      43.929  26.871  28.146  1.00  0.00     0.074 A 
ATOM     61  C   UNL A   1      44.211  31.485  32.599  1.00  0.00     0.029 A 
ATOM     62  N   UNL A   1      45.077  29.538  32.065  1.00  0.00    -0.354 N 
ATOM     63  N   UNL A   1      44.714  27.909  28.012  1.00  0.00    -0.248 NA
ATOM     64  C   UNL A   1      43.923  26.273  29.476  1.00  0.00     0.031 C 
ATOM     65  C   UNL A   1      44.754  31.550  31.282  1.00  0.00     0.029 A 
ATOM     66  C   UNL A   1      45.059  30.246  30.889  1.00  0.00     0.049 A 
ATOM     67  H   UNL A   1      45.634  28.752  32.268  1.00  0.00     0.167 HD
ATOM     68  C   UNL A   1      44.972  28.337  29.309  1.00  0.00     0.074 A 
ATOM     69  C   UNL A   1      44.521  27.247  30.169  1.00  0.00     0.031 C 
ATOM     70  C   UNL A   1      45.250  29.644  29.591  1.00  0.00     0.037 A 
BRANCH  57  71
ATOM     71  C   UNL A   1      43.629  28.194  34.537  1.00  0.00     0.064 A 
ATOM     72  C   UNL A   1      43.532  26.865  34.095  1.00  0.00     0.173 A 
ATOM     73  C   UNL A   1      43.858  28.360  35.924  1.00  0.00     0.173 A 
ATOM     74  F   UNL A   1      43.288  26.591  32.805  1.00  0.00    -0.203 F 
ATOM     75  C   UNL A   1      43.595  25.789  34.983  1.00  0.00     0.198 A 
ATOM     76  C   UNL A   1      43.988  27.284  36.795  1.00  0.00     0.198 A 
ATOM     77  F   UNL A   1      43.849  29.558  36.521  1.00  0.00    -0.203 F 
ATOM     78  F   UNL A   1      43.370  24.547  34.535  1.00  0.00    -0.200 F 
ATOM     79  C   UNL A   1      43.823  25.999  36.332  1.00  0.00     0.200 A 
ATOM     80  F   UNL A   1      44.194  27.515  38.099  1.00  0.00    -0.200 F 
ATOM     81  F   UNL A   1      43.831  24.972  37.191  1.00  0.00    -0.200 F 
ENDBRANCH  57  71
BRANCH  58  82
ATOM     82  C   UNL A   1      42.522  25.246  26.635  1.00  0.00     0.064 A 
ATOM     83  C   UNL A   1      43.294  24.792  25.553  1.00  0.00     0.173 A 
ATOM     84  C   UNL A   1      41.680  24.286  27.236  1.00  0.00     0.173 A 
ATOM     85  F   UNL A   1      44.170  25.614  24.958  1.00  0.00    -0.203 F 
ATOM     86  C   UNL A   1      43.225  23.466  25.105  1.00  0.00     0.198 A 
ATOM     87  C   UNL A   1      41.597  22.973  26.777  1.00  0.00     0.198 A 
ATOM     88  F   UNL A   1      40.981  24.568  28.344  1.00  0.00    -0.203 F 
ATOM     89  F   UNL A   1      44.020  23.056  24.106  1.00  0.00    -0.200 F 
ATOM     90  C   UNL A   1      42.378  22.558  25.717  1.00  0.00     0.200 A 
ATOM     91  F   UNL A   1      40.797  22.099  27.406  1.00  0.00    -0.200 F 
ATOM     92  F   UNL A   1      42.343  21.280  25.318  1.00  0.00    -0.200 F 
ENDBRANCH  58  82
BRANCH  70  93
ATOM     93  C   UNL A   1      45.499  30.588  28.447  1.00  0.00     0.064 A 
ATOM     94  C   UNL A   1      44.476  31.285  27.779  1.00  0.00     0.173 A 
ATOM     95  C   UNL A   1      46.820  30.939  28.140  1.00  0.00     0.173 A 
ATOM     96  F   UNL A   1      43.191  31.093  28.102  1.00  0.00    -0.203 F 
ATOM     97  C   UNL A   1      44.764  32.251  26.818  1.00  0.00     0.198 A 
ATOM     98  C   UNL A   1      47.106  31.935  27.208  1.00  0.00     0.198 A 
ATOM     99  F   UNL A   1      47.839  30.357  28.790  1.00  0.00    -0.203 F 
ATOM    100  F   UNL A   1      43.767  32.894  26.192  1.00  0.00    -0.200 F 
ATOM    101  C   UNL A   1      46.079  32.583  26.541  1.00  0.00     0.200 A 
ATOM    102  F   UNL A   1      48.379  32.292  26.983  1.00  0.00    -0.200 F 
ATOM    103  F   UNL A   1      46.357  33.548  25.653  1.00  0.00    -0.200 F 
ENDBRANCH  70  93
ENDBRANCH  44  45
ENDBRANCH  37  39
ENDBRANCH  36  37
ENDBRANCH  35  36
ENDBRANCH  34  35
ENDBRANCH  33  34
ENDBRANCH  32  33
ENDBRANCH  31  32
ENDBRANCH   1  31
TORSDOF 22
ENDMDL
