MODEL 1
REMARK VINA RESULT:     -10.3      0.000      0.000
REMARK SMILES C[C@H]1[C@H](C(=O)OCCOCCOCCOCCOC(=O)c2ccc(-c3c4nc(c(-c5c(F)c(F)c(F)c(F)c5F)c5ccc([nH]5)c(-c5c(F)c(F)c(F)c(F)c5F)c5nc(c(-c6c(F)c(F)c(F)c(F)c6F)c6ccc3[nH]6)C=C5)C=C4)cc2)CCN1c1ncnc2sccc12
REMARK SMILES IDX 13 1 12 2 11 3 10 4 9 5 8 6 7 7 6 8 4 9 5 10 3 11 1 12 2 13
REMARK SMILES IDX 86 14 84 15 85 16 87 17 88 18 95 19 89 20 91 21 94 22 90 23
REMARK SMILES IDX 92 24 93 25 14 26 15 27 16 28 17 29 18 30 19 31 20 32 21 33
REMARK SMILES IDX 22 34 83 35 23 36 82 37 24 38 25 39 26 40 76 41 27 42 81 43
REMARK SMILES IDX 75 44 77 45 28 46 80 47 74 48 73 49 29 51 61 52 41 53 60 54
REMARK SMILES IDX 42 55 45 56 59 57 78 58 43 59 44 60 58 62 79 63 46 64 30 65
REMARK SMILES IDX 31 66 39 67 32 68 33 69 37 70 40 71 34 72 35 73 38 74 36 75
REMARK SMILES IDX 62 76 63 77 71 78 64 79 65 80 69 81 72 82 66 83 67 84 70 85
REMARK SMILES IDX 68 86 47 87 48 88 56 89 49 90 50 91 54 92 57 93 51 94 52 95
REMARK SMILES IDX 55 96 53 97
REMARK H PARENT 77 50 45 61
REMARK Flexibility Score: inf
ROOT
ATOM      1  C   UNL A   1      41.438  20.732  26.496  1.00  0.00     0.188 C 
ENDROOT
BRANCH   1   2
ATOM      2  O   UNL A   1      40.293  21.284  27.101  1.00  0.00    -0.377 OA
BRANCH   2   3
ATOM      3  C   UNL A   1      39.770  22.421  26.462  1.00  0.00     0.188 C 
BRANCH   3   4
ATOM      4  C   UNL A   1      38.319  22.518  25.976  1.00  0.00     0.188 C 
BRANCH   4   5
ATOM      5  O   UNL A   1      37.856  21.714  24.908  1.00  0.00    -0.376 OA
BRANCH   5   6
ATOM      6  C   UNL A   1      36.812  20.767  24.984  1.00  0.00     0.202 C 
BRANCH   6   7
ATOM      7  C   UNL A   1      35.311  21.066  25.168  1.00  0.00     0.261 C 
BRANCH   7   8
ATOM      8  O   UNL A   1      34.608  21.777  24.140  1.00  0.00    -0.463 OA
BRANCH   8   9
ATOM      9  C   UNL A   1      33.263  21.832  24.276  1.00  0.00     0.311 C 
ATOM     10  O   UNL A   1      32.636  21.149  25.080  1.00  0.00    -0.252 OA
BRANCH   9  11
ATOM     11  C   UNL A   1      32.556  22.742  23.285  1.00  0.00     0.123 C 
ATOM     12  C   UNL A   1      30.343  23.908  23.617  1.00  0.00     0.032 C 
ATOM     13  C   UNL A   1      31.872  24.051  23.750  1.00  0.00     0.095 C 
ATOM     14  N   UNL A   1      32.359  25.088  22.829  1.00  0.00    -0.352 N 
ATOM     15  C   UNL A   1      33.584  23.171  22.253  1.00  0.00     0.039 C 
ATOM     16  C   UNL A   1      33.119  24.520  21.741  1.00  0.00     0.119 C 
BRANCH  14  17
ATOM     17  C   UNL A   1      32.079  26.424  23.023  1.00  0.00     0.141 A 
ATOM     18  N   UNL A   1      31.196  27.012  22.166  1.00  0.00    -0.219 NA
ATOM     19  C   UNL A   1      32.610  27.254  24.051  1.00  0.00     0.054 A 
ATOM     20  C   UNL A   1      30.870  28.305  22.304  1.00  0.00     0.225 A 
ATOM     21  C   UNL A   1      32.148  28.565  24.093  1.00  0.00     0.128 A 
ATOM     22  C   UNL A   1      33.566  27.057  25.113  1.00  0.00     0.026 A 
ATOM     23  N   UNL A   1      31.287  29.146  23.244  1.00  0.00    -0.225 NA
ATOM     24  S   UNL A   1      32.776  29.468  25.397  1.00  0.00    -0.124 S 
ATOM     25  C   UNL A   1      33.718  28.155  25.930  1.00  0.00     0.068 A 
ENDBRANCH  14  17
ENDBRANCH   9  11
ENDBRANCH   8   9
ENDBRANCH   7   8
ENDBRANCH   6   7
ENDBRANCH   5   6
ENDBRANCH   4   5
ENDBRANCH   3   4
ENDBRANCH   2   3
ENDBRANCH   1   2
BRANCH   1  26
ATOM     26  C   UNL A   1      42.565  21.759  26.475  1.00  0.00     0.188 C 
BRANCH  26  27
ATOM     27  O   UNL A   1      43.727  21.315  25.801  1.00  0.00    -0.376 OA
BRANCH  27  28
ATOM     28  C   UNL A   1      45.000  21.917  26.015  1.00  0.00     0.202 C 
BRANCH  28  29
ATOM     29  C   UNL A   1      45.325  23.195  26.833  1.00  0.00     0.261 C 
BRANCH  29  30
ATOM     30  O   UNL A   1      45.411  24.464  26.180  1.00  0.00    -0.460 OA
BRANCH  30  31
ATOM     31  C   UNL A   1      44.373  24.860  25.430  1.00  0.00     0.338 C 
ATOM     32  O   UNL A   1      44.080  24.480  24.309  1.00  0.00    -0.246 OA
BRANCH  31  33
ATOM     33  C   UNL A   1      43.510  25.702  26.289  1.00  0.00     0.060 A 
ATOM     34  C   UNL A   1      43.971  26.978  26.638  1.00  0.00     0.016 A 
ATOM     35  C   UNL A   1      42.259  25.258  26.729  1.00  0.00     0.016 A 
ATOM     36  C   UNL A   1      43.215  27.788  27.477  1.00  0.00     0.010 A 
ATOM     37  C   UNL A   1      41.511  26.060  27.599  1.00  0.00     0.010 A 
ATOM     38  C   UNL A   1      42.016  27.305  28.016  1.00  0.00    -0.014 A 
BRANCH  38  39
ATOM     39  C   UNL A   1      41.470  27.987  29.213  1.00  0.00     0.031 A 
ATOM     40  C   UNL A   1      42.213  27.820  30.511  1.00  0.00     0.074 A 
ATOM     41  C   UNL A   1      40.414  28.814  29.134  1.00  0.00     0.049 A 
ATOM     42  N   UNL A   1      41.984  28.360  31.680  1.00  0.00    -0.248 NA
ATOM     43  C   UNL A   1      43.381  26.923  30.483  1.00  0.00     0.031 C 
ATOM     44  C   UNL A   1      39.648  29.094  27.922  1.00  0.00     0.029 A 
ATOM     45  N   UNL A   1      39.813  29.579  30.101  1.00  0.00    -0.354 N 
ATOM     46  C   UNL A   1      42.976  27.870  32.520  1.00  0.00     0.074 A 
ATOM     47  C   UNL A   1      43.783  26.957  31.742  1.00  0.00     0.031 C 
ATOM     48  C   UNL A   1      38.673  29.972  28.220  1.00  0.00     0.029 A 
ATOM     49  C   UNL A   1      38.734  30.294  29.645  1.00  0.00     0.049 A 
ATOM     50  H   UNL A   1      40.126  29.612  31.034  1.00  0.00     0.167 HD
ATOM     51  C   UNL A   1      43.205  28.166  33.821  1.00  0.00     0.037 A 
ATOM     52  C   UNL A   1      37.889  31.104  30.312  1.00  0.00     0.037 A 
ATOM     53  C   UNL A   1      42.396  29.069  34.593  1.00  0.00     0.049 A 
ATOM     54  C   UNL A   1      38.119  31.358  31.782  1.00  0.00     0.074 A 
ATOM     55  C   UNL A   1      42.542  29.442  35.918  1.00  0.00     0.029 A 
ATOM     56  N   UNL A   1      41.280  29.736  34.110  1.00  0.00    -0.354 N 
ATOM     57  N   UNL A   1      39.073  30.913  32.563  1.00  0.00    -0.248 NA
ATOM     58  C   UNL A   1      37.157  32.240  32.457  1.00  0.00     0.031 C 
ATOM     59  C   UNL A   1      41.478  30.285  36.253  1.00  0.00     0.029 A 
ATOM     60  C   UNL A   1      40.711  30.499  35.119  1.00  0.00     0.049 A 
ATOM     61  H   UNL A   1      40.942  29.679  33.187  1.00  0.00     0.167 HD
ATOM     62  C   UNL A   1      38.848  31.487  33.810  1.00  0.00     0.074 A 
ATOM     63  C   UNL A   1      37.677  32.326  33.673  1.00  0.00     0.031 C 
ATOM     64  C   UNL A   1      39.548  31.335  34.963  1.00  0.00     0.037 A 
BRANCH  51  65
ATOM     65  C   UNL A   1      44.354  27.474  34.495  1.00  0.00     0.064 A 
ATOM     66  C   UNL A   1      44.208  26.222  35.114  1.00  0.00     0.173 A 
ATOM     67  C   UNL A   1      45.627  28.066  34.511  1.00  0.00     0.173 A 
ATOM     68  F   UNL A   1      43.009  25.620  35.146  1.00  0.00    -0.203 F 
ATOM     69  C   UNL A   1      45.285  25.606  35.747  1.00  0.00     0.198 A 
ATOM     70  C   UNL A   1      46.707  27.431  35.114  1.00  0.00     0.198 A 
ATOM     71  F   UNL A   1      45.822  29.263  33.936  1.00  0.00    -0.203 F 
ATOM     72  F   UNL A   1      45.108  24.437  36.379  1.00  0.00    -0.200 F 
ATOM     73  C   UNL A   1      46.535  26.206  35.739  1.00  0.00     0.200 A 
ATOM     74  F   UNL A   1      47.918  28.007  35.093  1.00  0.00    -0.200 F 
ATOM     75  F   UNL A   1      47.572  25.607  36.341  1.00  0.00    -0.200 F 
ENDBRANCH  51  65
BRANCH  52  76
ATOM     76  C   UNL A   1      36.743  31.736  29.603  1.00  0.00     0.064 A 
ATOM     77  C   UNL A   1      35.637  30.980  29.189  1.00  0.00     0.173 A 
ATOM     78  C   UNL A   1      36.749  33.104  29.293  1.00  0.00     0.173 A 
ATOM     79  F   UNL A   1      35.594  29.663  29.437  1.00  0.00    -0.203 F 
ATOM     80  C   UNL A   1      34.594  31.563  28.471  1.00  0.00     0.198 A 
ATOM     81  C   UNL A   1      35.690  33.692  28.605  1.00  0.00     0.198 A 
ATOM     82  F   UNL A   1      37.784  33.872  29.663  1.00  0.00    -0.203 F 
ATOM     83  F   UNL A   1      33.576  30.806  28.038  1.00  0.00    -0.200 F 
ATOM     84  C   UNL A   1      34.618  32.920  28.185  1.00  0.00     0.200 A 
ATOM     85  F   UNL A   1      35.712  35.006  28.343  1.00  0.00    -0.200 F 
ATOM     86  F   UNL A   1      33.615  33.480  27.497  1.00  0.00    -0.200 F 
ENDBRANCH  52  76
BRANCH  64  87
ATOM     87  C   UNL A   1      39.095  32.134  36.155  1.00  0.00     0.064 A 
ATOM     88  C   UNL A   1      38.211  31.610  37.110  1.00  0.00     0.173 A 
ATOM     89  C   UNL A   1      39.573  33.439  36.354  1.00  0.00     0.173 A 
ATOM     90  F   UNL A   1      37.716  30.371  36.964  1.00  0.00    -0.203 F 
ATOM     91  C   UNL A   1      37.788  32.377  38.192  1.00  0.00     0.198 A 
ATOM     92  C   UNL A   1      39.180  34.188  37.458  1.00  0.00     0.198 A 
ATOM     93  F   UNL A   1      40.432  33.987  35.481  1.00  0.00    -0.203 F 
ATOM     94  F   UNL A   1      36.889  31.879  39.053  1.00  0.00    -0.200 F 
ATOM     95  C   UNL A   1      38.277  33.662  38.370  1.00  0.00     0.200 A 
ATOM     96  F   UNL A   1      39.670  35.423  37.638  1.00  0.00    -0.200 F 
ATOM     97  F   UNL A   1      37.870  34.398  39.413  1.00  0.00    -0.200 F 
ENDBRANCH  64  87
ENDBRANCH  38  39
ENDBRANCH  31  33
ENDBRANCH  30  31
ENDBRANCH  29  30
ENDBRANCH  28  29
ENDBRANCH  27  28
ENDBRANCH  26  27
ENDBRANCH   1  26
TORSDOF 21
ENDMDL
MODEL 2
REMARK VINA RESULT:     -10.1      4.284      9.756
REMARK SMILES C[C@H]1[C@H](C(=O)OCCOCCOCCOCCOC(=O)c2ccc(-c3c4nc(c(-c5c(F)c(F)c(F)c(F)c5F)c5ccc([nH]5)c(-c5c(F)c(F)c(F)c(F)c5F)c5nc(c(-c6c(F)c(F)c(F)c(F)c6F)c6ccc3[nH]6)C=C5)C=C4)cc2)CCN1c1ncnc2sccc12
REMARK SMILES IDX 13 1 12 2 11 3 10 4 9 5 8 6 7 7 6 8 4 9 5 10 3 11 1 12 2 13
REMARK SMILES IDX 86 14 84 15 85 16 87 17 88 18 95 19 89 20 91 21 94 22 90 23
REMARK SMILES IDX 92 24 93 25 14 26 15 27 16 28 17 29 18 30 19 31 20 32 21 33
REMARK SMILES IDX 22 34 83 35 23 36 82 37 24 38 25 39 26 40 76 41 27 42 81 43
REMARK SMILES IDX 75 44 77 45 28 46 80 47 74 48 73 49 29 51 61 52 41 53 60 54
REMARK SMILES IDX 42 55 45 56 59 57 78 58 43 59 44 60 58 62 79 63 46 64 30 65
REMARK SMILES IDX 31 66 39 67 32 68 33 69 37 70 40 71 34 72 35 73 38 74 36 75
REMARK SMILES IDX 62 76 63 77 71 78 64 79 65 80 69 81 72 82 66 83 67 84 70 85
REMARK SMILES IDX 68 86 47 87 48 88 56 89 49 90 50 91 54 92 57 93 51 94 52 95
REMARK SMILES IDX 55 96 53 97
REMARK H PARENT 77 50 45 61
REMARK Flexibility Score: inf
ROOT
ATOM      1  C   UNL A   1      34.981  33.065  28.676  1.00  0.00     0.188 C 
ENDROOT
BRANCH   1   2
ATOM      2  O   UNL A   1      35.353  32.314  27.544  1.00  0.00    -0.377 OA
BRANCH   2   3
ATOM      3  C   UNL A   1      35.989  31.092  27.822  1.00  0.00     0.188 C 
BRANCH   3   4
ATOM      4  C   UNL A   1      35.231  29.768  27.983  1.00  0.00     0.188 C 
BRANCH   4   5
ATOM      5  O   UNL A   1      34.434  29.256  26.931  1.00  0.00    -0.376 OA
BRANCH   5   6
ATOM      6  C   UNL A   1      33.517  28.189  27.040  1.00  0.00     0.202 C 
BRANCH   6   7
ATOM      7  C   UNL A   1      31.995  28.301  27.258  1.00  0.00     0.261 C 
BRANCH   7   8
ATOM      8  O   UNL A   1      31.150  27.213  26.861  1.00  0.00    -0.463 OA
BRANCH   8   9
ATOM      9  C   UNL A   1      31.037  27.011  25.527  1.00  0.00     0.311 C 
ATOM     10  O   UNL A   1      30.923  27.922  24.713  1.00  0.00    -0.252 OA
BRANCH   9  11
ATOM     11  C   UNL A   1      30.965  25.552  25.104  1.00  0.00     0.123 C 
ATOM     12  C   UNL A   1      32.172  24.480  23.166  1.00  0.00     0.032 C 
ATOM     13  C   UNL A   1      32.236  24.781  24.676  1.00  0.00     0.095 C 
ATOM     14  N   UNL A   1      32.199  23.525  25.439  1.00  0.00    -0.352 N 
ATOM     15  C   UNL A   1      30.395  24.771  26.275  1.00  0.00     0.039 C 
ATOM     16  C   UNL A   1      30.950  23.366  26.144  1.00  0.00     0.119 C 
BRANCH  14  17
ATOM     17  C   UNL A   1      33.254  22.636  25.431  1.00  0.00     0.141 A 
ATOM     18  N   UNL A   1      34.445  23.070  25.932  1.00  0.00    -0.219 NA
ATOM     19  C   UNL A   1      33.216  21.292  24.963  1.00  0.00     0.054 A 
ATOM     20  C   UNL A   1      35.509  22.254  25.964  1.00  0.00     0.225 A 
ATOM     21  C   UNL A   1      34.387  20.553  25.099  1.00  0.00     0.128 A 
ATOM     22  C   UNL A   1      32.207  20.466  24.347  1.00  0.00     0.026 A 
ATOM     23  N   UNL A   1      35.562  20.983  25.582  1.00  0.00    -0.225 NA
ATOM     24  S   UNL A   1      34.234  18.933  24.585  1.00  0.00    -0.124 S 
ATOM     25  C   UNL A   1      32.613  19.168  24.127  1.00  0.00     0.068 A 
ENDBRANCH  14  17
ENDBRANCH   9  11
ENDBRANCH   8   9
ENDBRANCH   7   8
ENDBRANCH   6   7
ENDBRANCH   5   6
ENDBRANCH   4   5
ENDBRANCH   3   4
ENDBRANCH   2   3
ENDBRANCH   1   2
BRANCH   1  26
ATOM     26  C   UNL A   1      33.896  34.069  28.303  1.00  0.00     0.188 C 
BRANCH  26  27
ATOM     27  O   UNL A   1      34.048  35.329  28.927  1.00  0.00    -0.376 OA
BRANCH  27  28
ATOM     28  C   UNL A   1      32.936  36.061  29.431  1.00  0.00     0.202 C 
BRANCH  28  29
ATOM     29  C   UNL A   1      32.929  37.130  30.557  1.00  0.00     0.261 C 
BRANCH  29  30
ATOM     30  O   UNL A   1      33.377  36.791  31.873  1.00  0.00    -0.460 OA
BRANCH  30  31
ATOM     31  C   UNL A   1      33.015  35.601  32.376  1.00  0.00     0.338 C 
ATOM     32  O   UNL A   1      31.883  35.199  32.587  1.00  0.00    -0.246 OA
BRANCH  31  33
ATOM     33  C   UNL A   1      34.235  34.767  32.443  1.00  0.00     0.060 A 
ATOM     34  C   UNL A   1      34.124  33.476  32.974  1.00  0.00     0.016 A 
ATOM     35  C   UNL A   1      35.468  35.233  31.971  1.00  0.00     0.016 A 
ATOM     36  C   UNL A   1      35.250  32.671  33.095  1.00  0.00     0.010 A 
ATOM     37  C   UNL A   1      36.608  34.436  32.122  1.00  0.00     0.010 A 
ATOM     38  C   UNL A   1      36.508  33.174  32.735  1.00  0.00    -0.014 A 
BRANCH  38  39
ATOM     39  C   UNL A   1      37.707  32.486  33.268  1.00  0.00     0.031 A 
ATOM     40  C   UNL A   1      38.345  31.428  32.408  1.00  0.00     0.074 A 
ATOM     41  C   UNL A   1      38.276  32.856  34.426  1.00  0.00     0.049 A 
ATOM     42  N   UNL A   1      39.432  30.730  32.611  1.00  0.00    -0.248 NA
ATOM     43  C   UNL A   1      37.664  31.123  31.138  1.00  0.00     0.031 C 
ATOM     44  C   UNL A   1      37.779  33.901  35.317  1.00  0.00     0.029 A 
ATOM     45  N   UNL A   1      39.412  32.396  35.044  1.00  0.00    -0.354 N 
ATOM     46  C   UNL A   1      39.563  29.907  31.499  1.00  0.00     0.074 A 
ATOM     47  C   UNL A   1      38.425  30.160  30.644  1.00  0.00     0.031 C 
ATOM     48  C   UNL A   1      38.607  34.001  36.373  1.00  0.00     0.029 A 
ATOM     49  C   UNL A   1      39.676  33.012  36.241  1.00  0.00     0.049 A 
ATOM     50  H   UNL A   1      39.983  31.689  34.664  1.00  0.00     0.167 HD
ATOM     51  C   UNL A   1      40.551  29.030  31.208  1.00  0.00     0.037 A 
ATOM     52  C   UNL A   1      40.664  32.790  37.129  1.00  0.00     0.037 A 
ATOM     53  C   UNL A   1      41.678  28.776  32.064  1.00  0.00     0.049 A 
ATOM     54  C   UNL A   1      41.713  31.749  36.818  1.00  0.00     0.074 A 
ATOM     55  C   UNL A   1      42.738  27.910  31.863  1.00  0.00     0.029 A 
ATOM     56  N   UNL A   1      41.885  29.384  33.294  1.00  0.00    -0.354 N 
ATOM     57  N   UNL A   1      41.846  30.995  35.753  1.00  0.00    -0.248 NA
ATOM     58  C   UNL A   1      42.758  31.542  37.830  1.00  0.00     0.031 C 
ATOM     59  C   UNL A   1      43.553  27.947  32.999  1.00  0.00     0.029 A 
ATOM     60  C   UNL A   1      43.043  28.892  33.876  1.00  0.00     0.049 A 
ATOM     61  H   UNL A   1      41.298  30.065  33.694  1.00  0.00     0.167 HD
ATOM     62  C   UNL A   1      43.004  30.251  35.951  1.00  0.00     0.074 A 
ATOM     63  C   UNL A   1      43.545  30.661  37.230  1.00  0.00     0.031 C 
ATOM     64  C   UNL A   1      43.571  29.316  35.148  1.00  0.00     0.037 A 
BRANCH  51  65
ATOM     65  C   UNL A   1      40.433  28.255  29.927  1.00  0.00     0.064 A 
ATOM     66  C   UNL A   1      39.626  27.111  29.823  1.00  0.00     0.173 A 
ATOM     67  C   UNL A   1      41.126  28.674  28.780  1.00  0.00     0.173 A 
ATOM     68  F   UNL A   1      38.957  26.655  30.893  1.00  0.00    -0.203 F 
ATOM     69  C   UNL A   1      39.543  26.399  28.628  1.00  0.00     0.198 A 
ATOM     70  C   UNL A   1      41.012  27.980  27.580  1.00  0.00     0.198 A 
ATOM     71  F   UNL A   1      41.911  29.760  28.824  1.00  0.00    -0.203 F 
ATOM     72  F   UNL A   1      38.811  25.278  28.569  1.00  0.00    -0.200 F 
ATOM     73  C   UNL A   1      40.229  26.839  27.506  1.00  0.00     0.200 A 
ATOM     74  F   UNL A   1      41.665  28.414  26.492  1.00  0.00    -0.200 F 
ATOM     75  F   UNL A   1      40.141  26.157  26.355  1.00  0.00    -0.200 F 
ENDBRANCH  51  65
BRANCH  52  76
ATOM     76  C   UNL A   1      40.714  33.559  38.401  1.00  0.00     0.064 A 
ATOM     77  C   UNL A   1      39.873  33.243  39.478  1.00  0.00     0.173 A 
ATOM     78  C   UNL A   1      41.580  34.652  38.553  1.00  0.00     0.173 A 
ATOM     79  F   UNL A   1      39.007  32.224  39.374  1.00  0.00    -0.203 F 
ATOM     80  C   UNL A   1      39.878  34.005  40.645  1.00  0.00     0.198 A 
ATOM     81  C   UNL A   1      41.609  35.392  39.733  1.00  0.00     0.198 A 
ATOM     82  F   UNL A   1      42.404  35.000  37.553  1.00  0.00    -0.203 F 
ATOM     83  F   UNL A   1      39.024  33.715  41.635  1.00  0.00    -0.200 F 
ATOM     84  C   UNL A   1      40.751  35.075  40.774  1.00  0.00     0.200 A 
ATOM     85  F   UNL A   1      42.464  36.417  39.858  1.00  0.00    -0.200 F 
ATOM     86  F   UNL A   1      40.757  35.806  41.896  1.00  0.00    -0.200 F 
ENDBRANCH  52  76
BRANCH  64  87
ATOM     87  C   UNL A   1      44.870  28.709  35.605  1.00  0.00     0.064 A 
ATOM     88  C   UNL A   1      44.913  27.539  36.377  1.00  0.00     0.173 A 
ATOM     89  C   UNL A   1      46.091  29.298  35.243  1.00  0.00     0.173 A 
ATOM     90  F   UNL A   1      43.775  26.939  36.759  1.00  0.00    -0.203 F 
ATOM     91  C   UNL A   1      46.126  27.009  36.808  1.00  0.00     0.198 A 
ATOM     92  C   UNL A   1      47.303  28.744  35.641  1.00  0.00     0.198 A 
ATOM     93  F   UNL A   1      46.111  30.411  34.493  1.00  0.00    -0.203 F 
ATOM     94  F   UNL A   1      46.139  25.930  37.604  1.00  0.00    -0.200 F 
ATOM     95  C   UNL A   1      47.320  27.606  36.435  1.00  0.00     0.200 A 
ATOM     96  F   UNL A   1      48.457  29.312  35.262  1.00  0.00    -0.200 F 
ATOM     97  F   UNL A   1      48.487  27.094  36.849  1.00  0.00    -0.200 F 
ENDBRANCH  64  87
ENDBRANCH  38  39
ENDBRANCH  31  33
ENDBRANCH  30  31
ENDBRANCH  29  30
ENDBRANCH  28  29
ENDBRANCH  27  28
ENDBRANCH  26  27
ENDBRANCH   1  26
TORSDOF 21
ENDMDL
MODEL 3
REMARK VINA RESULT:     -10.1      4.237      9.847
REMARK SMILES C[C@H]1[C@H](C(=O)OCCOCCOCCOCCOC(=O)c2ccc(-c3c4nc(c(-c5c(F)c(F)c(F)c(F)c5F)c5ccc([nH]5)c(-c5c(F)c(F)c(F)c(F)c5F)c5nc(c(-c6c(F)c(F)c(F)c(F)c6F)c6ccc3[nH]6)C=C5)C=C4)cc2)CCN1c1ncnc2sccc12
REMARK SMILES IDX 13 1 12 2 11 3 10 4 9 5 8 6 7 7 6 8 4 9 5 10 3 11 1 12 2 13
REMARK SMILES IDX 86 14 84 15 85 16 87 17 88 18 95 19 89 20 91 21 94 22 90 23
REMARK SMILES IDX 92 24 93 25 14 26 15 27 16 28 17 29 18 30 19 31 20 32 21 33
REMARK SMILES IDX 22 34 83 35 23 36 82 37 24 38 25 39 26 40 76 41 27 42 81 43
REMARK SMILES IDX 75 44 77 45 28 46 80 47 74 48 73 49 29 51 61 52 41 53 60 54
REMARK SMILES IDX 42 55 45 56 59 57 78 58 43 59 44 60 58 62 79 63 46 64 30 65
REMARK SMILES IDX 31 66 39 67 32 68 33 69 37 70 40 71 34 72 35 73 38 74 36 75
REMARK SMILES IDX 62 76 63 77 71 78 64 79 65 80 69 81 72 82 66 83 67 84 70 85
REMARK SMILES IDX 68 86 47 87 48 88 56 89 49 90 50 91 54 92 57 93 51 94 52 95
REMARK SMILES IDX 55 96 53 97
REMARK H PARENT 77 50 45 61
REMARK Flexibility Score: inf
ROOT
ATOM      1  C   UNL A   1      35.169  33.448  28.572  1.00  0.00     0.188 C 
ENDROOT
BRANCH   1   2
ATOM      2  O   UNL A   1      35.500  32.473  27.612  1.00  0.00    -0.377 OA
BRANCH   2   3
ATOM      3  C   UNL A   1      35.062  31.172  27.909  1.00  0.00     0.188 C 
BRANCH   3   4
ATOM      4  C   UNL A   1      33.651  30.666  27.583  1.00  0.00     0.188 C 
BRANCH   4   5
ATOM      5  O   UNL A   1      33.441  29.702  26.568  1.00  0.00    -0.376 OA
BRANCH   5   6
ATOM      6  C   UNL A   1      32.294  29.604  25.752  1.00  0.00     0.202 C 
BRANCH   6   7
ATOM      7  C   UNL A   1      32.264  29.328  24.236  1.00  0.00     0.261 C 
BRANCH   7   8
ATOM      8  O   UNL A   1      31.102  28.718  23.659  1.00  0.00    -0.463 OA
BRANCH   8   9
ATOM      9  C   UNL A   1      30.989  27.381  23.836  1.00  0.00     0.311 C 
ATOM     10  O   UNL A   1      29.970  26.838  24.250  1.00  0.00    -0.252 OA
BRANCH   9  11
ATOM     11  C   UNL A   1      32.261  26.590  23.573  1.00  0.00     0.123 C 
ATOM     12  C   UNL A   1      34.021  25.954  25.265  1.00  0.00     0.032 C 
ATOM     13  C   UNL A   1      32.734  25.490  24.554  1.00  0.00     0.095 C 
ATOM     14  N   UNL A   1      33.023  24.321  23.710  1.00  0.00    -0.352 N 
ATOM     15  C   UNL A   1      32.089  25.890  22.236  1.00  0.00     0.039 C 
ATOM     16  C   UNL A   1      32.954  24.647  22.306  1.00  0.00     0.119 C 
BRANCH  14  17
ATOM     17  C   UNL A   1      33.331  23.091  24.252  1.00  0.00     0.141 A 
ATOM     18  N   UNL A   1      32.296  22.316  24.684  1.00  0.00    -0.219 NA
ATOM     19  C   UNL A   1      34.636  22.536  24.387  1.00  0.00     0.054 A 
ATOM     20  C   UNL A   1      32.524  21.105  25.211  1.00  0.00     0.225 A 
ATOM     21  C   UNL A   1      34.714  21.251  24.914  1.00  0.00     0.128 A 
ATOM     22  C   UNL A   1      35.968  23.008  24.100  1.00  0.00     0.026 A 
ATOM     23  N   UNL A   1      33.696  20.493  25.350  1.00  0.00    -0.225 NA
ATOM     24  S   UNL A   1      36.303  20.633  24.973  1.00  0.00    -0.124 S 
ATOM     25  C   UNL A   1      36.950  22.071  24.334  1.00  0.00     0.068 A 
ENDBRANCH  14  17
ENDBRANCH   9  11
ENDBRANCH   8   9
ENDBRANCH   7   8
ENDBRANCH   6   7
ENDBRANCH   5   6
ENDBRANCH   4   5
ENDBRANCH   3   4
ENDBRANCH   2   3
ENDBRANCH   1   2
BRANCH   1  26
ATOM     26  C   UNL A   1      34.233  34.486  27.962  1.00  0.00     0.188 C 
BRANCH  26  27
ATOM     27  O   UNL A   1      34.175  35.698  28.690  1.00  0.00    -0.376 OA
BRANCH  27  28
ATOM     28  C   UNL A   1      33.018  36.082  29.426  1.00  0.00     0.202 C 
BRANCH  28  29
ATOM     29  C   UNL A   1      32.912  37.149  30.547  1.00  0.00     0.261 C 
BRANCH  29  30
ATOM     30  O   UNL A   1      33.261  36.814  31.894  1.00  0.00    -0.460 OA
BRANCH  30  31
ATOM     31  C   UNL A   1      32.914  35.603  32.353  1.00  0.00     0.338 C 
ATOM     32  O   UNL A   1      31.787  35.172  32.531  1.00  0.00    -0.246 OA
BRANCH  31  33
ATOM     33  C   UNL A   1      34.149  34.790  32.415  1.00  0.00     0.060 A 
ATOM     34  C   UNL A   1      34.053  33.480  32.901  1.00  0.00     0.016 A 
ATOM     35  C   UNL A   1      35.380  35.295  31.983  1.00  0.00     0.016 A 
ATOM     36  C   UNL A   1      35.193  32.693  33.016  1.00  0.00     0.010 A 
ATOM     37  C   UNL A   1      36.532  34.515  32.128  1.00  0.00     0.010 A 
ATOM     38  C   UNL A   1      36.446  33.231  32.696  1.00  0.00    -0.014 A 
BRANCH  38  39
ATOM     39  C   UNL A   1      37.649  32.549  33.229  1.00  0.00     0.031 A 
ATOM     40  C   UNL A   1      38.305  31.511  32.359  1.00  0.00     0.074 A 
ATOM     41  C   UNL A   1      38.205  32.908  34.397  1.00  0.00     0.049 A 
ATOM     42  N   UNL A   1      39.398  30.821  32.560  1.00  0.00    -0.248 NA
ATOM     43  C   UNL A   1      37.637  31.216  31.079  1.00  0.00     0.031 C 
ATOM     44  C   UNL A   1      37.689  33.935  35.299  1.00  0.00     0.029 A 
ATOM     45  N   UNL A   1      39.341  32.451  35.016  1.00  0.00    -0.354 N 
ATOM     46  C   UNL A   1      39.546  30.016  31.437  1.00  0.00     0.074 A 
ATOM     47  C   UNL A   1      38.412  30.269  30.577  1.00  0.00     0.031 C 
ATOM     48  C   UNL A   1      38.508  34.028  36.363  1.00  0.00     0.029 A 
ATOM     49  C   UNL A   1      39.589  33.053  36.224  1.00  0.00     0.049 A 
ATOM     50  H   UNL A   1      39.923  31.756  34.631  1.00  0.00     0.167 HD
ATOM     51  C   UNL A   1      40.546  29.154  31.141  1.00  0.00     0.037 A 
ATOM     52  C   UNL A   1      40.573  32.828  37.117  1.00  0.00     0.037 A 
ATOM     53  C   UNL A   1      41.669  28.900  32.002  1.00  0.00     0.049 A 
ATOM     54  C   UNL A   1      41.635  31.804  36.799  1.00  0.00     0.074 A 
ATOM     55  C   UNL A   1      42.740  28.048  31.796  1.00  0.00     0.029 A 
ATOM     56  N   UNL A   1      41.860  29.492  33.242  1.00  0.00    -0.354 N 
ATOM     57  N   UNL A   1      41.784  31.066  35.724  1.00  0.00    -0.248 NA
ATOM     58  C   UNL A   1      42.675  31.593  37.816  1.00  0.00     0.031 C 
ATOM     59  C   UNL A   1      43.546  28.078  32.939  1.00  0.00     0.029 A 
ATOM     60  C   UNL A   1      43.019  29.004  33.826  1.00  0.00     0.049 A 
ATOM     61  H   UNL A   1      41.263  30.161  33.648  1.00  0.00     0.167 HD
ATOM     62  C   UNL A   1      42.950  30.332  35.920  1.00  0.00     0.074 A 
ATOM     63  C   UNL A   1      43.475  30.729  37.210  1.00  0.00     0.031 C 
ATOM     64  C   UNL A   1      43.532  29.415  35.108  1.00  0.00     0.037 A 
BRANCH  51  65
ATOM     65  C   UNL A   1      40.446  28.397  29.848  1.00  0.00     0.064 A 
ATOM     66  C   UNL A   1      39.691  27.219  29.733  1.00  0.00     0.173 A 
ATOM     67  C   UNL A   1      41.104  28.866  28.701  1.00  0.00     0.173 A 
ATOM     68  F   UNL A   1      39.057  26.716  30.804  1.00  0.00    -0.203 F 
ATOM     69  C   UNL A   1      39.624  26.525  28.528  1.00  0.00     0.198 A 
ATOM     70  C   UNL A   1      41.007  28.189  27.489  1.00  0.00     0.198 A 
ATOM     71  F   UNL A   1      41.841  29.986  28.754  1.00  0.00    -0.203 F 
ATOM     72  F   UNL A   1      38.942  25.373  28.457  1.00  0.00    -0.200 F 
ATOM     73  C   UNL A   1      40.275  27.015  27.405  1.00  0.00     0.200 A 
ATOM     74  F   UNL A   1      41.626  28.671  26.402  1.00  0.00    -0.200 F 
ATOM     75  F   UNL A   1      40.202  26.350  26.243  1.00  0.00    -0.200 F 
ENDBRANCH  51  65
BRANCH  52  76
ATOM     76  C   UNL A   1      40.604  33.579  38.401  1.00  0.00     0.064 A 
ATOM     77  C   UNL A   1      41.478  34.659  38.592  1.00  0.00     0.173 A 
ATOM     78  C   UNL A   1      39.785  33.207  39.477  1.00  0.00     0.173 A 
ATOM     79  F   UNL A   1      42.302  35.038  37.603  1.00  0.00    -0.203 F 
ATOM     80  C   UNL A   1      41.549  35.321  39.817  1.00  0.00     0.198 A 
ATOM     81  C   UNL A   1      39.832  33.891  40.690  1.00  0.00     0.198 A 
ATOM     82  F   UNL A   1      38.933  32.180  39.349  1.00  0.00    -0.203 F 
ATOM     83  F   UNL A   1      42.433  36.313  39.990  1.00  0.00    -0.200 F 
ATOM     84  C   UNL A   1      40.721  34.941  40.863  1.00  0.00     0.200 A 
ATOM     85  F   UNL A   1      39.021  33.529  41.693  1.00  0.00    -0.200 F 
ATOM     86  F   UNL A   1      40.789  35.578  42.039  1.00  0.00    -0.200 F 
ENDBRANCH  52  76
BRANCH  64  87
ATOM     87  C   UNL A   1      44.834  28.815  35.566  1.00  0.00     0.064 A 
ATOM     88  C   UNL A   1      46.064  29.453  35.348  1.00  0.00     0.173 A 
ATOM     89  C   UNL A   1      44.845  27.592  36.254  1.00  0.00     0.173 A 
ATOM     90  F   UNL A   1      46.112  30.620  34.687  1.00  0.00    -0.203 F 
ATOM     91  C   UNL A   1      47.258  28.868  35.760  1.00  0.00     0.198 A 
ATOM     92  C   UNL A   1      46.037  27.029  36.701  1.00  0.00     0.198 A 
ATOM     93  F   UNL A   1      43.697  26.944  36.504  1.00  0.00    -0.203 F 
ATOM     94  F   UNL A   1      48.426  29.462  35.478  1.00  0.00    -0.200 F 
ATOM     95  C   UNL A   1      47.244  27.660  36.442  1.00  0.00     0.200 A 
ATOM     96  F   UNL A   1      46.019  25.871  37.377  1.00  0.00    -0.200 F 
ATOM     97  F   UNL A   1      48.394  27.099  36.839  1.00  0.00    -0.200 F 
ENDBRANCH  64  87
ENDBRANCH  38  39
ENDBRANCH  31  33
ENDBRANCH  30  31
ENDBRANCH  29  30
ENDBRANCH  28  29
ENDBRANCH  27  28
ENDBRANCH  26  27
ENDBRANCH   1  26
TORSDOF 21
ENDMDL
