MODEL 1
REMARK VINA RESULT:     -10.2      0.000      0.000
REMARK SMILES O=C(Cc1ccccc1Nc1c(Cl)cccc1C(F)(F)F)OCCOCCOCCOCCOC(=O)c1ccc(-c2c3nc(c(-c4c(F)c(F)c(F)c(F)c4F)c4ccc([nH]4)c(-c4c(F)c(F)c(F)c(F)c4F)c4nc(c(-c5c(F)c(F)c(F)c(F)c5F)c5ccc2[nH]5)C=C4)C=C3)cc1
REMARK SMILES IDX 27 1 26 2 25 3 24 4 23 5 22 6 2 7 1 8 3 9 4 10 5 11 9 12
REMARK SMILES IDX 6 13 8 14 7 15 10 16 11 18 12 19 17 20 13 21 14 22 16 23
REMARK SMILES IDX 15 24 18 25 19 26 20 27 21 28 28 29 29 30 30 31 31 32 32 33
REMARK SMILES IDX 33 34 34 35 35 36 36 37 37 38 38 39 99 40 39 41 98 42 40 43
REMARK SMILES IDX 41 44 42 45 92 46 43 47 97 48 91 49 93 50 44 51 96 52 90 53
REMARK SMILES IDX 89 54 45 56 77 57 57 58 76 59 58 60 61 61 75 62 94 63 59 64
REMARK SMILES IDX 60 65 74 67 95 68 62 69 46 70 47 71 55 72 48 73 49 74 53 75
REMARK SMILES IDX 56 76 50 77 51 78 54 79 52 80 78 81 79 82 87 83 80 84 81 85
REMARK SMILES IDX 85 86 88 87 82 88 83 89 86 90 84 91 63 92 64 93 72 94 65 95
REMARK SMILES IDX 66 96 70 97 73 98 67 99 68 100 71 101 69 102
REMARK H PARENT 10 17 93 55 61 66
REMARK Flexibility Score: inf
ROOT
ATOM      1  C   UNL A   1      33.662  19.418  24.606  1.00  0.00     0.188 C 
ENDROOT
BRANCH   1   2
ATOM      2  C   UNL A   1      33.687  20.783  23.908  1.00  0.00     0.188 C 
BRANCH   2   3
ATOM      3  O   UNL A   1      32.413  21.317  23.597  1.00  0.00    -0.376 OA
BRANCH   3   4
ATOM      4  C   UNL A   1      32.159  22.381  22.706  1.00  0.00     0.202 C 
BRANCH   4   5
ATOM      5  C   UNL A   1      33.287  23.252  22.163  1.00  0.00     0.261 C 
BRANCH   5   6
ATOM      6  O   UNL A   1      32.924  24.365  21.331  1.00  0.00    -0.463 OA
BRANCH   6   7
ATOM      7  C   UNL A   1      32.730  25.647  21.699  1.00  0.00     0.310 C 
ATOM      8  O   UNL A   1      31.682  26.205  21.378  1.00  0.00    -0.252 OA
BRANCH   7   9
ATOM      9  C   UNL A   1      33.836  26.419  22.376  1.00  0.00     0.160 C 
BRANCH   9  10
ATOM     10  C   UNL A   1      33.529  27.125  23.672  1.00  0.00    -0.013 A 
ATOM     11  C   UNL A   1      33.486  28.531  23.686  1.00  0.00     0.006 A 
ATOM     12  C   UNL A   1      33.386  26.398  24.886  1.00  0.00     0.042 A 
ATOM     13  C   UNL A   1      33.290  29.224  24.873  1.00  0.00     0.000 A 
ATOM     14  C   UNL A   1      33.266  27.132  26.071  1.00  0.00     0.026 A 
ATOM     15  C   UNL A   1      33.203  28.525  26.067  1.00  0.00     0.002 A 
BRANCH  12  16
ATOM     16  N   UNL A   1      33.288  24.985  24.890  1.00  0.00    -0.354 N 
ATOM     17  H   UNL A   1      33.056  24.595  24.017  1.00  0.00     0.167 HD
BRANCH  16  18
ATOM     18  C   UNL A   1      33.464  24.031  25.927  1.00  0.00     0.070 A 
ATOM     19  C   UNL A   1      32.312  23.637  26.658  1.00  0.00     0.065 A 
ATOM     20  C   UNL A   1      34.679  23.377  26.218  1.00  0.00     0.080 A 
ATOM     21  Cl  UNL A   1      30.811  24.481  26.451  1.00  0.00    -0.082 Cl
ATOM     22  C   UNL A   1      32.334  22.567  27.555  1.00  0.00     0.023 A 
ATOM     23  C   UNL A   1      34.671  22.271  27.103  1.00  0.00     0.015 A 
ATOM     24  C   UNL A   1      33.510  21.860  27.752  1.00  0.00     0.002 A 
BRANCH  20  25
ATOM     25  C   UNL A   1      36.030  23.808  25.692  1.00  0.00     0.418 C 
ATOM     26  F   UNL A   1      36.258  23.325  24.431  1.00  0.00    -0.166 F 
ATOM     27  F   UNL A   1      36.136  25.162  25.566  1.00  0.00    -0.166 F 
ATOM     28  F   UNL A   1      37.106  23.400  26.417  1.00  0.00    -0.166 F 
ENDBRANCH  20  25
ENDBRANCH  16  18
ENDBRANCH  12  16
ENDBRANCH   9  10
ENDBRANCH   7   9
ENDBRANCH   6   7
ENDBRANCH   5   6
ENDBRANCH   4   5
ENDBRANCH   3   4
ENDBRANCH   2   3
ENDBRANCH   1   2
BRANCH   1  29
ATOM     29  O   UNL A   1      34.932  18.916  25.008  1.00  0.00    -0.377 OA
BRANCH  29  30
ATOM     30  C   UNL A   1      35.999  19.841  24.871  1.00  0.00     0.188 C 
BRANCH  30  31
ATOM     31  C   UNL A   1      37.413  19.228  24.996  1.00  0.00     0.188 C 
BRANCH  31  32
ATOM     32  O   UNL A   1      38.580  20.033  25.037  1.00  0.00    -0.376 OA
BRANCH  32  33
ATOM     33  C   UNL A   1      39.673  19.701  25.873  1.00  0.00     0.202 C 
BRANCH  33  34
ATOM     34  C   UNL A   1      40.876  20.634  26.103  1.00  0.00     0.261 C 
BRANCH  34  35
ATOM     35  O   UNL A   1      40.638  22.042  26.033  1.00  0.00    -0.460 OA
BRANCH  35  36
ATOM     36  C   UNL A   1      41.730  22.827  25.892  1.00  0.00     0.338 C 
ATOM     37  O   UNL A   1      42.669  22.668  25.130  1.00  0.00    -0.246 OA
BRANCH  36  38
ATOM     38  C   UNL A   1      41.503  24.057  26.679  1.00  0.00     0.060 A 
ATOM     39  C   UNL A   1      42.338  25.162  26.457  1.00  0.00     0.016 A 
ATOM     40  C   UNL A   1      40.440  24.144  27.580  1.00  0.00     0.016 A 
ATOM     41  C   UNL A   1      42.101  26.364  27.118  1.00  0.00     0.010 A 
ATOM     42  C   UNL A   1      40.238  25.333  28.283  1.00  0.00     0.010 A 
ATOM     43  C   UNL A   1      41.073  26.443  28.063  1.00  0.00    -0.014 A 
BRANCH  43  44
ATOM     44  C   UNL A   1      40.980  27.622  28.953  1.00  0.00     0.031 A 
ATOM     45  C   UNL A   1      41.957  27.725  30.088  1.00  0.00     0.074 A 
ATOM     46  C   UNL A   1      40.046  28.569  28.764  1.00  0.00     0.049 A 
ATOM     47  N   UNL A   1      42.004  28.590  31.068  1.00  0.00    -0.248 NA
ATOM     48  C   UNL A   1      43.025  26.710  30.126  1.00  0.00     0.031 C 
ATOM     49  C   UNL A   1      39.082  28.601  27.666  1.00  0.00     0.029 A 
ATOM     50  N   UNL A   1      39.743  29.679  29.514  1.00  0.00    -0.354 N 
ATOM     51  C   UNL A   1      43.091  28.215  31.844  1.00  0.00     0.074 A 
ATOM     52  C   UNL A   1      43.674  27.042  31.232  1.00  0.00     0.031 C 
ATOM     53  C   UNL A   1      38.269  29.661  27.834  1.00  0.00     0.029 A 
ATOM     54  C   UNL A   1      38.629  30.352  29.071  1.00  0.00     0.049 A 
ATOM     55  H   UNL A   1      40.271  29.965  30.293  1.00  0.00     0.167 HD
ATOM     56  C   UNL A   1      43.556  28.800  32.971  1.00  0.00     0.037 A 
ATOM     57  C   UNL A   1      37.956  31.377  29.631  1.00  0.00     0.037 A 
ATOM     58  C   UNL A   1      42.973  29.969  33.573  1.00  0.00     0.049 A 
ATOM     59  C   UNL A   1      38.448  31.953  30.939  1.00  0.00     0.074 A 
ATOM     60  C   UNL A   1      43.398  30.663  34.691  1.00  0.00     0.029 A 
ATOM     61  N   UNL A   1      41.832  30.607  33.112  1.00  0.00    -0.354 N 
ATOM     62  N   UNL A   1      39.503  31.626  31.646  1.00  0.00    -0.248 NA
ATOM     63  C   UNL A   1      37.651  33.038  31.529  1.00  0.00     0.031 C 
ATOM     64  C   UNL A   1      42.473  31.678  34.950  1.00  0.00     0.029 A 
ATOM     65  C   UNL A   1      41.510  31.659  33.955  1.00  0.00     0.049 A 
ATOM     66  H   UNL A   1      41.325  30.350  32.309  1.00  0.00     0.167 HD
ATOM     67  C   UNL A   1      39.507  32.476  32.746  1.00  0.00     0.074 A 
ATOM     68  C   UNL A   1      38.364  33.352  32.600  1.00  0.00     0.031 C 
ATOM     69  C   UNL A   1      40.372  32.525  33.789  1.00  0.00     0.037 A 
BRANCH  56  70
ATOM     70  C   UNL A   1      44.731  28.172  33.658  1.00  0.00     0.064 A 
ATOM     71  C   UNL A   1      44.581  27.106  34.555  1.00  0.00     0.173 A 
ATOM     72  C   UNL A   1      46.032  28.595  33.348  1.00  0.00     0.173 A 
ATOM     73  F   UNL A   1      43.356  26.677  34.896  1.00  0.00    -0.203 F 
ATOM     74  C   UNL A   1      45.693  26.487  35.121  1.00  0.00     0.198 A 
ATOM     75  C   UNL A   1      47.141  27.956  33.893  1.00  0.00     0.198 A 
ATOM     76  F   UNL A   1      46.229  29.612  32.495  1.00  0.00    -0.203 F 
ATOM     77  F   UNL A   1      45.527  25.485  35.996  1.00  0.00    -0.200 F 
ATOM     78  C   UNL A   1      46.971  26.904  34.781  1.00  0.00     0.200 A 
ATOM     79  F   UNL A   1      48.375  28.351  33.551  1.00  0.00    -0.200 F 
ATOM     80  F   UNL A   1      48.040  26.291  35.307  1.00  0.00    -0.200 F 
ENDBRANCH  56  70
BRANCH  57  81
ATOM     81  C   UNL A   1      36.707  31.895  29.007  1.00  0.00     0.064 A 
ATOM     82  C   UNL A   1      36.597  33.235  28.607  1.00  0.00     0.173 A 
ATOM     83  C   UNL A   1      35.575  31.079  28.862  1.00  0.00     0.173 A 
ATOM     84  F   UNL A   1      37.641  34.065  28.751  1.00  0.00    -0.203 F 
ATOM     85  C   UNL A   1      35.393  33.745  28.122  1.00  0.00     0.198 A 
ATOM     86  C   UNL A   1      34.384  31.581  28.343  1.00  0.00     0.198 A 
ATOM     87  F   UNL A   1      35.621  29.792  29.235  1.00  0.00    -0.203 F 
ATOM     88  F   UNL A   1      35.296  35.046  27.817  1.00  0.00    -0.200 F 
ATOM     89  C   UNL A   1      34.289  32.918  27.987  1.00  0.00     0.200 A 
ATOM     90  F   UNL A   1      33.323  30.775  28.203  1.00  0.00    -0.200 F 
ATOM     91  F   UNL A   1      33.131  33.412  27.529  1.00  0.00    -0.200 F 
ENDBRANCH  57  81
BRANCH  69  92
ATOM     92  C   UNL A   1      40.135  33.571  34.841  1.00  0.00     0.064 A 
ATOM     93  C   UNL A   1      40.640  34.873  34.709  1.00  0.00     0.173 A 
ATOM     94  C   UNL A   1      39.347  33.285  35.966  1.00  0.00     0.173 A 
ATOM     95  F   UNL A   1      41.411  35.195  33.659  1.00  0.00    -0.203 F 
ATOM     96  C   UNL A   1      40.384  35.842  35.675  1.00  0.00     0.198 A 
ATOM     97  C   UNL A   1      39.064  34.265  36.913  1.00  0.00     0.198 A 
ATOM     98  F   UNL A   1      38.830  32.058  36.136  1.00  0.00    -0.203 F 
ATOM     99  F   UNL A   1      40.917  37.065  35.552  1.00  0.00    -0.200 F 
ATOM    100  C   UNL A   1      39.589  35.540  36.771  1.00  0.00     0.200 A 
ATOM    101  F   UNL A   1      38.280  33.976  37.960  1.00  0.00    -0.200 F 
ATOM    102  F   UNL A   1      39.333  36.477  37.693  1.00  0.00    -0.200 F 
ENDBRANCH  69  92
ENDBRANCH  43  44
ENDBRANCH  36  38
ENDBRANCH  35  36
ENDBRANCH  34  35
ENDBRANCH  33  34
ENDBRANCH  32  33
ENDBRANCH  31  32
ENDBRANCH  30  31
ENDBRANCH  29  30
ENDBRANCH   1  29
TORSDOF 24
ENDMDL
MODEL 2
REMARK VINA RESULT:      -9.1      2.274      7.644
REMARK SMILES O=C(Cc1ccccc1Nc1c(Cl)cccc1C(F)(F)F)OCCOCCOCCOCCOC(=O)c1ccc(-c2c3nc(c(-c4c(F)c(F)c(F)c(F)c4F)c4ccc([nH]4)c(-c4c(F)c(F)c(F)c(F)c4F)c4nc(c(-c5c(F)c(F)c(F)c(F)c5F)c5ccc2[nH]5)C=C4)C=C3)cc1
REMARK SMILES IDX 27 1 26 2 25 3 24 4 23 5 22 6 2 7 1 8 3 9 4 10 5 11 9 12
REMARK SMILES IDX 6 13 8 14 7 15 10 16 11 18 12 19 17 20 13 21 14 22 16 23
REMARK SMILES IDX 15 24 18 25 19 26 20 27 21 28 28 29 29 30 30 31 31 32 32 33
REMARK SMILES IDX 33 34 34 35 35 36 36 37 37 38 38 39 99 40 39 41 98 42 40 43
REMARK SMILES IDX 41 44 42 45 92 46 43 47 97 48 91 49 93 50 44 51 96 52 90 53
REMARK SMILES IDX 89 54 45 56 77 57 57 58 76 59 58 60 61 61 75 62 94 63 59 64
REMARK SMILES IDX 60 65 74 67 95 68 62 69 46 70 47 71 55 72 48 73 49 74 53 75
REMARK SMILES IDX 56 76 50 77 51 78 54 79 52 80 78 81 79 82 87 83 80 84 81 85
REMARK SMILES IDX 85 86 88 87 82 88 83 89 86 90 84 91 63 92 64 93 72 94 65 95
REMARK SMILES IDX 66 96 70 97 73 98 67 99 68 100 71 101 69 102
REMARK H PARENT 10 17 93 55 61 66
REMARK Flexibility Score: inf
ROOT
ATOM      1  C   UNL A   1      39.606  25.075  26.852  1.00  0.00     0.188 C 
ENDROOT
BRANCH   1   2
ATOM      2  C   UNL A   1      38.426  24.113  27.029  1.00  0.00     0.188 C 
BRANCH   2   3
ATOM      3  O   UNL A   1      37.562  24.015  25.912  1.00  0.00    -0.376 OA
BRANCH   3   4
ATOM      4  C   UNL A   1      36.378  23.251  25.847  1.00  0.00     0.202 C 
BRANCH   4   5
ATOM      5  C   UNL A   1      35.014  23.909  25.677  1.00  0.00     0.261 C 
BRANCH   5   6
ATOM      6  O   UNL A   1      34.977  25.218  25.086  1.00  0.00    -0.463 OA
BRANCH   6   7
ATOM      7  C   UNL A   1      33.920  26.045  24.966  1.00  0.00     0.310 C 
ATOM      8  O   UNL A   1      33.291  26.355  25.977  1.00  0.00    -0.252 OA
BRANCH   7   9
ATOM      9  C   UNL A   1      33.441  26.472  23.601  1.00  0.00     0.160 C 
BRANCH   9  10
ATOM     10  C   UNL A   1      32.107  27.166  23.494  1.00  0.00    -0.013 A 
ATOM     11  C   UNL A   1      32.062  28.569  23.575  1.00  0.00     0.006 A 
ATOM     12  C   UNL A   1      30.899  26.420  23.416  1.00  0.00     0.042 A 
ATOM     13  C   UNL A   1      30.848  29.243  23.565  1.00  0.00     0.000 A 
ATOM     14  C   UNL A   1      29.694  27.129  23.484  1.00  0.00     0.026 A 
ATOM     15  C   UNL A   1      29.665  28.522  23.542  1.00  0.00     0.002 A 
BRANCH  12  16
ATOM     16  N   UNL A   1      30.910  25.021  23.197  1.00  0.00    -0.354 N 
ATOM     17  H   UNL A   1      30.519  24.745  22.337  1.00  0.00     0.167 HD
BRANCH  16  18
ATOM     18  C   UNL A   1      31.385  23.945  23.993  1.00  0.00     0.070 A 
ATOM     19  C   UNL A   1      30.901  23.852  25.325  1.00  0.00     0.065 A 
ATOM     20  C   UNL A   1      32.225  22.913  23.528  1.00  0.00     0.080 A 
ATOM     21  Cl  UNL A   1      29.971  25.145  26.013  1.00  0.00    -0.082 Cl
ATOM     22  C   UNL A   1      31.142  22.733  26.125  1.00  0.00     0.023 A 
ATOM     23  C   UNL A   1      32.426  21.770  24.341  1.00  0.00     0.015 A 
ATOM     24  C   UNL A   1      31.878  21.674  25.618  1.00  0.00     0.002 A 
BRANCH  20  25
ATOM     25  C   UNL A   1      32.991  22.954  22.225  1.00  0.00     0.418 C 
ATOM     26  F   UNL A   1      32.793  24.135  21.561  1.00  0.00    -0.166 F 
ATOM     27  F   UNL A   1      34.340  22.883  22.407  1.00  0.00    -0.166 F 
ATOM     28  F   UNL A   1      32.670  21.992  21.318  1.00  0.00    -0.166 F 
ENDBRANCH  20  25
ENDBRANCH  16  18
ENDBRANCH  12  16
ENDBRANCH   9  10
ENDBRANCH   7   9
ENDBRANCH   6   7
ENDBRANCH   5   6
ENDBRANCH   4   5
ENDBRANCH   3   4
ENDBRANCH   2   3
ENDBRANCH   1   2
BRANCH   1  29
ATOM     29  O   UNL A   1      40.788  24.496  26.310  1.00  0.00    -0.377 OA
BRANCH  29  30
ATOM     30  C   UNL A   1      41.227  23.324  26.978  1.00  0.00     0.188 C 
BRANCH  30  31
ATOM     31  C   UNL A   1      41.894  22.267  26.069  1.00  0.00     0.188 C 
BRANCH  31  32
ATOM     32  O   UNL A   1      43.247  22.373  25.658  1.00  0.00    -0.376 OA
BRANCH  32  33
ATOM     33  C   UNL A   1      43.658  23.360  24.730  1.00  0.00     0.202 C 
BRANCH  33  34
ATOM     34  C   UNL A   1      45.052  24.014  24.752  1.00  0.00     0.261 C 
BRANCH  34  35
ATOM     35  O   UNL A   1      45.306  24.983  25.772  1.00  0.00    -0.460 OA
BRANCH  35  36
ATOM     36  C   UNL A   1      45.649  24.497  26.987  1.00  0.00     0.338 C 
ATOM     37  O   UNL A   1      46.514  23.678  27.245  1.00  0.00    -0.246 OA
BRANCH  36  38
ATOM     38  C   UNL A   1      44.932  25.291  28.006  1.00  0.00     0.060 A 
ATOM     39  C   UNL A   1      45.078  26.687  27.998  1.00  0.00     0.016 A 
ATOM     40  C   UNL A   1      44.075  24.676  28.920  1.00  0.00     0.016 A 
ATOM     41  C   UNL A   1      44.353  27.473  28.889  1.00  0.00     0.010 A 
ATOM     42  C   UNL A   1      43.390  25.462  29.849  1.00  0.00     0.010 A 
ATOM     43  C   UNL A   1      43.534  26.861  29.844  1.00  0.00    -0.014 A 
BRANCH  43  44
ATOM     44  C   UNL A   1      42.969  27.662  30.952  1.00  0.00     0.031 A 
ATOM     45  C   UNL A   1      41.693  28.412  30.700  1.00  0.00     0.074 A 
ATOM     46  C   UNL A   1      43.580  27.731  32.147  1.00  0.00     0.049 A 
ATOM     47  N   UNL A   1      41.070  29.271  31.464  1.00  0.00    -0.248 NA
ATOM     48  C   UNL A   1      41.032  28.161  29.407  1.00  0.00     0.031 C 
ATOM     49  C   UNL A   1      44.791  27.005  32.523  1.00  0.00     0.029 A 
ATOM     50  N   UNL A   1      43.271  28.472  33.261  1.00  0.00    -0.354 N 
ATOM     51  C   UNL A   1      39.956  29.674  30.739  1.00  0.00     0.074 A 
ATOM     52  C   UNL A   1      39.989  28.976  29.474  1.00  0.00     0.031 C 
ATOM     53  C   UNL A   1      45.144  27.364  33.771  1.00  0.00     0.029 A 
ATOM     54  C   UNL A   1      44.208  28.375  34.261  1.00  0.00     0.049 A 
ATOM     55  H   UNL A   1      42.457  29.020  33.336  1.00  0.00     0.167 HD
ATOM     56  C   UNL A   1      38.995  30.553  31.103  1.00  0.00     0.037 A 
ATOM     57  C   UNL A   1      44.318  29.063  35.416  1.00  0.00     0.037 A 
ATOM     58  C   UNL A   1      38.967  31.242  32.365  1.00  0.00     0.049 A 
ATOM     59  C   UNL A   1      43.276  30.104  35.754  1.00  0.00     0.074 A 
ATOM     60  C   UNL A   1      38.012  32.120  32.844  1.00  0.00     0.029 A 
ATOM     61  N   UNL A   1      39.946  31.139  33.341  1.00  0.00    -0.354 N 
ATOM     62  N   UNL A   1      42.200  30.449  35.089  1.00  0.00    -0.248 NA
ATOM     63  C   UNL A   1      43.469  30.856  37.003  1.00  0.00     0.031 C 
ATOM     64  C   UNL A   1      38.448  32.604  34.080  1.00  0.00     0.029 A 
ATOM     65  C   UNL A   1      39.640  31.977  34.401  1.00  0.00     0.049 A 
ATOM     66  H   UNL A   1      40.739  30.560  33.288  1.00  0.00     0.167 HD
ATOM     67  C   UNL A   1      41.580  31.437  35.845  1.00  0.00     0.074 A 
ATOM     68  C   UNL A   1      42.386  31.618  37.034  1.00  0.00     0.031 C 
ATOM     69  C   UNL A   1      40.451  32.139  35.580  1.00  0.00     0.037 A 
BRANCH  56  70
ATOM     70  C   UNL A   1      37.910  30.857  30.115  1.00  0.00     0.064 A 
ATOM     71  C   UNL A   1      37.875  32.064  29.402  1.00  0.00     0.173 A 
ATOM     72  C   UNL A   1      36.936  29.891  29.823  1.00  0.00     0.173 A 
ATOM     73  F   UNL A   1      38.774  33.026  29.657  1.00  0.00    -0.203 F 
ATOM     74  C   UNL A   1      36.901  32.292  28.433  1.00  0.00     0.198 A 
ATOM     75  C   UNL A   1      35.983  30.111  28.834  1.00  0.00     0.198 A 
ATOM     76  F   UNL A   1      36.927  28.720  30.479  1.00  0.00    -0.203 F 
ATOM     77  F   UNL A   1      36.870  33.462  27.779  1.00  0.00    -0.200 F 
ATOM     78  C   UNL A   1      35.964  31.312  28.141  1.00  0.00     0.200 A 
ATOM     79  F   UNL A   1      35.088  29.156  28.545  1.00  0.00    -0.200 F 
ATOM     80  F   UNL A   1      35.044  31.524  27.191  1.00  0.00    -0.200 F 
ENDBRANCH  56  70
BRANCH  57  81
ATOM     81  C   UNL A   1      45.482  28.848  36.319  1.00  0.00     0.064 A 
ATOM     82  C   UNL A   1      46.692  29.528  36.119  1.00  0.00     0.173 A 
ATOM     83  C   UNL A   1      45.431  27.906  37.359  1.00  0.00     0.173 A 
ATOM     84  F   UNL A   1      46.804  30.417  35.121  1.00  0.00    -0.203 F 
ATOM     85  C   UNL A   1      47.814  29.247  36.897  1.00  0.00     0.198 A 
ATOM     86  C   UNL A   1      46.542  27.653  38.160  1.00  0.00     0.198 A 
ATOM     87  F   UNL A   1      44.302  27.222  37.591  1.00  0.00    -0.203 F 
ATOM     88  F   UNL A   1      48.978  29.858  36.635  1.00  0.00    -0.200 F 
ATOM     89  C   UNL A   1      47.738  28.313  37.919  1.00  0.00     0.200 A 
ATOM     90  F   UNL A   1      46.460  26.758  39.154  1.00  0.00    -0.200 F 
ATOM     91  F   UNL A   1      48.819  28.038  38.661  1.00  0.00    -0.200 F 
ENDBRANCH  57  81
BRANCH  69  92
ATOM     92  C   UNL A   1      40.003  33.148  36.599  1.00  0.00     0.064 A 
ATOM     93  C   UNL A   1      40.523  34.450  36.621  1.00  0.00     0.173 A 
ATOM     94  C   UNL A   1      39.001  32.826  37.527  1.00  0.00     0.173 A 
ATOM     95  F   UNL A   1      41.493  34.804  35.764  1.00  0.00    -0.203 F 
ATOM     96  C   UNL A   1      40.075  35.385  37.550  1.00  0.00     0.198 A 
ATOM     97  C   UNL A   1      38.529  33.773  38.432  1.00  0.00     0.198 A 
ATOM     98  F   UNL A   1      38.461  31.598  37.543  1.00  0.00    -0.203 F 
ATOM     99  F   UNL A   1      40.621  36.609  37.584  1.00  0.00    -0.200 F 
ATOM    100  C   UNL A   1      39.072  35.050  38.447  1.00  0.00     0.200 A 
ATOM    101  F   UNL A   1      37.548  33.453  39.285  1.00  0.00    -0.200 F 
ATOM    102  F   UNL A   1      38.632  35.954  39.332  1.00  0.00    -0.200 F 
ENDBRANCH  69  92
ENDBRANCH  43  44
ENDBRANCH  36  38
ENDBRANCH  35  36
ENDBRANCH  34  35
ENDBRANCH  33  34
ENDBRANCH  32  33
ENDBRANCH  31  32
ENDBRANCH  30  31
ENDBRANCH  29  30
ENDBRANCH   1  29
TORSDOF 24
ENDMDL
MODEL 3
REMARK VINA RESULT:      -8.9      8.519     14.640
REMARK SMILES O=C(Cc1ccccc1Nc1c(Cl)cccc1C(F)(F)F)OCCOCCOCCOCCOC(=O)c1ccc(-c2c3nc(c(-c4c(F)c(F)c(F)c(F)c4F)c4ccc([nH]4)c(-c4c(F)c(F)c(F)c(F)c4F)c4nc(c(-c5c(F)c(F)c(F)c(F)c5F)c5ccc2[nH]5)C=C4)C=C3)cc1
REMARK SMILES IDX 27 1 26 2 25 3 24 4 23 5 22 6 2 7 1 8 3 9 4 10 5 11 9 12
REMARK SMILES IDX 6 13 8 14 7 15 10 16 11 18 12 19 17 20 13 21 14 22 16 23
REMARK SMILES IDX 15 24 18 25 19 26 20 27 21 28 28 29 29 30 30 31 31 32 32 33
REMARK SMILES IDX 33 34 34 35 35 36 36 37 37 38 38 39 99 40 39 41 98 42 40 43
REMARK SMILES IDX 41 44 42 45 92 46 43 47 97 48 91 49 93 50 44 51 96 52 90 53
REMARK SMILES IDX 89 54 45 56 77 57 57 58 76 59 58 60 61 61 75 62 94 63 59 64
REMARK SMILES IDX 60 65 74 67 95 68 62 69 46 70 47 71 55 72 48 73 49 74 53 75
REMARK SMILES IDX 56 76 50 77 51 78 54 79 52 80 78 81 79 82 87 83 80 84 81 85
REMARK SMILES IDX 85 86 88 87 82 88 83 89 86 90 84 91 63 92 64 93 72 94 65 95
REMARK SMILES IDX 66 96 70 97 73 98 67 99 68 100 71 101 69 102
REMARK H PARENT 10 17 93 55 61 66
REMARK Flexibility Score: inf
ROOT
ATOM      1  C   UNL A   1      46.709  20.490  37.543  1.00  0.00     0.188 C 
ENDROOT
BRANCH   1   2
ATOM      2  C   UNL A   1      46.258  19.042  37.772  1.00  0.00     0.188 C 
BRANCH   2   3
ATOM      3  O   UNL A   1      46.601  18.502  39.034  1.00  0.00    -0.376 OA
BRANCH   3   4
ATOM      4  C   UNL A   1      47.616  18.980  39.889  1.00  0.00     0.202 C 
BRANCH   4   5
ATOM      5  C   UNL A   1      47.918  18.306  41.222  1.00  0.00     0.261 C 
BRANCH   5   6
ATOM      6  O   UNL A   1      46.922  17.422  41.760  1.00  0.00    -0.463 OA
BRANCH   6   7
ATOM      7  C   UNL A   1      46.990  16.679  42.883  1.00  0.00     0.310 C 
ATOM      8  O   UNL A   1      47.766  17.020  43.774  1.00  0.00    -0.252 OA
BRANCH   7   9
ATOM      9  C   UNL A   1      46.225  15.383  42.983  1.00  0.00     0.160 C 
BRANCH   9  10
ATOM     10  C   UNL A   1      45.792  14.909  44.347  1.00  0.00    -0.013 A 
ATOM     11  C   UNL A   1      46.770  14.450  45.249  1.00  0.00     0.006 A 
ATOM     12  C   UNL A   1      44.415  14.826  44.691  1.00  0.00     0.042 A 
ATOM     13  C   UNL A   1      46.409  13.927  46.483  1.00  0.00     0.000 A 
ATOM     14  C   UNL A   1      44.086  14.224  45.910  1.00  0.00     0.026 A 
ATOM     15  C   UNL A   1      45.067  13.794  46.803  1.00  0.00     0.002 A 
BRANCH  12  16
ATOM     16  N   UNL A   1      43.416  15.401  43.868  1.00  0.00    -0.354 N 
ATOM     17  H   UNL A   1      43.100  16.282  44.174  1.00  0.00     0.167 HD
BRANCH  16  18
ATOM     18  C   UNL A   1      42.787  14.937  42.682  1.00  0.00     0.070 A 
ATOM     19  C   UNL A   1      42.980  15.696  41.498  1.00  0.00     0.065 A 
ATOM     20  C   UNL A   1      42.068  13.729  42.576  1.00  0.00     0.080 A 
ATOM     21  Cl  UNL A   1      43.741  17.254  41.569  1.00  0.00    -0.082 Cl
ATOM     22  C   UNL A   1      42.580  15.230  40.244  1.00  0.00     0.023 A 
ATOM     23  C   UNL A   1      41.704  13.256  41.291  1.00  0.00     0.015 A 
ATOM     24  C   UNL A   1      41.970  13.989  40.137  1.00  0.00     0.002 A 
BRANCH  20  25
ATOM     25  C   UNL A   1      41.593  12.909  43.754  1.00  0.00     0.418 C 
ATOM     26  F   UNL A   1      40.521  12.124  43.423  1.00  0.00    -0.166 F 
ATOM     27  F   UNL A   1      42.538  12.031  44.196  1.00  0.00    -0.166 F 
ATOM     28  F   UNL A   1      41.179  13.615  44.840  1.00  0.00    -0.166 F 
ENDBRANCH  20  25
ENDBRANCH  16  18
ENDBRANCH  12  16
ENDBRANCH   9  10
ENDBRANCH   7   9
ENDBRANCH   6   7
ENDBRANCH   5   6
ENDBRANCH   4   5
ENDBRANCH   3   4
ENDBRANCH   2   3
ENDBRANCH   1   2
BRANCH   1  29
ATOM     29  O   UNL A   1      45.693  21.475  37.693  1.00  0.00    -0.377 OA
BRANCH  29  30
ATOM     30  C   UNL A   1      46.062  22.581  38.500  1.00  0.00     0.188 C 
BRANCH  30  31
ATOM     31  C   UNL A   1      47.584  22.757  38.708  1.00  0.00     0.188 C 
BRANCH  31  32
ATOM     32  O   UNL A   1      48.311  23.809  38.094  1.00  0.00    -0.376 OA
BRANCH  32  33
ATOM     33  C   UNL A   1      48.872  23.660  36.803  1.00  0.00     0.202 C 
BRANCH  33  34
ATOM     34  C   UNL A   1      48.360  24.419  35.565  1.00  0.00     0.261 C 
BRANCH  34  35
ATOM     35  O   UNL A   1      48.613  25.825  35.506  1.00  0.00    -0.460 OA
BRANCH  35  36
ATOM     36  C   UNL A   1      47.862  26.602  36.318  1.00  0.00     0.338 C 
ATOM     37  O   UNL A   1      48.176  27.079  37.395  1.00  0.00    -0.246 OA
BRANCH  36  38
ATOM     38  C   UNL A   1      46.635  26.969  35.579  1.00  0.00     0.060 A 
ATOM     39  C   UNL A   1      46.658  28.108  34.761  1.00  0.00     0.016 A 
ATOM     40  C   UNL A   1      45.495  26.165  35.641  1.00  0.00     0.016 A 
ATOM     41  C   UNL A   1      45.549  28.437  33.985  1.00  0.00     0.010 A 
ATOM     42  C   UNL A   1      44.366  26.527  34.904  1.00  0.00     0.010 A 
ATOM     43  C   UNL A   1      44.385  27.668  34.082  1.00  0.00    -0.014 A 
BRANCH  43  44
ATOM     44  C   UNL A   1      43.129  28.154  33.470  1.00  0.00     0.031 A 
ATOM     45  C   UNL A   1      42.866  27.808  32.033  1.00  0.00     0.074 A 
ATOM     46  C   UNL A   1      42.250  28.893  34.169  1.00  0.00     0.049 A 
ATOM     47  N   UNL A   1      41.906  28.213  31.243  1.00  0.00    -0.248 NA
ATOM     48  C   UNL A   1      43.820  26.882  31.398  1.00  0.00     0.031 C 
ATOM     49  C   UNL A   1      42.373  29.243  35.582  1.00  0.00     0.029 A 
ATOM     50  N   UNL A   1      41.085  29.502  33.769  1.00  0.00    -0.354 N 
ATOM     51  C   UNL A   1      42.150  27.606  30.018  1.00  0.00     0.074 A 
ATOM     52  C   UNL A   1      43.349  26.812  30.162  1.00  0.00     0.031 C 
ATOM     53  C   UNL A   1      41.342  30.038  35.924  1.00  0.00     0.029 A 
ATOM     54  C   UNL A   1      40.514  30.283  34.744  1.00  0.00     0.049 A 
ATOM     55  H   UNL A   1      40.698  29.389  32.871  1.00  0.00     0.167 HD
ATOM     56  C   UNL A   1      41.433  27.709  28.877  1.00  0.00     0.037 A 
ATOM     57  C   UNL A   1      39.470  31.135  34.671  1.00  0.00     0.037 A 
ATOM     58  C   UNL A   1      40.238  28.498  28.742  1.00  0.00     0.049 A 
ATOM     59  C   UNL A   1      38.743  31.296  33.356  1.00  0.00     0.074 A 
ATOM     60  C   UNL A   1      39.416  28.632  27.637  1.00  0.00     0.029 A 
ATOM     61  N   UNL A   1      39.704  29.297  29.741  1.00  0.00    -0.354 N 
ATOM     62  N   UNL A   1      38.947  30.686  32.213  1.00  0.00    -0.248 NA
ATOM     63  C   UNL A   1      37.643  32.271  33.320  1.00  0.00     0.031 C 
ATOM     64  C   UNL A   1      38.425  29.568  27.945  1.00  0.00     0.029 A 
ATOM     65  C   UNL A   1      38.589  29.965  29.261  1.00  0.00     0.049 A 
ATOM     66  H   UNL A   1      40.064  29.378  30.653  1.00  0.00     0.167 HD
ATOM     67  C   UNL A   1      37.992  31.184  31.335  1.00  0.00     0.074 A 
ATOM     68  C   UNL A   1      37.190  32.128  32.084  1.00  0.00     0.031 C 
ATOM     69  C   UNL A   1      37.799  30.896  30.024  1.00  0.00     0.037 A 
BRANCH  56  70
ATOM     70  C   UNL A   1      41.933  26.984  27.664  1.00  0.00     0.064 A 
ATOM     71  C   UNL A   1      42.902  27.540  26.817  1.00  0.00     0.173 A 
ATOM     72  C   UNL A   1      41.490  25.681  27.394  1.00  0.00     0.173 A 
ATOM     73  F   UNL A   1      43.345  28.789  27.024  1.00  0.00    -0.203 F 
ATOM     74  C   UNL A   1      43.409  26.815  25.740  1.00  0.00     0.198 A 
ATOM     75  C   UNL A   1      42.019  24.950  26.335  1.00  0.00     0.198 A 
ATOM     76  F   UNL A   1      40.563  25.105  28.175  1.00  0.00    -0.203 F 
ATOM     77  F   UNL A   1      44.318  27.373  24.928  1.00  0.00    -0.200 F 
ATOM     78  C   UNL A   1      42.977  25.518  25.508  1.00  0.00     0.200 A 
ATOM     79  F   UNL A   1      41.610  23.692  26.121  1.00  0.00    -0.200 F 
ATOM     80  F   UNL A   1      43.483  24.815  24.486  1.00  0.00    -0.200 F 
ENDBRANCH  56  70
BRANCH  57  81
ATOM     81  C   UNL A   1      39.077  31.954  35.850  1.00  0.00     0.064 A 
ATOM     82  C   UNL A   1      38.231  31.439  36.843  1.00  0.00     0.173 A 
ATOM     83  C   UNL A   1      39.482  33.292  35.973  1.00  0.00     0.173 A 
ATOM     84  F   UNL A   1      37.791  30.175  36.758  1.00  0.00    -0.203 F 
ATOM     85  C   UNL A   1      37.777  32.240  37.890  1.00  0.00     0.198 A 
ATOM     86  C   UNL A   1      39.057  34.081  37.039  1.00  0.00     0.198 A 
ATOM     87  F   UNL A   1      40.285  33.839  35.049  1.00  0.00    -0.203 F 
ATOM     88  F   UNL A   1      36.910  31.743  38.783  1.00  0.00    -0.200 F 
ATOM     89  C   UNL A   1      38.193  33.559  37.990  1.00  0.00     0.200 A 
ATOM     90  F   UNL A   1      39.471  35.351  37.138  1.00  0.00    -0.200 F 
ATOM     91  F   UNL A   1      37.749  34.330  38.991  1.00  0.00    -0.200 F 
ENDBRANCH  57  81
BRANCH  69  92
ATOM     92  C   UNL A   1      36.665  31.585  29.320  1.00  0.00     0.064 A 
ATOM     93  C   UNL A   1      35.519  30.886  28.913  1.00  0.00     0.173 A 
ATOM     94  C   UNL A   1      36.699  32.971  29.102  1.00  0.00     0.173 A 
ATOM     95  F   UNL A   1      35.442  29.558  29.087  1.00  0.00    -0.203 F 
ATOM     96  C   UNL A   1      34.461  31.544  28.292  1.00  0.00     0.198 A 
ATOM     97  C   UNL A   1      35.625  33.632  28.512  1.00  0.00     0.198 A 
ATOM     98  F   UNL A   1      37.766  33.691  29.481  1.00  0.00    -0.203 F 
ATOM     99  F   UNL A   1      33.398  30.847  27.868  1.00  0.00    -0.200 F 
ATOM    100  C   UNL A   1      34.510  32.916  28.101  1.00  0.00     0.200 A 
ATOM    101  F   UNL A   1      35.667  34.960  28.346  1.00  0.00    -0.200 F 
ATOM    102  F   UNL A   1      33.486  33.550  27.514  1.00  0.00    -0.200 F 
ENDBRANCH  69  92
ENDBRANCH  43  44
ENDBRANCH  36  38
ENDBRANCH  35  36
ENDBRANCH  34  35
ENDBRANCH  33  34
ENDBRANCH  32  33
ENDBRANCH  31  32
ENDBRANCH  30  31
ENDBRANCH  29  30
ENDBRANCH   1  29
TORSDOF 24
ENDMDL
