MODEL 1
REMARK VINA RESULT:      -5.2      0.000      0.000
REMARK SMILES CC/C=C/C/C=C/C/C=C/C/C=C/CCSCCCC(=O)OCCOCCOCCOCCOC(=O)c1ccc(-c2c3nc(c(-c4c(F)c(F)c(F)c(F)c4F)c4ccc([nH]4)c(-c4c(F)c(F)c(F)c(F)c4F)c4nc(c(-c5c(F)c(F)c(F)c(F)c5F)c5ccc2[nH]5)C=C4)C=C3)cc1
REMARK SMILES IDX 23 1 22 2 20 3 21 4 19 5 18 6 17 7 16 8 15 9 14 10 13 11
REMARK SMILES IDX 12 12 11 13 10 14 9 15 8 16 7 17 6 18 5 19 4 20 3 21 2 22
REMARK SMILES IDX 1 23 24 24 25 25 26 26 27 27 28 28 29 29 30 30 31 31 32 32
REMARK SMILES IDX 33 33 34 34 35 35 36 36 37 37 38 38 99 39 39 40 98 41 40 42
REMARK SMILES IDX 41 43 42 44 92 45 43 46 97 47 91 48 93 49 44 50 96 51 90 52
REMARK SMILES IDX 89 53 45 55 77 56 57 57 76 58 58 59 61 60 75 61 94 62 59 63
REMARK SMILES IDX 60 64 74 66 95 67 62 68 46 69 47 70 55 71 48 72 49 73 53 74
REMARK SMILES IDX 56 75 50 76 51 77 54 78 52 79 78 80 79 81 87 82 80 83 81 84
REMARK SMILES IDX 85 85 88 86 82 87 83 88 86 89 84 90 63 91 64 92 72 93 65 94
REMARK SMILES IDX 66 95 70 96 73 97 67 98 68 99 71 100 69 101
REMARK H PARENT 93 54 61 65
REMARK Flexibility Score: inf
ROOT
ATOM      1  C   UNL A   1      36.622  31.970  40.220  1.00  0.00     0.261 C 
ENDROOT
BRANCH   1   2
ATOM      2  O   UNL A   1      36.713  32.290  38.827  1.00  0.00    -0.463 OA
BRANCH   2   3
ATOM      3  C   UNL A   1      37.688  32.952  38.185  1.00  0.00     0.305 C 
ATOM      4  O   UNL A   1      38.616  33.544  38.699  1.00  0.00    -0.252 OA
BRANCH   3   5
ATOM      5  C   UNL A   1      37.636  32.759  36.687  1.00  0.00     0.123 C 
BRANCH   5   6
ATOM      6  C   UNL A   1      37.071  33.874  35.813  1.00  0.00     0.023 C 
BRANCH   6   7
ATOM      7  C   UNL A   1      36.546  33.605  34.400  1.00  0.00     0.070 C 
BRANCH   7   8
ATOM      8  S   UNL A   1      36.854  34.613  32.889  1.00  0.00    -0.162 SA
BRANCH   8   9
ATOM      9  C   UNL A   1      38.505  34.168  32.237  1.00  0.00     0.073 C 
BRANCH   9  10
ATOM     10  C   UNL A   1      39.391  33.414  33.261  1.00  0.00     0.038 C 
BRANCH  10  11
ATOM     11  C   UNL A   1      39.648  31.945  33.005  1.00  0.00    -0.030 C 
ATOM     12  C   UNL A   1      40.066  31.009  33.885  1.00  0.00    -0.027 C 
BRANCH  12  13
ATOM     13  C   UNL A   1      40.343  29.539  33.567  1.00  0.00     0.054 C 
BRANCH  13  14
ATOM     14  C   UNL A   1      40.789  29.298  32.132  1.00  0.00    -0.027 C 
ATOM     15  C   UNL A   1      40.783  28.126  31.461  1.00  0.00    -0.027 C 
BRANCH  15  16
ATOM     16  C   UNL A   1      41.129  27.956  29.999  1.00  0.00     0.054 C 
BRANCH  16  17
ATOM     17  C   UNL A   1      39.914  28.232  29.175  1.00  0.00    -0.027 C 
ATOM     18  C   UNL A   1      39.891  28.983  28.065  1.00  0.00    -0.027 C 
BRANCH  18  19
ATOM     19  C   UNL A   1      38.605  29.487  27.478  1.00  0.00     0.054 C 
BRANCH  19  20
ATOM     20  C   UNL A   1      37.706  29.962  28.582  1.00  0.00    -0.027 C 
ATOM     21  C   UNL A   1      37.721  31.208  29.076  1.00  0.00    -0.031 C 
BRANCH  21  22
ATOM     22  C   UNL A   1      36.880  31.653  30.235  1.00  0.00     0.023 C 
ATOM     23  C   UNL A   1      36.486  30.459  31.092  1.00  0.00     0.008 C 
ENDBRANCH  21  22
ENDBRANCH  19  20
ENDBRANCH  18  19
ENDBRANCH  16  17
ENDBRANCH  15  16
ENDBRANCH  13  14
ENDBRANCH  12  13
ENDBRANCH  10  11
ENDBRANCH   9  10
ENDBRANCH   8   9
ENDBRANCH   7   8
ENDBRANCH   6   7
ENDBRANCH   5   6
ENDBRANCH   3   5
ENDBRANCH   2   3
ENDBRANCH   1   2
BRANCH   1  24
ATOM     24  C   UNL A   1      35.835  32.828  41.204  1.00  0.00     0.202 C 
BRANCH  24  25
ATOM     25  O   UNL A   1      36.249  34.098  41.643  1.00  0.00    -0.376 OA
BRANCH  25  26
ATOM     26  C   UNL A   1      37.593  34.518  41.650  1.00  0.00     0.188 C 
BRANCH  26  27
ATOM     27  C   UNL A   1      38.156  34.889  43.029  1.00  0.00     0.188 C 
BRANCH  27  28
ATOM     28  O   UNL A   1      38.669  36.191  43.244  1.00  0.00    -0.377 OA
BRANCH  28  29
ATOM     29  C   UNL A   1      39.970  36.473  42.768  1.00  0.00     0.188 C 
BRANCH  29  30
ATOM     30  C   UNL A   1      40.467  37.916  43.012  1.00  0.00     0.188 C 
BRANCH  30  31
ATOM     31  O   UNL A   1      41.559  38.454  42.282  1.00  0.00    -0.376 OA
BRANCH  31  32
ATOM     32  C   UNL A   1      42.811  37.797  42.299  1.00  0.00     0.202 C 
BRANCH  32  33
ATOM     33  C   UNL A   1      43.347  37.133  41.014  1.00  0.00     0.261 C 
BRANCH  33  34
ATOM     34  O   UNL A   1      42.423  36.396  40.191  1.00  0.00    -0.460 OA
BRANCH  34  35
ATOM     35  C   UNL A   1      42.239  36.850  38.923  1.00  0.00     0.338 C 
ATOM     36  O   UNL A   1      42.099  38.002  38.575  1.00  0.00    -0.246 OA
BRANCH  35  37
ATOM     37  C   UNL A   1      42.427  35.726  37.959  1.00  0.00     0.060 A 
ATOM     38  C   UNL A   1      43.737  35.309  37.660  1.00  0.00     0.016 A 
ATOM     39  C   UNL A   1      41.345  35.095  37.345  1.00  0.00     0.016 A 
ATOM     40  C   UNL A   1      43.971  34.306  36.719  1.00  0.00     0.010 A 
ATOM     41  C   UNL A   1      41.579  34.126  36.360  1.00  0.00     0.010 A 
ATOM     42  C   UNL A   1      42.895  33.766  36.009  1.00  0.00    -0.014 A 
BRANCH  42  43
ATOM     43  C   UNL A   1      43.165  33.102  34.709  1.00  0.00     0.031 A 
ATOM     44  C   UNL A   1      43.391  31.612  34.730  1.00  0.00     0.074 A 
ATOM     45  C   UNL A   1      43.162  33.767  33.541  1.00  0.00     0.049 A 
ATOM     46  N   UNL A   1      43.724  30.799  33.761  1.00  0.00    -0.248 NA
ATOM     47  C   UNL A   1      43.219  30.949  36.036  1.00  0.00     0.031 C 
ATOM     48  C   UNL A   1      42.879  35.189  33.376  1.00  0.00     0.029 A 
ATOM     49  N   UNL A   1      43.419  33.321  32.267  1.00  0.00    -0.354 N 
ATOM     50  C   UNL A   1      43.813  29.540  34.342  1.00  0.00     0.074 A 
ATOM     51  C   UNL A   1      43.530  29.696  35.750  1.00  0.00     0.031 C 
ATOM     52  C   UNL A   1      43.004  35.508  32.075  1.00  0.00     0.029 A 
ATOM     53  C   UNL A   1      43.412  34.320  31.324  1.00  0.00     0.049 A 
ATOM     54  H   UNL A   1      43.590  32.376  32.050  1.00  0.00     0.167 HD
ATOM     55  C   UNL A   1      44.099  28.356  33.752  1.00  0.00     0.037 A 
ATOM     56  C   UNL A   1      43.736  34.280  30.016  1.00  0.00     0.037 A 
ATOM     57  C   UNL A   1      44.385  28.205  32.352  1.00  0.00     0.049 A 
ATOM     58  C   UNL A   1      44.146  32.964  29.397  1.00  0.00     0.074 A 
ATOM     59  C   UNL A   1      44.692  27.051  31.653  1.00  0.00     0.029 A 
ATOM     60  N   UNL A   1      44.406  29.247  31.436  1.00  0.00    -0.354 N 
ATOM     61  N   UNL A   1      44.231  31.776  29.948  1.00  0.00    -0.248 NA
ATOM     62  C   UNL A   1      44.505  32.985  27.971  1.00  0.00     0.031 C 
ATOM     63  C   UNL A   1      44.959  27.404  30.327  1.00  0.00     0.029 A 
ATOM     64  C   UNL A   1      44.748  28.767  30.184  1.00  0.00     0.049 A 
ATOM     65  H   UNL A   1      44.208  30.187  31.647  1.00  0.00     0.167 HD
ATOM     66  C   UNL A   1      44.619  30.907  28.935  1.00  0.00     0.074 A 
ATOM     67  C   UNL A   1      44.739  31.702  27.730  1.00  0.00     0.031 C 
ATOM     68  C   UNL A   1      44.852  29.572  28.992  1.00  0.00     0.037 A 
BRANCH  55  69
ATOM     69  C   UNL A   1      44.157  27.140  34.633  1.00  0.00     0.064 A 
ATOM     70  C   UNL A   1      45.341  26.743  35.273  1.00  0.00     0.173 A 
ATOM     71  C   UNL A   1      43.004  26.371  34.852  1.00  0.00     0.173 A 
ATOM     72  F   UNL A   1      46.476  27.431  35.081  1.00  0.00    -0.203 F 
ATOM     73  C   UNL A   1      45.374  25.605  36.077  1.00  0.00     0.198 A 
ATOM     74  C   UNL A   1      43.033  25.255  35.685  1.00  0.00     0.198 A 
ATOM     75  F   UNL A   1      41.845  26.704  34.265  1.00  0.00    -0.203 F 
ATOM     76  F   UNL A   1      46.528  25.214  36.634  1.00  0.00    -0.200 F 
ATOM     77  C   UNL A   1      44.219  24.868  36.289  1.00  0.00     0.200 A 
ATOM     78  F   UNL A   1      41.911  24.552  35.898  1.00  0.00    -0.200 F 
ATOM     79  F   UNL A   1      44.250  23.779  37.069  1.00  0.00    -0.200 F 
ENDBRANCH  55  69
BRANCH  56  80
ATOM     80  C   UNL A   1      43.718  35.526  29.202  1.00  0.00     0.064 A 
ATOM     81  C   UNL A   1      44.844  36.357  29.115  1.00  0.00     0.173 A 
ATOM     82  C   UNL A   1      42.560  35.930  28.518  1.00  0.00     0.173 A 
ATOM     83  F   UNL A   1      45.968  36.033  29.774  1.00  0.00    -0.203 F 
ATOM     84  C   UNL A   1      44.807  37.549  28.395  1.00  0.00     0.198 A 
ATOM     85  C   UNL A   1      42.535  37.106  27.772  1.00  0.00     0.198 A 
ATOM     86  F   UNL A   1      41.451  35.178  28.573  1.00  0.00    -0.203 F 
ATOM     87  F   UNL A   1      45.881  38.351  28.375  1.00  0.00    -0.200 F 
ATOM     88  C   UNL A   1      43.655  37.920  27.718  1.00  0.00     0.200 A 
ATOM     89  F   UNL A   1      41.421  37.454  27.112  1.00  0.00    -0.200 F 
ATOM     90  F   UNL A   1      43.620  39.066  27.025  1.00  0.00    -0.200 F 
ENDBRANCH  56  80
BRANCH  68  91
ATOM     91  C   UNL A   1      45.213  28.872  27.712  1.00  0.00     0.064 A 
ATOM     92  C   UNL A   1      44.238  28.338  26.858  1.00  0.00     0.173 A 
ATOM     93  C   UNL A   1      46.556  28.780  27.311  1.00  0.00     0.173 A 
ATOM     94  F   UNL A   1      42.940  28.391  27.197  1.00  0.00    -0.203 F 
ATOM     95  C   UNL A   1      44.594  27.711  25.667  1.00  0.00     0.198 A 
ATOM     96  C   UNL A   1      46.906  28.184  26.103  1.00  0.00     0.198 A 
ATOM     97  F   UNL A   1      47.528  29.284  28.085  1.00  0.00    -0.203 F 
ATOM     98  F   UNL A   1      43.649  27.161  24.892  1.00  0.00    -0.200 F 
ATOM     99  C   UNL A   1      45.926  27.642  25.286  1.00  0.00     0.200 A 
ATOM    100  F   UNL A   1      48.192  28.137  25.729  1.00  0.00    -0.200 F 
ATOM    101  F   UNL A   1      46.266  27.047  24.135  1.00  0.00    -0.200 F 
ENDBRANCH  68  91
ENDBRANCH  42  43
ENDBRANCH  35  37
ENDBRANCH  34  35
ENDBRANCH  33  34
ENDBRANCH  32  33
ENDBRANCH  31  32
ENDBRANCH  30  31
ENDBRANCH  29  30
ENDBRANCH  28  29
ENDBRANCH  27  28
ENDBRANCH  26  27
ENDBRANCH  25  26
ENDBRANCH  24  25
ENDBRANCH   1  24
TORSDOF 33
ENDMDL
MODEL 2
REMARK VINA RESULT:      -4.7      6.189     11.750
REMARK SMILES CC/C=C/C/C=C/C/C=C/C/C=C/CCSCCCC(=O)OCCOCCOCCOCCOC(=O)c1ccc(-c2c3nc(c(-c4c(F)c(F)c(F)c(F)c4F)c4ccc([nH]4)c(-c4c(F)c(F)c(F)c(F)c4F)c4nc(c(-c5c(F)c(F)c(F)c(F)c5F)c5ccc2[nH]5)C=C4)C=C3)cc1
REMARK SMILES IDX 23 1 22 2 20 3 21 4 19 5 18 6 17 7 16 8 15 9 14 10 13 11
REMARK SMILES IDX 12 12 11 13 10 14 9 15 8 16 7 17 6 18 5 19 4 20 3 21 2 22
REMARK SMILES IDX 1 23 24 24 25 25 26 26 27 27 28 28 29 29 30 30 31 31 32 32
REMARK SMILES IDX 33 33 34 34 35 35 36 36 37 37 38 38 99 39 39 40 98 41 40 42
REMARK SMILES IDX 41 43 42 44 92 45 43 46 97 47 91 48 93 49 44 50 96 51 90 52
REMARK SMILES IDX 89 53 45 55 77 56 57 57 76 58 58 59 61 60 75 61 94 62 59 63
REMARK SMILES IDX 60 64 74 66 95 67 62 68 46 69 47 70 55 71 48 72 49 73 53 74
REMARK SMILES IDX 56 75 50 76 51 77 54 78 52 79 78 80 79 81 87 82 80 83 81 84
REMARK SMILES IDX 85 85 88 86 82 87 83 88 86 89 84 90 63 91 64 92 72 93 65 94
REMARK SMILES IDX 66 95 70 96 73 97 67 98 68 99 71 100 69 101
REMARK H PARENT 93 54 61 65
REMARK Flexibility Score: inf
ROOT
ATOM      1  C   UNL A   1      48.610  36.974  26.140  1.00  0.00     0.261 C 
ENDROOT
BRANCH   1   2
ATOM      2  O   UNL A   1      49.765  36.454  25.471  1.00  0.00    -0.463 OA
BRANCH   2   3
ATOM      3  C   UNL A   1      50.786  35.755  25.989  1.00  0.00     0.305 C 
ATOM      4  O   UNL A   1      50.699  34.773  26.700  1.00  0.00    -0.252 OA
BRANCH   3   5
ATOM      5  C   UNL A   1      52.130  36.206  25.465  1.00  0.00     0.123 C 
BRANCH   5   6
ATOM      6  C   UNL A   1      52.324  36.368  23.960  1.00  0.00     0.023 C 
BRANCH   6   7
ATOM      7  C   UNL A   1      53.069  35.322  23.126  1.00  0.00     0.070 C 
BRANCH   7   8
ATOM      8  S   UNL A   1      54.222  34.024  23.743  1.00  0.00    -0.162 SA
BRANCH   8   9
ATOM      9  C   UNL A   1      53.916  32.493  22.788  1.00  0.00     0.073 C 
BRANCH   9  10
ATOM     10  C   UNL A   1      53.532  31.280  23.672  1.00  0.00     0.038 C 
BRANCH  10  11
ATOM     11  C   UNL A   1      52.339  30.457  23.238  1.00  0.00    -0.030 C 
ATOM     12  C   UNL A   1      52.290  29.506  22.280  1.00  0.00    -0.027 C 
BRANCH  12  13
ATOM     13  C   UNL A   1      51.046  28.723  21.856  1.00  0.00     0.054 C 
BRANCH  13  14
ATOM     14  C   UNL A   1      50.725  27.547  22.766  1.00  0.00    -0.027 C 
ATOM     15  C   UNL A   1      49.992  27.568  23.900  1.00  0.00    -0.027 C 
BRANCH  15  16
ATOM     16  C   UNL A   1      49.603  26.351  24.711  1.00  0.00     0.054 C 
BRANCH  16  17
ATOM     17  C   UNL A   1      48.536  26.734  25.683  1.00  0.00    -0.027 C 
ATOM     18  C   UNL A   1      47.896  25.882  26.496  1.00  0.00    -0.027 C 
BRANCH  18  19
ATOM     19  C   UNL A   1      46.627  26.264  27.200  1.00  0.00     0.054 C 
BRANCH  19  20
ATOM     20  C   UNL A   1      46.427  27.748  27.096  1.00  0.00    -0.027 C 
ATOM     21  C   UNL A   1      45.228  28.336  26.981  1.00  0.00    -0.031 C 
BRANCH  21  22
ATOM     22  C   UNL A   1      45.040  29.812  26.792  1.00  0.00     0.023 C 
ATOM     23  C   UNL A   1      43.653  30.233  27.251  1.00  0.00     0.008 C 
ENDBRANCH  21  22
ENDBRANCH  19  20
ENDBRANCH  18  19
ENDBRANCH  16  17
ENDBRANCH  15  16
ENDBRANCH  13  14
ENDBRANCH  12  13
ENDBRANCH  10  11
ENDBRANCH   9  10
ENDBRANCH   8   9
ENDBRANCH   7   8
ENDBRANCH   6   7
ENDBRANCH   5   6
ENDBRANCH   3   5
ENDBRANCH   2   3
ENDBRANCH   1   2
BRANCH   1  24
ATOM     24  C   UNL A   1      48.387  38.468  26.340  1.00  0.00     0.202 C 
BRANCH  24  25
ATOM     25  O   UNL A   1      47.125  39.052  26.550  1.00  0.00    -0.376 OA
BRANCH  25  26
ATOM     26  C   UNL A   1      46.287  39.490  25.505  1.00  0.00     0.188 C 
BRANCH  26  27
ATOM     27  C   UNL A   1      46.809  40.693  24.709  1.00  0.00     0.188 C 
BRANCH  27  28
ATOM     28  O   UNL A   1      47.057  41.916  25.378  1.00  0.00    -0.377 OA
BRANCH  28  29
ATOM     29  C   UNL A   1      46.635  43.109  24.747  1.00  0.00     0.188 C 
BRANCH  29  30
ATOM     30  C   UNL A   1      45.483  43.860  25.453  1.00  0.00     0.188 C 
BRANCH  30  31
ATOM     31  O   UNL A   1      44.291  43.192  25.836  1.00  0.00    -0.376 OA
BRANCH  31  32
ATOM     32  C   UNL A   1      43.540  42.481  24.872  1.00  0.00     0.202 C 
BRANCH  32  33
ATOM     33  C   UNL A   1      42.461  41.476  25.327  1.00  0.00     0.261 C 
BRANCH  33  34
ATOM     34  O   UNL A   1      42.892  40.225  25.896  1.00  0.00    -0.460 OA
BRANCH  34  35
ATOM     35  C   UNL A   1      42.284  39.838  27.048  1.00  0.00     0.338 C 
ATOM     36  O   UNL A   1      41.324  40.355  27.575  1.00  0.00    -0.246 OA
BRANCH  35  37
ATOM     37  C   UNL A   1      42.856  38.534  27.499  1.00  0.00     0.060 A 
ATOM     38  C   UNL A   1      42.722  37.415  26.657  1.00  0.00     0.016 A 
ATOM     39  C   UNL A   1      43.499  38.400  28.729  1.00  0.00     0.016 A 
ATOM     40  C   UNL A   1      43.182  36.160  27.057  1.00  0.00     0.010 A 
ATOM     41  C   UNL A   1      43.913  37.130  29.157  1.00  0.00     0.010 A 
ATOM     42  C   UNL A   1      43.709  35.999  28.342  1.00  0.00    -0.014 A 
BRANCH  42  43
ATOM     43  C   UNL A   1      43.725  34.639  28.937  1.00  0.00     0.031 A 
ATOM     44  C   UNL A   1      45.039  33.901  28.932  1.00  0.00     0.074 A 
ATOM     45  C   UNL A   1      42.642  34.085  29.509  1.00  0.00     0.049 A 
ATOM     46  N   UNL A   1      45.318  32.679  29.309  1.00  0.00    -0.248 NA
ATOM     47  C   UNL A   1      46.202  34.652  28.425  1.00  0.00     0.031 C 
ATOM     48  C   UNL A   1      41.338  34.723  29.650  1.00  0.00     0.029 A 
ATOM     49  N   UNL A   1      42.475  32.843  30.071  1.00  0.00    -0.354 N 
ATOM     50  C   UNL A   1      46.677  32.515  29.072  1.00  0.00     0.074 A 
ATOM     51  C   UNL A   1      47.163  33.746  28.492  1.00  0.00     0.031 C 
ATOM     52  C   UNL A   1      40.492  33.857  30.236  1.00  0.00     0.029 A 
ATOM     53  C   UNL A   1      41.187  32.592  30.477  1.00  0.00     0.049 A 
ATOM     54  H   UNL A   1      43.209  32.194  30.175  1.00  0.00     0.167 HD
ATOM     55  C   UNL A   1      47.454  31.436  29.321  1.00  0.00     0.037 A 
ATOM     56  C   UNL A   1      40.633  31.459  30.952  1.00  0.00     0.037 A 
ATOM     57  C   UNL A   1      46.965  30.211  29.893  1.00  0.00     0.049 A 
ATOM     58  C   UNL A   1      41.497  30.233  31.134  1.00  0.00     0.074 A 
ATOM     59  C   UNL A   1      47.666  29.054  30.182  1.00  0.00     0.029 A 
ATOM     60  N   UNL A   1      45.646  29.982  30.255  1.00  0.00    -0.354 N 
ATOM     61  N   UNL A   1      42.781  30.080  30.907  1.00  0.00    -0.248 NA
ATOM     62  C   UNL A   1      40.834  29.021  31.638  1.00  0.00     0.031 C 
ATOM     63  C   UNL A   1      46.759  28.104  30.663  1.00  0.00     0.029 A 
ATOM     64  C   UNL A   1      45.506  28.694  30.740  1.00  0.00     0.049 A 
ATOM     65  H   UNL A   1      44.918  30.640  30.177  1.00  0.00     0.167 HD
ATOM     66  C   UNL A   1      43.084  28.773  31.271  1.00  0.00     0.074 A 
ATOM     67  C   UNL A   1      41.852  28.178  31.747  1.00  0.00     0.031 C 
ATOM     68  C   UNL A   1      44.273  28.122  31.220  1.00  0.00     0.037 A 
BRANCH  55  69
ATOM     69  C   UNL A   1      48.904  31.522  28.936  1.00  0.00     0.064 A 
ATOM     70  C   UNL A   1      49.858  32.124  29.770  1.00  0.00     0.173 A 
ATOM     71  C   UNL A   1      49.345  30.977  27.721  1.00  0.00     0.173 A 
ATOM     72  F   UNL A   1      49.486  32.679  30.933  1.00  0.00    -0.203 F 
ATOM     73  C   UNL A   1      51.196  32.203  29.388  1.00  0.00     0.198 A 
ATOM     74  C   UNL A   1      50.689  31.026  27.359  1.00  0.00     0.198 A 
ATOM     75  F   UNL A   1      48.475  30.390  26.886  1.00  0.00    -0.203 F 
ATOM     76  F   UNL A   1      52.080  32.831  30.174  1.00  0.00    -0.200 F 
ATOM     77  C   UNL A   1      51.611  31.646  28.187  1.00  0.00     0.200 A 
ATOM     78  F   UNL A   1      51.090  30.475  26.204  1.00  0.00    -0.200 F 
ATOM     79  F   UNL A   1      52.900  31.714  27.826  1.00  0.00    -0.200 F 
ENDBRANCH  55  69
BRANCH  56  80
ATOM     80  C   UNL A   1      39.177  31.411  31.263  1.00  0.00     0.064 A 
ATOM     81  C   UNL A   1      38.234  31.062  30.286  1.00  0.00     0.173 A 
ATOM     82  C   UNL A   1      38.697  31.746  32.539  1.00  0.00     0.173 A 
ATOM     83  F   UNL A   1      38.637  30.762  29.042  1.00  0.00    -0.203 F 
ATOM     84  C   UNL A   1      36.869  31.069  30.567  1.00  0.00     0.198 A 
ATOM     85  C   UNL A   1      37.334  31.722  32.827  1.00  0.00     0.198 A 
ATOM     86  F   UNL A   1      39.554  32.095  33.509  1.00  0.00    -0.203 F 
ATOM     87  F   UNL A   1      35.987  30.786  29.599  1.00  0.00    -0.200 F 
ATOM     88  C   UNL A   1      36.420  31.392  31.839  1.00  0.00     0.200 A 
ATOM     89  F   UNL A   1      36.906  32.025  34.060  1.00  0.00    -0.200 F 
ATOM     90  F   UNL A   1      35.107  31.398  32.108  1.00  0.00    -0.200 F 
ENDBRANCH  56  80
BRANCH  68  91
ATOM     91  C   UNL A   1      44.317  26.710  31.734  1.00  0.00     0.064 A 
ATOM     92  C   UNL A   1      44.313  26.419  33.106  1.00  0.00     0.173 A 
ATOM     93  C   UNL A   1      44.311  25.631  30.835  1.00  0.00     0.173 A 
ATOM     94  F   UNL A   1      44.328  27.413  34.007  1.00  0.00    -0.203 F 
ATOM     95  C   UNL A   1      44.335  25.102  33.559  1.00  0.00     0.198 A 
ATOM     96  C   UNL A   1      44.296  24.316  31.291  1.00  0.00     0.198 A 
ATOM     97  F   UNL A   1      44.302  25.852  29.513  1.00  0.00    -0.203 F 
ATOM     98  F   UNL A   1      44.386  24.848  34.873  1.00  0.00    -0.200 F 
ATOM     99  C   UNL A   1      44.317  24.052  32.652  1.00  0.00     0.200 A 
ATOM    100  F   UNL A   1      44.258  23.304  30.414  1.00  0.00    -0.200 F 
ATOM    101  F   UNL A   1      44.327  22.786  33.091  1.00  0.00    -0.200 F 
ENDBRANCH  68  91
ENDBRANCH  42  43
ENDBRANCH  35  37
ENDBRANCH  34  35
ENDBRANCH  33  34
ENDBRANCH  32  33
ENDBRANCH  31  32
ENDBRANCH  30  31
ENDBRANCH  29  30
ENDBRANCH  28  29
ENDBRANCH  27  28
ENDBRANCH  26  27
ENDBRANCH  25  26
ENDBRANCH  24  25
ENDBRANCH   1  24
TORSDOF 33
ENDMDL
MODEL 3
REMARK VINA RESULT:      -4.7      5.227     12.307
REMARK SMILES CC/C=C/C/C=C/C/C=C/C/C=C/CCSCCCC(=O)OCCOCCOCCOCCOC(=O)c1ccc(-c2c3nc(c(-c4c(F)c(F)c(F)c(F)c4F)c4ccc([nH]4)c(-c4c(F)c(F)c(F)c(F)c4F)c4nc(c(-c5c(F)c(F)c(F)c(F)c5F)c5ccc2[nH]5)C=C4)C=C3)cc1
REMARK SMILES IDX 23 1 22 2 20 3 21 4 19 5 18 6 17 7 16 8 15 9 14 10 13 11
REMARK SMILES IDX 12 12 11 13 10 14 9 15 8 16 7 17 6 18 5 19 4 20 3 21 2 22
REMARK SMILES IDX 1 23 24 24 25 25 26 26 27 27 28 28 29 29 30 30 31 31 32 32
REMARK SMILES IDX 33 33 34 34 35 35 36 36 37 37 38 38 99 39 39 40 98 41 40 42
REMARK SMILES IDX 41 43 42 44 92 45 43 46 97 47 91 48 93 49 44 50 96 51 90 52
REMARK SMILES IDX 89 53 45 55 77 56 57 57 76 58 58 59 61 60 75 61 94 62 59 63
REMARK SMILES IDX 60 64 74 66 95 67 62 68 46 69 47 70 55 71 48 72 49 73 53 74
REMARK SMILES IDX 56 75 50 76 51 77 54 78 52 79 78 80 79 81 87 82 80 83 81 84
REMARK SMILES IDX 85 85 88 86 82 87 83 88 86 89 84 90 63 91 64 92 72 93 65 94
REMARK SMILES IDX 66 95 70 96 73 97 67 98 68 99 71 100 69 101
REMARK H PARENT 93 54 61 65
REMARK Flexibility Score: inf
ROOT
ATOM      1  C   UNL A   1      34.373  36.131  33.610  1.00  0.00     0.261 C 
ENDROOT
BRANCH   1   2
ATOM      2  O   UNL A   1      35.362  35.159  33.969  1.00  0.00    -0.463 OA
BRANCH   2   3
ATOM      3  C   UNL A   1      35.921  34.213  33.197  1.00  0.00     0.305 C 
ATOM      4  O   UNL A   1      35.389  33.191  32.811  1.00  0.00    -0.252 OA
BRANCH   3   5
ATOM      5  C   UNL A   1      37.284  34.611  32.679  1.00  0.00     0.123 C 
BRANCH   5   6
ATOM      6  C   UNL A   1      38.197  33.541  32.088  1.00  0.00     0.023 C 
BRANCH   6   7
ATOM      7  C   UNL A   1      38.900  32.505  32.969  1.00  0.00     0.070 C 
BRANCH   7   8
ATOM      8  S   UNL A   1      38.240  31.713  34.496  1.00  0.00    -0.162 SA
BRANCH   8   9
ATOM      9  C   UNL A   1      38.695  32.766  35.923  1.00  0.00     0.073 C 
BRANCH   9  10
ATOM     10  C   UNL A   1      37.487  33.165  36.806  1.00  0.00     0.038 C 
BRANCH  10  11
ATOM     11  C   UNL A   1      37.739  33.332  38.289  1.00  0.00    -0.030 C 
ATOM     12  C   UNL A   1      37.415  32.482  39.288  1.00  0.00    -0.027 C 
BRANCH  12  13
ATOM     13  C   UNL A   1      37.664  32.714  40.779  1.00  0.00     0.054 C 
BRANCH  13  14
ATOM     14  C   UNL A   1      36.536  32.219  41.671  1.00  0.00    -0.027 C 
ATOM     15  C   UNL A   1      35.397  32.872  41.987  1.00  0.00    -0.027 C 
BRANCH  15  16
ATOM     16  C   UNL A   1      34.251  32.294  42.786  1.00  0.00     0.054 C 
BRANCH  16  17
ATOM     17  C   UNL A   1      33.290  33.386  43.121  1.00  0.00    -0.027 C 
ATOM     18  C   UNL A   1      32.041  33.485  42.642  1.00  0.00    -0.027 C 
BRANCH  18  19
ATOM     19  C   UNL A   1      31.252  34.757  42.751  1.00  0.00     0.054 C 
BRANCH  19  20
ATOM     20  C   UNL A   1      31.648  35.686  41.641  1.00  0.00    -0.027 C 
ATOM     21  C   UNL A   1      31.409  37.005  41.647  1.00  0.00    -0.031 C 
BRANCH  21  22
ATOM     22  C   UNL A   1      31.731  37.914  40.498  1.00  0.00     0.023 C 
ATOM     23  C   UNL A   1      31.847  39.353  40.977  1.00  0.00     0.008 C 
ENDBRANCH  21  22
ENDBRANCH  19  20
ENDBRANCH  18  19
ENDBRANCH  16  17
ENDBRANCH  15  16
ENDBRANCH  13  14
ENDBRANCH  12  13
ENDBRANCH  10  11
ENDBRANCH   9  10
ENDBRANCH   8   9
ENDBRANCH   7   8
ENDBRANCH   6   7
ENDBRANCH   5   6
ENDBRANCH   3   5
ENDBRANCH   2   3
ENDBRANCH   1   2
BRANCH   1  24
ATOM     24  C   UNL A   1      33.359  35.890  32.498  1.00  0.00     0.202 C 
BRANCH  24  25
ATOM     25  O   UNL A   1      33.055  36.829  31.497  1.00  0.00    -0.376 OA
BRANCH  25  26
ATOM     26  C   UNL A   1      32.918  36.498  30.135  1.00  0.00     0.188 C 
BRANCH  26  27
ATOM     27  C   UNL A   1      33.523  35.148  29.726  1.00  0.00     0.188 C 
BRANCH  27  28
ATOM     28  O   UNL A   1      33.712  34.857  28.353  1.00  0.00    -0.377 OA
BRANCH  28  29
ATOM     29  C   UNL A   1      34.447  33.695  28.022  1.00  0.00     0.188 C 
BRANCH  29  30
ATOM     30  C   UNL A   1      35.141  32.989  29.209  1.00  0.00     0.188 C 
BRANCH  30  31
ATOM     31  O   UNL A   1      34.994  31.594  29.426  1.00  0.00    -0.376 OA
BRANCH  31  32
ATOM     32  C   UNL A   1      36.140  30.773  29.535  1.00  0.00     0.202 C 
BRANCH  32  33
ATOM     33  C   UNL A   1      36.726  30.452  30.926  1.00  0.00     0.261 C 
BRANCH  33  34
ATOM     34  O   UNL A   1      37.737  29.430  31.020  1.00  0.00    -0.460 OA
BRANCH  34  35
ATOM     35  C   UNL A   1      38.965  29.741  30.528  1.00  0.00     0.338 C 
ATOM     36  O   UNL A   1      39.212  30.438  29.570  1.00  0.00    -0.246 OA
BRANCH  35  37
ATOM     37  C   UNL A   1      40.016  29.247  31.467  1.00  0.00     0.060 A 
ATOM     38  C   UNL A   1      39.634  28.385  32.511  1.00  0.00     0.016 A 
ATOM     39  C   UNL A   1      41.352  29.629  31.341  1.00  0.00     0.016 A 
ATOM     40  C   UNL A   1      40.564  27.945  33.452  1.00  0.00     0.010 A 
ATOM     41  C   UNL A   1      42.278  29.233  32.317  1.00  0.00     0.010 A 
ATOM     42  C   UNL A   1      41.874  28.432  33.403  1.00  0.00    -0.014 A 
BRANCH  42  43
ATOM     43  C   UNL A   1      42.698  28.378  34.637  1.00  0.00     0.031 A 
ATOM     44  C   UNL A   1      42.705  29.603  35.515  1.00  0.00     0.074 A 
ATOM     45  C   UNL A   1      43.377  27.279  35.008  1.00  0.00     0.049 A 
ATOM     46  N   UNL A   1      43.394  29.856  36.598  1.00  0.00    -0.248 NA
ATOM     47  C   UNL A   1      41.807  30.698  35.106  1.00  0.00     0.031 C 
ATOM     48  C   UNL A   1      43.388  26.008  34.291  1.00  0.00     0.029 A 
ATOM     49  N   UNL A   1      44.202  27.068  36.086  1.00  0.00    -0.354 N 
ATOM     50  C   UNL A   1      43.022  31.138  36.987  1.00  0.00     0.074 A 
ATOM     51  C   UNL A   1      42.073  31.623  36.013  1.00  0.00     0.031 C 
ATOM     52  C   UNL A   1      44.205  25.154  34.935  1.00  0.00     0.029 A 
ATOM     53  C   UNL A   1      44.801  25.832  36.086  1.00  0.00     0.049 A 
ATOM     54  H   UNL A   1      44.350  27.739  36.791  1.00  0.00     0.167 HD
ATOM     55  C   UNL A   1      43.432  31.845  38.065  1.00  0.00     0.037 A 
ATOM     56  C   UNL A   1      45.747  25.328  36.904  1.00  0.00     0.037 A 
ATOM     57  C   UNL A   1      44.381  31.361  39.029  1.00  0.00     0.049 A 
ATOM     58  C   UNL A   1      46.262  26.171  38.047  1.00  0.00     0.074 A 
ATOM     59  C   UNL A   1      44.869  31.998  40.156  1.00  0.00     0.029 A 
ATOM     60  N   UNL A   1      44.995  30.117  38.974  1.00  0.00    -0.354 N 
ATOM     61  N   UNL A   1      45.911  27.381  38.411  1.00  0.00    -0.248 NA
ATOM     62  C   UNL A   1      47.306  25.574  38.893  1.00  0.00     0.031 C 
ATOM     63  C   UNL A   1      45.822  31.165  40.749  1.00  0.00     0.029 A 
ATOM     64  C   UNL A   1      45.876  29.979  40.032  1.00  0.00     0.049 A 
ATOM     65  H   UNL A   1      44.827  29.436  38.284  1.00  0.00     0.167 HD
ATOM     66  C   UNL A   1      46.662  27.677  39.542  1.00  0.00     0.074 A 
ATOM     67  C   UNL A   1      47.480  26.513  39.814  1.00  0.00     0.031 C 
ATOM     68  C   UNL A   1      46.674  28.807  40.293  1.00  0.00     0.037 A 
BRANCH  55  69
ATOM     69  C   UNL A   1      42.884  33.234  38.231  1.00  0.00     0.064 A 
ATOM     70  C   UNL A   1      43.495  34.349  37.638  1.00  0.00     0.173 A 
ATOM     71  C   UNL A   1      41.718  33.449  38.981  1.00  0.00     0.173 A 
ATOM     72  F   UNL A   1      44.624  34.202  36.927  1.00  0.00    -0.203 F 
ATOM     73  C   UNL A   1      42.976  35.630  37.814  1.00  0.00     0.198 A 
ATOM     74  C   UNL A   1      41.182  34.726  39.126  1.00  0.00     0.198 A 
ATOM     75  F   UNL A   1      41.093  32.419  39.571  1.00  0.00    -0.203 F 
ATOM     76  F   UNL A   1      43.608  36.686  37.285  1.00  0.00    -0.200 F 
ATOM     77  C   UNL A   1      41.816  35.815  38.550  1.00  0.00     0.200 A 
ATOM     78  F   UNL A   1      40.052  34.900  39.827  1.00  0.00    -0.200 F 
ATOM     79  F   UNL A   1      41.312  37.047  38.711  1.00  0.00    -0.200 F 
ENDBRANCH  55  69
BRANCH  56  80
ATOM     80  C   UNL A   1      46.298  23.966  36.659  1.00  0.00     0.064 A 
ATOM     81  C   UNL A   1      47.198  23.721  35.613  1.00  0.00     0.173 A 
ATOM     82  C   UNL A   1      45.909  22.873  37.450  1.00  0.00     0.173 A 
ATOM     83  F   UNL A   1      47.580  24.725  34.808  1.00  0.00    -0.203 F 
ATOM     84  C   UNL A   1      47.671  22.436  35.354  1.00  0.00     0.198 A 
ATOM     85  C   UNL A   1      46.408  21.595  37.210  1.00  0.00     0.198 A 
ATOM     86  F   UNL A   1      45.044  23.049  38.459  1.00  0.00    -0.203 F 
ATOM     87  F   UNL A   1      48.487  22.222  34.313  1.00  0.00    -0.200 F 
ATOM     88  C   UNL A   1      47.281  21.374  36.157  1.00  0.00     0.200 A 
ATOM     89  F   UNL A   1      46.035  20.575  37.996  1.00  0.00    -0.200 F 
ATOM     90  F   UNL A   1      47.737  20.139  35.909  1.00  0.00    -0.200 F 
ENDBRANCH  56  80
BRANCH  68  91
ATOM     91  C   UNL A   1      47.561  28.828  41.506  1.00  0.00     0.064 A 
ATOM     92  C   UNL A   1      48.823  29.438  41.493  1.00  0.00     0.173 A 
ATOM     93  C   UNL A   1      47.116  28.272  42.716  1.00  0.00     0.173 A 
ATOM     94  F   UNL A   1      49.301  29.977  40.360  1.00  0.00    -0.203 F 
ATOM     95  C   UNL A   1      49.620  29.463  42.635  1.00  0.00     0.198 A 
ATOM     96  C   UNL A   1      47.898  28.330  43.866  1.00  0.00     0.198 A 
ATOM     97  F   UNL A   1      45.911  27.686  42.789  1.00  0.00    -0.203 F 
ATOM     98  F   UNL A   1      50.844  30.004  42.585  1.00  0.00    -0.200 F 
ATOM     99  C   UNL A   1      49.154  28.917  43.822  1.00  0.00     0.200 A 
ATOM    100  F   UNL A   1      47.437  27.820  45.016  1.00  0.00    -0.200 F 
ATOM    101  F   UNL A   1      49.917  28.951  44.923  1.00  0.00    -0.200 F 
ENDBRANCH  68  91
ENDBRANCH  42  43
ENDBRANCH  35  37
ENDBRANCH  34  35
ENDBRANCH  33  34
ENDBRANCH  32  33
ENDBRANCH  31  32
ENDBRANCH  30  31
ENDBRANCH  29  30
ENDBRANCH  28  29
ENDBRANCH  27  28
ENDBRANCH  26  27
ENDBRANCH  25  26
ENDBRANCH  24  25
ENDBRANCH   1  24
TORSDOF 33
ENDMDL
