MODEL 1
REMARK VINA RESULT:     -11.1      0.000      0.000
REMARK SMILES COc1ccc(NS(=O)(=O)c2ccc(NC(=O)[C@H]3CCCC[C@@H]3C(=O)OCCOCCOCCOCCOC(=O)c3ccc(-c4c5nc(c(-c6c(F)c(F)c(F)c(F)c6F)c6ccc([nH]6)c(-c6c(F)c(F)c(F)c(F)c6F)c6nc(c(-c7c(F)c(F)c(F)c(F)c7F)c7ccc4[nH]7)C=C6)C=C5)cc3)cc2)cc1
REMARK SMILES IDX 30 1 29 2 28 3 27 4 26 5 24 6 25 7 23 8 18 9 19 10 20 11
REMARK SMILES IDX 22 12 21 13 16 14 15 15 17 17 14 18 11 19 12 20 105 21 13 22
REMARK SMILES IDX 104 23 8 24 9 25 10 26 7 27 6 29 3 30 4 31 107 32 5 33
REMARK SMILES IDX 106 34 2 35 1 36 31 37 32 38 33 39 34 40 35 41 36 42 37 43
REMARK SMILES IDX 38 44 39 45 40 46 41 47 42 48 103 49 43 50 102 51 44 52
REMARK SMILES IDX 45 53 46 54 96 55 47 56 101 57 95 58 97 59 48 60 100 61
REMARK SMILES IDX 94 62 93 63 49 65 81 66 61 67 80 68 62 69 65 70 79 71 98 72
REMARK SMILES IDX 63 73 64 74 78 76 99 77 66 78 50 79 51 80 59 81 52 82 53 83
REMARK SMILES IDX 57 84 60 85 54 86 55 87 58 88 56 89 82 90 83 91 91 92 84 93
REMARK SMILES IDX 85 94 89 95 92 96 86 97 87 98 90 99 88 100 67 101 68 102
REMARK SMILES IDX 76 103 69 104 70 105 74 106 77 107 71 108 72 109 75 110
REMARK SMILES IDX 73 111
REMARK H PARENT 15 16 7 28 97 64 65 75
REMARK Flexibility Score: inf
ROOT
ATOM      1  C   UNL A   1      32.926  33.295  27.803  1.00  0.00     0.188 C 
ENDROOT
BRANCH   1   2
ATOM      2  O   UNL A   1      31.727  33.188  27.051  1.00  0.00    -0.376 OA
BRANCH   2   3
ATOM      3  C   UNL A   1      31.367  31.953  26.472  1.00  0.00     0.202 C 
BRANCH   3   4
ATOM      4  C   UNL A   1      32.311  30.742  26.577  1.00  0.00     0.261 C 
BRANCH   4   5
ATOM      5  O   UNL A   1      31.803  29.490  27.078  1.00  0.00    -0.463 OA
BRANCH   5   6
ATOM      6  C   UNL A   1      32.317  28.362  26.518  1.00  0.00     0.309 C 
ATOM      7  O   UNL A   1      33.367  27.852  26.885  1.00  0.00    -0.252 OA
BRANCH   6   8
ATOM      8  C   UNL A   1      31.524  27.913  25.273  1.00  0.00     0.111 C 
ATOM      9  C   UNL A   1      31.612  26.409  24.866  1.00  0.00     0.093 C 
ATOM     10  C   UNL A   1      32.933  26.126  24.107  1.00  0.00     0.014 C 
ATOM     11  C   UNL A   1      33.197  27.112  22.971  1.00  0.00     0.001 C 
ATOM     12  C   UNL A   1      31.790  28.846  24.095  1.00  0.00     0.016 C 
ATOM     13  C   UNL A   1      33.126  28.558  23.440  1.00  0.00     0.001 C 
BRANCH   9  14
ATOM     14  C   UNL A   1      30.444  25.837  23.998  1.00  0.00     0.228 C 
ATOM     15  N   UNL A   1      30.263  24.509  23.735  1.00  0.00    -0.326 N 
ATOM     16  H   UNL A   1      29.429  24.287  23.263  1.00  0.00     0.169 HD
ATOM     17  O   UNL A   1      29.603  26.591  23.492  1.00  0.00    -0.274 OA
BRANCH  15  18
ATOM     18  C   UNL A   1      31.079  23.424  24.036  1.00  0.00     0.041 A 
ATOM     19  C   UNL A   1      32.213  20.911  24.420  1.00  0.00     0.087 A 
ATOM     20  C   UNL A   1      31.512  21.542  25.444  1.00  0.00     0.024 A 
ATOM     21  C   UNL A   1      32.388  21.575  23.199  1.00  0.00     0.024 A 
ATOM     22  C   UNL A   1      31.058  22.843  25.294  1.00  0.00     0.027 A 
ATOM     23  C   UNL A   1      31.809  22.833  23.002  1.00  0.00     0.027 A 
BRANCH  19  24
ATOM     24  S   UNL A   1      32.973  19.311  24.619  1.00  0.00     0.261 S 
ATOM     25  O   UNL A   1      33.193  18.794  23.286  1.00  0.00    -0.201 OA
ATOM     26  O   UNL A   1      32.153  18.600  25.578  1.00  0.00    -0.201 OA
BRANCH  24  27
ATOM     27  N   UNL A   1      34.464  19.490  25.370  1.00  0.00    -0.280 N 
ATOM     28  H   UNL A   1      34.702  18.822  26.053  1.00  0.00     0.180 HD
BRANCH  27  29
ATOM     29  C   UNL A   1      35.414  20.519  25.112  1.00  0.00     0.049 A 
ATOM     30  C   UNL A   1      37.551  22.233  25.498  1.00  0.00     0.119 A 
ATOM     31  C   UNL A   1      36.253  22.717  25.626  1.00  0.00     0.048 A 
ATOM     32  C   UNL A   1      37.789  20.956  25.001  1.00  0.00     0.048 A 
ATOM     33  C   UNL A   1      35.172  21.872  25.364  1.00  0.00     0.030 A 
ATOM     34  C   UNL A   1      36.713  20.094  24.802  1.00  0.00     0.030 A 
BRANCH  30  35
ATOM     35  O   UNL A   1      38.585  22.919  26.068  1.00  0.00    -0.497 OA
ATOM     36  C   UNL A   1      38.164  24.202  26.498  1.00  0.00     0.278 C 
ENDBRANCH  30  35
ENDBRANCH  27  29
ENDBRANCH  24  27
ENDBRANCH  19  24
ENDBRANCH  15  18
ENDBRANCH   9  14
ENDBRANCH   6   8
ENDBRANCH   5   6
ENDBRANCH   4   5
ENDBRANCH   3   4
ENDBRANCH   2   3
ENDBRANCH   1   2
BRANCH   1  37
ATOM     37  C   UNL A   1      33.293  34.602  28.538  1.00  0.00     0.188 C 
BRANCH  37  38
ATOM     38  O   UNL A   1      32.604  34.777  29.767  1.00  0.00    -0.377 OA
BRANCH  38  39
ATOM     39  C   UNL A   1      33.246  35.634  30.697  1.00  0.00     0.188 C 
BRANCH  39  40
ATOM     40  C   UNL A   1      33.890  34.927  31.898  1.00  0.00     0.188 C 
BRANCH  40  41
ATOM     41  O   UNL A   1      35.259  34.594  31.657  1.00  0.00    -0.376 OA
BRANCH  41  42
ATOM     42  C   UNL A   1      35.616  33.218  31.701  1.00  0.00     0.202 C 
BRANCH  42  43
ATOM     43  C   UNL A   1      35.966  32.624  30.330  1.00  0.00     0.261 C 
BRANCH  43  44
ATOM     44  O   UNL A   1      35.710  31.216  30.193  1.00  0.00    -0.460 OA
BRANCH  44  45
ATOM     45  C   UNL A   1      35.804  30.686  28.956  1.00  0.00     0.338 C 
ATOM     46  O   UNL A   1      35.070  30.887  28.004  1.00  0.00    -0.246 OA
BRANCH  45  47
ATOM     47  C   UNL A   1      37.091  29.968  28.867  1.00  0.00     0.060 A 
ATOM     48  C   UNL A   1      37.562  29.304  30.007  1.00  0.00     0.016 A 
ATOM     49  C   UNL A   1      37.824  29.949  27.678  1.00  0.00     0.016 A 
ATOM     50  C   UNL A   1      38.797  28.660  29.977  1.00  0.00     0.010 A 
ATOM     51  C   UNL A   1      39.073  29.327  27.656  1.00  0.00     0.010 A 
ATOM     52  C   UNL A   1      39.580  28.718  28.818  1.00  0.00    -0.014 A 
BRANCH  52  53
ATOM     53  C   UNL A   1      41.019  28.374  28.894  1.00  0.00     0.031 A 
ATOM     54  C   UNL A   1      41.959  29.415  29.430  1.00  0.00     0.074 A 
ATOM     55  C   UNL A   1      41.485  27.176  28.505  1.00  0.00     0.049 A 
ATOM     56  N   UNL A   1      43.258  29.369  29.559  1.00  0.00    -0.248 NA
ATOM     57  C   UNL A   1      41.348  30.671  29.895  1.00  0.00     0.031 C 
ATOM     58  C   UNL A   1      40.664  26.065  28.042  1.00  0.00     0.029 A 
ATOM     59  N   UNL A   1      42.771  26.703  28.420  1.00  0.00    -0.354 N 
ATOM     60  C   UNL A   1      43.615  30.578  30.139  1.00  0.00     0.074 A 
ATOM     61  C   UNL A   1      42.407  31.355  30.296  1.00  0.00     0.031 C 
ATOM     62  C   UNL A   1      41.469  25.060  27.655  1.00  0.00     0.029 A 
ATOM     63  C   UNL A   1      42.860  25.464  27.840  1.00  0.00     0.049 A 
ATOM     64  H   UNL A   1      43.553  27.206  28.744  1.00  0.00     0.167 HD
ATOM     65  C   UNL A   1      44.844  30.994  30.522  1.00  0.00     0.037 A 
ATOM     66  C   UNL A   1      43.941  24.747  27.477  1.00  0.00     0.037 A 
ATOM     67  C   UNL A   1      46.045  30.225  30.349  1.00  0.00     0.049 A 
ATOM     68  C   UNL A   1      45.310  25.280  27.807  1.00  0.00     0.074 A 
ATOM     69  C   UNL A   1      47.334  30.542  30.731  1.00  0.00     0.029 A 
ATOM     70  N   UNL A   1      46.101  28.987  29.725  1.00  0.00    -0.354 N 
ATOM     71  N   UNL A   1      45.636  26.398  28.410  1.00  0.00    -0.248 NA
ATOM     72  C   UNL A   1      46.458  24.443  27.433  1.00  0.00     0.031 C 
ATOM     73  C   UNL A   1      48.181  29.520  30.291  1.00  0.00     0.029 A 
ATOM     74  C   UNL A   1      47.411  28.543  29.679  1.00  0.00     0.049 A 
ATOM     75  H   UNL A   1      45.326  28.498  29.367  1.00  0.00     0.167 HD
ATOM     76  C   UNL A   1      47.019  26.379  28.527  1.00  0.00     0.074 A 
ATOM     77  C   UNL A   1      47.471  25.139  27.931  1.00  0.00     0.031 C 
ATOM     78  C   UNL A   1      47.840  27.299  29.090  1.00  0.00     0.037 A 
BRANCH  65  79
ATOM     79  C   UNL A   1      44.944  32.352  31.144  1.00  0.00     0.064 A 
ATOM     80  C   UNL A   1      45.244  33.489  30.379  1.00  0.00     0.173 A 
ATOM     81  C   UNL A   1      44.720  32.521  32.517  1.00  0.00     0.173 A 
ATOM     82  F   UNL A   1      45.490  33.373  29.065  1.00  0.00    -0.203 F 
ATOM     83  C   UNL A   1      45.336  34.745  30.971  1.00  0.00     0.198 A 
ATOM     84  C   UNL A   1      44.789  33.781  33.103  1.00  0.00     0.198 A 
ATOM     85  F   UNL A   1      44.437  31.462  33.291  1.00  0.00    -0.203 F 
ATOM     86  F   UNL A   1      45.666  35.812  30.230  1.00  0.00    -0.200 F 
ATOM     87  C   UNL A   1      45.102  34.891  32.331  1.00  0.00     0.200 A 
ATOM     88  F   UNL A   1      44.558  33.923  34.415  1.00  0.00    -0.200 F 
ATOM     89  F   UNL A   1      45.185  36.102  32.900  1.00  0.00    -0.200 F 
ENDBRANCH  65  79
BRANCH  66  90
ATOM     90  C   UNL A   1      43.778  23.462  26.750  1.00  0.00     0.064 A 
ATOM     91  C   UNL A   1      43.306  22.310  27.396  1.00  0.00     0.173 A 
ATOM     92  C   UNL A   1      44.123  23.352  25.393  1.00  0.00     0.173 A 
ATOM     93  F   UNL A   1      42.983  22.359  28.696  1.00  0.00    -0.203 F 
ATOM     94  C   UNL A   1      43.209  21.095  26.719  1.00  0.00     0.198 A 
ATOM     95  C   UNL A   1      44.003  22.143  24.713  1.00  0.00     0.198 A 
ATOM     96  F   UNL A   1      44.573  24.425  24.727  1.00  0.00    -0.203 F 
ATOM     97  F   UNL A   1      42.797  20.000  27.374  1.00  0.00    -0.200 F 
ATOM     98  C   UNL A   1      43.554  21.012  25.379  1.00  0.00     0.200 A 
ATOM     99  F   UNL A   1      44.327  22.071  23.415  1.00  0.00    -0.200 F 
ATOM    100  F   UNL A   1      43.463  19.843  24.732  1.00  0.00    -0.200 F 
ENDBRANCH  66  90
BRANCH  78 101
ATOM    101  C   UNL A   1      49.305  26.983  29.129  1.00  0.00     0.064 A 
ATOM    102  C   UNL A   1      49.864  26.206  30.152  1.00  0.00     0.173 A 
ATOM    103  C   UNL A   1      50.150  27.425  28.099  1.00  0.00     0.173 A 
ATOM    104  F   UNL A   1      49.099  25.774  31.167  1.00  0.00    -0.203 F 
ATOM    105  C   UNL A   1      51.222  25.900  30.156  1.00  0.00     0.198 A 
ATOM    106  C   UNL A   1      51.500  27.092  28.090  1.00  0.00     0.198 A 
ATOM    107  F   UNL A   1      49.660  28.166  27.094  1.00  0.00    -0.203 F 
ATOM    108  F   UNL A   1      51.744  25.191  31.166  1.00  0.00    -0.200 F 
ATOM    109  C   UNL A   1      52.036  26.335  29.121  1.00  0.00     0.200 A 
ATOM    110  F   UNL A   1      52.283  27.503  27.083  1.00  0.00    -0.200 F 
ATOM    111  F   UNL A   1      53.342  26.031  29.120  1.00  0.00    -0.200 F 
ENDBRANCH  78 101
ENDBRANCH  52  53
ENDBRANCH  45  47
ENDBRANCH  44  45
ENDBRANCH  43  44
ENDBRANCH  42  43
ENDBRANCH  41  42
ENDBRANCH  40  41
ENDBRANCH  39  40
ENDBRANCH  38  39
ENDBRANCH  37  38
ENDBRANCH   1  37
TORSDOF 26
ENDMDL
MODEL 2
REMARK VINA RESULT:     -10.6      5.334      7.354
REMARK SMILES COc1ccc(NS(=O)(=O)c2ccc(NC(=O)[C@H]3CCCC[C@@H]3C(=O)OCCOCCOCCOCCOC(=O)c3ccc(-c4c5nc(c(-c6c(F)c(F)c(F)c(F)c6F)c6ccc([nH]6)c(-c6c(F)c(F)c(F)c(F)c6F)c6nc(c(-c7c(F)c(F)c(F)c(F)c7F)c7ccc4[nH]7)C=C6)C=C5)cc3)cc2)cc1
REMARK SMILES IDX 30 1 29 2 28 3 27 4 26 5 24 6 25 7 23 8 18 9 19 10 20 11
REMARK SMILES IDX 22 12 21 13 16 14 15 15 17 17 14 18 11 19 12 20 105 21 13 22
REMARK SMILES IDX 104 23 8 24 9 25 10 26 7 27 6 29 3 30 4 31 107 32 5 33
REMARK SMILES IDX 106 34 2 35 1 36 31 37 32 38 33 39 34 40 35 41 36 42 37 43
REMARK SMILES IDX 38 44 39 45 40 46 41 47 42 48 103 49 43 50 102 51 44 52
REMARK SMILES IDX 45 53 46 54 96 55 47 56 101 57 95 58 97 59 48 60 100 61
REMARK SMILES IDX 94 62 93 63 49 65 81 66 61 67 80 68 62 69 65 70 79 71 98 72
REMARK SMILES IDX 63 73 64 74 78 76 99 77 66 78 50 79 51 80 59 81 52 82 53 83
REMARK SMILES IDX 57 84 60 85 54 86 55 87 58 88 56 89 82 90 83 91 91 92 84 93
REMARK SMILES IDX 85 94 89 95 92 96 86 97 87 98 90 99 88 100 67 101 68 102
REMARK SMILES IDX 76 103 69 104 70 105 74 106 77 107 71 108 72 109 75 110
REMARK SMILES IDX 73 111
REMARK H PARENT 15 16 7 28 97 64 65 75
REMARK Flexibility Score: inf
ROOT
ATOM      1  C   UNL A   1      33.001  33.593  27.980  1.00  0.00     0.188 C 
ENDROOT
BRANCH   1   2
ATOM      2  O   UNL A   1      31.796  33.449  27.246  1.00  0.00    -0.376 OA
BRANCH   2   3
ATOM      3  C   UNL A   1      31.451  32.197  26.697  1.00  0.00     0.202 C 
BRANCH   3   4
ATOM      4  C   UNL A   1      32.353  30.971  26.931  1.00  0.00     0.261 C 
BRANCH   4   5
ATOM      5  O   UNL A   1      31.750  29.678  27.135  1.00  0.00    -0.463 OA
BRANCH   5   6
ATOM      6  C   UNL A   1      32.294  28.642  26.443  1.00  0.00     0.309 C 
ATOM      7  O   UNL A   1      33.432  28.234  26.632  1.00  0.00    -0.252 OA
BRANCH   6   8
ATOM      8  C   UNL A   1      31.385  28.169  25.290  1.00  0.00     0.111 C 
ATOM      9  C   UNL A   1      31.504  26.677  24.843  1.00  0.00     0.093 C 
ATOM     10  C   UNL A   1      32.738  26.480  23.929  1.00  0.00     0.014 C 
ATOM     11  C   UNL A   1      32.814  27.495  22.791  1.00  0.00     0.001 C 
ATOM     12  C   UNL A   1      31.460  29.132  24.108  1.00  0.00     0.016 C 
ATOM     13  C   UNL A   1      32.723  28.928  23.295  1.00  0.00     0.001 C 
BRANCH   9  14
ATOM     14  C   UNL A   1      30.273  26.055  24.106  1.00  0.00     0.228 C 
ATOM     15  N   UNL A   1      30.091  24.715  23.916  1.00  0.00    -0.326 N 
ATOM     16  H   UNL A   1      29.222  24.463  23.528  1.00  0.00     0.169 HD
ATOM     17  O   UNL A   1      29.378  26.777  23.645  1.00  0.00    -0.274 OA
BRANCH  15  18
ATOM     18  C   UNL A   1      30.947  23.654  24.187  1.00  0.00     0.041 A 
ATOM     19  C   UNL A   1      32.164  21.175  24.533  1.00  0.00     0.087 A 
ATOM     20  C   UNL A   1      31.483  21.787  25.581  1.00  0.00     0.024 A 
ATOM     21  C   UNL A   1      32.276  21.840  23.306  1.00  0.00     0.024 A 
ATOM     22  C   UNL A   1      30.988  23.076  25.446  1.00  0.00     0.027 A 
ATOM     23  C   UNL A   1      31.656  23.081  23.128  1.00  0.00     0.027 A 
BRANCH  19  24
ATOM     24  S   UNL A   1      32.975  19.597  24.706  1.00  0.00     0.261 S 
ATOM     25  O   UNL A   1      33.291  19.150  23.367  1.00  0.00    -0.201 OA
ATOM     26  O   UNL A   1      32.131  18.812  25.583  1.00  0.00    -0.201 OA
BRANCH  24  27
ATOM     27  N   UNL A   1      34.412  19.796  25.551  1.00  0.00    -0.280 N 
ATOM     28  H   UNL A   1      34.572  19.190  26.309  1.00  0.00     0.180 HD
BRANCH  27  29
ATOM     29  C   UNL A   1      35.420  20.763  25.271  1.00  0.00     0.049 A 
ATOM     30  C   UNL A   1      37.713  22.282  25.575  1.00  0.00     0.119 A 
ATOM     31  C   UNL A   1      36.472  22.856  25.834  1.00  0.00     0.048 A 
ATOM     32  C   UNL A   1      37.807  21.023  24.991  1.00  0.00     0.048 A 
ATOM     33  C   UNL A   1      35.309  22.114  25.616  1.00  0.00     0.030 A 
ATOM     34  C   UNL A   1      36.652  20.260  24.834  1.00  0.00     0.030 A 
BRANCH  30  35
ATOM     35  O   UNL A   1      38.840  22.851  26.095  1.00  0.00    -0.497 OA
ATOM     36  C   UNL A   1      39.691  21.866  26.654  1.00  0.00     0.278 C 
ENDBRANCH  30  35
ENDBRANCH  27  29
ENDBRANCH  24  27
ENDBRANCH  19  24
ENDBRANCH  15  18
ENDBRANCH   9  14
ENDBRANCH   6   8
ENDBRANCH   5   6
ENDBRANCH   4   5
ENDBRANCH   3   4
ENDBRANCH   2   3
ENDBRANCH   1   2
BRANCH   1  37
ATOM     37  C   UNL A   1      33.537  34.987  28.371  1.00  0.00     0.188 C 
BRANCH  37  38
ATOM     38  O   UNL A   1      32.563  35.820  28.984  1.00  0.00    -0.377 OA
BRANCH  38  39
ATOM     39  C   UNL A   1      33.048  36.627  30.045  1.00  0.00     0.188 C 
BRANCH  39  40
ATOM     40  C   UNL A   1      32.742  36.101  31.455  1.00  0.00     0.188 C 
BRANCH  40  41
ATOM     41  O   UNL A   1      33.924  35.695  32.147  1.00  0.00    -0.376 OA
BRANCH  41  42
ATOM     42  C   UNL A   1      34.169  34.299  32.262  1.00  0.00     0.202 C 
BRANCH  42  43
ATOM     43  C   UNL A   1      35.133  33.748  31.203  1.00  0.00     0.261 C 
BRANCH  43  44
ATOM     44  O   UNL A   1      35.020  32.337  30.950  1.00  0.00    -0.460 OA
BRANCH  44  45
ATOM     45  C   UNL A   1      36.134  31.686  30.555  1.00  0.00     0.338 C 
ATOM     46  O   UNL A   1      36.403  31.288  29.435  1.00  0.00    -0.246 OA
BRANCH  45  47
ATOM     47  C   UNL A   1      37.097  31.716  31.673  1.00  0.00     0.060 A 
ATOM     48  C   UNL A   1      38.414  32.110  31.406  1.00  0.00     0.016 A 
ATOM     49  C   UNL A   1      36.709  31.359  32.967  1.00  0.00     0.016 A 
ATOM     50  C   UNL A   1      39.365  32.100  32.425  1.00  0.00     0.010 A 
ATOM     51  C   UNL A   1      37.667  31.323  33.981  1.00  0.00     0.010 A 
ATOM     52  C   UNL A   1      39.005  31.653  33.702  1.00  0.00    -0.014 A 
BRANCH  52  53
ATOM     53  C   UNL A   1      40.065  31.285  34.670  1.00  0.00     0.031 A 
ATOM     54  C   UNL A   1      40.421  32.288  35.729  1.00  0.00     0.074 A 
ATOM     55  C   UNL A   1      40.693  30.100  34.620  1.00  0.00     0.049 A 
ATOM     56  N   UNL A   1      41.335  32.219  36.661  1.00  0.00    -0.248 NA
ATOM     57  C   UNL A   1      39.632  33.530  35.746  1.00  0.00     0.031 C 
ATOM     58  C   UNL A   1      40.382  29.023  33.690  1.00  0.00     0.029 A 
ATOM     59  N   UNL A   1      41.741  29.613  35.361  1.00  0.00    -0.354 N 
ATOM     60  C   UNL A   1      41.214  33.395  37.386  1.00  0.00     0.074 A 
ATOM     61  C   UNL A   1      40.173  34.181  36.764  1.00  0.00     0.031 C 
ATOM     62  C   UNL A   1      41.265  28.024  33.868  1.00  0.00     0.029 A 
ATOM     63  C   UNL A   1      42.204  28.400  34.920  1.00  0.00     0.049 A 
ATOM     64  H   UNL A   1      42.123  30.090  36.133  1.00  0.00     0.167 HD
ATOM     65  C   UNL A   1      41.901  33.776  38.487  1.00  0.00     0.037 A 
ATOM     66  C   UNL A   1      43.278  27.686  35.307  1.00  0.00     0.037 A 
ATOM     67  C   UNL A   1      42.946  32.998  39.093  1.00  0.00     0.049 A 
ATOM     68  C   UNL A   1      44.106  28.184  36.462  1.00  0.00     0.074 A 
ATOM     69  C   UNL A   1      43.683  33.281  40.227  1.00  0.00     0.029 A 
ATOM     70  N   UNL A   1      43.413  31.790  38.598  1.00  0.00    -0.354 N 
ATOM     71  N   UNL A   1      43.948  29.269  37.181  1.00  0.00    -0.248 NA
ATOM     72  C   UNL A   1      45.241  27.348  36.877  1.00  0.00     0.031 C 
ATOM     73  C   UNL A   1      44.633  32.267  40.390  1.00  0.00     0.029 A 
ATOM     74  C   UNL A   1      44.454  31.329  39.385  1.00  0.00     0.049 A 
ATOM     75  H   UNL A   1      43.058  31.328  37.804  1.00  0.00     0.167 HD
ATOM     76  C   UNL A   1      44.933  29.225  38.159  1.00  0.00     0.074 A 
ATOM     77  C   UNL A   1      45.684  28.007  37.939  1.00  0.00     0.031 C 
ATOM     78  C   UNL A   1      45.183  30.108  39.156  1.00  0.00     0.037 A 
BRANCH  65  79
ATOM     79  C   UNL A   1      41.554  35.103  39.086  1.00  0.00     0.064 A 
ATOM     80  C   UNL A   1      40.516  35.237  40.021  1.00  0.00     0.173 A 
ATOM     81  C   UNL A   1      42.277  36.251  38.734  1.00  0.00     0.173 A 
ATOM     82  F   UNL A   1      39.781  34.170  40.370  1.00  0.00    -0.203 F 
ATOM     83  C   UNL A   1      40.204  36.477  40.568  1.00  0.00     0.198 A 
ATOM     84  C   UNL A   1      41.977  37.486  39.301  1.00  0.00     0.198 A 
ATOM     85  F   UNL A   1      43.273  36.174  37.838  1.00  0.00    -0.203 F 
ATOM     86  F   UNL A   1      39.181  36.591  41.427  1.00  0.00    -0.200 F 
ATOM     87  C   UNL A   1      40.938  37.600  40.213  1.00  0.00     0.200 A 
ATOM     88  F   UNL A   1      42.691  38.569  38.961  1.00  0.00    -0.200 F 
ATOM     89  F   UNL A   1      40.640  38.793  40.744  1.00  0.00    -0.200 F 
ENDBRANCH  65  79
BRANCH  66  90
ATOM     90  C   UNL A   1      43.644  26.436  34.590  1.00  0.00     0.064 A 
ATOM     91  C   UNL A   1      44.425  26.462  33.426  1.00  0.00     0.173 A 
ATOM     92  C   UNL A   1      43.190  25.187  35.042  1.00  0.00     0.173 A 
ATOM     93  F   UNL A   1      44.866  27.633  32.944  1.00  0.00    -0.203 F 
ATOM     94  C   UNL A   1      44.717  25.290  32.729  1.00  0.00     0.198 A 
ATOM     95  C   UNL A   1      43.502  24.014  34.357  1.00  0.00     0.198 A 
ATOM     96  F   UNL A   1      42.445  25.105  36.154  1.00  0.00    -0.203 F 
ATOM     97  F   UNL A   1      45.427  25.350  31.594  1.00  0.00    -0.200 F 
ATOM     98  C   UNL A   1      44.258  24.068  33.196  1.00  0.00     0.200 A 
ATOM     99  F   UNL A   1      43.066  22.835  34.819  1.00  0.00    -0.200 F 
ATOM    100  F   UNL A   1      44.536  22.944  32.523  1.00  0.00    -0.200 F 
ENDBRANCH  66  90
BRANCH  78 101
ATOM    101  C   UNL A   1      46.286  29.769  40.114  1.00  0.00     0.064 A 
ATOM    102  C   UNL A   1      46.064  28.963  41.238  1.00  0.00     0.173 A 
ATOM    103  C   UNL A   1      47.594  30.220  39.872  1.00  0.00     0.173 A 
ATOM    104  F   UNL A   1      44.829  28.521  41.519  1.00  0.00    -0.203 F 
ATOM    105  C   UNL A   1      47.108  28.637  42.100  1.00  0.00     0.198 A 
ATOM    106  C   UNL A   1      48.639  29.868  40.719  1.00  0.00     0.198 A 
ATOM    107  F   UNL A   1      47.857  30.990  38.806  1.00  0.00    -0.203 F 
ATOM    108  F   UNL A   1      46.866  27.900  43.192  1.00  0.00    -0.200 F 
ATOM    109  C   UNL A   1      48.394  29.082  41.835  1.00  0.00     0.200 A 
ATOM    110  F   UNL A   1      49.884  30.288  40.455  1.00  0.00    -0.200 F 
ATOM    111  F   UNL A   1      49.400  28.759  42.661  1.00  0.00    -0.200 F 
ENDBRANCH  78 101
ENDBRANCH  52  53
ENDBRANCH  45  47
ENDBRANCH  44  45
ENDBRANCH  43  44
ENDBRANCH  42  43
ENDBRANCH  41  42
ENDBRANCH  40  41
ENDBRANCH  39  40
ENDBRANCH  38  39
ENDBRANCH  37  38
ENDBRANCH   1  37
TORSDOF 26
ENDMDL
MODEL 3
REMARK VINA RESULT:     -10.1      4.623      9.039
REMARK SMILES COc1ccc(NS(=O)(=O)c2ccc(NC(=O)[C@H]3CCCC[C@@H]3C(=O)OCCOCCOCCOCCOC(=O)c3ccc(-c4c5nc(c(-c6c(F)c(F)c(F)c(F)c6F)c6ccc([nH]6)c(-c6c(F)c(F)c(F)c(F)c6F)c6nc(c(-c7c(F)c(F)c(F)c(F)c7F)c7ccc4[nH]7)C=C6)C=C5)cc3)cc2)cc1
REMARK SMILES IDX 30 1 29 2 28 3 27 4 26 5 24 6 25 7 23 8 18 9 19 10 20 11
REMARK SMILES IDX 22 12 21 13 16 14 15 15 17 17 14 18 11 19 12 20 105 21 13 22
REMARK SMILES IDX 104 23 8 24 9 25 10 26 7 27 6 29 3 30 4 31 107 32 5 33
REMARK SMILES IDX 106 34 2 35 1 36 31 37 32 38 33 39 34 40 35 41 36 42 37 43
REMARK SMILES IDX 38 44 39 45 40 46 41 47 42 48 103 49 43 50 102 51 44 52
REMARK SMILES IDX 45 53 46 54 96 55 47 56 101 57 95 58 97 59 48 60 100 61
REMARK SMILES IDX 94 62 93 63 49 65 81 66 61 67 80 68 62 69 65 70 79 71 98 72
REMARK SMILES IDX 63 73 64 74 78 76 99 77 66 78 50 79 51 80 59 81 52 82 53 83
REMARK SMILES IDX 57 84 60 85 54 86 55 87 58 88 56 89 82 90 83 91 91 92 84 93
REMARK SMILES IDX 85 94 89 95 92 96 86 97 87 98 90 99 88 100 67 101 68 102
REMARK SMILES IDX 76 103 69 104 70 105 74 106 77 107 71 108 72 109 75 110
REMARK SMILES IDX 73 111
REMARK H PARENT 15 16 7 28 97 64 65 75
REMARK Flexibility Score: inf
ROOT
ATOM      1  C   UNL A   1      33.711  33.554  28.737  1.00  0.00     0.188 C 
ENDROOT
BRANCH   1   2
ATOM      2  O   UNL A   1      32.808  33.460  27.647  1.00  0.00    -0.376 OA
BRANCH   2   3
ATOM      3  C   UNL A   1      32.275  32.207  27.280  1.00  0.00     0.202 C 
BRANCH   3   4
ATOM      4  C   UNL A   1      33.165  30.950  27.298  1.00  0.00     0.261 C 
BRANCH   4   5
ATOM      5  O   UNL A   1      32.548  29.648  27.330  1.00  0.00    -0.463 OA
BRANCH   5   6
ATOM      6  C   UNL A   1      33.064  28.715  26.486  1.00  0.00     0.309 C 
ATOM      7  O   UNL A   1      34.207  28.287  26.578  1.00  0.00    -0.252 OA
BRANCH   6   8
ATOM      8  C   UNL A   1      32.113  28.398  25.313  1.00  0.00     0.111 C 
ATOM      9  C   UNL A   1      31.822  26.895  25.006  1.00  0.00     0.093 C 
ATOM     10  C   UNL A   1      32.991  26.266  24.207  1.00  0.00     0.014 C 
ATOM     11  C   UNL A   1      33.407  27.097  22.995  1.00  0.00     0.001 C 
ATOM     12  C   UNL A   1      32.516  29.174  24.062  1.00  0.00     0.016 C 
ATOM     13  C   UNL A   1      33.705  28.542  23.366  1.00  0.00     0.001 C 
BRANCH   9  14
ATOM     14  C   UNL A   1      30.502  26.568  24.236  1.00  0.00     0.228 C 
ATOM     15  N   UNL A   1      30.004  25.308  24.067  1.00  0.00    -0.326 N 
ATOM     16  H   UNL A   1      29.113  25.263  23.652  1.00  0.00     0.169 HD
ATOM     17  O   UNL A   1      29.826  27.472  23.725  1.00  0.00    -0.274 OA
BRANCH  15  18
ATOM     18  C   UNL A   1      30.566  24.079  24.395  1.00  0.00     0.041 A 
ATOM     19  C   UNL A   1      32.220  21.970  25.144  1.00  0.00     0.087 A 
ATOM     20  C   UNL A   1      32.065  22.313  23.805  1.00  0.00     0.024 A 
ATOM     21  C   UNL A   1      31.495  22.667  26.120  1.00  0.00     0.024 A 
ATOM     22  C   UNL A   1      31.146  23.279  23.423  1.00  0.00     0.027 A 
ATOM     23  C   UNL A   1      30.672  23.734  25.744  1.00  0.00     0.027 A 
BRANCH  19  24
ATOM     24  S   UNL A   1      33.253  20.618  25.677  1.00  0.00     0.261 S 
ATOM     25  O   UNL A   1      32.487  19.409  25.466  1.00  0.00    -0.201 OA
ATOM     26  O   UNL A   1      33.737  20.984  26.992  1.00  0.00    -0.201 OA
BRANCH  24  27
ATOM     27  N   UNL A   1      34.626  20.550  24.713  1.00  0.00    -0.280 N 
ATOM     28  H   UNL A   1      34.694  19.795  24.086  1.00  0.00     0.180 HD
BRANCH  27  29
ATOM     29  C   UNL A   1      35.701  21.484  24.720  1.00  0.00     0.049 A 
ATOM     30  C   UNL A   1      37.671  23.166  25.694  1.00  0.00     0.119 A 
ATOM     31  C   UNL A   1      36.487  23.709  25.204  1.00  0.00     0.048 A 
ATOM     32  C   UNL A   1      37.954  21.814  25.533  1.00  0.00     0.048 A 
ATOM     33  C   UNL A   1      35.519  22.869  24.648  1.00  0.00     0.030 A 
ATOM     34  C   UNL A   1      36.964  20.968  25.037  1.00  0.00     0.030 A 
BRANCH  30  35
ATOM     35  O   UNL A   1      38.455  23.906  26.531  1.00  0.00    -0.497 OA
ATOM     36  C   UNL A   1      39.618  23.186  26.903  1.00  0.00     0.278 C 
ENDBRANCH  30  35
ENDBRANCH  27  29
ENDBRANCH  24  27
ENDBRANCH  19  24
ENDBRANCH  15  18
ENDBRANCH   9  14
ENDBRANCH   6   8
ENDBRANCH   5   6
ENDBRANCH   4   5
ENDBRANCH   3   4
ENDBRANCH   2   3
ENDBRANCH   1   2
BRANCH   1  37
ATOM     37  C   UNL A   1      34.132  34.925  29.309  1.00  0.00     0.188 C 
BRANCH  37  38
ATOM     38  O   UNL A   1      33.043  35.809  29.530  1.00  0.00    -0.377 OA
BRANCH  38  39
ATOM     39  C   UNL A   1      32.955  36.335  30.844  1.00  0.00     0.188 C 
BRANCH  39  40
ATOM     40  C   UNL A   1      33.218  35.324  31.969  1.00  0.00     0.188 C 
BRANCH  40  41
ATOM     41  O   UNL A   1      34.366  35.669  32.747  1.00  0.00    -0.376 OA
BRANCH  41  42
ATOM     42  C   UNL A   1      35.278  34.625  33.067  1.00  0.00     0.202 C 
BRANCH  42  43
ATOM     43  C   UNL A   1      36.683  34.830  32.485  1.00  0.00     0.261 C 
BRANCH  43  44
ATOM     44  O   UNL A   1      37.442  33.625  32.288  1.00  0.00    -0.460 OA
BRANCH  44  45
ATOM     45  C   UNL A   1      37.690  33.249  31.016  1.00  0.00     0.338 C 
ATOM     46  O   UNL A   1      36.947  32.643  30.264  1.00  0.00    -0.246 OA
BRANCH  45  47
ATOM     47  C   UNL A   1      38.953  33.885  30.592  1.00  0.00     0.060 A 
ATOM     48  C   UNL A   1      39.051  34.359  29.278  1.00  0.00     0.016 A 
ATOM     49  C   UNL A   1      40.026  34.011  31.477  1.00  0.00     0.016 A 
ATOM     50  C   UNL A   1      40.244  34.917  28.825  1.00  0.00     0.010 A 
ATOM     51  C   UNL A   1      41.231  34.546  31.016  1.00  0.00     0.010 A 
ATOM     52  C   UNL A   1      41.354  34.961  29.678  1.00  0.00    -0.014 A 
BRANCH  52  53
ATOM     53  C   UNL A   1      42.701  35.195  29.107  1.00  0.00     0.031 A 
ATOM     54  C   UNL A   1      43.601  34.006  28.930  1.00  0.00     0.074 A 
ATOM     55  C   UNL A   1      43.119  36.419  28.750  1.00  0.00     0.049 A 
ATOM     56  N   UNL A   1      44.830  33.956  28.491  1.00  0.00    -0.248 NA
ATOM     57  C   UNL A   1      43.031  32.695  29.285  1.00  0.00     0.031 C 
ATOM     58  C   UNL A   1      42.312  37.631  28.804  1.00  0.00     0.029 A 
ATOM     59  N   UNL A   1      44.339  36.847  28.290  1.00  0.00    -0.354 N 
ATOM     60  C   UNL A   1      45.171  32.612  28.496  1.00  0.00     0.074 A 
ATOM     61  C   UNL A   1      44.041  31.881  29.022  1.00  0.00     0.031 C 
ATOM     62  C   UNL A   1      43.078  38.681  28.457  1.00  0.00     0.029 A 
ATOM     63  C   UNL A   1      44.429  38.210  28.165  1.00  0.00     0.049 A 
ATOM     64  H   UNL A   1      45.079  36.235  28.072  1.00  0.00     0.167 HD
ATOM     65  C   UNL A   1      46.322  32.036  28.080  1.00  0.00     0.037 A 
ATOM     66  C   UNL A   1      45.486  38.990  27.870  1.00  0.00     0.037 A 
ATOM     67  C   UNL A   1      47.450  32.767  27.572  1.00  0.00     0.049 A 
ATOM     68  C   UNL A   1      46.797  38.337  27.522  1.00  0.00     0.074 A 
ATOM     69  C   UNL A   1      48.651  32.278  27.095  1.00  0.00     0.029 A 
ATOM     70  N   UNL A   1      47.518  34.151  27.493  1.00  0.00    -0.354 N 
ATOM     71  N   UNL A   1      47.094  37.061  27.472  1.00  0.00    -0.248 NA
ATOM     72  C   UNL A   1      47.910  39.227  27.165  1.00  0.00     0.031 C 
ATOM     73  C   UNL A   1      49.468  33.368  26.776  1.00  0.00     0.029 A 
ATOM     74  C   UNL A   1      48.756  34.534  27.007  1.00  0.00     0.049 A 
ATOM     75  H   UNL A   1      46.793  34.768  27.744  1.00  0.00     0.167 HD
ATOM     76  C   UNL A   1      48.410  36.992  27.035  1.00  0.00     0.074 A 
ATOM     77  C   UNL A   1      48.855  38.356  26.837  1.00  0.00     0.031 C 
ATOM     78  C   UNL A   1      49.176  35.898  26.806  1.00  0.00     0.037 A 
BRANCH  65  79
ATOM     79  C   UNL A   1      46.420  30.546  28.182  1.00  0.00     0.064 A 
ATOM     80  C   UNL A   1      46.167  29.717  27.078  1.00  0.00     0.173 A 
ATOM     81  C   UNL A   1      46.786  29.940  29.392  1.00  0.00     0.173 A 
ATOM     82  F   UNL A   1      45.790  30.250  25.906  1.00  0.00    -0.203 F 
ATOM     83  C   UNL A   1      46.260  28.333  27.189  1.00  0.00     0.198 A 
ATOM     84  C   UNL A   1      46.900  28.557  29.493  1.00  0.00     0.198 A 
ATOM     85  F   UNL A   1      47.030  30.691  30.477  1.00  0.00    -0.203 F 
ATOM     86  F   UNL A   1      45.973  27.557  26.134  1.00  0.00    -0.200 F 
ATOM     87  C   UNL A   1      46.632  27.754  28.393  1.00  0.00     0.200 A 
ATOM     88  F   UNL A   1      47.266  28.000  30.655  1.00  0.00    -0.200 F 
ATOM     89  F   UNL A   1      46.726  26.422  28.497  1.00  0.00    -0.200 F 
ENDBRANCH  65  79
BRANCH  66  90
ATOM     90  C   UNL A   1      45.358  40.471  27.907  1.00  0.00     0.064 A 
ATOM     91  C   UNL A   1      45.685  41.205  29.055  1.00  0.00     0.173 A 
ATOM     92  C   UNL A   1      44.873  41.180  26.796  1.00  0.00     0.173 A 
ATOM     93  F   UNL A   1      46.134  40.572  30.148  1.00  0.00    -0.203 F 
ATOM     94  C   UNL A   1      45.509  42.588  29.099  1.00  0.00     0.198 A 
ATOM     95  C   UNL A   1      44.720  42.564  26.834  1.00  0.00     0.198 A 
ATOM     96  F   UNL A   1      44.551  40.526  25.671  1.00  0.00    -0.203 F 
ATOM     97  F   UNL A   1      45.788  43.259  30.225  1.00  0.00    -0.200 F 
ATOM     98  C   UNL A   1      45.030  43.266  27.989  1.00  0.00     0.200 A 
ATOM     99  F   UNL A   1      44.267  43.215  25.754  1.00  0.00    -0.200 F 
ATOM    100  F   UNL A   1      44.858  44.594  28.034  1.00  0.00    -0.200 F 
ENDBRANCH  66  90
BRANCH  78 101
ATOM    101  C   UNL A   1      50.559  36.125  26.274  1.00  0.00     0.064 A 
ATOM    102  C   UNL A   1      51.673  36.194  27.122  1.00  0.00     0.173 A 
ATOM    103  C   UNL A   1      50.775  36.226  24.890  1.00  0.00     0.173 A 
ATOM    104  F   UNL A   1      51.514  36.119  28.452  1.00  0.00    -0.203 F 
ATOM    105  C   UNL A   1      52.952  36.378  26.605  1.00  0.00     0.198 A 
ATOM    106  C   UNL A   1      52.059  36.379  24.377  1.00  0.00     0.198 A 
ATOM    107  F   UNL A   1      49.742  36.159  24.038  1.00  0.00    -0.203 F 
ATOM    108  F   UNL A   1      53.998  36.484  27.436  1.00  0.00    -0.200 F 
ATOM    109  C   UNL A   1      53.145  36.462  25.235  1.00  0.00     0.200 A 
ATOM    110  F   UNL A   1      52.245  36.447  23.051  1.00  0.00    -0.200 F 
ATOM    111  F   UNL A   1      54.379  36.628  24.739  1.00  0.00    -0.200 F 
ENDBRANCH  78 101
ENDBRANCH  52  53
ENDBRANCH  45  47
ENDBRANCH  44  45
ENDBRANCH  43  44
ENDBRANCH  42  43
ENDBRANCH  41  42
ENDBRANCH  40  41
ENDBRANCH  39  40
ENDBRANCH  38  39
ENDBRANCH  37  38
ENDBRANCH   1  37
TORSDOF 26
ENDMDL
