MODEL 1
REMARK VINA RESULT:      -9.9      0.000      0.000
REMARK SMILES Cc1ccc(NC(=O)c2ccccc2NC(=O)[C@H]2CCCC[C@H]2C(=O)OCCOCCOCCOCCOC(=O)c2ccc(-c3c4nc(c(-c5c(F)c(F)c(F)c(F)c5F)c5ccc([nH]5)c(-c5c(F)c(F)c(F)c(F)c5F)c5nc(c(-c6c(F)c(F)c(F)c(F)c6F)c6ccc3[nH]6)C=C5)C=C4)cc2)cc1
REMARK SMILES IDX 31 1 30 2 29 3 28 4 27 5 26 6 24 7 25 8 23 9 18 10 19 11
REMARK SMILES IDX 20 12 22 13 21 14 16 15 15 16 17 18 14 19 9 20 10 21 11 22
REMARK SMILES IDX 13 23 12 24 7 25 6 26 8 28 5 29 1 30 2 31 3 32 105 33 4 34
REMARK SMILES IDX 104 35 32 36 33 37 34 38 35 39 36 40 37 41 38 42 39 43 40 44
REMARK SMILES IDX 41 45 42 46 103 47 43 48 102 49 44 50 45 51 46 52 96 53
REMARK SMILES IDX 47 54 101 55 95 56 97 57 48 58 100 59 94 60 93 61 49 63
REMARK SMILES IDX 81 64 61 65 80 66 62 67 65 68 79 69 98 70 63 71 64 72 78 74
REMARK SMILES IDX 99 75 66 76 50 77 51 78 59 79 52 80 53 81 57 82 60 83 54 84
REMARK SMILES IDX 55 85 58 86 56 87 82 88 83 89 91 90 84 91 85 92 89 93 92 94
REMARK SMILES IDX 86 95 87 96 90 97 88 98 67 99 68 100 76 101 69 102 70 103
REMARK SMILES IDX 74 104 77 105 71 106 72 107 75 108 73 109
REMARK H PARENT 15 17 6 27 97 62 65 73
REMARK Flexibility Score: inf
ROOT
ATOM      1  C   UNL A   1      39.285  27.590  29.099  1.00  0.00     0.188 C 
ENDROOT
BRANCH   1   2
ATOM      2  C   UNL A   1      38.538  28.779  28.495  1.00  0.00     0.188 C 
BRANCH   2   3
ATOM      3  O   UNL A   1      37.130  28.776  28.517  1.00  0.00    -0.376 OA
BRANCH   3   4
ATOM      4  C   UNL A   1      36.485  30.005  28.228  1.00  0.00     0.202 C 
BRANCH   4   5
ATOM      5  C   UNL A   1      35.052  30.020  27.728  1.00  0.00     0.261 C 
BRANCH   5   6
ATOM      6  O   UNL A   1      34.925  29.253  26.514  1.00  0.00    -0.463 OA
BRANCH   6   7
ATOM      7  C   UNL A   1      33.776  28.572  26.396  1.00  0.00     0.309 C 
ATOM      8  O   UNL A   1      32.996  28.371  27.325  1.00  0.00    -0.252 OA
BRANCH   7   9
ATOM      9  C   UNL A   1      33.527  27.971  25.038  1.00  0.00     0.111 C 
ATOM     10  C   UNL A   1      32.892  26.569  24.829  1.00  0.00     0.093 C 
ATOM     11  C   UNL A   1      33.423  26.080  23.458  1.00  0.00     0.014 C 
ATOM     12  C   UNL A   1      33.269  27.126  22.332  1.00  0.00     0.001 C 
ATOM     13  C   UNL A   1      33.208  29.017  23.981  1.00  0.00     0.016 C 
ATOM     14  C   UNL A   1      33.799  28.521  22.667  1.00  0.00     0.001 C 
BRANCH  10  15
ATOM     15  C   UNL A   1      31.360  26.358  24.816  1.00  0.00     0.228 C 
ATOM     16  N   UNL A   1      30.714  25.185  24.443  1.00  0.00    -0.325 N 
ATOM     17  H   UNL A   1      29.750  25.337  24.314  1.00  0.00     0.169 HD
ATOM     18  O   UNL A   1      30.614  27.315  25.071  1.00  0.00    -0.274 OA
BRANCH  16  19
ATOM     19  C   UNL A   1      31.060  23.814  24.192  1.00  0.00     0.054 A 
ATOM     20  C   UNL A   1      31.513  22.938  25.233  1.00  0.00     0.063 A 
ATOM     21  C   UNL A   1      32.078  21.674  24.917  1.00  0.00     0.016 A 
ATOM     22  C   UNL A   1      32.204  21.250  23.606  1.00  0.00     0.001 A 
ATOM     23  C   UNL A   1      31.083  23.282  22.899  1.00  0.00     0.027 A 
ATOM     24  C   UNL A   1      31.685  22.047  22.601  1.00  0.00     0.002 A 
BRANCH  20  25
ATOM     25  C   UNL A   1      31.664  23.218  26.687  1.00  0.00     0.257 C 
ATOM     26  N   UNL A   1      32.863  23.320  27.340  1.00  0.00    -0.322 N 
ATOM     27  H   UNL A   1      32.798  23.582  28.287  1.00  0.00     0.170 HD
ATOM     28  O   UNL A   1      30.631  23.364  27.348  1.00  0.00    -0.269 OA
BRANCH  26  29
ATOM     29  C   UNL A   1      34.158  23.110  26.878  1.00  0.00     0.041 A 
ATOM     30  C   UNL A   1      37.418  21.935  24.401  1.00  0.00     0.044 C 
ATOM     31  C   UNL A   1      36.354  22.355  25.362  1.00  0.00    -0.051 A 
ATOM     32  C   UNL A   1      35.974  23.702  25.429  1.00  0.00     0.005 A 
ATOM     33  C   UNL A   1      35.714  21.418  26.178  1.00  0.00     0.005 A 
ATOM     34  C   UNL A   1      34.889  24.083  26.209  1.00  0.00     0.026 A 
ATOM     35  C   UNL A   1      34.634  21.802  26.962  1.00  0.00     0.026 A 
ENDBRANCH  26  29
ENDBRANCH  20  25
ENDBRANCH  16  19
ENDBRANCH  10  15
ENDBRANCH   7   9
ENDBRANCH   6   7
ENDBRANCH   5   6
ENDBRANCH   4   5
ENDBRANCH   3   4
ENDBRANCH   2   3
ENDBRANCH   1   2
BRANCH   1  36
ATOM     36  O   UNL A   1      39.008  27.231  30.441  1.00  0.00    -0.377 OA
BRANCH  36  37
ATOM     37  C   UNL A   1      38.968  28.243  31.446  1.00  0.00     0.188 C 
BRANCH  37  38
ATOM     38  C   UNL A   1      37.937  28.159  32.549  1.00  0.00     0.188 C 
BRANCH  38  39
ATOM     39  O   UNL A   1      37.166  29.353  32.562  1.00  0.00    -0.376 OA
BRANCH  39  40
ATOM     40  C   UNL A   1      37.700  30.386  31.739  1.00  0.00     0.202 C 
BRANCH  40  41
ATOM     41  C   UNL A   1      38.432  31.465  32.544  1.00  0.00     0.261 C 
BRANCH  41  42
ATOM     42  O   UNL A   1      39.323  32.168  31.653  1.00  0.00    -0.460 OA
BRANCH  42  43
ATOM     43  C   UNL A   1      40.616  32.221  32.054  1.00  0.00     0.338 C 
ATOM     44  O   UNL A   1      41.147  33.204  32.577  1.00  0.00    -0.246 OA
BRANCH  43  45
ATOM     45  C   UNL A   1      41.369  31.035  31.562  1.00  0.00     0.060 A 
ATOM     46  C   UNL A   1      42.374  30.452  32.350  1.00  0.00     0.016 A 
ATOM     47  C   UNL A   1      41.293  30.703  30.215  1.00  0.00     0.016 A 
ATOM     48  C   UNL A   1      43.393  29.692  31.750  1.00  0.00     0.010 A 
ATOM     49  C   UNL A   1      42.367  30.066  29.620  1.00  0.00     0.010 A 
ATOM     50  C   UNL A   1      43.458  29.592  30.365  1.00  0.00    -0.014 A 
BRANCH  50  51
ATOM     51  C   UNL A   1      44.639  29.148  29.590  1.00  0.00     0.031 A 
ATOM     52  C   UNL A   1      45.601  30.189  29.099  1.00  0.00     0.074 A 
ATOM     53  C   UNL A   1      45.033  27.844  29.650  1.00  0.00     0.049 A 
ATOM     54  N   UNL A   1      46.744  29.925  28.567  1.00  0.00    -0.248 NA
ATOM     55  C   UNL A   1      45.403  31.634  29.234  1.00  0.00     0.031 C 
ATOM     56  C   UNL A   1      46.389  27.308  29.472  1.00  0.00     0.029 A 
ATOM     57  N   UNL A   1      44.289  26.681  29.918  1.00  0.00    -0.354 N 
ATOM     58  C   UNL A   1      47.536  31.052  28.611  1.00  0.00     0.074 A 
ATOM     59  C   UNL A   1      46.626  32.112  28.959  1.00  0.00     0.031 C 
ATOM     60  C   UNL A   1      46.382  25.969  29.443  1.00  0.00     0.029 A 
ATOM     61  C   UNL A   1      44.998  25.598  29.333  1.00  0.00     0.049 A 
ATOM     62  H   UNL A   1      43.439  26.628  30.414  1.00  0.00     0.167 HD
ATOM     63  C   UNL A   1      48.887  30.890  28.464  1.00  0.00     0.037 A 
ATOM     64  C   UNL A   1      44.484  24.948  28.246  1.00  0.00     0.037 A 
ATOM     65  C   UNL A   1      49.202  29.533  27.980  1.00  0.00     0.049 A 
ATOM     66  C   UNL A   1      45.338  25.226  27.032  1.00  0.00     0.074 A 
ATOM     67  C   UNL A   1      50.000  28.482  28.401  1.00  0.00     0.029 A 
ATOM     68  N   UNL A   1      48.448  29.030  26.920  1.00  0.00    -0.354 N 
ATOM     69  N   UNL A   1      46.019  26.336  26.875  1.00  0.00    -0.248 NA
ATOM     70  C   UNL A   1      45.671  24.218  26.029  1.00  0.00     0.031 C 
ATOM     71  C   UNL A   1      49.602  27.314  27.677  1.00  0.00     0.029 A 
ATOM     72  C   UNL A   1      48.628  27.677  26.757  1.00  0.00     0.049 A 
ATOM     73  H   UNL A   1      47.856  29.579  26.356  1.00  0.00     0.167 HD
ATOM     74  C   UNL A   1      46.952  26.148  25.900  1.00  0.00     0.074 A 
ATOM     75  C   UNL A   1      46.659  24.834  25.355  1.00  0.00     0.031 C 
ATOM     76  C   UNL A   1      47.987  26.997  25.642  1.00  0.00     0.037 A 
BRANCH  63  77
ATOM     77  C   UNL A   1      49.963  31.896  28.848  1.00  0.00     0.064 A 
ATOM     78  C   UNL A   1      50.683  32.590  27.846  1.00  0.00     0.173 A 
ATOM     79  C   UNL A   1      50.406  32.156  30.164  1.00  0.00     0.173 A 
ATOM     80  F   UNL A   1      50.387  32.438  26.548  1.00  0.00    -0.203 F 
ATOM     81  C   UNL A   1      51.738  33.466  28.135  1.00  0.00     0.198 A 
ATOM     82  C   UNL A   1      51.426  33.075  30.453  1.00  0.00     0.198 A 
ATOM     83  F   UNL A   1      49.911  31.499  31.217  1.00  0.00    -0.203 F 
ATOM     84  F   UNL A   1      52.407  34.056  27.133  1.00  0.00    -0.200 F 
ATOM     85  C   UNL A   1      52.098  33.723  29.440  1.00  0.00     0.200 A 
ATOM     86  F   UNL A   1      51.764  33.312  31.731  1.00  0.00    -0.200 F 
ATOM     87  F   UNL A   1      53.093  34.577  29.719  1.00  0.00    -0.200 F 
ENDBRANCH  63  77
BRANCH  64  88
ATOM     88  C   UNL A   1      43.013  24.763  28.418  1.00  0.00     0.064 A 
ATOM     89  C   UNL A   1      42.260  25.551  27.517  1.00  0.00     0.173 A 
ATOM     90  C   UNL A   1      42.466  23.530  28.795  1.00  0.00     0.173 A 
ATOM     91  F   UNL A   1      42.708  26.766  27.161  1.00  0.00    -0.203 F 
ATOM     92  C   UNL A   1      41.229  24.987  26.773  1.00  0.00     0.198 A 
ATOM     93  C   UNL A   1      41.355  23.014  28.113  1.00  0.00     0.198 A 
ATOM     94  F   UNL A   1      43.096  22.749  29.682  1.00  0.00    -0.203 F 
ATOM     95  F   UNL A   1      40.733  25.651  25.724  1.00  0.00    -0.200 F 
ATOM     96  C   UNL A   1      40.809  23.700  27.037  1.00  0.00     0.200 A 
ATOM     97  F   UNL A   1      40.901  21.785  28.399  1.00  0.00    -0.200 F 
ATOM     98  F   UNL A   1      39.929  23.101  26.222  1.00  0.00    -0.200 F 
ENDBRANCH  64  88
BRANCH  76  99
ATOM     99  C   UNL A   1      48.433  27.319  24.234  1.00  0.00     0.064 A 
ATOM    100  C   UNL A   1      49.672  26.911  23.711  1.00  0.00     0.173 A 
ATOM    101  C   UNL A   1      47.518  27.848  23.289  1.00  0.00     0.173 A 
ATOM    102  F   UNL A   1      50.591  26.296  24.467  1.00  0.00    -0.203 F 
ATOM    103  C   UNL A   1      49.992  27.065  22.363  1.00  0.00     0.198 A 
ATOM    104  C   UNL A   1      47.817  27.933  21.932  1.00  0.00     0.198 A 
ATOM    105  F   UNL A   1      46.288  28.250  23.636  1.00  0.00    -0.203 F 
ATOM    106  F   UNL A   1      51.203  26.692  21.929  1.00  0.00    -0.200 F 
ATOM    107  C   UNL A   1      49.060  27.559  21.472  1.00  0.00     0.200 A 
ATOM    108  F   UNL A   1      46.878  28.351  21.071  1.00  0.00    -0.200 F 
ATOM    109  F   UNL A   1      49.355  27.655  20.170  1.00  0.00    -0.200 F 
ENDBRANCH  76  99
ENDBRANCH  50  51
ENDBRANCH  43  45
ENDBRANCH  42  43
ENDBRANCH  41  42
ENDBRANCH  40  41
ENDBRANCH  39  40
ENDBRANCH  38  39
ENDBRANCH  37  38
ENDBRANCH  36  37
ENDBRANCH   1  36
TORSDOF 24
ENDMDL
MODEL 2
REMARK VINA RESULT:      -9.9      2.426      7.024
REMARK SMILES Cc1ccc(NC(=O)c2ccccc2NC(=O)[C@H]2CCCC[C@H]2C(=O)OCCOCCOCCOCCOC(=O)c2ccc(-c3c4nc(c(-c5c(F)c(F)c(F)c(F)c5F)c5ccc([nH]5)c(-c5c(F)c(F)c(F)c(F)c5F)c5nc(c(-c6c(F)c(F)c(F)c(F)c6F)c6ccc3[nH]6)C=C5)C=C4)cc2)cc1
REMARK SMILES IDX 31 1 30 2 29 3 28 4 27 5 26 6 24 7 25 8 23 9 18 10 19 11
REMARK SMILES IDX 20 12 22 13 21 14 16 15 15 16 17 18 14 19 9 20 10 21 11 22
REMARK SMILES IDX 13 23 12 24 7 25 6 26 8 28 5 29 1 30 2 31 3 32 105 33 4 34
REMARK SMILES IDX 104 35 32 36 33 37 34 38 35 39 36 40 37 41 38 42 39 43 40 44
REMARK SMILES IDX 41 45 42 46 103 47 43 48 102 49 44 50 45 51 46 52 96 53
REMARK SMILES IDX 47 54 101 55 95 56 97 57 48 58 100 59 94 60 93 61 49 63
REMARK SMILES IDX 81 64 61 65 80 66 62 67 65 68 79 69 98 70 63 71 64 72 78 74
REMARK SMILES IDX 99 75 66 76 50 77 51 78 59 79 52 80 53 81 57 82 60 83 54 84
REMARK SMILES IDX 55 85 58 86 56 87 82 88 83 89 91 90 84 91 85 92 89 93 92 94
REMARK SMILES IDX 86 95 87 96 90 97 88 98 67 99 68 100 76 101 69 102 70 103
REMARK SMILES IDX 74 104 77 105 71 106 72 107 75 108 73 109
REMARK H PARENT 15 17 6 27 97 62 65 73
REMARK Flexibility Score: inf
ROOT
ATOM      1  C   UNL A   1      38.616  28.736  28.801  1.00  0.00     0.188 C 
ENDROOT
BRANCH   1   2
ATOM      2  C   UNL A   1      37.860  29.995  28.376  1.00  0.00     0.188 C 
BRANCH   2   3
ATOM      3  O   UNL A   1      36.524  30.155  28.795  1.00  0.00    -0.376 OA
BRANCH   3   4
ATOM      4  C   UNL A   1      35.699  30.980  27.989  1.00  0.00     0.202 C 
BRANCH   4   5
ATOM      5  C   UNL A   1      34.411  30.433  27.400  1.00  0.00     0.261 C 
BRANCH   5   6
ATOM      6  O   UNL A   1      34.681  29.316  26.529  1.00  0.00    -0.463 OA
BRANCH   6   7
ATOM      7  C   UNL A   1      33.674  28.439  26.411  1.00  0.00     0.309 C 
ATOM      8  O   UNL A   1      32.990  28.044  27.353  1.00  0.00    -0.252 OA
BRANCH   7   9
ATOM      9  C   UNL A   1      33.476  27.878  25.027  1.00  0.00     0.111 C 
ATOM     10  C   UNL A   1      32.847  26.484  24.755  1.00  0.00     0.093 C 
ATOM     11  C   UNL A   1      33.429  26.033  23.391  1.00  0.00     0.014 C 
ATOM     12  C   UNL A   1      33.318  27.111  22.291  1.00  0.00     0.001 C 
ATOM     13  C   UNL A   1      33.197  28.954  23.990  1.00  0.00     0.016 C 
ATOM     14  C   UNL A   1      33.838  28.494  22.685  1.00  0.00     0.001 C 
BRANCH  10  15
ATOM     15  C   UNL A   1      31.316  26.277  24.678  1.00  0.00     0.228 C 
ATOM     16  N   UNL A   1      30.684  25.098  24.299  1.00  0.00    -0.325 N 
ATOM     17  H   UNL A   1      29.726  25.250  24.125  1.00  0.00     0.169 HD
ATOM     18  O   UNL A   1      30.563  27.240  24.881  1.00  0.00    -0.274 OA
BRANCH  16  19
ATOM     19  C   UNL A   1      31.036  23.722  24.090  1.00  0.00     0.054 A 
ATOM     20  C   UNL A   1      31.465  22.872  25.162  1.00  0.00     0.063 A 
ATOM     21  C   UNL A   1      32.038  21.601  24.890  1.00  0.00     0.016 A 
ATOM     22  C   UNL A   1      32.193  21.145  23.593  1.00  0.00     0.001 A 
ATOM     23  C   UNL A   1      31.088  23.158  22.812  1.00  0.00     0.027 A 
ATOM     24  C   UNL A   1      31.696  21.917  22.558  1.00  0.00     0.002 A 
BRANCH  20  25
ATOM     25  C   UNL A   1      31.584  23.188  26.612  1.00  0.00     0.257 C 
ATOM     26  N   UNL A   1      32.768  23.327  27.285  1.00  0.00    -0.322 N 
ATOM     27  H   UNL A   1      32.681  23.610  28.224  1.00  0.00     0.170 HD
ATOM     28  O   UNL A   1      30.536  23.330  27.250  1.00  0.00    -0.269 OA
BRANCH  26  29
ATOM     29  C   UNL A   1      34.075  23.131  26.852  1.00  0.00     0.041 A 
ATOM     30  C   UNL A   1      37.402  21.976  24.454  1.00  0.00     0.044 C 
ATOM     31  C   UNL A   1      36.312  22.391  25.389  1.00  0.00    -0.051 A 
ATOM     32  C   UNL A   1      35.913  23.733  25.434  1.00  0.00     0.005 A 
ATOM     33  C   UNL A   1      35.669  21.453  26.201  1.00  0.00     0.005 A 
ATOM     34  C   UNL A   1      34.806  24.107  26.187  1.00  0.00     0.026 A 
ATOM     35  C   UNL A   1      34.568  21.831  26.959  1.00  0.00     0.026 A 
ENDBRANCH  26  29
ENDBRANCH  20  25
ENDBRANCH  16  19
ENDBRANCH  10  15
ENDBRANCH   7   9
ENDBRANCH   6   7
ENDBRANCH   5   6
ENDBRANCH   4   5
ENDBRANCH   3   4
ENDBRANCH   2   3
ENDBRANCH   1   2
BRANCH   1  36
ATOM     36  O   UNL A   1      38.184  28.050  29.962  1.00  0.00    -0.377 OA
BRANCH  36  37
ATOM     37  C   UNL A   1      38.607  28.504  31.247  1.00  0.00     0.188 C 
BRANCH  37  38
ATOM     38  C   UNL A   1      37.777  28.170  32.466  1.00  0.00     0.188 C 
BRANCH  38  39
ATOM     39  O   UNL A   1      37.042  29.319  32.863  1.00  0.00    -0.376 OA
BRANCH  39  40
ATOM     40  C   UNL A   1      37.691  30.548  32.548  1.00  0.00     0.202 C 
BRANCH  40  41
ATOM     41  C   UNL A   1      37.531  31.601  33.649  1.00  0.00     0.261 C 
BRANCH  41  42
ATOM     42  O   UNL A   1      38.072  32.847  33.166  1.00  0.00    -0.460 OA
BRANCH  42  43
ATOM     43  C   UNL A   1      39.305  33.161  33.633  1.00  0.00     0.338 C 
ATOM     44  O   UNL A   1      39.538  33.578  34.770  1.00  0.00    -0.246 OA
BRANCH  43  45
ATOM     45  C   UNL A   1      40.301  33.171  32.526  1.00  0.00     0.060 A 
ATOM     46  C   UNL A   1      39.880  33.111  31.189  1.00  0.00     0.016 A 
ATOM     47  C   UNL A   1      41.637  32.928  32.823  1.00  0.00     0.016 A 
ATOM     48  C   UNL A   1      40.751  32.634  30.193  1.00  0.00     0.010 A 
ATOM     49  C   UNL A   1      42.440  32.341  31.862  1.00  0.00     0.010 A 
ATOM     50  C   UNL A   1      42.001  32.138  30.545  1.00  0.00    -0.014 A 
BRANCH  50  51
ATOM     51  C   UNL A   1      42.861  31.292  29.688  1.00  0.00     0.031 A 
ATOM     52  C   UNL A   1      42.780  29.802  29.846  1.00  0.00     0.074 A 
ATOM     53  C   UNL A   1      43.412  31.818  28.557  1.00  0.00     0.049 A 
ATOM     54  N   UNL A   1      43.343  28.958  29.054  1.00  0.00    -0.248 NA
ATOM     55  C   UNL A   1      41.986  29.117  30.869  1.00  0.00     0.031 C 
ATOM     56  C   UNL A   1      43.786  31.107  27.327  1.00  0.00     0.029 A 
ATOM     57  N   UNL A   1      43.743  33.148  28.241  1.00  0.00    -0.354 N 
ATOM     58  C   UNL A   1      42.753  27.723  29.213  1.00  0.00     0.074 A 
ATOM     59  C   UNL A   1      41.971  27.855  30.415  1.00  0.00     0.031 C 
ATOM     60  C   UNL A   1      44.441  31.911  26.481  1.00  0.00     0.029 A 
ATOM     61  C   UNL A   1      44.749  33.092  27.241  1.00  0.00     0.049 A 
ATOM     62  H   UNL A   1      43.352  33.960  28.638  1.00  0.00     0.167 HD
ATOM     63  C   UNL A   1      42.923  26.800  28.217  1.00  0.00     0.037 A 
ATOM     64  C   UNL A   1      46.027  33.480  27.530  1.00  0.00     0.037 A 
ATOM     65  C   UNL A   1      43.980  27.227  27.281  1.00  0.00     0.049 A 
ATOM     66  C   UNL A   1      46.945  32.281  27.506  1.00  0.00     0.074 A 
ATOM     67  C   UNL A   1      44.082  27.434  25.916  1.00  0.00     0.029 A 
ATOM     68  N   UNL A   1      45.172  27.709  27.824  1.00  0.00    -0.354 N 
ATOM     69  N   UNL A   1      46.543  31.067  27.796  1.00  0.00    -0.248 NA
ATOM     70  C   UNL A   1      48.295  32.307  26.949  1.00  0.00     0.031 C 
ATOM     71  C   UNL A   1      45.281  28.177  25.675  1.00  0.00     0.029 A 
ATOM     72  C   UNL A   1      45.948  28.342  26.882  1.00  0.00     0.049 A 
ATOM     73  H   UNL A   1      45.427  27.607  28.769  1.00  0.00     0.167 HD
ATOM     74  C   UNL A   1      47.467  30.174  27.341  1.00  0.00     0.074 A 
ATOM     75  C   UNL A   1      48.573  30.992  26.875  1.00  0.00     0.031 C 
ATOM     76  C   UNL A   1      47.268  28.829  27.249  1.00  0.00     0.037 A 
BRANCH  63  77
ATOM     77  C   UNL A   1      42.083  25.550  27.991  1.00  0.00     0.064 A 
ATOM     78  C   UNL A   1      42.575  24.279  28.373  1.00  0.00     0.173 A 
ATOM     79  C   UNL A   1      40.839  25.512  27.323  1.00  0.00     0.173 A 
ATOM     80  F   UNL A   1      43.749  24.152  29.005  1.00  0.00    -0.203 F 
ATOM     81  C   UNL A   1      41.884  23.087  28.117  1.00  0.00     0.198 A 
ATOM     82  C   UNL A   1      40.124  24.323  27.118  1.00  0.00     0.198 A 
ATOM     83  F   UNL A   1      40.288  26.610  26.797  1.00  0.00    -0.203 F 
ATOM     84  F   UNL A   1      42.430  21.913  28.467  1.00  0.00    -0.200 F 
ATOM     85  C   UNL A   1      40.649  23.110  27.506  1.00  0.00     0.200 A 
ATOM     86  F   UNL A   1      38.922  24.364  26.520  1.00  0.00    -0.200 F 
ATOM     87  F   UNL A   1      39.977  21.972  27.281  1.00  0.00    -0.200 F 
ENDBRANCH  63  77
BRANCH  64  88
ATOM     88  C   UNL A   1      46.002  34.708  28.378  1.00  0.00     0.064 A 
ATOM     89  C   UNL A   1      45.719  35.876  27.632  1.00  0.00     0.173 A 
ATOM     90  C   UNL A   1      45.552  34.678  29.705  1.00  0.00     0.173 A 
ATOM     91  F   UNL A   1      46.172  35.985  26.372  1.00  0.00    -0.203 F 
ATOM     92  C   UNL A   1      44.749  36.774  28.062  1.00  0.00     0.198 A 
ATOM     93  C   UNL A   1      44.658  35.652  30.168  1.00  0.00     0.198 A 
ATOM     94  F   UNL A   1      45.824  33.627  30.490  1.00  0.00    -0.203 F 
ATOM     95  F   UNL A   1      44.283  37.697  27.214  1.00  0.00    -0.200 F 
ATOM     96  C   UNL A   1      44.181  36.635  29.311  1.00  0.00     0.200 A 
ATOM     97  F   UNL A   1      44.141  35.559  31.401  1.00  0.00    -0.200 F 
ATOM     98  F   UNL A   1      43.138  37.400  29.663  1.00  0.00    -0.200 F 
ENDBRANCH  64  88
BRANCH  76  99
ATOM     99  C   UNL A   1      48.346  27.830  27.600  1.00  0.00     0.064 A 
ATOM    100  C   UNL A   1      49.024  27.064  26.635  1.00  0.00     0.173 A 
ATOM    101  C   UNL A   1      48.896  27.787  28.905  1.00  0.00     0.173 A 
ATOM    102  F   UNL A   1      48.682  27.095  25.340  1.00  0.00    -0.203 F 
ATOM    103  C   UNL A   1      50.130  26.280  26.957  1.00  0.00     0.198 A 
ATOM    104  C   UNL A   1      50.043  27.058  29.207  1.00  0.00     0.198 A 
ATOM    105  F   UNL A   1      48.375  28.489  29.921  1.00  0.00    -0.203 F 
ATOM    106  F   UNL A   1      50.713  25.543  26.003  1.00  0.00    -0.200 F 
ATOM    107  C   UNL A   1      50.649  26.290  28.237  1.00  0.00     0.200 A 
ATOM    108  F   UNL A   1      50.574  27.132  30.435  1.00  0.00    -0.200 F 
ATOM    109  F   UNL A   1      51.743  25.575  28.527  1.00  0.00    -0.200 F 
ENDBRANCH  76  99
ENDBRANCH  50  51
ENDBRANCH  43  45
ENDBRANCH  42  43
ENDBRANCH  41  42
ENDBRANCH  40  41
ENDBRANCH  39  40
ENDBRANCH  38  39
ENDBRANCH  37  38
ENDBRANCH  36  37
ENDBRANCH   1  36
TORSDOF 24
ENDMDL
MODEL 3
REMARK VINA RESULT:      -8.3      6.239     13.178
REMARK SMILES Cc1ccc(NC(=O)c2ccccc2NC(=O)[C@H]2CCCC[C@H]2C(=O)OCCOCCOCCOCCOC(=O)c2ccc(-c3c4nc(c(-c5c(F)c(F)c(F)c(F)c5F)c5ccc([nH]5)c(-c5c(F)c(F)c(F)c(F)c5F)c5nc(c(-c6c(F)c(F)c(F)c(F)c6F)c6ccc3[nH]6)C=C5)C=C4)cc2)cc1
REMARK SMILES IDX 31 1 30 2 29 3 28 4 27 5 26 6 24 7 25 8 23 9 18 10 19 11
REMARK SMILES IDX 20 12 22 13 21 14 16 15 15 16 17 18 14 19 9 20 10 21 11 22
REMARK SMILES IDX 13 23 12 24 7 25 6 26 8 28 5 29 1 30 2 31 3 32 105 33 4 34
REMARK SMILES IDX 104 35 32 36 33 37 34 38 35 39 36 40 37 41 38 42 39 43 40 44
REMARK SMILES IDX 41 45 42 46 103 47 43 48 102 49 44 50 45 51 46 52 96 53
REMARK SMILES IDX 47 54 101 55 95 56 97 57 48 58 100 59 94 60 93 61 49 63
REMARK SMILES IDX 81 64 61 65 80 66 62 67 65 68 79 69 98 70 63 71 64 72 78 74
REMARK SMILES IDX 99 75 66 76 50 77 51 78 59 79 52 80 53 81 57 82 60 83 54 84
REMARK SMILES IDX 55 85 58 86 56 87 82 88 83 89 91 90 84 91 85 92 89 93 92 94
REMARK SMILES IDX 86 95 87 96 90 97 88 98 67 99 68 100 76 101 69 102 70 103
REMARK SMILES IDX 74 104 77 105 71 106 72 107 75 108 73 109
REMARK H PARENT 15 17 6 27 97 62 65 73
REMARK Flexibility Score: inf
ROOT
ATOM      1  C   UNL A   1      47.080  21.443  37.245  1.00  0.00     0.188 C 
ENDROOT
BRANCH   1   2
ATOM      2  C   UNL A   1      47.220  22.639  38.186  1.00  0.00     0.188 C 
BRANCH   2   3
ATOM      3  O   UNL A   1      46.297  23.697  38.077  1.00  0.00    -0.376 OA
BRANCH   3   4
ATOM      4  C   UNL A   1      46.583  24.695  37.111  1.00  0.00     0.202 C 
BRANCH   4   5
ATOM      5  C   UNL A   1      48.017  24.973  36.699  1.00  0.00     0.261 C 
BRANCH   5   6
ATOM      6  O   UNL A   1      48.354  24.248  35.500  1.00  0.00    -0.463 OA
BRANCH   6   7
ATOM      7  C   UNL A   1      47.837  24.755  34.371  1.00  0.00     0.309 C 
ATOM      8  O   UNL A   1      46.701  24.516  33.966  1.00  0.00    -0.252 OA
BRANCH   7   9
ATOM      9  C   UNL A   1      48.785  25.594  33.556  1.00  0.00     0.111 C 
ATOM     10  C   UNL A   1      50.261  25.192  33.284  1.00  0.00     0.093 C 
ATOM     11  C   UNL A   1      51.012  26.527  33.048  1.00  0.00     0.014 C 
ATOM     12  C   UNL A   1      50.309  27.454  32.032  1.00  0.00     0.001 C 
ATOM     13  C   UNL A   1      48.085  26.367  32.449  1.00  0.00     0.016 C 
ATOM     14  C   UNL A   1      48.821  27.693  32.295  1.00  0.00     0.001 C 
BRANCH  10  15
ATOM     15  C   UNL A   1      50.651  24.248  32.122  1.00  0.00     0.228 C 
ATOM     16  N   UNL A   1      51.016  22.914  32.259  1.00  0.00    -0.325 N 
ATOM     17  H   UNL A   1      51.415  22.568  31.429  1.00  0.00     0.169 HD
ATOM     18  O   UNL A   1      50.739  24.704  30.973  1.00  0.00    -0.274 OA
BRANCH  16  19
ATOM     19  C   UNL A   1      50.973  21.899  33.275  1.00  0.00     0.054 A 
ATOM     20  C   UNL A   1      52.123  21.117  33.623  1.00  0.00     0.063 A 
ATOM     21  C   UNL A   1      51.992  19.966  34.444  1.00  0.00     0.016 A 
ATOM     22  C   UNL A   1      50.760  19.569  34.935  1.00  0.00     0.001 A 
ATOM     23  C   UNL A   1      49.780  21.535  33.906  1.00  0.00     0.027 A 
ATOM     24  C   UNL A   1      49.660  20.369  34.681  1.00  0.00     0.002 A 
BRANCH  20  25
ATOM     25  C   UNL A   1      53.510  21.211  33.090  1.00  0.00     0.257 C 
ATOM     26  N   UNL A   1      54.509  21.964  33.644  1.00  0.00    -0.322 N 
ATOM     27  H   UNL A   1      55.391  21.863  33.218  1.00  0.00     0.170 HD
ATOM     28  O   UNL A   1      53.771  20.563  32.071  1.00  0.00    -0.269 OA
BRANCH  26  29
ATOM     29  C   UNL A   1      54.476  22.851  34.715  1.00  0.00     0.041 A 
ATOM     30  C   UNL A   1      53.031  25.244  37.930  1.00  0.00     0.044 C 
ATOM     31  C   UNL A   1      53.639  24.472  36.804  1.00  0.00    -0.051 A 
ATOM     32  C   UNL A   1      54.305  23.269  37.070  1.00  0.00     0.005 A 
ATOM     33  C   UNL A   1      53.530  24.922  35.486  1.00  0.00     0.005 A 
ATOM     34  C   UNL A   1      54.746  22.469  36.023  1.00  0.00     0.026 A 
ATOM     35  C   UNL A   1      53.979  24.125  34.441  1.00  0.00     0.026 A 
ENDBRANCH  26  29
ENDBRANCH  20  25
ENDBRANCH  16  19
ENDBRANCH  10  15
ENDBRANCH   7   9
ENDBRANCH   6   7
ENDBRANCH   5   6
ENDBRANCH   4   5
ENDBRANCH   3   4
ENDBRANCH   2   3
ENDBRANCH   1   2
BRANCH   1  36
ATOM     36  O   UNL A   1      46.572  21.666  35.942  1.00  0.00    -0.377 OA
BRANCH  36  37
ATOM     37  C   UNL A   1      45.234  21.280  35.632  1.00  0.00     0.188 C 
BRANCH  37  38
ATOM     38  C   UNL A   1      44.383  22.174  34.758  1.00  0.00     0.188 C 
BRANCH  38  39
ATOM     39  O   UNL A   1      43.876  23.248  35.538  1.00  0.00    -0.376 OA
BRANCH  39  40
ATOM     40  C   UNL A   1      42.709  23.852  34.989  1.00  0.00     0.202 C 
BRANCH  40  41
ATOM     41  C   UNL A   1      41.861  24.570  36.044  1.00  0.00     0.261 C 
BRANCH  41  42
ATOM     42  O   UNL A   1      41.171  25.663  35.404  1.00  0.00    -0.460 OA
BRANCH  42  43
ATOM     43  C   UNL A   1      41.580  26.900  35.776  1.00  0.00     0.338 C 
ATOM     44  O   UNL A   1      41.298  27.438  36.849  1.00  0.00    -0.246 OA
BRANCH  43  45
ATOM     45  C   UNL A   1      42.204  27.616  34.629  1.00  0.00     0.060 A 
ATOM     46  C   UNL A   1      41.434  27.989  33.518  1.00  0.00     0.016 A 
ATOM     47  C   UNL A   1      43.590  27.637  34.524  1.00  0.00     0.016 A 
ATOM     48  C   UNL A   1      42.045  28.201  32.270  1.00  0.00     0.010 A 
ATOM     49  C   UNL A   1      44.166  27.719  33.269  1.00  0.00     0.010 A 
ATOM     50  C   UNL A   1      43.405  27.954  32.114  1.00  0.00    -0.014 A 
BRANCH  50  51
ATOM     51  C   UNL A   1      44.104  27.783  30.821  1.00  0.00     0.031 A 
ATOM     52  C   UNL A   1      44.328  26.391  30.310  1.00  0.00     0.074 A 
ATOM     53  C   UNL A   1      44.196  28.837  29.960  1.00  0.00     0.049 A 
ATOM     54  N   UNL A   1      44.767  26.113  29.132  1.00  0.00    -0.248 NA
ATOM     55  C   UNL A   1      44.003  25.171  31.053  1.00  0.00     0.031 C 
ATOM     56  C   UNL A   1      44.304  28.792  28.495  1.00  0.00     0.029 A 
ATOM     57  N   UNL A   1      44.185  30.221  30.212  1.00  0.00    -0.354 N 
ATOM     58  C   UNL A   1      44.471  24.801  28.835  1.00  0.00     0.074 A 
ATOM     59  C   UNL A   1      44.070  24.233  30.096  1.00  0.00     0.031 C 
ATOM     60  C   UNL A   1      44.531  30.010  27.987  1.00  0.00     0.029 A 
ATOM     61  C   UNL A   1      44.844  30.841  29.117  1.00  0.00     0.049 A 
ATOM     62  H   UNL A   1      43.797  30.672  30.997  1.00  0.00     0.167 HD
ATOM     63  C   UNL A   1      44.493  24.421  27.520  1.00  0.00     0.037 A 
ATOM     64  C   UNL A   1      46.064  31.430  29.294  1.00  0.00     0.037 A 
ATOM     65  C   UNL A   1      45.135  25.455  26.687  1.00  0.00     0.049 A 
ATOM     66  C   UNL A   1      47.124  30.644  28.559  1.00  0.00     0.074 A 
ATOM     67  C   UNL A   1      44.791  26.193  25.567  1.00  0.00     0.029 A 
ATOM     68  N   UNL A   1      46.334  26.005  27.144  1.00  0.00    -0.354 N 
ATOM     69  N   UNL A   1      47.040  29.352  28.351  1.00  0.00    -0.248 NA
ATOM     70  C   UNL A   1      48.223  31.261  27.822  1.00  0.00     0.031 C 
ATOM     71  C   UNL A   1      45.719  27.276  25.455  1.00  0.00     0.029 A 
ATOM     72  C   UNL A   1      46.675  27.142  26.452  1.00  0.00     0.049 A 
ATOM     73  H   UNL A   1      46.871  25.623  27.876  1.00  0.00     0.167 HD
ATOM     74  C   UNL A   1      47.926  29.004  27.374  1.00  0.00     0.074 A 
ATOM     75  C   UNL A   1      48.687  30.213  27.117  1.00  0.00     0.031 C 
ATOM     76  C   UNL A   1      47.941  27.800  26.734  1.00  0.00     0.037 A 
BRANCH  63  77
ATOM     77  C   UNL A   1      43.850  23.174  26.930  1.00  0.00     0.064 A 
ATOM     78  C   UNL A   1      42.483  22.893  27.166  1.00  0.00     0.173 A 
ATOM     79  C   UNL A   1      44.531  22.167  26.210  1.00  0.00     0.173 A 
ATOM     80  F   UNL A   1      41.708  23.748  27.846  1.00  0.00    -0.203 F 
ATOM     81  C   UNL A   1      41.858  21.721  26.719  1.00  0.00     0.198 A 
ATOM     82  C   UNL A   1      43.890  21.021  25.716  1.00  0.00     0.198 A 
ATOM     83  F   UNL A   1      45.851  22.221  26.000  1.00  0.00    -0.203 F 
ATOM     84  F   UNL A   1      40.569  21.498  27.017  1.00  0.00    -0.200 F 
ATOM     85  C   UNL A   1      42.556  20.794  25.977  1.00  0.00     0.200 A 
ATOM     86  F   UNL A   1      44.586  20.128  24.996  1.00  0.00    -0.200 F 
ATOM     87  F   UNL A   1      41.954  19.683  25.528  1.00  0.00    -0.200 F 
ENDBRANCH  63  77
BRANCH  64  88
ATOM     88  C   UNL A   1      46.082  32.175  30.588  1.00  0.00     0.064 A 
ATOM     89  C   UNL A   1      45.318  33.364  30.538  1.00  0.00     0.173 A 
ATOM     90  C   UNL A   1      46.143  31.510  31.819  1.00  0.00     0.173 A 
ATOM     91  F   UNL A   1      45.266  34.073  29.399  1.00  0.00    -0.203 F 
ATOM     92  C   UNL A   1      44.396  33.656  31.536  1.00  0.00     0.198 A 
ATOM     93  C   UNL A   1      45.286  31.882  32.863  1.00  0.00     0.198 A 
ATOM     94  F   UNL A   1      46.887  30.404  31.958  1.00  0.00    -0.203 F 
ATOM     95  F   UNL A   1      43.480  34.608  31.330  1.00  0.00    -0.200 F 
ATOM     96  C   UNL A   1      44.345  32.885  32.679  1.00  0.00     0.200 A 
ATOM     97  F   UNL A   1      45.266  31.174  34.002  1.00  0.00    -0.200 F 
ATOM     98  F   UNL A   1      43.356  33.065  33.566  1.00  0.00    -0.200 F 
ENDBRANCH  64  88
BRANCH  76  99
ATOM     99  C   UNL A   1      49.229  27.091  26.384  1.00  0.00     0.064 A 
ATOM    100  C   UNL A   1      49.772  27.082  25.087  1.00  0.00     0.173 A 
ATOM    101  C   UNL A   1      50.081  26.596  27.403  1.00  0.00     0.173 A 
ATOM    102  F   UNL A   1      49.123  27.619  24.046  1.00  0.00    -0.203 F 
ATOM    103  C   UNL A   1      51.042  26.575  24.821  1.00  0.00     0.198 A 
ATOM    104  C   UNL A   1      51.376  26.155  27.142  1.00  0.00     0.198 A 
ATOM    105  F   UNL A   1      49.712  26.570  28.691  1.00  0.00    -0.203 F 
ATOM    106  F   UNL A   1      51.491  26.559  23.560  1.00  0.00    -0.200 F 
ATOM    107  C   UNL A   1      51.849  26.127  25.848  1.00  0.00     0.200 A 
ATOM    108  F   UNL A   1      52.170  25.789  28.157  1.00  0.00    -0.200 F 
ATOM    109  F   UNL A   1      53.088  25.689  25.592  1.00  0.00    -0.200 F 
ENDBRANCH  76  99
ENDBRANCH  50  51
ENDBRANCH  43  45
ENDBRANCH  42  43
ENDBRANCH  41  42
ENDBRANCH  40  41
ENDBRANCH  39  40
ENDBRANCH  38  39
ENDBRANCH  37  38
ENDBRANCH  36  37
ENDBRANCH   1  36
TORSDOF 24
ENDMDL
