MODEL 1
REMARK VINA RESULT:     -10.8      0.000      0.000
REMARK SMILES CSc1nc2nnc(C(=O)OCCOCCOCCOCCOC(=O)c3ccc(-c4c5nc(c(-c6c(F)c(F)c(F)c(F)c6F)c6ccc([nH]6)c(-c6c(F)c(F)c(F)c(F)c6F)c6nc(c(-c7c(F)c(F)c(F)c(F)c7F)c7ccc4[nH]7)C=C6)C=C5)cc3)c(O)n2n1
REMARK SMILES IDX 18 1 17 2 16 3 15 4 14 5 13 6 12 7 11 8 9 9 10 10 8 11 3 12
REMARK SMILES IDX 4 13 92 14 5 15 91 16 6 17 89 18 7 19 2 20 1 21 90 22 19 24
REMARK SMILES IDX 20 25 21 26 22 27 23 28 24 29 25 30 26 31 27 32 88 33 28 34
REMARK SMILES IDX 87 35 29 36 30 37 31 38 81 39 32 40 86 41 80 42 82 43 33 44
REMARK SMILES IDX 85 45 79 46 78 47 34 49 66 50 46 51 65 52 47 53 50 54 64 55
REMARK SMILES IDX 83 56 48 57 49 58 63 60 84 61 51 62 35 63 36 64 44 65 37 66
REMARK SMILES IDX 38 67 42 68 45 69 39 70 40 71 43 72 41 73 67 74 68 75 76 76
REMARK SMILES IDX 69 77 70 78 74 79 77 80 71 81 72 82 75 83 73 84 52 85 53 86
REMARK SMILES IDX 61 87 54 88 55 89 59 90 62 91 56 92 57 93 60 94 58 95
REMARK H PARENT 90 23 82 48 50 59
REMARK Flexibility Score: inf
ROOT
ATOM      1  C   UNL A   1      39.887  21.850  26.249  1.00  0.00     0.188 C 
ENDROOT
BRANCH   1   2
ATOM      2  O   UNL A   1      38.730  21.188  25.732  1.00  0.00    -0.377 OA
BRANCH   2   3
ATOM      3  C   UNL A   1      37.717  21.930  25.072  1.00  0.00     0.188 C 
BRANCH   3   4
ATOM      4  C   UNL A   1      37.201  23.194  25.784  1.00  0.00     0.188 C 
BRANCH   4   5
ATOM      5  O   UNL A   1      35.788  23.245  25.864  1.00  0.00    -0.376 OA
BRANCH   5   6
ATOM      6  C   UNL A   1      35.076  24.072  24.967  1.00  0.00     0.202 C 
BRANCH   6   7
ATOM      7  C   UNL A   1      33.794  23.530  24.317  1.00  0.00     0.261 C 
BRANCH   7   8
ATOM      8  O   UNL A   1      32.802  24.494  23.927  1.00  0.00    -0.458 OA
BRANCH   8   9
ATOM      9  C   UNL A   1      33.154  25.435  23.028  1.00  0.00     0.364 C 
ATOM     10  O   UNL A   1      33.829  25.255  22.016  1.00  0.00    -0.244 OA
BRANCH   9  11
ATOM     11  C   UNL A   1      32.385  26.682  23.279  1.00  0.00     0.232 A 
ATOM     12  C   UNL A   1      29.630  29.983  22.656  1.00  0.00     0.210 A 
ATOM     13  N   UNL A   1      30.193  29.945  23.899  1.00  0.00    -0.182 NA
ATOM     14  N   UNL A   1      29.939  28.963  21.857  1.00  0.00    -0.134 NA
ATOM     15  C   UNL A   1      30.930  28.857  23.866  1.00  0.00     0.275 A 
ATOM     16  N   UNL A   1      30.819  28.266  22.614  1.00  0.00    -0.159 N 
ATOM     17  N   UNL A   1      31.745  28.293  24.807  1.00  0.00    -0.108 NA
ATOM     18  C   UNL A   1      31.575  27.136  22.297  1.00  0.00     0.251 A 
ATOM     19  N   UNL A   1      32.431  27.267  24.534  1.00  0.00    -0.134 NA
BRANCH  12  20
ATOM     20  S   UNL A   1      28.627  31.313  22.140  1.00  0.00    -0.088 SA
ATOM     21  C   UNL A   1      27.482  31.463  23.528  1.00  0.00     0.094 C 
ENDBRANCH  12  20
BRANCH  18  22
ATOM     22  O   UNL A   1      31.428  26.561  21.042  1.00  0.00    -0.491 OA
ATOM     23  H   UNL A   1      31.977  26.836  20.333  1.00  0.00     0.295 HD
ENDBRANCH  18  22
ENDBRANCH   9  11
ENDBRANCH   8   9
ENDBRANCH   7   8
ENDBRANCH   6   7
ENDBRANCH   5   6
ENDBRANCH   4   5
ENDBRANCH   3   4
ENDBRANCH   2   3
ENDBRANCH   1   2
BRANCH   1  24
ATOM     24  C   UNL A   1      40.754  21.302  27.417  1.00  0.00     0.188 C 
BRANCH  24  25
ATOM     25  O   UNL A   1      41.951  20.640  27.044  1.00  0.00    -0.376 OA
BRANCH  25  26
ATOM     26  C   UNL A   1      41.937  19.320  26.543  1.00  0.00     0.202 C 
BRANCH  26  27
ATOM     27  C   UNL A   1      43.154  18.916  25.726  1.00  0.00     0.261 C 
BRANCH  27  28
ATOM     28  O   UNL A   1      44.184  19.890  25.739  1.00  0.00    -0.460 OA
BRANCH  28  29
ATOM     29  C   UNL A   1      44.456  20.436  24.555  1.00  0.00     0.338 C 
ATOM     30  O   UNL A   1      44.578  19.852  23.461  1.00  0.00    -0.246 OA
BRANCH  29  31
ATOM     31  C   UNL A   1      44.749  21.840  24.746  1.00  0.00     0.060 A 
ATOM     32  C   UNL A   1      45.667  22.163  25.746  1.00  0.00     0.016 A 
ATOM     33  C   UNL A   1      43.851  22.774  24.204  1.00  0.00     0.016 A 
ATOM     34  C   UNL A   1      45.510  23.367  26.382  1.00  0.00     0.010 A 
ATOM     35  C   UNL A   1      43.678  23.962  24.857  1.00  0.00     0.010 A 
ATOM     36  C   UNL A   1      44.449  24.194  25.991  1.00  0.00    -0.014 A 
BRANCH  36  37
ATOM     37  C   UNL A   1      44.197  25.365  26.788  1.00  0.00     0.031 A 
ATOM     38  C   UNL A   1      45.220  26.408  26.601  1.00  0.00     0.074 A 
ATOM     39  C   UNL A   1      43.103  25.480  27.560  1.00  0.00     0.049 A 
ATOM     40  N   UNL A   1      46.070  26.840  27.469  1.00  0.00    -0.248 NA
ATOM     41  C   UNL A   1      45.432  26.911  25.235  1.00  0.00     0.031 C 
ATOM     42  C   UNL A   1      41.914  24.624  27.588  1.00  0.00     0.029 A 
ATOM     43  N   UNL A   1      42.792  26.470  28.434  1.00  0.00    -0.354 N 
ATOM     44  C   UNL A   1      46.807  27.812  26.806  1.00  0.00     0.074 A 
ATOM     45  C   UNL A   1      46.502  27.685  25.407  1.00  0.00     0.031 C 
ATOM     46  C   UNL A   1      40.932  25.255  28.271  1.00  0.00     0.029 A 
ATOM     47  C   UNL A   1      41.464  26.488  28.827  1.00  0.00     0.049 A 
ATOM     48  H   UNL A   1      43.455  27.121  28.761  1.00  0.00     0.167 HD
ATOM     49  C   UNL A   1      47.395  28.821  27.498  1.00  0.00     0.037 A 
ATOM     50  C   UNL A   1      40.852  27.501  29.489  1.00  0.00     0.037 A 
ATOM     51  C   UNL A   1      47.582  28.464  28.881  1.00  0.00     0.049 A 
ATOM     52  C   UNL A   1      41.921  28.320  30.120  1.00  0.00     0.074 A 
ATOM     53  C   UNL A   1      48.282  27.468  29.535  1.00  0.00     0.029 A 
ATOM     54  N   UNL A   1      46.695  28.965  29.800  1.00  0.00    -0.354 N 
ATOM     55  N   UNL A   1      42.669  27.913  31.109  1.00  0.00    -0.248 NA
ATOM     56  C   UNL A   1      42.445  29.453  29.369  1.00  0.00     0.031 C 
ATOM     57  C   UNL A   1      47.479  27.121  30.660  1.00  0.00     0.029 A 
ATOM     58  C   UNL A   1      46.356  27.951  30.657  1.00  0.00     0.049 A 
ATOM     59  H   UNL A   1      46.359  29.890  29.836  1.00  0.00     0.167 HD
ATOM     60  C   UNL A   1      43.922  28.447  30.846  1.00  0.00     0.074 A 
ATOM     61  C   UNL A   1      43.698  29.469  29.829  1.00  0.00     0.031 C 
ATOM     62  C   UNL A   1      45.055  27.814  31.269  1.00  0.00     0.037 A 
BRANCH  49  63
ATOM     63  C   UNL A   1      47.417  30.245  27.009  1.00  0.00     0.064 A 
ATOM     64  C   UNL A   1      48.611  30.982  27.118  1.00  0.00     0.173 A 
ATOM     65  C   UNL A   1      46.257  31.002  26.723  1.00  0.00     0.173 A 
ATOM     66  F   UNL A   1      49.766  30.370  27.416  1.00  0.00    -0.203 F 
ATOM     67  C   UNL A   1      48.625  32.375  27.024  1.00  0.00     0.198 A 
ATOM     68  C   UNL A   1      46.287  32.385  26.571  1.00  0.00     0.198 A 
ATOM     69  F   UNL A   1      45.033  30.462  26.695  1.00  0.00    -0.203 F 
ATOM     70  F   UNL A   1      49.760  33.044  27.267  1.00  0.00    -0.200 F 
ATOM     71  C   UNL A   1      47.463  33.076  26.754  1.00  0.00     0.200 A 
ATOM     72  F   UNL A   1      45.144  33.044  26.332  1.00  0.00    -0.200 F 
ATOM     73  F   UNL A   1      47.465  34.414  26.723  1.00  0.00    -0.200 F 
ENDBRANCH  49  63
BRANCH  50  74
ATOM     74  C   UNL A   1      39.462  27.998  29.342  1.00  0.00     0.064 A 
ATOM     75  C   UNL A   1      38.625  28.116  30.465  1.00  0.00     0.173 A 
ATOM     76  C   UNL A   1      39.019  28.634  28.167  1.00  0.00     0.173 A 
ATOM     77  F   UNL A   1      38.987  27.571  31.636  1.00  0.00    -0.203 F 
ATOM     78  C   UNL A   1      37.444  28.862  30.428  1.00  0.00     0.198 A 
ATOM     79  C   UNL A   1      37.832  29.369  28.126  1.00  0.00     0.198 A 
ATOM     80  F   UNL A   1      39.772  28.644  27.058  1.00  0.00    -0.203 F 
ATOM     81  F   UNL A   1      36.715  29.016  31.541  1.00  0.00    -0.200 F 
ATOM     82  C   UNL A   1      37.055  29.499  29.261  1.00  0.00     0.200 A 
ATOM     83  F   UNL A   1      37.486  30.007  27.000  1.00  0.00    -0.200 F 
ATOM     84  F   UNL A   1      35.960  30.270  29.242  1.00  0.00    -0.200 F 
ENDBRANCH  50  74
BRANCH  62  85
ATOM     85  C   UNL A   1      44.906  26.707  32.275  1.00  0.00     0.064 A 
ATOM     86  C   UNL A   1      44.718  25.356  31.933  1.00  0.00     0.173 A 
ATOM     87  C   UNL A   1      45.141  27.007  33.624  1.00  0.00     0.173 A 
ATOM     88  F   UNL A   1      44.578  24.981  30.655  1.00  0.00    -0.203 F 
ATOM     89  C   UNL A   1      44.741  24.357  32.905  1.00  0.00     0.198 A 
ATOM     90  C   UNL A   1      45.201  26.004  34.586  1.00  0.00     0.198 A 
ATOM     91  F   UNL A   1      45.376  28.274  33.998  1.00  0.00    -0.203 F 
ATOM     92  F   UNL A   1      44.561  23.075  32.557  1.00  0.00    -0.200 F 
ATOM     93  C   UNL A   1      44.996  24.682  34.228  1.00  0.00     0.200 A 
ATOM     94  F   UNL A   1      45.496  26.317  35.854  1.00  0.00    -0.200 F 
ATOM     95  F   UNL A   1      45.075  23.715  35.154  1.00  0.00    -0.200 F 
ENDBRANCH  62  85
ENDBRANCH  36  37
ENDBRANCH  29  31
ENDBRANCH  28  29
ENDBRANCH  27  28
ENDBRANCH  26  27
ENDBRANCH  25  26
ENDBRANCH  24  25
ENDBRANCH   1  24
TORSDOF 22
ENDMDL
MODEL 2
REMARK VINA RESULT:     -10.6      2.666      3.696
REMARK SMILES CSc1nc2nnc(C(=O)OCCOCCOCCOCCOC(=O)c3ccc(-c4c5nc(c(-c6c(F)c(F)c(F)c(F)c6F)c6ccc([nH]6)c(-c6c(F)c(F)c(F)c(F)c6F)c6nc(c(-c7c(F)c(F)c(F)c(F)c7F)c7ccc4[nH]7)C=C6)C=C5)cc3)c(O)n2n1
REMARK SMILES IDX 18 1 17 2 16 3 15 4 14 5 13 6 12 7 11 8 9 9 10 10 8 11 3 12
REMARK SMILES IDX 4 13 92 14 5 15 91 16 6 17 89 18 7 19 2 20 1 21 90 22 19 24
REMARK SMILES IDX 20 25 21 26 22 27 23 28 24 29 25 30 26 31 27 32 88 33 28 34
REMARK SMILES IDX 87 35 29 36 30 37 31 38 81 39 32 40 86 41 80 42 82 43 33 44
REMARK SMILES IDX 85 45 79 46 78 47 34 49 66 50 46 51 65 52 47 53 50 54 64 55
REMARK SMILES IDX 83 56 48 57 49 58 63 60 84 61 51 62 35 63 36 64 44 65 37 66
REMARK SMILES IDX 38 67 42 68 45 69 39 70 40 71 43 72 41 73 67 74 68 75 76 76
REMARK SMILES IDX 69 77 70 78 74 79 77 80 71 81 72 82 75 83 73 84 52 85 53 86
REMARK SMILES IDX 61 87 54 88 55 89 59 90 62 91 56 92 57 93 60 94 58 95
REMARK H PARENT 90 23 82 48 50 59
REMARK Flexibility Score: inf
ROOT
ATOM      1  C   UNL A   1      39.320  21.408  26.126  1.00  0.00     0.188 C 
ENDROOT
BRANCH   1   2
ATOM      2  O   UNL A   1      38.357  21.987  25.242  1.00  0.00    -0.377 OA
BRANCH   2   3
ATOM      3  C   UNL A   1      37.144  21.308  24.963  1.00  0.00     0.188 C 
BRANCH   3   4
ATOM      4  C   UNL A   1      35.996  22.145  24.367  1.00  0.00     0.188 C 
BRANCH   4   5
ATOM      5  O   UNL A   1      35.262  22.855  25.348  1.00  0.00    -0.376 OA
BRANCH   5   6
ATOM      6  C   UNL A   1      35.248  24.267  25.310  1.00  0.00     0.202 C 
BRANCH   6   7
ATOM      7  C   UNL A   1      33.941  24.986  24.943  1.00  0.00     0.261 C 
BRANCH   7   8
ATOM      8  O   UNL A   1      32.757  24.593  25.657  1.00  0.00    -0.458 OA
BRANCH   8   9
ATOM      9  C   UNL A   1      31.702  24.156  24.940  1.00  0.00     0.364 C 
ATOM     10  O   UNL A   1      30.764  24.843  24.539  1.00  0.00    -0.244 OA
BRANCH   9  11
ATOM     11  C   UNL A   1      31.957  22.773  24.462  1.00  0.00     0.232 A 
ATOM     12  C   UNL A   1      32.602  18.477  24.525  1.00  0.00     0.210 A 
ATOM     13  N   UNL A   1      32.523  19.017  23.274  1.00  0.00    -0.182 NA
ATOM     14  N   UNL A   1      32.384  19.326  25.528  1.00  0.00    -0.134 NA
ATOM     15  C   UNL A   1      32.280  20.289  23.506  1.00  0.00     0.275 A 
ATOM     16  N   UNL A   1      32.232  20.503  24.878  1.00  0.00    -0.159 N 
ATOM     17  N   UNL A   1      32.112  21.342  22.653  1.00  0.00    -0.108 NA
ATOM     18  C   UNL A   1      32.068  21.793  25.384  1.00  0.00     0.251 A 
ATOM     19  N   UNL A   1      31.958  22.515  23.100  1.00  0.00    -0.134 NA
BRANCH  12  20
ATOM     20  S   UNL A   1      33.022  16.804  24.781  1.00  0.00    -0.088 SA
ATOM     21  C   UNL A   1      34.107  16.484  23.373  1.00  0.00     0.094 C 
ENDBRANCH  12  20
BRANCH  18  22
ATOM     22  O   UNL A   1      32.009  21.970  26.760  1.00  0.00    -0.491 OA
ATOM     23  H   UNL A   1      32.410  21.344  27.331  1.00  0.00     0.295 HD
ENDBRANCH  18  22
ENDBRANCH   9  11
ENDBRANCH   8   9
ENDBRANCH   7   8
ENDBRANCH   6   7
ENDBRANCH   5   6
ENDBRANCH   4   5
ENDBRANCH   3   4
ENDBRANCH   2   3
ENDBRANCH   1   2
BRANCH   1  24
ATOM     24  C   UNL A   1      40.822  21.807  26.159  1.00  0.00     0.188 C 
BRANCH  24  25
ATOM     25  O   UNL A   1      41.723  20.799  26.590  1.00  0.00    -0.376 OA
BRANCH  25  26
ATOM     26  C   UNL A   1      41.735  19.520  25.994  1.00  0.00     0.202 C 
BRANCH  26  27
ATOM     27  C   UNL A   1      43.111  18.968  25.656  1.00  0.00     0.261 C 
BRANCH  27  28
ATOM     28  O   UNL A   1      44.138  19.942  25.732  1.00  0.00    -0.460 OA
BRANCH  28  29
ATOM     29  C   UNL A   1      44.495  20.475  24.564  1.00  0.00     0.338 C 
ATOM     30  O   UNL A   1      44.682  19.879  23.486  1.00  0.00    -0.246 OA
BRANCH  29  31
ATOM     31  C   UNL A   1      44.795  21.876  24.764  1.00  0.00     0.060 A 
ATOM     32  C   UNL A   1      45.695  22.191  25.782  1.00  0.00     0.016 A 
ATOM     33  C   UNL A   1      43.913  22.817  24.206  1.00  0.00     0.016 A 
ATOM     34  C   UNL A   1      45.534  23.395  26.417  1.00  0.00     0.010 A 
ATOM     35  C   UNL A   1      43.736  24.005  24.859  1.00  0.00     0.010 A 
ATOM     36  C   UNL A   1      44.486  24.229  26.007  1.00  0.00    -0.014 A 
BRANCH  36  37
ATOM     37  C   UNL A   1      44.227  25.402  26.801  1.00  0.00     0.031 A 
ATOM     38  C   UNL A   1      45.247  26.448  26.617  1.00  0.00     0.074 A 
ATOM     39  C   UNL A   1      43.129  25.513  27.569  1.00  0.00     0.049 A 
ATOM     40  N   UNL A   1      46.091  26.884  27.488  1.00  0.00    -0.248 NA
ATOM     41  C   UNL A   1      45.462  26.949  25.250  1.00  0.00     0.031 C 
ATOM     42  C   UNL A   1      41.944  24.653  27.594  1.00  0.00     0.029 A 
ATOM     43  N   UNL A   1      42.812  26.504  28.441  1.00  0.00    -0.354 N 
ATOM     44  C   UNL A   1      46.828  27.857  26.826  1.00  0.00     0.074 A 
ATOM     45  C   UNL A   1      46.528  27.727  25.426  1.00  0.00     0.031 C 
ATOM     46  C   UNL A   1      40.957  25.282  28.272  1.00  0.00     0.029 A 
ATOM     47  C   UNL A   1      41.482  26.517  28.829  1.00  0.00     0.049 A 
ATOM     48  H   UNL A   1      43.471  27.157  28.769  1.00  0.00     0.167 HD
ATOM     49  C   UNL A   1      47.410  28.870  27.519  1.00  0.00     0.037 A 
ATOM     50  C   UNL A   1      40.864  27.529  29.487  1.00  0.00     0.037 A 
ATOM     51  C   UNL A   1      47.593  28.515  28.903  1.00  0.00     0.049 A 
ATOM     52  C   UNL A   1      41.928  28.353  30.120  1.00  0.00     0.074 A 
ATOM     53  C   UNL A   1      48.294  27.523  29.560  1.00  0.00     0.029 A 
ATOM     54  N   UNL A   1      46.700  29.015  29.817  1.00  0.00    -0.354 N 
ATOM     55  N   UNL A   1      42.674  27.950  31.112  1.00  0.00    -0.248 NA
ATOM     56  C   UNL A   1      42.450  29.486  29.370  1.00  0.00     0.031 C 
ATOM     57  C   UNL A   1      47.488  27.175  30.683  1.00  0.00     0.029 A 
ATOM     58  C   UNL A   1      46.362  28.001  30.675  1.00  0.00     0.049 A 
ATOM     59  H   UNL A   1      46.361  29.938  29.851  1.00  0.00     0.167 HD
ATOM     60  C   UNL A   1      43.926  28.488  30.854  1.00  0.00     0.074 A 
ATOM     61  C   UNL A   1      43.702  29.507  29.835  1.00  0.00     0.031 C 
ATOM     62  C   UNL A   1      45.059  27.860  31.282  1.00  0.00     0.037 A 
BRANCH  49  63
ATOM     63  C   UNL A   1      47.428  30.293  27.028  1.00  0.00     0.064 A 
ATOM     64  C   UNL A   1      48.626  31.027  27.117  1.00  0.00     0.173 A 
ATOM     65  C   UNL A   1      46.266  31.053  26.759  1.00  0.00     0.173 A 
ATOM     66  F   UNL A   1      49.784  30.412  27.398  1.00  0.00    -0.203 F 
ATOM     67  C   UNL A   1      48.643  32.420  27.021  1.00  0.00     0.198 A 
ATOM     68  C   UNL A   1      46.297  32.436  26.604  1.00  0.00     0.198 A 
ATOM     69  F   UNL A   1      45.040  30.517  26.750  1.00  0.00    -0.203 F 
ATOM     70  F   UNL A   1      49.783  33.085  27.246  1.00  0.00    -0.200 F 
ATOM     71  C   UNL A   1      47.479  33.124  26.768  1.00  0.00     0.200 A 
ATOM     72  F   UNL A   1      45.154  33.098  26.381  1.00  0.00    -0.200 F 
ATOM     73  F   UNL A   1      47.484  34.461  26.735  1.00  0.00    -0.200 F 
ENDBRANCH  49  63
BRANCH  50  74
ATOM     74  C   UNL A   1      39.472  28.020  29.334  1.00  0.00     0.064 A 
ATOM     75  C   UNL A   1      38.634  28.147  30.455  1.00  0.00     0.173 A 
ATOM     76  C   UNL A   1      39.029  28.644  28.152  1.00  0.00     0.173 A 
ATOM     77  F   UNL A   1      38.997  27.616  31.632  1.00  0.00    -0.203 F 
ATOM     78  C   UNL A   1      37.452  28.890  30.409  1.00  0.00     0.198 A 
ATOM     79  C   UNL A   1      37.840  29.375  28.103  1.00  0.00     0.198 A 
ATOM     80  F   UNL A   1      39.783  28.644  27.044  1.00  0.00    -0.203 F 
ATOM     81  F   UNL A   1      36.721  29.054  31.521  1.00  0.00    -0.200 F 
ATOM     82  C   UNL A   1      37.062  29.514  29.236  1.00  0.00     0.200 A 
ATOM     83  F   UNL A   1      37.492  30.000  26.970  1.00  0.00    -0.200 F 
ATOM     84  F   UNL A   1      35.964  30.282  29.208  1.00  0.00    -0.200 F 
ENDBRANCH  50  74
BRANCH  62  85
ATOM     85  C   UNL A   1      44.910  26.754  32.289  1.00  0.00     0.064 A 
ATOM     86  C   UNL A   1      44.709  25.405  31.948  1.00  0.00     0.173 A 
ATOM     87  C   UNL A   1      45.159  27.052  33.636  1.00  0.00     0.173 A 
ATOM     88  F   UNL A   1      44.556  25.030  30.672  1.00  0.00    -0.203 F 
ATOM     89  C   UNL A   1      44.733  24.406  32.921  1.00  0.00     0.198 A 
ATOM     90  C   UNL A   1      45.219  26.048  34.597  1.00  0.00     0.198 A 
ATOM     91  F   UNL A   1      45.406  28.317  34.008  1.00  0.00    -0.203 F 
ATOM     92  F   UNL A   1      44.541  23.125  32.573  1.00  0.00    -0.200 F 
ATOM     93  C   UNL A   1      45.001  24.728  34.241  1.00  0.00     0.200 A 
ATOM     94  F   UNL A   1      45.527  26.359  35.863  1.00  0.00    -0.200 F 
ATOM     95  F   UNL A   1      45.081  23.761  35.167  1.00  0.00    -0.200 F 
ENDBRANCH  62  85
ENDBRANCH  36  37
ENDBRANCH  29  31
ENDBRANCH  28  29
ENDBRANCH  27  28
ENDBRANCH  26  27
ENDBRANCH  25  26
ENDBRANCH  24  25
ENDBRANCH   1  24
TORSDOF 22
ENDMDL
MODEL 3
REMARK VINA RESULT:     -10.2      5.032     10.318
REMARK SMILES CSc1nc2nnc(C(=O)OCCOCCOCCOCCOC(=O)c3ccc(-c4c5nc(c(-c6c(F)c(F)c(F)c(F)c6F)c6ccc([nH]6)c(-c6c(F)c(F)c(F)c(F)c6F)c6nc(c(-c7c(F)c(F)c(F)c(F)c7F)c7ccc4[nH]7)C=C6)C=C5)cc3)c(O)n2n1
REMARK SMILES IDX 18 1 17 2 16 3 15 4 14 5 13 6 12 7 11 8 9 9 10 10 8 11 3 12
REMARK SMILES IDX 4 13 92 14 5 15 91 16 6 17 89 18 7 19 2 20 1 21 90 22 19 24
REMARK SMILES IDX 20 25 21 26 22 27 23 28 24 29 25 30 26 31 27 32 88 33 28 34
REMARK SMILES IDX 87 35 29 36 30 37 31 38 81 39 32 40 86 41 80 42 82 43 33 44
REMARK SMILES IDX 85 45 79 46 78 47 34 49 66 50 46 51 65 52 47 53 50 54 64 55
REMARK SMILES IDX 83 56 48 57 49 58 63 60 84 61 51 62 35 63 36 64 44 65 37 66
REMARK SMILES IDX 38 67 42 68 45 69 39 70 40 71 43 72 41 73 67 74 68 75 76 76
REMARK SMILES IDX 69 77 70 78 74 79 77 80 71 81 72 82 75 83 73 84 52 85 53 86
REMARK SMILES IDX 61 87 54 88 55 89 59 90 62 91 56 92 57 93 60 94 58 95
REMARK H PARENT 90 23 82 48 50 59
REMARK Flexibility Score: inf
ROOT
ATOM      1  C   UNL A   1      34.527  31.687  27.841  1.00  0.00     0.188 C 
ENDROOT
BRANCH   1   2
ATOM      2  O   UNL A   1      33.239  31.324  27.340  1.00  0.00    -0.377 OA
BRANCH   2   3
ATOM      3  C   UNL A   1      32.876  29.958  27.224  1.00  0.00     0.188 C 
BRANCH   3   4
ATOM      4  C   UNL A   1      33.685  29.101  26.233  1.00  0.00     0.188 C 
BRANCH   4   5
ATOM      5  O   UNL A   1      33.572  27.711  26.483  1.00  0.00    -0.376 OA
BRANCH   5   6
ATOM      6  C   UNL A   1      32.296  27.156  26.719  1.00  0.00     0.202 C 
BRANCH   6   7
ATOM      7  C   UNL A   1      31.390  26.840  25.519  1.00  0.00     0.261 C 
BRANCH   7   8
ATOM      8  O   UNL A   1      31.261  25.458  25.145  1.00  0.00    -0.458 OA
BRANCH   8   9
ATOM      9  C   UNL A   1      31.301  24.531  26.125  1.00  0.00     0.364 C 
ATOM     10  O   UNL A   1      30.564  24.483  27.108  1.00  0.00    -0.244 OA
BRANCH   9  11
ATOM     11  C   UNL A   1      32.185  23.409  25.717  1.00  0.00     0.232 A 
ATOM     12  C   UNL A   1      33.488  19.391  24.698  1.00  0.00     0.210 A 
ATOM     13  N   UNL A   1      34.439  20.354  24.523  1.00  0.00    -0.182 NA
ATOM     14  N   UNL A   1      32.287  19.835  25.068  1.00  0.00    -0.134 NA
ATOM     15  C   UNL A   1      33.810  21.465  24.840  1.00  0.00     0.275 A 
ATOM     16  N   UNL A   1      32.507  21.163  25.213  1.00  0.00    -0.159 N 
ATOM     17  N   UNL A   1      34.238  22.762  24.876  1.00  0.00    -0.108 NA
ATOM     18  C   UNL A   1      31.655  22.167  25.675  1.00  0.00     0.251 A 
ATOM     19  N   UNL A   1      33.474  23.681  25.288  1.00  0.00    -0.134 NA
BRANCH  12  20
ATOM     20  S   UNL A   1      33.848  17.696  24.509  1.00  0.00    -0.088 SA
ATOM     21  C   UNL A   1      32.731  16.952  25.718  1.00  0.00     0.094 C 
ENDBRANCH  12  20
BRANCH  18  22
ATOM     22  O   UNL A   1      30.353  21.833  26.025  1.00  0.00    -0.491 OA
ATOM     23  H   UNL A   1      30.169  20.993  26.399  1.00  0.00     0.295 HD
ENDBRANCH  18  22
ENDBRANCH   9  11
ENDBRANCH   8   9
ENDBRANCH   7   8
ENDBRANCH   6   7
ENDBRANCH   5   6
ENDBRANCH   4   5
ENDBRANCH   3   4
ENDBRANCH   2   3
ENDBRANCH   1   2
BRANCH   1  24
ATOM     24  C   UNL A   1      34.849  33.057  28.504  1.00  0.00     0.188 C 
BRANCH  24  25
ATOM     25  O   UNL A   1      34.410  34.206  27.798  1.00  0.00    -0.376 OA
BRANCH  25  26
ATOM     26  C   UNL A   1      33.959  35.358  28.477  1.00  0.00     0.202 C 
BRANCH  26  27
ATOM     27  C   UNL A   1      33.263  35.105  29.806  1.00  0.00     0.261 C 
BRANCH  27  28
ATOM     28  O   UNL A   1      34.074  35.407  30.928  1.00  0.00    -0.460 OA
BRANCH  28  29
ATOM     29  C   UNL A   1      33.707  34.813  32.062  1.00  0.00     0.338 C 
ATOM     30  O   UNL A   1      32.617  34.921  32.655  1.00  0.00    -0.246 OA
BRANCH  29  31
ATOM     31  C   UNL A   1      34.849  34.115  32.613  1.00  0.00     0.060 A 
ATOM     32  C   UNL A   1      36.055  34.814  32.658  1.00  0.00     0.016 A 
ATOM     33  C   UNL A   1      34.773  32.716  32.707  1.00  0.00     0.016 A 
ATOM     34  C   UNL A   1      37.211  34.087  32.545  1.00  0.00     0.010 A 
ATOM     35  C   UNL A   1      35.926  31.994  32.567  1.00  0.00     0.010 A 
ATOM     36  C   UNL A   1      37.112  32.698  32.395  1.00  0.00    -0.014 A 
BRANCH  36  37
ATOM     37  C   UNL A   1      38.323  31.978  32.101  1.00  0.00     0.031 A 
ATOM     38  C   UNL A   1      39.169  31.781  33.291  1.00  0.00     0.074 A 
ATOM     39  C   UNL A   1      38.588  31.502  30.872  1.00  0.00     0.049 A 
ATOM     40  N   UNL A   1      40.334  32.283  33.518  1.00  0.00    -0.248 NA
ATOM     41  C   UNL A   1      38.571  31.077  34.436  1.00  0.00     0.031 C 
ATOM     42  C   UNL A   1      37.690  31.409  29.718  1.00  0.00     0.029 A 
ATOM     43  N   UNL A   1      39.723  30.903  30.431  1.00  0.00    -0.354 N 
ATOM     44  C   UNL A   1      40.701  31.801  34.768  1.00  0.00     0.074 A 
ATOM     45  C   UNL A   1      39.522  31.226  35.356  1.00  0.00     0.031 C 
ATOM     46  C   UNL A   1      38.247  30.597  28.790  1.00  0.00     0.029 A 
ATOM     47  C   UNL A   1      39.580  30.224  29.232  1.00  0.00     0.049 A 
ATOM     48  H   UNL A   1      40.575  30.948  30.921  1.00  0.00     0.167 HD
ATOM     49  C   UNL A   1      42.012  31.669  35.096  1.00  0.00     0.037 A 
ATOM     50  C   UNL A   1      40.479  29.354  28.707  1.00  0.00     0.037 A 
ATOM     51  C   UNL A   1      42.842  32.515  34.277  1.00  0.00     0.049 A 
ATOM     52  C   UNL A   1      41.786  29.628  29.362  1.00  0.00     0.074 A 
ATOM     53  C   UNL A   1      42.923  33.879  34.071  1.00  0.00     0.029 A 
ATOM     54  N   UNL A   1      43.518  31.935  33.233  1.00  0.00    -0.354 N 
ATOM     55  N   UNL A   1      42.487  30.713  29.175  1.00  0.00    -0.248 NA
ATOM     56  C   UNL A   1      42.120  28.871  30.561  1.00  0.00     0.031 C 
ATOM     57  C   UNL A   1      43.251  34.031  32.692  1.00  0.00     0.029 A 
ATOM     58  C   UNL A   1      43.394  32.755  32.142  1.00  0.00     0.049 A 
ATOM     59  H   UNL A   1      44.005  31.080  33.262  1.00  0.00     0.167 HD
ATOM     60  C   UNL A   1      43.039  30.995  30.416  1.00  0.00     0.074 A 
ATOM     61  C   UNL A   1      42.869  29.775  31.197  1.00  0.00     0.031 C 
ATOM     62  C   UNL A   1      43.321  32.279  30.781  1.00  0.00     0.037 A 
BRANCH  49  63
ATOM     63  C   UNL A   1      42.549  30.490  35.863  1.00  0.00     0.064 A 
ATOM     64  C   UNL A   1      43.452  30.719  36.918  1.00  0.00     0.173 A 
ATOM     65  C   UNL A   1      42.455  29.149  35.422  1.00  0.00     0.173 A 
ATOM     66  F   UNL A   1      43.643  31.958  37.395  1.00  0.00    -0.203 F 
ATOM     67  C   UNL A   1      44.252  29.700  37.436  1.00  0.00     0.198 A 
ATOM     68  C   UNL A   1      43.212  28.124  35.983  1.00  0.00     0.198 A 
ATOM     69  F   UNL A   1      41.724  28.788  34.362  1.00  0.00    -0.203 F 
ATOM     70  F   UNL A   1      45.191  29.991  38.345  1.00  0.00    -0.200 F 
ATOM     71  C   UNL A   1      44.135  28.403  36.966  1.00  0.00     0.200 A 
ATOM     72  F   UNL A   1      43.097  26.881  35.496  1.00  0.00    -0.200 F 
ATOM     73  F   UNL A   1      44.942  27.438  37.419  1.00  0.00    -0.200 F 
ENDBRANCH  49  63
BRANCH  50  74
ATOM     74  C   UNL A   1      40.226  28.107  27.944  1.00  0.00     0.064 A 
ATOM     75  C   UNL A   1      40.908  27.858  26.741  1.00  0.00     0.173 A 
ATOM     76  C   UNL A   1      39.542  27.014  28.510  1.00  0.00     0.173 A 
ATOM     77  F   UNL A   1      41.616  28.833  26.152  1.00  0.00    -0.203 F 
ATOM     78  C   UNL A   1      40.941  26.585  26.165  1.00  0.00     0.198 A 
ATOM     79  C   UNL A   1      39.565  25.746  27.927  1.00  0.00     0.198 A 
ATOM     80  F   UNL A   1      38.917  27.124  29.692  1.00  0.00    -0.203 F 
ATOM     81  F   UNL A   1      41.668  26.370  25.060  1.00  0.00    -0.200 F 
ATOM     82  C   UNL A   1      40.280  25.527  26.766  1.00  0.00     0.200 A 
ATOM     83  F   UNL A   1      38.948  24.724  28.537  1.00  0.00    -0.200 F 
ATOM     84  F   UNL A   1      40.368  24.292  26.252  1.00  0.00    -0.200 F 
ENDBRANCH  50  74
BRANCH  62  85
ATOM     85  C   UNL A   1      43.308  33.332  29.708  1.00  0.00     0.064 A 
ATOM     86  C   UNL A   1      42.203  34.156  29.430  1.00  0.00     0.173 A 
ATOM     87  C   UNL A   1      44.516  33.631  29.064  1.00  0.00     0.173 A 
ATOM     88  F   UNL A   1      41.040  33.991  30.073  1.00  0.00    -0.203 F 
ATOM     89  C   UNL A   1      42.303  35.216  28.530  1.00  0.00     0.198 A 
ATOM     90  C   UNL A   1      44.622  34.712  28.194  1.00  0.00     0.198 A 
ATOM     91  F   UNL A   1      45.615  32.907  29.330  1.00  0.00    -0.203 F 
ATOM     92  F   UNL A   1      41.237  35.990  28.281  1.00  0.00    -0.200 F 
ATOM     93  C   UNL A   1      43.516  35.500  27.923  1.00  0.00     0.200 A 
ATOM     94  F   UNL A   1      45.808  35.012  27.648  1.00  0.00    -0.200 F 
ATOM     95  F   UNL A   1      43.627  36.553  27.101  1.00  0.00    -0.200 F 
ENDBRANCH  62  85
ENDBRANCH  36  37
ENDBRANCH  29  31
ENDBRANCH  28  29
ENDBRANCH  27  28
ENDBRANCH  26  27
ENDBRANCH  25  26
ENDBRANCH  24  25
ENDBRANCH   1  24
TORSDOF 22
ENDMDL
