MODEL 1
REMARK VINA RESULT:     -10.6      0.000      0.000
REMARK SMILES C[C@H]1CCC[C@@](NC(=O)N2CCO[C@H](C#N)C2)(C(=O)OCCOCCOCCOCCOC(=O)c2ccc(-c3c4nc(c(-c5c(F)c(F)c(F)c(F)c5F)c5ccc([nH]5)c(-c5c(F)c(F)c(F)c(F)c5F)c5nc(c(-c6c(F)c(F)c(F)c(F)c6F)c6ccc3[nH]6)C=C5)C=C4)cc2)C1
REMARK SMILES IDX 25 1 24 2 23 3 22 4 21 5 20 6 18 7 19 8 6 9 1 10 2 11 3 12
REMARK SMILES IDX 98 13 4 14 5 15 7 16 8 17 9 19 10 20 11 21 17 22 12 23 14 24
REMARK SMILES IDX 13 25 15 26 16 27 26 28 27 29 28 30 29 31 30 32 31 33 32 34
REMARK SMILES IDX 33 35 34 36 35 37 36 38 97 39 37 40 96 41 38 42 39 43 40 44
REMARK SMILES IDX 90 45 41 46 95 47 89 48 91 49 42 50 94 51 88 52 87 53 43 55
REMARK SMILES IDX 75 56 55 57 74 58 56 59 59 60 73 61 92 62 57 63 58 64 72 66
REMARK SMILES IDX 93 67 60 68 44 69 45 70 53 71 46 72 47 73 51 74 54 75 48 76
REMARK SMILES IDX 49 77 52 78 50 79 76 80 77 81 85 82 78 83 79 84 83 85 86 86
REMARK SMILES IDX 80 87 81 88 84 89 82 90 61 91 62 92 70 93 63 94 64 95 68 96
REMARK SMILES IDX 71 97 65 98 66 99 69 100 67 101
REMARK H PARENT 7 18 91 54 59 65
REMARK Flexibility Score: inf
ROOT
ATOM      1  C   UNL A   1      39.385  21.353  26.041  1.00  0.00     0.188 C 
ENDROOT
BRANCH   1   2
ATOM      2  C   UNL A   1      38.435  22.530  25.811  1.00  0.00     0.188 C 
BRANCH   2   3
ATOM      3  O   UNL A   1      37.450  22.338  24.824  1.00  0.00    -0.376 OA
BRANCH   3   4
ATOM      4  C   UNL A   1      36.111  22.757  24.892  1.00  0.00     0.202 C 
BRANCH   4   5
ATOM      5  C   UNL A   1      35.680  24.235  25.013  1.00  0.00     0.261 C 
BRANCH   5   6
ATOM      6  O   UNL A   1      34.395  24.675  24.596  1.00  0.00    -0.461 OA
BRANCH   6   7
ATOM      7  C   UNL A   1      33.865  25.775  25.177  1.00  0.00     0.331 C 
ATOM      8  O   UNL A   1      34.515  26.584  25.824  1.00  0.00    -0.249 OA
BRANCH   7   9
ATOM      9  C   UNL A   1      32.340  25.844  24.993  1.00  0.00     0.139 C 
ATOM     10  C   UNL A   1      30.563  29.260  24.137  1.00  0.00     0.008 C 
ATOM     11  C   UNL A   1      30.693  27.740  24.239  1.00  0.00    -0.011 C 
ATOM     12  C   UNL A   1      30.572  27.097  22.860  1.00  0.00     0.003 C 
ATOM     13  C   UNL A   1      32.039  27.367  24.870  1.00  0.00     0.044 C 
ATOM     14  C   UNL A   1      30.616  25.583  23.000  1.00  0.00     0.003 C 
ATOM     15  C   UNL A   1      31.884  25.084  23.703  1.00  0.00     0.040 C 
BRANCH   9  16
ATOM     16  N   UNL A   1      31.714  25.328  26.252  1.00  0.00    -0.322 N 
ATOM     17  C   UNL A   1      31.162  24.097  26.471  1.00  0.00     0.318 C 
ATOM     18  H   UNL A   1      31.698  25.952  27.014  1.00  0.00     0.166 HD
ATOM     19  O   UNL A   1      29.979  24.046  26.806  1.00  0.00    -0.249 OA
BRANCH  17  20
ATOM     20  N   UNL A   1      31.939  22.957  26.371  1.00  0.00    -0.319 N 
ATOM     21  C   UNL A   1      33.120  22.854  27.242  1.00  0.00     0.150 C 
ATOM     22  C   UNL A   1      32.102  22.169  25.120  1.00  0.00     0.169 C 
ATOM     23  C   UNL A   1      33.628  21.411  27.434  1.00  0.00     0.183 C 
ATOM     24  C   UNL A   1      32.471  20.722  25.478  1.00  0.00     0.240 C 
ATOM     25  O   UNL A   1      33.726  20.684  26.197  1.00  0.00    -0.360 OA
BRANCH  24  26
ATOM     26  C   UNL A   1      32.449  19.787  24.347  1.00  0.00     0.096 C 
ATOM     27  N   UNL A   1      32.516  19.071  23.428  1.00  0.00    -0.195 NA
ENDBRANCH  24  26
ENDBRANCH  17  20
ENDBRANCH   9  16
ENDBRANCH   7   9
ENDBRANCH   6   7
ENDBRANCH   5   6
ENDBRANCH   4   5
ENDBRANCH   3   4
ENDBRANCH   2   3
ENDBRANCH   1   2
BRANCH   1  28
ATOM     28  O   UNL A   1      40.786  21.499  25.873  1.00  0.00    -0.377 OA
BRANCH  28  29
ATOM     29  C   UNL A   1      41.680  20.871  26.770  1.00  0.00     0.188 C 
BRANCH  29  30
ATOM     30  C   UNL A   1      42.883  21.689  27.284  1.00  0.00     0.188 C 
BRANCH  30  31
ATOM     31  O   UNL A   1      44.133  21.629  26.629  1.00  0.00    -0.376 OA
BRANCH  31  32
ATOM     32  C   UNL A   1      44.186  21.351  25.248  1.00  0.00     0.202 C 
BRANCH  32  33
ATOM     33  C   UNL A   1      44.103  22.474  24.191  1.00  0.00     0.261 C 
BRANCH  33  34
ATOM     34  O   UNL A   1      43.371  23.677  24.490  1.00  0.00    -0.460 OA
BRANCH  34  35
ATOM     35  C   UNL A   1      44.070  24.735  24.968  1.00  0.00     0.338 C 
ATOM     36  O   UNL A   1      45.200  25.062  24.653  1.00  0.00    -0.246 OA
BRANCH  35  37
ATOM     37  C   UNL A   1      43.176  25.583  25.812  1.00  0.00     0.060 A 
ATOM     38  C   UNL A   1      43.272  26.984  25.728  1.00  0.00     0.016 A 
ATOM     39  C   UNL A   1      42.271  25.008  26.704  1.00  0.00     0.016 A 
ATOM     40  C   UNL A   1      42.515  27.806  26.565  1.00  0.00     0.010 A 
ATOM     41  C   UNL A   1      41.548  25.830  27.579  1.00  0.00     0.010 A 
ATOM     42  C   UNL A   1      41.706  27.230  27.548  1.00  0.00    -0.014 A 
BRANCH  42  43
ATOM     43  C   UNL A   1      41.276  28.056  28.707  1.00  0.00     0.031 A 
ATOM     44  C   UNL A   1      42.063  27.924  29.986  1.00  0.00     0.074 A 
ATOM     45  C   UNL A   1      40.256  28.927  28.631  1.00  0.00     0.049 A 
ATOM     46  N   UNL A   1      41.837  28.445  31.165  1.00  0.00    -0.248 NA
ATOM     47  C   UNL A   1      43.273  27.086  29.924  1.00  0.00     0.031 C 
ATOM     48  C   UNL A   1      39.469  29.210  27.433  1.00  0.00     0.029 A 
ATOM     49  N   UNL A   1      39.699  29.730  29.598  1.00  0.00    -0.354 N 
ATOM     50  C   UNL A   1      42.862  27.983  31.982  1.00  0.00     0.074 A 
ATOM     51  C   UNL A   1      43.694  27.118  31.178  1.00  0.00     0.031 C 
ATOM     52  C   UNL A   1      38.511  30.103  27.743  1.00  0.00     0.029 A 
ATOM     53  C   UNL A   1      38.592  30.421  29.168  1.00  0.00     0.049 A 
ATOM     54  H   UNL A   1      40.059  29.804  30.510  1.00  0.00     0.167 HD
ATOM     55  C   UNL A   1      43.094  28.262  33.286  1.00  0.00     0.037 A 
ATOM     56  C   UNL A   1      37.724  31.189  29.860  1.00  0.00     0.037 A 
ATOM     57  C   UNL A   1      42.266  29.127  34.083  1.00  0.00     0.049 A 
ATOM     58  C   UNL A   1      37.946  31.400  31.341  1.00  0.00     0.074 A 
ATOM     59  C   UNL A   1      42.412  29.474  35.415  1.00  0.00     0.029 A 
ATOM     60  N   UNL A   1      41.133  29.779  33.621  1.00  0.00    -0.354 N 
ATOM     61  N   UNL A   1      38.915  30.962  32.107  1.00  0.00    -0.248 NA
ATOM     62  C   UNL A   1      36.950  32.216  32.051  1.00  0.00     0.031 C 
ATOM     63  C   UNL A   1      41.332  30.283  35.775  1.00  0.00     0.029 A 
ATOM     64  C   UNL A   1      40.556  30.506  34.650  1.00  0.00     0.049 A 
ATOM     65  H   UNL A   1      40.790  29.733  32.699  1.00  0.00     0.167 HD
ATOM     66  C   UNL A   1      38.670  31.484  33.373  1.00  0.00     0.074 A 
ATOM     67  C   UNL A   1      37.469  32.284  33.267  1.00  0.00     0.031 C 
ATOM     68  C   UNL A   1      39.373  31.317  34.522  1.00  0.00     0.037 A 
BRANCH  55  69
ATOM     69  C   UNL A   1      44.273  27.608  33.946  1.00  0.00     0.064 A 
ATOM     70  C   UNL A   1      45.530  28.227  34.000  1.00  0.00     0.173 A 
ATOM     71  C   UNL A   1      44.127  26.365  34.585  1.00  0.00     0.173 A 
ATOM     72  F   UNL A   1      45.729  29.407  33.393  1.00  0.00    -0.203 F 
ATOM     73  C   UNL A   1      46.601  27.622  34.655  1.00  0.00     0.198 A 
ATOM     74  C   UNL A   1      45.190  25.780  35.267  1.00  0.00     0.198 A 
ATOM     75  F   UNL A   1      42.947  25.730  34.564  1.00  0.00    -0.203 F 
ATOM     76  F   UNL A   1      47.803  28.214  34.658  1.00  0.00    -0.200 F 
ATOM     77  C   UNL A   1      46.427  26.405  35.297  1.00  0.00     0.200 A 
ATOM     78  F   UNL A   1      45.014  24.612  35.901  1.00  0.00    -0.200 F 
ATOM     79  F   UNL A   1      47.452  25.833  35.942  1.00  0.00    -0.200 F 
ENDBRANCH  55  69
BRANCH  56  80
ATOM     80  C   UNL A   1      36.538  31.789  29.188  1.00  0.00     0.064 A 
ATOM     81  C   UNL A   1      36.451  33.171  28.964  1.00  0.00     0.173 A 
ATOM     82  C   UNL A   1      35.436  31.003  28.817  1.00  0.00     0.173 A 
ATOM     83  F   UNL A   1      37.465  33.973  29.322  1.00  0.00    -0.203 F 
ATOM     84  C   UNL A   1      35.296  33.747  28.437  1.00  0.00     0.198 A 
ATOM     85  C   UNL A   1      34.297  31.576  28.251  1.00  0.00     0.198 A 
ATOM     86  F   UNL A   1      35.460  29.676  29.007  1.00  0.00    -0.203 F 
ATOM     87  F   UNL A   1      35.212  35.078  28.307  1.00  0.00    -0.200 F 
ATOM     88  C   UNL A   1      34.221  32.949  28.078  1.00  0.00     0.200 A 
ATOM     89  F   UNL A   1      33.269  30.797  27.890  1.00  0.00    -0.200 F 
ATOM     90  F   UNL A   1      33.109  33.502  27.576  1.00  0.00    -0.200 F 
ENDBRANCH  56  80
BRANCH  68  91
ATOM     91  C   UNL A   1      38.905  32.062  35.741  1.00  0.00     0.064 A 
ATOM     92  C   UNL A   1      38.150  31.445  36.749  1.00  0.00     0.173 A 
ATOM     93  C   UNL A   1      39.257  33.410  35.922  1.00  0.00     0.173 A 
ATOM     94  F   UNL A   1      37.778  30.162  36.623  1.00  0.00    -0.203 F 
ATOM     95  C   UNL A   1      37.736  32.156  37.873  1.00  0.00     0.198 A 
ATOM     96  C   UNL A   1      38.876  34.106  37.065  1.00  0.00     0.198 A 
ATOM     97  F   UNL A   1      39.988  34.050  34.995  1.00  0.00    -0.203 F 
ATOM     98  F   UNL A   1      36.964  31.560  38.792  1.00  0.00    -0.200 F 
ATOM     99  C   UNL A   1      38.106  33.483  38.034  1.00  0.00     0.200 A 
ATOM    100  F   UNL A   1      39.254  35.382  37.227  1.00  0.00    -0.200 F 
ATOM    101  F   UNL A   1      37.714  34.162  39.120  1.00  0.00    -0.200 F 
ENDBRANCH  68  91
ENDBRANCH  42  43
ENDBRANCH  35  37
ENDBRANCH  34  35
ENDBRANCH  33  34
ENDBRANCH  32  33
ENDBRANCH  31  32
ENDBRANCH  30  31
ENDBRANCH  29  30
ENDBRANCH  28  29
ENDBRANCH   1  28
TORSDOF 23
ENDMDL
MODEL 2
REMARK VINA RESULT:     -10.1      3.399      8.680
REMARK SMILES C[C@H]1CCC[C@@](NC(=O)N2CCO[C@H](C#N)C2)(C(=O)OCCOCCOCCOCCOC(=O)c2ccc(-c3c4nc(c(-c5c(F)c(F)c(F)c(F)c5F)c5ccc([nH]5)c(-c5c(F)c(F)c(F)c(F)c5F)c5nc(c(-c6c(F)c(F)c(F)c(F)c6F)c6ccc3[nH]6)C=C5)C=C4)cc2)C1
REMARK SMILES IDX 25 1 24 2 23 3 22 4 21 5 20 6 18 7 19 8 6 9 1 10 2 11 3 12
REMARK SMILES IDX 98 13 4 14 5 15 7 16 8 17 9 19 10 20 11 21 17 22 12 23 14 24
REMARK SMILES IDX 13 25 15 26 16 27 26 28 27 29 28 30 29 31 30 32 31 33 32 34
REMARK SMILES IDX 33 35 34 36 35 37 36 38 97 39 37 40 96 41 38 42 39 43 40 44
REMARK SMILES IDX 90 45 41 46 95 47 89 48 91 49 42 50 94 51 88 52 87 53 43 55
REMARK SMILES IDX 75 56 55 57 74 58 56 59 59 60 73 61 92 62 57 63 58 64 72 66
REMARK SMILES IDX 93 67 60 68 44 69 45 70 53 71 46 72 47 73 51 74 54 75 48 76
REMARK SMILES IDX 49 77 52 78 50 79 76 80 77 81 85 82 78 83 79 84 83 85 86 86
REMARK SMILES IDX 80 87 81 88 84 89 82 90 61 91 62 92 70 93 63 94 64 95 68 96
REMARK SMILES IDX 71 97 65 98 66 99 69 100 67 101
REMARK H PARENT 7 18 91 54 59 65
REMARK Flexibility Score: inf
ROOT
ATOM      1  C   UNL A   1      29.894  30.119  23.675  1.00  0.00     0.188 C 
ENDROOT
BRANCH   1   2
ATOM      2  C   UNL A   1      29.133  29.129  22.791  1.00  0.00     0.188 C 
BRANCH   2   3
ATOM      3  O   UNL A   1      29.922  28.183  22.112  1.00  0.00    -0.376 OA
BRANCH   3   4
ATOM      4  C   UNL A   1      30.380  26.959  22.625  1.00  0.00     0.202 C 
BRANCH   4   5
ATOM      5  C   UNL A   1      29.673  26.185  23.759  1.00  0.00     0.261 C 
BRANCH   5   6
ATOM      6  O   UNL A   1      30.069  26.320  25.116  1.00  0.00    -0.461 OA
BRANCH   6   7
ATOM      7  C   UNL A   1      30.530  25.230  25.770  1.00  0.00     0.331 C 
ATOM      8  O   UNL A   1      29.830  24.504  26.461  1.00  0.00    -0.249 OA
BRANCH   7   9
ATOM      9  C   UNL A   1      32.049  25.059  25.606  1.00  0.00     0.139 C 
ATOM     10  C   UNL A   1      33.551  23.326  22.397  1.00  0.00     0.008 C 
ATOM     11  C   UNL A   1      33.572  24.196  23.654  1.00  0.00    -0.011 C 
ATOM     12  C   UNL A   1      33.955  25.631  23.307  1.00  0.00     0.003 C 
ATOM     13  C   UNL A   1      32.199  24.174  24.334  1.00  0.00     0.044 C 
ATOM     14  C   UNL A   1      34.055  26.453  24.584  1.00  0.00     0.003 C 
ATOM     15  C   UNL A   1      32.761  26.439  25.407  1.00  0.00     0.040 C 
BRANCH   9  16
ATOM     16  N   UNL A   1      32.544  24.289  26.791  1.00  0.00    -0.322 N 
ATOM     17  C   UNL A   1      32.434  22.946  27.025  1.00  0.00     0.318 C 
ATOM     18  H   UNL A   1      33.005  24.813  27.486  1.00  0.00     0.166 HD
ATOM     19  O   UNL A   1      31.841  22.584  28.040  1.00  0.00    -0.249 OA
BRANCH  17  20
ATOM     20  N   UNL A   1      33.026  22.038  26.167  1.00  0.00    -0.319 N 
ATOM     21  C   UNL A   1      32.153  21.073  25.480  1.00  0.00     0.150 C 
ATOM     22  C   UNL A   1      34.408  21.514  26.334  1.00  0.00     0.169 C 
ATOM     23  C   UNL A   1      32.781  20.455  24.215  1.00  0.00     0.183 C 
ATOM     24  C   UNL A   1      34.948  21.066  24.968  1.00  0.00     0.240 C 
ATOM     25  O   UNL A   1      34.130  20.004  24.425  1.00  0.00    -0.360 OA
BRANCH  24  26
ATOM     26  C   UNL A   1      36.377  20.731  24.956  1.00  0.00     0.096 C 
ATOM     27  N   UNL A   1      37.493  20.395  25.001  1.00  0.00    -0.195 NA
ENDBRANCH  24  26
ENDBRANCH  17  20
ENDBRANCH   9  16
ENDBRANCH   7   9
ENDBRANCH   6   7
ENDBRANCH   5   6
ENDBRANCH   4   5
ENDBRANCH   3   4
ENDBRANCH   2   3
ENDBRANCH   1   2
BRANCH   1  28
ATOM     28  O   UNL A   1      31.008  29.704  24.449  1.00  0.00    -0.377 OA
BRANCH  28  29
ATOM     29  C   UNL A   1      31.387  30.433  25.600  1.00  0.00     0.188 C 
BRANCH  29  30
ATOM     30  C   UNL A   1      31.780  29.638  26.863  1.00  0.00     0.188 C 
BRANCH  30  31
ATOM     31  O   UNL A   1      33.121  29.594  27.303  1.00  0.00    -0.376 OA
BRANCH  31  32
ATOM     32  C   UNL A   1      33.963  30.705  27.095  1.00  0.00     0.202 C 
BRANCH  32  33
ATOM     33  C   UNL A   1      33.931  31.932  28.032  1.00  0.00     0.261 C 
BRANCH  33  34
ATOM     34  O   UNL A   1      33.221  33.117  27.625  1.00  0.00    -0.460 OA
BRANCH  34  35
ATOM     35  C   UNL A   1      33.323  34.211  28.417  1.00  0.00     0.338 C 
ATOM     36  O   UNL A   1      32.527  35.130  28.495  1.00  0.00    -0.246 OA
BRANCH  35  37
ATOM     37  C   UNL A   1      34.476  34.046  29.352  1.00  0.00     0.060 A 
ATOM     38  C   UNL A   1      35.783  34.273  28.885  1.00  0.00     0.016 A 
ATOM     39  C   UNL A   1      34.279  33.638  30.671  1.00  0.00     0.016 A 
ATOM     40  C   UNL A   1      36.888  34.043  29.706  1.00  0.00     0.010 A 
ATOM     41  C   UNL A   1      35.389  33.359  31.480  1.00  0.00     0.010 A 
ATOM     42  C   UNL A   1      36.698  33.510  30.983  1.00  0.00    -0.014 A 
BRANCH  42  43
ATOM     43  C   UNL A   1      37.837  32.843  31.666  1.00  0.00     0.031 A 
ATOM     44  C   UNL A   1      38.464  31.657  30.979  1.00  0.00     0.074 A 
ATOM     45  C   UNL A   1      38.339  33.289  32.831  1.00  0.00     0.049 A 
ATOM     46  N   UNL A   1      39.392  30.837  31.403  1.00  0.00    -0.248 NA
ATOM     47  C   UNL A   1      37.971  31.353  29.624  1.00  0.00     0.031 C 
ATOM     48  C   UNL A   1      37.880  34.471  33.556  1.00  0.00     0.029 A 
ATOM     49  N   UNL A   1      39.346  32.781  33.617  1.00  0.00    -0.354 N 
ATOM     50  C   UNL A   1      39.577  29.917  30.379  1.00  0.00     0.074 A 
ATOM     51  C   UNL A   1      38.648  30.257  29.325  1.00  0.00     0.031 C 
ATOM     52  C   UNL A   1      38.586  34.583  34.697  1.00  0.00     0.029 A 
ATOM     53  C   UNL A   1      39.514  33.457  34.801  1.00  0.00     0.049 A 
ATOM     54  H   UNL A   1      39.895  32.007  33.357  1.00  0.00     0.167 HD
ATOM     55  C   UNL A   1      40.450  28.885  30.318  1.00  0.00     0.037 A 
ATOM     56  C   UNL A   1      40.301  33.174  35.860  1.00  0.00     0.037 A 
ATOM     57  C   UNL A   1      41.376  28.552  31.367  1.00  0.00     0.049 A 
ATOM     58  C   UNL A   1      41.191  31.953  35.811  1.00  0.00     0.074 A 
ATOM     59  C   UNL A   1      42.303  27.524  31.405  1.00  0.00     0.029 A 
ATOM     60  N   UNL A   1      41.491  29.240  32.565  1.00  0.00    -0.354 N 
ATOM     61  N   UNL A   1      41.363  31.088  34.840  1.00  0.00    -0.248 NA
ATOM     62  C   UNL A   1      42.000  31.672  37.006  1.00  0.00     0.031 C 
ATOM     63  C   UNL A   1      42.931  27.551  32.652  1.00  0.00     0.029 A 
ATOM     64  C   UNL A   1      42.454  28.642  33.361  1.00  0.00     0.049 A 
ATOM     65  H   UNL A   1      40.966  30.035  32.813  1.00  0.00     0.167 HD
ATOM     66  C   UNL A   1      42.326  30.191  35.291  1.00  0.00     0.074 A 
ATOM     67  C   UNL A   1      42.713  30.628  36.615  1.00  0.00     0.031 C 
ATOM     68  C   UNL A   1      42.845  29.103  34.668  1.00  0.00     0.037 A 
BRANCH  55  69
ATOM     69  C   UNL A   1      40.432  28.020  29.091  1.00  0.00     0.064 A 
ATOM     70  C   UNL A   1      41.217  28.313  27.966  1.00  0.00     0.173 A 
ATOM     71  C   UNL A   1      39.659  26.847  29.062  1.00  0.00     0.173 A 
ATOM     72  F   UNL A   1      41.961  29.429  27.933  1.00  0.00    -0.203 F 
ATOM     73  C   UNL A   1      41.217  27.474  26.853  1.00  0.00     0.198 A 
ATOM     74  C   UNL A   1      39.689  25.994  27.964  1.00  0.00     0.198 A 
ATOM     75  F   UNL A   1      38.892  26.519  30.112  1.00  0.00    -0.203 F 
ATOM     76  F   UNL A   1      41.944  27.797  25.774  1.00  0.00    -0.200 F 
ATOM     77  C   UNL A   1      40.463  26.311  26.858  1.00  0.00     0.200 A 
ATOM     78  F   UNL A   1      38.973  24.862  27.977  1.00  0.00    -0.200 F 
ATOM     79  F   UNL A   1      40.480  25.495  25.795  1.00  0.00    -0.200 F 
ENDBRANCH  55  69
BRANCH  56  80
ATOM     80  C   UNL A   1      40.265  34.025  37.083  1.00  0.00     0.064 A 
ATOM     81  C   UNL A   1      41.160  35.092  37.252  1.00  0.00     0.173 A 
ATOM     82  C   UNL A   1      39.382  33.747  38.138  1.00  0.00     0.173 A 
ATOM     83  F   UNL A   1      42.043  35.385  36.285  1.00  0.00    -0.203 F 
ATOM     84  C   UNL A   1      41.202  35.818  38.441  1.00  0.00     0.198 A 
ATOM     85  C   UNL A   1      39.397  34.502  39.310  1.00  0.00     0.198 A 
ATOM     86  F   UNL A   1      38.504  32.739  38.034  1.00  0.00    -0.203 F 
ATOM     87  F   UNL A   1      42.120  36.781  38.604  1.00  0.00    -0.200 F 
ATOM     88  C   UNL A   1      40.318  35.525  39.468  1.00  0.00     0.200 A 
ATOM     89  F   UNL A   1      38.528  34.225  40.292  1.00  0.00    -0.200 F 
ATOM     90  F   UNL A   1      40.362  36.220  40.613  1.00  0.00    -0.200 F 
ENDBRANCH  56  80
BRANCH  68  91
ATOM     91  C   UNL A   1      43.933  28.346  35.377  1.00  0.00     0.064 A 
ATOM     92  C   UNL A   1      45.292  28.624  35.168  1.00  0.00     0.173 A 
ATOM     93  C   UNL A   1      43.607  27.351  36.314  1.00  0.00     0.173 A 
ATOM     94  F   UNL A   1      45.662  29.556  34.278  1.00  0.00    -0.203 F 
ATOM     95  C   UNL A   1      46.281  27.912  35.844  1.00  0.00     0.198 A 
ATOM     96  C   UNL A   1      44.596  26.671  37.016  1.00  0.00     0.198 A 
ATOM     97  F   UNL A   1      42.322  27.051  36.562  1.00  0.00    -0.203 F 
ATOM     98  F   UNL A   1      47.573  28.155  35.583  1.00  0.00    -0.200 F 
ATOM     99  C   UNL A   1      45.933  26.944  36.773  1.00  0.00     0.200 A 
ATOM    100  F   UNL A   1      44.254  25.751  37.929  1.00  0.00    -0.200 F 
ATOM    101  F   UNL A   1      46.886  26.268  37.428  1.00  0.00    -0.200 F 
ENDBRANCH  68  91
ENDBRANCH  42  43
ENDBRANCH  35  37
ENDBRANCH  34  35
ENDBRANCH  33  34
ENDBRANCH  32  33
ENDBRANCH  31  32
ENDBRANCH  30  31
ENDBRANCH  29  30
ENDBRANCH  28  29
ENDBRANCH   1  28
TORSDOF 23
ENDMDL
MODEL 3
REMARK VINA RESULT:      -9.9      4.259      9.726
REMARK SMILES C[C@H]1CCC[C@@](NC(=O)N2CCO[C@H](C#N)C2)(C(=O)OCCOCCOCCOCCOC(=O)c2ccc(-c3c4nc(c(-c5c(F)c(F)c(F)c(F)c5F)c5ccc([nH]5)c(-c5c(F)c(F)c(F)c(F)c5F)c5nc(c(-c6c(F)c(F)c(F)c(F)c6F)c6ccc3[nH]6)C=C5)C=C4)cc2)C1
REMARK SMILES IDX 25 1 24 2 23 3 22 4 21 5 20 6 18 7 19 8 6 9 1 10 2 11 3 12
REMARK SMILES IDX 98 13 4 14 5 15 7 16 8 17 9 19 10 20 11 21 17 22 12 23 14 24
REMARK SMILES IDX 13 25 15 26 16 27 26 28 27 29 28 30 29 31 30 32 31 33 32 34
REMARK SMILES IDX 33 35 34 36 35 37 36 38 97 39 37 40 96 41 38 42 39 43 40 44
REMARK SMILES IDX 90 45 41 46 95 47 89 48 91 49 42 50 94 51 88 52 87 53 43 55
REMARK SMILES IDX 75 56 55 57 74 58 56 59 59 60 73 61 92 62 57 63 58 64 72 66
REMARK SMILES IDX 93 67 60 68 44 69 45 70 53 71 46 72 47 73 51 74 54 75 48 76
REMARK SMILES IDX 49 77 52 78 50 79 76 80 77 81 85 82 78 83 79 84 83 85 86 86
REMARK SMILES IDX 80 87 81 88 84 89 82 90 61 91 62 92 70 93 63 94 64 95 68 96
REMARK SMILES IDX 71 97 65 98 66 99 69 100 67 101
REMARK H PARENT 7 18 91 54 59 65
REMARK Flexibility Score: inf
ROOT
ATOM      1  C   UNL A   1      29.641  31.910  24.205  1.00  0.00     0.188 C 
ENDROOT
BRANCH   1   2
ATOM      2  C   UNL A   1      28.303  31.669  23.503  1.00  0.00     0.188 C 
BRANCH   2   3
ATOM      3  O   UNL A   1      28.381  31.140  22.202  1.00  0.00    -0.376 OA
BRANCH   3   4
ATOM      4  C   UNL A   1      28.321  29.781  21.851  1.00  0.00     0.202 C 
BRANCH   4   5
ATOM      5  C   UNL A   1      28.498  28.625  22.860  1.00  0.00     0.261 C 
BRANCH   5   6
ATOM      6  O   UNL A   1      29.612  27.746  22.801  1.00  0.00    -0.461 OA
BRANCH   6   7
ATOM      7  C   UNL A   1      29.627  26.662  23.608  1.00  0.00     0.331 C 
ATOM      8  O   UNL A   1      28.631  26.195  24.141  1.00  0.00    -0.249 OA
BRANCH   7   9
ATOM      9  C   UNL A   1      31.054  26.137  23.839  1.00  0.00     0.139 C 
ATOM     10  C   UNL A   1      33.941  28.570  24.979  1.00  0.00     0.008 C 
ATOM     11  C   UNL A   1      33.252  27.221  24.769  1.00  0.00    -0.011 C 
ATOM     12  C   UNL A   1      33.050  26.508  26.102  1.00  0.00     0.003 C 
ATOM     13  C   UNL A   1      31.900  27.422  24.076  1.00  0.00     0.044 C 
ATOM     14  C   UNL A   1      32.446  25.133  25.856  1.00  0.00     0.003 C 
ATOM     15  C   UNL A   1      31.121  25.192  25.086  1.00  0.00     0.040 C 
BRANCH   9  16
ATOM     16  N   UNL A   1      31.504  25.490  22.566  1.00  0.00    -0.322 N 
ATOM     17  C   UNL A   1      32.750  25.018  22.259  1.00  0.00     0.318 C 
ATOM     18  H   UNL A   1      30.819  25.391  21.865  1.00  0.00     0.166 HD
ATOM     19  O   UNL A   1      33.325  25.500  21.284  1.00  0.00    -0.249 OA
BRANCH  17  20
ATOM     20  N   UNL A   1      33.308  23.992  22.998  1.00  0.00    -0.319 N 
ATOM     21  C   UNL A   1      34.748  24.064  23.295  1.00  0.00     0.150 C 
ATOM     22  C   UNL A   1      32.818  22.588  22.976  1.00  0.00     0.169 C 
ATOM     23  C   UNL A   1      35.182  23.195  24.492  1.00  0.00     0.183 C 
ATOM     24  C   UNL A   1      33.205  21.895  24.290  1.00  0.00     0.240 C 
ATOM     25  O   UNL A   1      34.644  21.863  24.439  1.00  0.00    -0.360 OA
BRANCH  24  26
ATOM     26  C   UNL A   1      32.595  20.575  24.489  1.00  0.00     0.096 C 
ATOM     27  N   UNL A   1      32.167  19.514  24.717  1.00  0.00    -0.195 NA
ENDBRANCH  24  26
ENDBRANCH  17  20
ENDBRANCH   9  16
ENDBRANCH   7   9
ENDBRANCH   6   7
ENDBRANCH   5   6
ENDBRANCH   4   5
ENDBRANCH   3   4
ENDBRANCH   2   3
ENDBRANCH   1   2
BRANCH   1  28
ATOM     28  O   UNL A   1      30.334  30.850  24.844  1.00  0.00    -0.377 OA
BRANCH  28  29
ATOM     29  C   UNL A   1      31.392  31.129  25.740  1.00  0.00     0.188 C 
BRANCH  29  30
ATOM     30  C   UNL A   1      31.117  32.101  26.906  1.00  0.00     0.188 C 
BRANCH  30  31
ATOM     31  O   UNL A   1      31.796  33.336  26.995  1.00  0.00    -0.376 OA
BRANCH  31  32
ATOM     32  C   UNL A   1      32.837  33.496  27.932  1.00  0.00     0.202 C 
BRANCH  32  33
ATOM     33  C   UNL A   1      34.235  32.883  27.703  1.00  0.00     0.261 C 
BRANCH  33  34
ATOM     34  O   UNL A   1      34.551  31.601  28.278  1.00  0.00    -0.460 OA
BRANCH  34  35
ATOM     35  C   UNL A   1      35.181  31.589  29.476  1.00  0.00     0.338 C 
ATOM     36  O   UNL A   1      34.787  32.097  30.512  1.00  0.00    -0.246 OA
BRANCH  35  37
ATOM     37  C   UNL A   1      36.365  30.681  29.409  1.00  0.00     0.060 A 
ATOM     38  C   UNL A   1      36.659  29.846  30.502  1.00  0.00     0.016 A 
ATOM     39  C   UNL A   1      37.200  30.671  28.292  1.00  0.00     0.016 A 
ATOM     40  C   UNL A   1      37.805  29.050  30.508  1.00  0.00     0.010 A 
ATOM     41  C   UNL A   1      38.378  29.910  28.318  1.00  0.00     0.010 A 
ATOM     42  C   UNL A   1      38.711  29.138  29.448  1.00  0.00    -0.014 A 
BRANCH  42  43
ATOM     43  C   UNL A   1      40.108  28.673  29.648  1.00  0.00     0.031 A 
ATOM     44  C   UNL A   1      41.028  29.557  30.451  1.00  0.00     0.074 A 
ATOM     45  C   UNL A   1      40.549  27.492  29.181  1.00  0.00     0.049 A 
ATOM     46  N   UNL A   1      42.311  29.441  30.682  1.00  0.00    -0.248 NA
ATOM     47  C   UNL A   1      40.412  30.741  31.077  1.00  0.00     0.031 C 
ATOM     48  C   UNL A   1      39.741  26.509  28.464  1.00  0.00     0.029 A 
ATOM     49  N   UNL A   1      41.801  26.926  29.234  1.00  0.00    -0.354 N 
ATOM     50  C   UNL A   1      42.654  30.539  31.461  1.00  0.00     0.074 A 
ATOM     51  C   UNL A   1      41.456  31.328  31.640  1.00  0.00     0.031 C 
ATOM     52  C   UNL A   1      40.525  25.471  28.118  1.00  0.00     0.029 A 
ATOM     53  C   UNL A   1      41.896  25.738  28.551  1.00  0.00     0.049 A 
ATOM     54  H   UNL A   1      42.557  27.334  29.714  1.00  0.00     0.167 HD
ATOM     55  C   UNL A   1      43.858  30.858  31.989  1.00  0.00     0.037 A 
ATOM     56  C   UNL A   1      42.977  24.976  28.279  1.00  0.00     0.037 A 
ATOM     57  C   UNL A   1      45.048  30.069  31.812  1.00  0.00     0.049 A 
ATOM     58  C   UNL A   1      44.332  25.411  28.790  1.00  0.00     0.074 A 
ATOM     59  C   UNL A   1      46.321  30.306  32.303  1.00  0.00     0.029 A 
ATOM     60  N   UNL A   1      45.112  28.891  31.085  1.00  0.00    -0.354 N 
ATOM     61  N   UNL A   1      44.650  26.448  29.526  1.00  0.00    -0.248 NA
ATOM     62  C   UNL A   1      45.478  24.562  28.433  1.00  0.00     0.031 C 
ATOM     63  C   UNL A   1      47.167  29.306  31.818  1.00  0.00     0.029 A 
ATOM     64  C   UNL A   1      46.408  28.403  31.091  1.00  0.00     0.049 A 
ATOM     65  H   UNL A   1      44.348  28.464  30.631  1.00  0.00     0.167 HD
ATOM     66  C   UNL A   1      46.018  26.353  29.754  1.00  0.00     0.074 A 
ATOM     67  C   UNL A   1      46.467  25.147  29.092  1.00  0.00     0.031 C 
ATOM     68  C   UNL A   1      46.833  27.187  30.447  1.00  0.00     0.037 A 
BRANCH  55  69
ATOM     69  C   UNL A   1      43.964  32.127  32.784  1.00  0.00     0.064 A 
ATOM     70  C   UNL A   1      44.265  33.357  32.180  1.00  0.00     0.173 A 
ATOM     71  C   UNL A   1      43.701  32.122  34.164  1.00  0.00     0.173 A 
ATOM     72  F   UNL A   1      44.539  33.417  30.869  1.00  0.00    -0.203 F 
ATOM     73  C   UNL A   1      44.315  34.531  32.930  1.00  0.00     0.198 A 
ATOM     74  C   UNL A   1      43.719  33.301  34.902  1.00  0.00     0.198 A 
ATOM     75  F   UNL A   1      43.407  30.974  34.791  1.00  0.00    -0.203 F 
ATOM     76  F   UNL A   1      44.646  35.687  32.338  1.00  0.00    -0.200 F 
ATOM     77  C   UNL A   1      44.031  34.503  34.287  1.00  0.00     0.200 A 
ATOM     78  F   UNL A   1      43.427  33.275  36.210  1.00  0.00    -0.200 F 
ATOM     79  F   UNL A   1      44.062  35.636  35.002  1.00  0.00    -0.200 F 
ENDBRANCH  55  69
BRANCH  56  80
ATOM     80  C   UNL A   1      42.849  23.746  27.449  1.00  0.00     0.064 A 
ATOM     81  C   UNL A   1      42.437  22.529  28.012  1.00  0.00     0.173 A 
ATOM     82  C   UNL A   1      43.202  23.743  26.090  1.00  0.00     0.173 A 
ATOM     83  F   UNL A   1      42.112  22.468  29.312  1.00  0.00    -0.203 F 
ATOM     84  C   UNL A   1      42.424  21.353  27.263  1.00  0.00     0.198 A 
ATOM     85  C   UNL A   1      43.148  22.575  25.332  1.00  0.00     0.198 A 
ATOM     86  F   UNL A   1      43.604  24.876  25.497  1.00  0.00    -0.203 F 
ATOM     87  F   UNL A   1      42.101  20.192  27.848  1.00  0.00    -0.200 F 
ATOM     88  C   UNL A   1      42.776  21.377  25.922  1.00  0.00     0.200 A 
ATOM     89  F   UNL A   1      43.473  22.608  24.032  1.00  0.00    -0.200 F 
ATOM     90  F   UNL A   1      42.768  20.247  25.204  1.00  0.00    -0.200 F 
ENDBRANCH  56  80
BRANCH  68  91
ATOM     91  C   UNL A   1      48.279  26.795  30.586  1.00  0.00     0.064 A 
ATOM     92  C   UNL A   1      48.728  25.956  31.615  1.00  0.00     0.173 A 
ATOM     93  C   UNL A   1      49.223  27.236  29.643  1.00  0.00     0.173 A 
ATOM     94  F   UNL A   1      47.872  25.514  32.548  1.00  0.00    -0.203 F 
ATOM     95  C   UNL A   1      50.072  25.602  31.716  1.00  0.00     0.198 A 
ATOM     96  C   UNL A   1      50.556  26.847  29.724  1.00  0.00     0.198 A 
ATOM     97  F   UNL A   1      48.847  28.032  28.629  1.00  0.00    -0.203 F 
ATOM     98  F   UNL A   1      50.487  24.848  32.744  1.00  0.00    -0.200 F 
ATOM     99  C   UNL A   1      50.982  26.040  30.766  1.00  0.00     0.200 A 
ATOM    100  F   UNL A   1      51.428  27.255  28.791  1.00  0.00    -0.200 F 
ATOM    101  F   UNL A   1      52.272  25.690  30.861  1.00  0.00    -0.200 F 
ENDBRANCH  68  91
ENDBRANCH  42  43
ENDBRANCH  35  37
ENDBRANCH  34  35
ENDBRANCH  33  34
ENDBRANCH  32  33
ENDBRANCH  31  32
ENDBRANCH  30  31
ENDBRANCH  29  30
ENDBRANCH  28  29
ENDBRANCH   1  28
TORSDOF 23
ENDMDL
