MODEL 1
REMARK VINA RESULT:     -11.8      0.000      0.000
REMARK SMILES Cc1ccccc1[C@@H]1[NH2+][C@@H](C(=O)OCCOCCOCCOCCOC(=O)c2ccc(-c3c4nc(c(-c5c(F)c(F)c(F)c(F)c5F)c5ccc([nH]5)c(-c5c(F)c(F)c(F)c(F)c5F)c5nc(c(-c6c(F)c(F)c(F)c(F)c6F)c6ccc3[nH]6)C=C5)C=C4)cc2)CC2=c3ccccc3=N[C@H]21
REMARK SMILES IDX 20 1 19 2 18 3 17 4 16 5 15 6 14 7 13 8 11 9 12 10 10 11
REMARK SMILES IDX 8 12 9 13 100 14 92 17 99 18 91 19 93 20 98 21 94 22 97 23
REMARK SMILES IDX 95 24 96 25 7 26 1 27 2 28 3 29 4 30 6 31 5 32 21 33 22 34
REMARK SMILES IDX 23 35 24 36 25 37 26 38 27 39 28 40 29 41 90 42 30 43 89 44
REMARK SMILES IDX 31 45 32 46 33 47 83 48 34 49 88 50 82 51 84 52 35 53 87 54
REMARK SMILES IDX 81 55 80 56 36 58 68 59 48 60 67 61 49 62 52 63 66 64 85 65
REMARK SMILES IDX 50 66 51 67 65 69 86 70 53 71 37 72 38 73 46 74 39 75 40 76
REMARK SMILES IDX 44 77 47 78 41 79 42 80 45 81 43 82 69 83 70 84 78 85 71 86
REMARK SMILES IDX 72 87 76 88 79 89 73 90 74 91 77 92 75 93 54 94 55 95 63 96
REMARK SMILES IDX 56 97 57 98 61 99 64 100 58 101 59 102 62 103 60 104
REMARK H PARENT 9 15 9 16 84 57 52 68
REMARK Flexibility Score: inf
ROOT
ATOM      1  C   UNL A   1      50.653  21.518  36.784  1.00  0.00     0.188 C 
ENDROOT
BRANCH   1   2
ATOM      2  O   UNL A   1      49.630  22.454  36.525  1.00  0.00    -0.377 OA
BRANCH   2   3
ATOM      3  C   UNL A   1      48.450  22.338  37.298  1.00  0.00     0.188 C 
BRANCH   3   4
ATOM      4  C   UNL A   1      48.108  20.927  38.019  1.00  0.00     0.188 C 
BRANCH   4   5
ATOM      5  O   UNL A   1      47.498  19.652  37.373  1.00  0.00    -0.376 OA
BRANCH   5   6
ATOM      6  C   UNL A   1      45.992  19.194  36.945  1.00  0.00     0.202 C 
BRANCH   6   7
ATOM      7  C   UNL A   1      44.814  17.823  37.316  1.00  0.00     0.261 C 
BRANCH   7   8
ATOM      8  O   UNL A   1      44.384  16.917  38.864  1.00  0.00    -0.459 OA
BRANCH   8   9
ATOM      9  C   UNL A   1      43.524  16.032  39.736  1.00  0.00     0.365 C 
ATOM     10  O   UNL A   1      42.896  15.125  39.169  1.00  0.00    -0.245 OA
BRANCH   9  11
ATOM     11  C   UNL A   1      43.340  16.133  41.552  1.00  0.00     0.298 C 
ATOM     12  C   UNL A   1      44.923  15.647  43.624  1.00  0.00     0.243 C 
ATOM     13  N   UNL A   1      44.733  16.166  42.194  1.00  0.00    -0.326 N 
ATOM     14  C   UNL A   1      43.901  14.699  44.334  1.00  0.00     0.196 C 
ATOM     15  H   UNL A   1      45.347  15.613  41.595  1.00  0.00     0.347 HD
ATOM     16  H   UNL A   1      44.936  17.162  42.272  1.00  0.00     0.347 HD
ATOM     17  C   UNL A   1      43.010  14.161  43.293  1.00  0.00    -0.024 C 
ATOM     18  N   UNL A   1      44.455  13.514  45.044  1.00  0.00    -0.270 NA
ATOM     19  C   UNL A   1      42.422  15.314  42.566  1.00  0.00     0.111 C 
ATOM     20  C   UNL A   1      42.921  12.834  43.353  1.00  0.00     0.002 A 
ATOM     21  C   UNL A   1      43.762  12.538  44.534  1.00  0.00     0.066 A 
ATOM     22  C   UNL A   1      42.280  11.767  42.655  1.00  0.00     0.010 A 
ATOM     23  C   UNL A   1      43.706  11.151  45.058  1.00  0.00     0.028 A 
ATOM     24  C   UNL A   1      42.316  10.519  43.150  1.00  0.00     0.001 A 
ATOM     25  C   UNL A   1      42.983  10.228  44.402  1.00  0.00     0.002 A 
BRANCH  12  26
ATOM     26  C   UNL A   1      45.363  16.734  44.627  1.00  0.00     0.015 A 
ATOM     27  C   UNL A   1      47.623  15.709  45.459  1.00  0.00     0.045 C 
ATOM     28  C   UNL A   1      46.586  16.796  45.353  1.00  0.00    -0.042 A 
ATOM     29  C   UNL A   1      46.944  18.003  45.990  1.00  0.00     0.004 A 
ATOM     30  C   UNL A   1      46.103  19.109  45.981  1.00  0.00     0.000 A 
ATOM     31  C   UNL A   1      44.509  17.857  44.686  1.00  0.00     0.010 A 
ATOM     32  C   UNL A   1      44.873  19.027  45.348  1.00  0.00     0.001 A 
ENDBRANCH  12  26
ENDBRANCH   9  11
ENDBRANCH   8   9
ENDBRANCH   7   8
ENDBRANCH   6   7
ENDBRANCH   5   6
ENDBRANCH   4   5
ENDBRANCH   3   4
ENDBRANCH   2   3
ENDBRANCH   1   2
BRANCH   1  33
ATOM     33  C   UNL A   1      50.802  20.277  35.879  1.00  0.00     0.188 C 
BRANCH  33  34
ATOM     34  O   UNL A   1      52.135  19.872  35.573  1.00  0.00    -0.376 OA
BRANCH  34  35
ATOM     35  C   UNL A   1      52.521  20.155  34.217  1.00  0.00     0.202 C 
BRANCH  35  36
ATOM     36  C   UNL A   1      53.119  21.560  34.001  1.00  0.00     0.261 C 
BRANCH  36  37
ATOM     37  O   UNL A   1      52.081  22.481  33.623  1.00  0.00    -0.460 OA
BRANCH  37  38
ATOM     38  C   UNL A   1      52.262  23.744  34.082  1.00  0.00     0.338 C 
ATOM     39  O   UNL A   1      52.460  24.061  35.239  1.00  0.00    -0.246 OA
BRANCH  38  40
ATOM     40  C   UNL A   1      51.872  24.691  32.998  1.00  0.00     0.060 A 
ATOM     41  C   UNL A   1      51.691  26.020  33.331  1.00  0.00     0.016 A 
ATOM     42  C   UNL A   1      51.386  24.230  31.768  1.00  0.00     0.016 A 
ATOM     43  C   UNL A   1      50.853  26.801  32.526  1.00  0.00     0.010 A 
ATOM     44  C   UNL A   1      50.425  24.966  31.059  1.00  0.00     0.010 A 
ATOM     45  C   UNL A   1      50.034  26.235  31.497  1.00  0.00    -0.014 A 
BRANCH  45  46
ATOM     46  C   UNL A   1      48.758  26.920  30.780  1.00  0.00     0.031 A 
ATOM     47  C   UNL A   1      47.636  26.030  31.854  1.00  0.00     0.074 A 
ATOM     48  C   UNL A   1      48.462  27.744  29.390  1.00  0.00     0.049 A 
ATOM     49  N   UNL A   1      46.562  25.366  31.480  1.00  0.00    -0.248 NA
ATOM     50  C   UNL A   1      47.894  25.612  33.264  1.00  0.00     0.031 C 
ATOM     51  C   UNL A   1      47.057  28.424  28.663  1.00  0.00     0.029 A 
ATOM     52  N   UNL A   1      49.039  27.765  28.021  1.00  0.00    -0.354 N 
ATOM     53  C   UNL A   1      45.768  25.200  32.568  1.00  0.00     0.074 A 
ATOM     54  C   UNL A   1      46.760  24.954  33.569  1.00  0.00     0.031 C 
ATOM     55  C   UNL A   1      47.033  28.485  27.339  1.00  0.00     0.029 A 
ATOM     56  C   UNL A   1      48.140  27.771  26.909  1.00  0.00     0.049 A 
ATOM     57  H   UNL A   1      50.014  27.776  27.883  1.00  0.00     0.167 HD
ATOM     58  C   UNL A   1      44.450  25.587  32.556  1.00  0.00     0.037 A 
ATOM     59  C   UNL A   1      48.029  26.905  25.857  1.00  0.00     0.037 A 
ATOM     60  C   UNL A   1      43.944  26.064  31.215  1.00  0.00     0.049 A 
ATOM     61  C   UNL A   1      46.617  26.209  25.813  1.00  0.00     0.074 A 
ATOM     62  C   UNL A   1      43.373  27.253  30.771  1.00  0.00     0.029 A 
ATOM     63  N   UNL A   1      44.124  25.327  30.036  1.00  0.00    -0.354 N 
ATOM     64  N   UNL A   1      45.617  26.484  26.629  1.00  0.00    -0.248 NA
ATOM     65  C   UNL A   1      46.268  25.077  24.960  1.00  0.00     0.031 C 
ATOM     66  C   UNL A   1      43.262  27.236  29.338  1.00  0.00     0.029 A 
ATOM     67  C   UNL A   1      43.720  26.015  28.872  1.00  0.00     0.049 A 
ATOM     68  H   UNL A   1      44.496  24.416  30.022  1.00  0.00     0.167 HD
ATOM     69  C   UNL A   1      44.666  25.494  26.615  1.00  0.00     0.074 A 
ATOM     70  C   UNL A   1      45.076  24.694  25.464  1.00  0.00     0.031 C 
ATOM     71  C   UNL A   1      43.676  25.314  27.564  1.00  0.00     0.037 A 
BRANCH  58  72
ATOM     72  C   UNL A   1      43.645  25.802  33.862  1.00  0.00     0.064 A 
ATOM     73  C   UNL A   1      43.610  27.069  34.490  1.00  0.00     0.173 A 
ATOM     74  C   UNL A   1      42.929  24.808  34.579  1.00  0.00     0.173 A 
ATOM     75  F   UNL A   1      44.201  28.137  33.936  1.00  0.00    -0.203 F 
ATOM     76  C   UNL A   1      42.953  27.299  35.713  1.00  0.00     0.198 A 
ATOM     77  C   UNL A   1      42.228  25.052  35.765  1.00  0.00     0.198 A 
ATOM     78  F   UNL A   1      42.882  23.527  34.212  1.00  0.00    -0.203 F 
ATOM     79  F   UNL A   1      43.002  28.514  36.278  1.00  0.00    -0.200 F 
ATOM     80  C   UNL A   1      42.252  26.294  36.344  1.00  0.00     0.200 A 
ATOM     81  F   UNL A   1      41.542  24.052  36.341  1.00  0.00    -0.200 F 
ATOM     82  F   UNL A   1      41.605  26.515  37.496  1.00  0.00    -0.200 F 
ENDBRANCH  58  72
BRANCH  59  83
ATOM     83  C   UNL A   1      49.346  26.416  25.367  1.00  0.00     0.064 A 
ATOM     84  C   UNL A   1      49.914  27.096  24.259  1.00  0.00     0.173 A 
ATOM     85  C   UNL A   1      50.190  25.568  26.083  1.00  0.00     0.173 A 
ATOM     86  F   UNL A   1      49.145  27.889  23.495  1.00  0.00    -0.203 F 
ATOM     87  C   UNL A   1      51.280  27.055  23.991  1.00  0.00     0.198 A 
ATOM     88  C   UNL A   1      51.564  25.533  25.816  1.00  0.00     0.198 A 
ATOM     89  F   UNL A   1      49.720  24.862  27.121  1.00  0.00    -0.203 F 
ATOM     90  F   UNL A   1      51.795  27.794  22.998  1.00  0.00    -0.200 F 
ATOM     91  C   UNL A   1      52.111  26.300  24.796  1.00  0.00     0.200 A 
ATOM     92  F   UNL A   1      52.374  24.807  26.600  1.00  0.00    -0.200 F 
ATOM     93  F   UNL A   1      53.439  26.334  24.610  1.00  0.00    -0.200 F 
ENDBRANCH  59  83
BRANCH  71  94
ATOM     94  C   UNL A   1      42.481  24.399  27.325  1.00  0.00     0.064 A 
ATOM     95  C   UNL A   1      41.231  24.881  26.896  1.00  0.00     0.173 A 
ATOM     96  C   UNL A   1      42.501  23.027  27.680  1.00  0.00     0.173 A 
ATOM     97  F   UNL A   1      41.030  26.188  26.682  1.00  0.00    -0.203 F 
ATOM     98  C   UNL A   1      40.132  24.036  26.713  1.00  0.00     0.198 A 
ATOM     99  C   UNL A   1      41.387  22.199  27.554  1.00  0.00     0.198 A 
ATOM    100  F   UNL A   1      43.597  22.430  28.161  1.00  0.00    -0.203 F 
ATOM    101  F   UNL A   1      38.988  24.534  26.225  1.00  0.00    -0.200 F 
ATOM    102  C   UNL A   1      40.211  22.696  27.040  1.00  0.00     0.200 A 
ATOM    103  F   UNL A   1      41.471  20.916  27.930  1.00  0.00    -0.200 F 
ATOM    104  F   UNL A   1      39.155  21.890  26.873  1.00  0.00    -0.200 F 
ENDBRANCH  71  94
ENDBRANCH  45  46
ENDBRANCH  38  40
ENDBRANCH  37  38
ENDBRANCH  36  37
ENDBRANCH  35  36
ENDBRANCH  34  35
ENDBRANCH  33  34
ENDBRANCH   1  33
TORSDOF 21
ENDMDL
MODEL 2
REMARK VINA RESULT:     -11.7      9.705     15.607
REMARK SMILES Cc1ccccc1[C@@H]1[NH2+][C@@H](C(=O)OCCOCCOCCOCCOC(=O)c2ccc(-c3c4nc(c(-c5c(F)c(F)c(F)c(F)c5F)c5ccc([nH]5)c(-c5c(F)c(F)c(F)c(F)c5F)c5nc(c(-c6c(F)c(F)c(F)c(F)c6F)c6ccc3[nH]6)C=C5)C=C4)cc2)CC2=c3ccccc3=N[C@H]21
REMARK SMILES IDX 20 1 19 2 18 3 17 4 16 5 15 6 14 7 13 8 11 9 12 10 10 11
REMARK SMILES IDX 8 12 9 13 100 14 92 17 99 18 91 19 93 20 98 21 94 22 97 23
REMARK SMILES IDX 95 24 96 25 7 26 1 27 2 28 3 29 4 30 6 31 5 32 21 33 22 34
REMARK SMILES IDX 23 35 24 36 25 37 26 38 27 39 28 40 29 41 90 42 30 43 89 44
REMARK SMILES IDX 31 45 32 46 33 47 83 48 34 49 88 50 82 51 84 52 35 53 87 54
REMARK SMILES IDX 81 55 80 56 36 58 68 59 48 60 67 61 49 62 52 63 66 64 85 65
REMARK SMILES IDX 50 66 51 67 65 69 86 70 53 71 37 72 38 73 46 74 39 75 40 76
REMARK SMILES IDX 44 77 47 78 41 79 42 80 45 81 43 82 69 83 70 84 78 85 71 86
REMARK SMILES IDX 72 87 76 88 79 89 73 90 74 91 77 92 75 93 54 94 55 95 63 96
REMARK SMILES IDX 56 97 57 98 61 99 64 100 58 101 59 102 62 103 60 104
REMARK H PARENT 9 15 9 16 84 57 52 68
REMARK Flexibility Score: inf
ROOT
ATOM      1  C   UNL A   1      45.226  23.703  26.249  1.00  0.00     0.188 C 
ENDROOT
BRANCH   1   2
ATOM      2  O   UNL A   1      46.120  22.613  26.279  1.00  0.00    -0.377 OA
BRANCH   2   3
ATOM      3  C   UNL A   1      45.704  21.431  25.622  1.00  0.00     0.188 C 
BRANCH   3   4
ATOM      4  C   UNL A   1      44.386  21.466  24.680  1.00  0.00     0.188 C 
BRANCH   4   5
ATOM      5  O   UNL A   1      42.965  21.978  25.050  1.00  0.00    -0.376 OA
BRANCH   5   6
ATOM      6  C   UNL A   1      41.813  21.498  26.100  1.00  0.00     0.202 C 
BRANCH   6   7
ATOM      7  C   UNL A   1      40.225  22.138  26.787  1.00  0.00     0.261 C 
BRANCH   7   8
ATOM      8  O   UNL A   1      38.534  22.335  26.075  1.00  0.00    -0.459 OA
BRANCH   8   9
ATOM      9  C   UNL A   1      37.234  23.060  25.822  1.00  0.00     0.365 C 
ATOM     10  O   UNL A   1      37.312  24.203  25.347  1.00  0.00    -0.245 OA
BRANCH   9  11
ATOM     11  C   UNL A   1      35.547  22.414  26.107  1.00  0.00     0.298 C 
ATOM     12  C   UNL A   1      33.461  21.878  24.560  1.00  0.00     0.243 C 
ATOM     13  N   UNL A   1      34.979  21.899  24.779  1.00  0.00    -0.326 N 
ATOM     14  C   UNL A   1      32.461  22.727  25.410  1.00  0.00     0.196 C 
ATOM     15  H   UNL A   1      35.376  22.483  24.042  1.00  0.00     0.347 HD
ATOM     16  H   UNL A   1      35.234  20.912  24.777  1.00  0.00     0.347 HD
ATOM     17  C   UNL A   1      33.251  23.739  26.130  1.00  0.00    -0.024 C 
ATOM     18  N   UNL A   1      31.413  23.483  24.671  1.00  0.00    -0.270 NA
ATOM     19  C   UNL A   1      34.304  23.025  26.895  1.00  0.00     0.111 C 
ATOM     20  C   UNL A   1      32.759  24.965  25.962  1.00  0.00     0.002 A 
ATOM     21  C   UNL A   1      31.562  24.689  25.137  1.00  0.00     0.066 A 
ATOM     22  C   UNL A   1      33.057  26.306  26.350  1.00  0.00     0.010 A 
ATOM     23  C   UNL A   1      30.613  25.812  24.946  1.00  0.00     0.028 A 
ATOM     24  C   UNL A   1      32.182  27.292  26.096  1.00  0.00     0.001 A 
ATOM     25  C   UNL A   1      30.917  27.023  25.445  1.00  0.00     0.002 A 
BRANCH  12  26
ATOM     26  C   UNL A   1      32.879  20.459  24.386  1.00  0.00     0.015 A 
ATOM     27  C   UNL A   1      32.008  20.614  21.923  1.00  0.00     0.045 C 
ATOM     28  C   UNL A   1      32.329  19.889  23.203  1.00  0.00    -0.042 A 
ATOM     29  C   UNL A   1      32.121  18.494  23.147  1.00  0.00     0.004 A 
ATOM     30  C   UNL A   1      32.376  17.676  24.241  1.00  0.00     0.000 A 
ATOM     31  C   UNL A   1      33.072  19.606  25.495  1.00  0.00     0.010 A 
ATOM     32  C   UNL A   1      32.829  18.237  25.424  1.00  0.00     0.001 A 
ENDBRANCH  12  26
ENDBRANCH   9  11
ENDBRANCH   8   9
ENDBRANCH   7   8
ENDBRANCH   6   7
ENDBRANCH   5   6
ENDBRANCH   4   5
ENDBRANCH   3   4
ENDBRANCH   2   3
ENDBRANCH   1   2
BRANCH   1  33
ATOM     33  C   UNL A   1      45.571  24.954  25.413  1.00  0.00     0.188 C 
BRANCH  33  34
ATOM     34  O   UNL A   1      44.478  25.610  24.773  1.00  0.00    -0.376 OA
BRANCH  34  35
ATOM     35  C   UNL A   1      44.104  26.846  25.405  1.00  0.00     0.202 C 
BRANCH  35  36
ATOM     36  C   UNL A   1      42.705  27.366  25.017  1.00  0.00     0.261 C 
BRANCH  36  37
ATOM     37  O   UNL A   1      41.829  27.313  26.156  1.00  0.00    -0.460 OA
BRANCH  37  38
ATOM     38  C   UNL A   1      42.115  26.320  27.034  1.00  0.00     0.338 C 
ATOM     39  O   UNL A   1      42.000  25.128  26.824  1.00  0.00    -0.246 OA
BRANCH  38  40
ATOM     40  C   UNL A   1      42.290  26.930  28.384  1.00  0.00     0.060 A 
ATOM     41  C   UNL A   1      41.182  27.023  29.204  1.00  0.00     0.016 A 
ATOM     42  C   UNL A   1      43.432  27.678  28.702  1.00  0.00     0.016 A 
ATOM     43  C   UNL A   1      41.167  28.011  30.196  1.00  0.00     0.010 A 
ATOM     44  C   UNL A   1      43.349  28.764  29.585  1.00  0.00     0.010 A 
ATOM     45  C   UNL A   1      42.161  29.040  30.267  1.00  0.00    -0.014 A 
BRANCH  45  46
ATOM     46  C   UNL A   1      42.061  30.436  31.075  1.00  0.00     0.031 A 
ATOM     47  C   UNL A   1      42.565  29.630  32.592  1.00  0.00     0.074 A 
ATOM     48  C   UNL A   1      41.391  31.916  30.835  1.00  0.00     0.049 A 
ATOM     49  N   UNL A   1      41.988  29.756  33.770  1.00  0.00    -0.248 NA
ATOM     50  C   UNL A   1      43.480  28.458  32.718  1.00  0.00     0.031 C 
ATOM     51  C   UNL A   1      41.293  33.365  31.762  1.00  0.00     0.029 A 
ATOM     52  N   UNL A   1      40.214  32.445  30.098  1.00  0.00    -0.354 N 
ATOM     53  C   UNL A   1      42.872  29.355  34.718  1.00  0.00     0.074 A 
ATOM     54  C   UNL A   1      43.475  28.245  34.048  1.00  0.00     0.031 C 
ATOM     55  C   UNL A   1      40.232  34.134  31.568  1.00  0.00     0.029 A 
ATOM     56  C   UNL A   1      39.379  33.400  30.757  1.00  0.00     0.049 A 
ATOM     57  H   UNL A   1      40.016  32.147  29.181  1.00  0.00     0.167 HD
ATOM     58  C   UNL A   1      43.198  30.165  35.779  1.00  0.00     0.037 A 
ATOM     59  C   UNL A   1      38.039  33.366  31.028  1.00  0.00     0.037 A 
ATOM     60  C   UNL A   1      42.395  31.442  35.868  1.00  0.00     0.049 A 
ATOM     61  C   UNL A   1      37.750  33.422  32.575  1.00  0.00     0.074 A 
ATOM     62  C   UNL A   1      42.737  32.792  35.882  1.00  0.00     0.029 A 
ATOM     63  N   UNL A   1      40.996  31.458  35.806  1.00  0.00    -0.354 N 
ATOM     64  N   UNL A   1      38.670  33.576  33.508  1.00  0.00    -0.248 NA
ATOM     65  C   UNL A   1      36.451  33.174  33.193  1.00  0.00     0.031 C 
ATOM     66  C   UNL A   1      41.549  33.595  35.781  1.00  0.00     0.029 A 
ATOM     67  C   UNL A   1      40.447  32.757  35.749  1.00  0.00     0.049 A 
ATOM     68  H   UNL A   1      40.447  30.641  35.804  1.00  0.00     0.167 HD
ATOM     69  C   UNL A   1      38.201  33.218  34.747  1.00  0.00     0.074 A 
ATOM     70  C   UNL A   1      36.767  33.082  34.502  1.00  0.00     0.031 C 
ATOM     71  C   UNL A   1      38.980  32.957  35.860  1.00  0.00     0.037 A 
BRANCH  58  72
ATOM     72  C   UNL A   1      44.474  29.935  36.627  1.00  0.00     0.064 A 
ATOM     73  C   UNL A   1      44.591  28.800  37.464  1.00  0.00     0.173 A 
ATOM     74  C   UNL A   1      45.594  30.801  36.707  1.00  0.00     0.173 A 
ATOM     75  F   UNL A   1      43.642  27.853  37.490  1.00  0.00    -0.203 F 
ATOM     76  C   UNL A   1      45.697  28.582  38.306  1.00  0.00     0.198 A 
ATOM     77  C   UNL A   1      46.719  30.553  37.501  1.00  0.00     0.198 A 
ATOM     78  F   UNL A   1      45.674  31.963  36.059  1.00  0.00    -0.203 F 
ATOM     79  F   UNL A   1      45.720  27.511  39.112  1.00  0.00    -0.200 F 
ATOM     80  C   UNL A   1      46.766  29.450  38.315  1.00  0.00     0.200 A 
ATOM     81  F   UNL A   1      47.750  31.413  37.471  1.00  0.00    -0.200 F 
ATOM     82  F   UNL A   1      47.832  29.233  39.098  1.00  0.00    -0.200 F 
ENDBRANCH  58  72
BRANCH  59  83
ATOM     83  C   UNL A   1      37.241  32.752  29.933  1.00  0.00     0.064 A 
ATOM     84  C   UNL A   1      37.076  31.343  29.968  1.00  0.00     0.173 A 
ATOM     85  C   UNL A   1      36.404  33.461  29.072  1.00  0.00     0.173 A 
ATOM     86  F   UNL A   1      37.883  30.594  30.736  1.00  0.00    -0.203 F 
ATOM     87  C   UNL A   1      36.028  30.708  29.307  1.00  0.00     0.198 A 
ATOM     88  C   UNL A   1      35.347  32.822  28.414  1.00  0.00     0.198 A 
ATOM     89  F   UNL A   1      36.523  34.791  28.954  1.00  0.00    -0.203 F 
ATOM     90  F   UNL A   1      35.842  29.388  29.449  1.00  0.00    -0.200 F 
ATOM     91  C   UNL A   1      35.139  31.456  28.559  1.00  0.00     0.200 A 
ATOM     92  F   UNL A   1      34.480  33.546  27.693  1.00  0.00    -0.200 F 
ATOM     93  F   UNL A   1      34.069  30.870  28.003  1.00  0.00    -0.200 F 
ENDBRANCH  59  83
BRANCH  71  94
ATOM     94  C   UNL A   1      38.388  32.870  37.261  1.00  0.00     0.064 A 
ATOM     95  C   UNL A   1      38.573  33.876  38.226  1.00  0.00     0.173 A 
ATOM     96  C   UNL A   1      37.754  31.696  37.739  1.00  0.00     0.173 A 
ATOM     97  F   UNL A   1      39.297  34.971  37.955  1.00  0.00    -0.203 F 
ATOM     98  C   UNL A   1      38.054  33.770  39.520  1.00  0.00     0.198 A 
ATOM     99  C   UNL A   1      37.290  31.568  39.046  1.00  0.00     0.198 A 
ATOM    100  F   UNL A   1      37.556  30.625  36.961  1.00  0.00    -0.203 F 
ATOM    101  F   UNL A   1      38.190  34.793  40.375  1.00  0.00    -0.200 F 
ATOM    102  C   UNL A   1      37.411  32.617  39.929  1.00  0.00     0.200 A 
ATOM    103  F   UNL A   1      36.720  30.419  39.437  1.00  0.00    -0.200 F 
ATOM    104  F   UNL A   1      36.922  32.512  41.171  1.00  0.00    -0.200 F 
ENDBRANCH  71  94
ENDBRANCH  45  46
ENDBRANCH  38  40
ENDBRANCH  37  38
ENDBRANCH  36  37
ENDBRANCH  35  36
ENDBRANCH  34  35
ENDBRANCH  33  34
ENDBRANCH   1  33
TORSDOF 21
ENDMDL
MODEL 3
REMARK VINA RESULT:     -11.5      7.295     15.786
REMARK SMILES Cc1ccccc1[C@@H]1[NH2+][C@@H](C(=O)OCCOCCOCCOCCOC(=O)c2ccc(-c3c4nc(c(-c5c(F)c(F)c(F)c(F)c5F)c5ccc([nH]5)c(-c5c(F)c(F)c(F)c(F)c5F)c5nc(c(-c6c(F)c(F)c(F)c(F)c6F)c6ccc3[nH]6)C=C5)C=C4)cc2)CC2=c3ccccc3=N[C@H]21
REMARK SMILES IDX 20 1 19 2 18 3 17 4 16 5 15 6 14 7 13 8 11 9 12 10 10 11
REMARK SMILES IDX 8 12 9 13 100 14 92 17 99 18 91 19 93 20 98 21 94 22 97 23
REMARK SMILES IDX 95 24 96 25 7 26 1 27 2 28 3 29 4 30 6 31 5 32 21 33 22 34
REMARK SMILES IDX 23 35 24 36 25 37 26 38 27 39 28 40 29 41 90 42 30 43 89 44
REMARK SMILES IDX 31 45 32 46 33 47 83 48 34 49 88 50 82 51 84 52 35 53 87 54
REMARK SMILES IDX 81 55 80 56 36 58 68 59 48 60 67 61 49 62 52 63 66 64 85 65
REMARK SMILES IDX 50 66 51 67 65 69 86 70 53 71 37 72 38 73 46 74 39 75 40 76
REMARK SMILES IDX 44 77 47 78 41 79 42 80 45 81 43 82 69 83 70 84 78 85 71 86
REMARK SMILES IDX 72 87 76 88 79 89 73 90 74 91 77 92 75 93 54 94 55 95 63 96
REMARK SMILES IDX 56 97 57 98 61 99 64 100 58 101 59 102 62 103 60 104
REMARK H PARENT 9 15 9 16 84 57 52 68
REMARK Flexibility Score: inf
ROOT
ATOM      1  C   UNL A   1      42.620  25.817  25.500  1.00  0.00     0.188 C 
ENDROOT
BRANCH   1   2
ATOM      2  O   UNL A   1      41.902  26.869  26.103  1.00  0.00    -0.377 OA
BRANCH   2   3
ATOM      3  C   UNL A   1      41.141  26.545  27.252  1.00  0.00     0.188 C 
BRANCH   3   4
ATOM      4  C   UNL A   1      40.303  27.710  28.005  1.00  0.00     0.188 C 
BRANCH   4   5
ATOM      5  O   UNL A   1      38.759  27.878  28.076  1.00  0.00    -0.376 OA
BRANCH   5   6
ATOM      6  C   UNL A   1      37.756  28.936  28.806  1.00  0.00     0.202 C 
BRANCH   6   7
ATOM      7  C   UNL A   1      36.630  30.317  28.327  1.00  0.00     0.261 C 
BRANCH   7   8
ATOM      8  O   UNL A   1      35.110  30.398  27.285  1.00  0.00    -0.459 OA
BRANCH   8   9
ATOM      9  C   UNL A   1      33.705  30.014  26.884  1.00  0.00     0.365 C 
ATOM     10  O   UNL A   1      32.809  30.212  27.719  1.00  0.00    -0.245 OA
BRANCH   9  11
ATOM     11  C   UNL A   1      33.176  29.321  25.277  1.00  0.00     0.298 C 
ATOM     12  C   UNL A   1      31.124  27.856  24.455  1.00  0.00     0.243 C 
ATOM     13  N   UNL A   1      31.687  28.964  25.354  1.00  0.00    -0.326 N 
ATOM     14  C   UNL A   1      32.018  26.773  23.768  1.00  0.00     0.196 C 
ATOM     15  H   UNL A   1      31.499  28.686  26.318  1.00  0.00     0.347 HD
ATOM     16  H   UNL A   1      31.222  29.805  25.015  1.00  0.00     0.347 HD
ATOM     17  C   UNL A   1      33.335  26.815  24.425  1.00  0.00    -0.024 C 
ATOM     18  N   UNL A   1      31.564  25.358  23.863  1.00  0.00    -0.270 NA
ATOM     19  C   UNL A   1      33.834  28.211  24.340  1.00  0.00     0.111 C 
ATOM     20  C   UNL A   1      33.732  25.608  24.821  1.00  0.00     0.002 A 
ATOM     21  C   UNL A   1      32.621  24.761  24.332  1.00  0.00     0.066 A 
ATOM     22  C   UNL A   1      34.834  25.007  25.501  1.00  0.00     0.010 A 
ATOM     23  C   UNL A   1      32.832  23.293  24.385  1.00  0.00     0.028 A 
ATOM     24  C   UNL A   1      34.938  23.670  25.567  1.00  0.00     0.001 A 
ATOM     25  C   UNL A   1      33.955  22.809  24.941  1.00  0.00     0.002 A 
BRANCH  12  26
ATOM     26  C   UNL A   1      30.084  28.357  23.430  1.00  0.00     0.015 A 
ATOM     27  C   UNL A   1      28.106  26.721  23.941  1.00  0.00     0.045 C 
ATOM     28  C   UNL A   1      28.739  27.914  23.277  1.00  0.00    -0.042 A 
ATOM     29  C   UNL A   1      27.849  28.683  22.497  1.00  0.00     0.004 A 
ATOM     30  C   UNL A   1      28.271  29.822  21.822  1.00  0.00     0.000 A 
ATOM     31  C   UNL A   1      30.490  29.485  22.685  1.00  0.00     0.010 A 
ATOM     32  C   UNL A   1      29.599  30.210  21.898  1.00  0.00     0.001 A 
ENDBRANCH  12  26
ENDBRANCH   9  11
ENDBRANCH   8   9
ENDBRANCH   7   8
ENDBRANCH   6   7
ENDBRANCH   5   6
ENDBRANCH   4   5
ENDBRANCH   3   4
ENDBRANCH   2   3
ENDBRANCH   1   2
BRANCH   1  33
ATOM     33  C   UNL A   1      44.034  26.078  24.938  1.00  0.00     0.188 C 
BRANCH  33  34
ATOM     34  O   UNL A   1      44.883  24.940  24.806  1.00  0.00    -0.376 OA
BRANCH  34  35
ATOM     35  C   UNL A   1      46.258  25.212  25.132  1.00  0.00     0.202 C 
BRANCH  35  36
ATOM     36  C   UNL A   1      46.593  26.707  25.296  1.00  0.00     0.261 C 
BRANCH  36  37
ATOM     37  O   UNL A   1      47.161  26.943  26.596  1.00  0.00    -0.460 OA
BRANCH  37  38
ATOM     38  C   UNL A   1      46.269  27.356  27.529  1.00  0.00     0.338 C 
ATOM     39  O   UNL A   1      45.874  28.496  27.681  1.00  0.00    -0.246 OA
BRANCH  38  40
ATOM     40  C   UNL A   1      46.092  26.258  28.522  1.00  0.00     0.060 A 
ATOM     41  C   UNL A   1      44.943  25.496  28.451  1.00  0.00     0.016 A 
ATOM     42  C   UNL A   1      46.877  26.193  29.682  1.00  0.00     0.016 A 
ATOM     43  C   UNL A   1      44.496  24.851  29.611  1.00  0.00     0.010 A 
ATOM     44  C   UNL A   1      46.344  25.682  30.875  1.00  0.00     0.010 A 
ATOM     45  C   UNL A   1      45.071  25.106  30.898  1.00  0.00    -0.014 A 
BRANCH  45  46
ATOM     46  C   UNL A   1      44.425  24.761  32.339  1.00  0.00     0.031 A 
ATOM     47  C   UNL A   1      43.934  26.468  32.562  1.00  0.00     0.074 A 
ATOM     48  C   UNL A   1      44.502  23.531  33.424  1.00  0.00     0.049 A 
ATOM     49  N   UNL A   1      44.121  27.197  33.643  1.00  0.00    -0.248 NA
ATOM     50  C   UNL A   1      43.546  27.432  31.491  1.00  0.00     0.031 C 
ATOM     51  C   UNL A   1      43.808  23.239  34.973  1.00  0.00     0.029 A 
ATOM     52  N   UNL A   1      45.517  22.520  33.818  1.00  0.00    -0.354 N 
ATOM     53  C   UNL A   1      43.268  28.251  33.595  1.00  0.00     0.074 A 
ATOM     54  C   UNL A   1      43.321  28.555  32.198  1.00  0.00     0.031 C 
ATOM     55  C   UNL A   1      44.499  22.480  35.811  1.00  0.00     0.029 A 
ATOM     56  C   UNL A   1      45.735  22.288  35.212  1.00  0.00     0.049 A 
ATOM     57  H   UNL A   1      46.026  22.022  33.137  1.00  0.00     0.167 HD
ATOM     58  C   UNL A   1      42.413  28.525  34.635  1.00  0.00     0.037 A 
ATOM     59  C   UNL A   1      46.877  22.381  35.957  1.00  0.00     0.037 A 
ATOM     60  C   UNL A   1      42.610  27.661  35.858  1.00  0.00     0.049 A 
ATOM     61  C   UNL A   1      46.750  23.458  37.099  1.00  0.00     0.074 A 
ATOM     62  C   UNL A   1      41.776  26.804  36.572  1.00  0.00     0.029 A 
ATOM     63  N   UNL A   1      43.864  27.469  36.451  1.00  0.00    -0.354 N 
ATOM     64  N   UNL A   1      45.650  24.133  37.377  1.00  0.00    -0.248 NA
ATOM     65  C   UNL A   1      47.858  23.954  37.909  1.00  0.00     0.031 C 
ATOM     66  C   UNL A   1      42.545  26.078  37.546  1.00  0.00     0.029 A 
ATOM     67  C   UNL A   1      43.861  26.507  37.484  1.00  0.00     0.049 A 
ATOM     68  H   UNL A   1      44.671  27.960  36.175  1.00  0.00     0.167 HD
ATOM     69  C   UNL A   1      45.917  25.242  38.141  1.00  0.00     0.074 A 
ATOM     70  C   UNL A   1      47.304  25.013  38.537  1.00  0.00     0.031 C 
ATOM     71  C   UNL A   1      45.062  26.314  38.333  1.00  0.00     0.037 A 
BRANCH  58  72
ATOM     72  C   UNL A   1      41.167  29.429  34.457  1.00  0.00     0.064 A 
ATOM     73  C   UNL A   1      40.089  29.022  33.636  1.00  0.00     0.173 A 
ATOM     74  C   UNL A   1      40.981  30.719  35.017  1.00  0.00     0.173 A 
ATOM     75  F   UNL A   1      40.076  27.815  33.053  1.00  0.00    -0.203 F 
ATOM     76  C   UNL A   1      38.969  29.835  33.386  1.00  0.00     0.198 A 
ATOM     77  C   UNL A   1      39.839  31.502  34.814  1.00  0.00     0.198 A 
ATOM     78  F   UNL A   1      41.895  31.334  35.768  1.00  0.00    -0.203 F 
ATOM     79  F   UNL A   1      38.007  29.407  32.556  1.00  0.00    -0.200 F 
ATOM     80  C   UNL A   1      38.837  31.069  33.984  1.00  0.00     0.200 A 
ATOM     81  F   UNL A   1      39.739  32.692  35.428  1.00  0.00    -0.200 F 
ATOM     82  F   UNL A   1      37.760  31.836  33.768  1.00  0.00    -0.200 F 
ENDBRANCH  58  72
BRANCH  59  83
ATOM     83  C   UNL A   1      48.084  21.905  35.229  1.00  0.00     0.064 A 
ATOM     84  C   UNL A   1      48.860  22.885  34.557  1.00  0.00     0.173 A 
ATOM     85  C   UNL A   1      48.672  20.653  35.410  1.00  0.00     0.173 A 
ATOM     86  F   UNL A   1      48.336  24.095  34.305  1.00  0.00    -0.203 F 
ATOM     87  C   UNL A   1      50.198  22.672  34.237  1.00  0.00     0.198 A 
ATOM     88  C   UNL A   1      50.020  20.443  35.093  1.00  0.00     0.198 A 
ATOM     89  F   UNL A   1      47.992  19.663  36.003  1.00  0.00    -0.203 F 
ATOM     90  F   UNL A   1      50.927  23.658  33.697  1.00  0.00    -0.200 F 
ATOM     91  C   UNL A   1      50.788  21.460  34.540  1.00  0.00     0.200 A 
ATOM     92  F   UNL A   1      50.597  19.271  35.392  1.00  0.00    -0.200 F 
ATOM     93  F   UNL A   1      52.101  21.281  34.330  1.00  0.00    -0.200 F 
ENDBRANCH  59  83
BRANCH  71  94
ATOM     94  C   UNL A   1      45.294  27.349  39.427  1.00  0.00     0.064 A 
ATOM     95  C   UNL A   1      46.007  28.540  39.204  1.00  0.00     0.173 A 
ATOM     96  C   UNL A   1      44.953  27.102  40.780  1.00  0.00     0.173 A 
ATOM     97  F   UNL A   1      46.530  28.820  38.002  1.00  0.00    -0.203 F 
ATOM     98  C   UNL A   1      46.243  29.466  40.225  1.00  0.00     0.198 A 
ATOM     99  C   UNL A   1      45.243  27.999  41.806  1.00  0.00     0.198 A 
ATOM    100  F   UNL A   1      44.325  25.986  41.166  1.00  0.00    -0.203 F 
ATOM    101  F   UNL A   1      46.857  30.623  39.940  1.00  0.00    -0.200 F 
ATOM    102  C   UNL A   1      45.860  29.197  41.524  1.00  0.00     0.200 A 
ATOM    103  F   UNL A   1      44.911  27.691  43.068  1.00  0.00    -0.200 F 
ATOM    104  F   UNL A   1      46.094  30.081  42.502  1.00  0.00    -0.200 F 
ENDBRANCH  71  94
ENDBRANCH  45  46
ENDBRANCH  38  40
ENDBRANCH  37  38
ENDBRANCH  36  37
ENDBRANCH  35  36
ENDBRANCH  34  35
ENDBRANCH  33  34
ENDBRANCH   1  33
TORSDOF 21
ENDMDL
