MODEL 1
REMARK VINA RESULT:     -10.0      0.000      0.000
REMARK SMILES CC[C@@H](COC)NC(=O)N1CC[C@H](C(=O)OCCOCCOCCOCCOC(=O)c2ccc(-c3c4nc(c(-c5c(F)c(F)c(F)c(F)c5F)c5ccc([nH]5)c(-c5c(F)c(F)c(F)c(F)c5F)c5nc(c(-c6c(F)c(F)c(F)c(F)c6F)c6ccc3[nH]6)C=C5)C=C4)cc2)[C@@H]1C
REMARK SMILES IDX 21 1 20 2 19 3 18 4 17 5 16 6 14 7 15 8 13 9 10 10 11 11
REMARK SMILES IDX 94 12 12 13 95 14 8 15 7 16 9 18 3 19 2 20 1 21 4 22 5 23
REMARK SMILES IDX 6 24 22 25 23 26 24 27 25 28 26 29 27 30 28 31 29 32 30 33
REMARK SMILES IDX 31 34 32 35 93 36 33 37 92 38 34 39 35 40 36 41 86 42 37 43
REMARK SMILES IDX 91 44 85 45 87 46 38 47 90 48 84 49 83 50 39 52 71 53 51 54
REMARK SMILES IDX 70 55 52 56 55 57 69 58 88 59 53 60 54 61 68 63 89 64 56 65
REMARK SMILES IDX 40 66 41 67 49 68 42 69 43 70 47 71 50 72 44 73 45 74 48 75
REMARK SMILES IDX 46 76 72 77 73 78 81 79 74 80 75 81 79 82 82 83 76 84 77 85
REMARK SMILES IDX 80 86 78 87 57 88 58 89 66 90 59 91 60 92 64 93 67 94 61 95
REMARK SMILES IDX 62 96 65 97 63 98
REMARK H PARENT 7 17 87 51 55 62
REMARK Flexibility Score: inf
ROOT
ATOM      1  C   UNL A   1      37.617  21.327  24.940  1.00  0.00     0.188 C 
ENDROOT
BRANCH   1   2
ATOM      2  C   UNL A   1      36.113  21.645  24.794  1.00  0.00     0.188 C 
BRANCH   2   3
ATOM      3  O   UNL A   1      35.289  20.719  25.486  1.00  0.00    -0.376 OA
BRANCH   3   4
ATOM      4  C   UNL A   1      33.935  20.629  25.082  1.00  0.00     0.202 C 
BRANCH   4   5
ATOM      5  C   UNL A   1      33.419  21.615  24.023  1.00  0.00     0.261 C 
BRANCH   5   6
ATOM      6  O   UNL A   1      32.170  22.256  24.310  1.00  0.00    -0.463 OA
BRANCH   6   7
ATOM      7  C   UNL A   1      32.102  23.613  24.330  1.00  0.00     0.311 C 
ATOM      8  O   UNL A   1      32.074  24.326  23.341  1.00  0.00    -0.252 OA
BRANCH   7   9
ATOM      9  C   UNL A   1      32.088  24.077  25.778  1.00  0.00     0.123 C 
ATOM     10  N   UNL A   1      32.012  26.375  26.430  1.00  0.00    -0.321 N 
ATOM     11  C   UNL A   1      33.356  26.078  25.979  1.00  0.00     0.122 C 
ATOM     12  C   UNL A   1      31.136  25.230  26.180  1.00  0.00     0.098 C 
ATOM     13  C   UNL A   1      33.472  24.579  26.182  1.00  0.00     0.039 C 
ATOM     14  C   UNL A   1      29.987  25.599  25.242  1.00  0.00     0.032 C 
BRANCH  10  15
ATOM     15  C   UNL A   1      31.679  27.649  26.784  1.00  0.00     0.317 C 
ATOM     16  N   UNL A   1      31.837  28.674  25.911  1.00  0.00    -0.333 N 
ATOM     17  H   UNL A   1      32.075  29.531  26.331  1.00  0.00     0.165 HD
ATOM     18  O   UNL A   1      31.230  27.914  27.899  1.00  0.00    -0.249 OA
BRANCH  16  19
ATOM     19  C   UNL A   1      31.715  28.726  24.451  1.00  0.00     0.109 C 
BRANCH  19  20
ATOM     20  C   UNL A   1      30.482  29.565  24.074  1.00  0.00     0.024 C 
ATOM     21  C   UNL A   1      29.647  28.953  22.959  1.00  0.00     0.006 C 
ENDBRANCH  19  20
BRANCH  19  22
ATOM     22  C   UNL A   1      33.055  29.161  23.821  1.00  0.00     0.184 C 
BRANCH  22  23
ATOM     23  O   UNL A   1      33.199  28.816  22.444  1.00  0.00    -0.383 OA
ATOM     24  C   UNL A   1      33.548  27.461  22.210  1.00  0.00     0.194 C 
ENDBRANCH  22  23
ENDBRANCH  19  22
ENDBRANCH  16  19
ENDBRANCH  10  15
ENDBRANCH   7   9
ENDBRANCH   6   7
ENDBRANCH   5   6
ENDBRANCH   4   5
ENDBRANCH   3   4
ENDBRANCH   2   3
ENDBRANCH   1   2
BRANCH   1  25
ATOM     25  O   UNL A   1      37.932  19.955  25.092  1.00  0.00    -0.377 OA
BRANCH  25  26
ATOM     26  C   UNL A   1      39.279  19.604  25.409  1.00  0.00     0.188 C 
BRANCH  26  27
ATOM     27  C   UNL A   1      40.090  20.333  26.513  1.00  0.00     0.188 C 
BRANCH  27  28
ATOM     28  O   UNL A   1      41.057  21.257  26.035  1.00  0.00    -0.376 OA
BRANCH  28  29
ATOM     29  C   UNL A   1      42.423  20.893  26.132  1.00  0.00     0.202 C 
BRANCH  29  30
ATOM     30  C   UNL A   1      43.411  21.864  25.473  1.00  0.00     0.261 C 
BRANCH  30  31
ATOM     31  O   UNL A   1      42.860  23.121  25.052  1.00  0.00    -0.460 OA
BRANCH  31  32
ATOM     32  C   UNL A   1      43.660  24.208  25.102  1.00  0.00     0.338 C 
ATOM     33  O   UNL A   1      44.647  24.436  24.426  1.00  0.00    -0.246 OA
BRANCH  32  34
ATOM     34  C   UNL A   1      43.009  25.186  25.996  1.00  0.00     0.060 A 
ATOM     35  C   UNL A   1      43.386  26.536  25.935  1.00  0.00     0.016 A 
ATOM     36  C   UNL A   1      42.001  24.768  26.865  1.00  0.00     0.016 A 
ATOM     37  C   UNL A   1      42.773  27.469  26.771  1.00  0.00     0.010 A 
ATOM     38  C   UNL A   1      41.409  25.696  27.720  1.00  0.00     0.010 A 
ATOM     39  C   UNL A   1      41.816  27.042  27.700  1.00  0.00    -0.014 A 
BRANCH  39  40
ATOM     40  C   UNL A   1      41.417  27.926  28.818  1.00  0.00     0.031 A 
ATOM     41  C   UNL A   1      42.206  27.830  30.095  1.00  0.00     0.074 A 
ATOM     42  C   UNL A   1      40.377  28.769  28.720  1.00  0.00     0.049 A 
ATOM     43  N   UNL A   1      41.985  28.387  31.256  1.00  0.00    -0.248 NA
ATOM     44  C   UNL A   1      43.405  26.975  30.053  1.00  0.00     0.031 C 
ATOM     45  C   UNL A   1      39.573  28.987  27.521  1.00  0.00     0.029 A 
ATOM     46  N   UNL A   1      39.809  29.588  29.664  1.00  0.00    -0.354 N 
ATOM     47  C   UNL A   1      43.008  27.941  32.084  1.00  0.00     0.074 A 
ATOM     48  C   UNL A   1      43.832  27.046  31.303  1.00  0.00     0.031 C 
ATOM     49  C   UNL A   1      38.595  29.866  27.809  1.00  0.00     0.029 A 
ATOM     50  C   UNL A   1      38.684  30.238  29.220  1.00  0.00     0.049 A 
ATOM     51  H   UNL A   1      40.173  29.698  30.572  1.00  0.00     0.167 HD
ATOM     52  C   UNL A   1      43.239  28.254  33.379  1.00  0.00     0.037 A 
ATOM     53  C   UNL A   1      37.811  31.015  29.893  1.00  0.00     0.037 A 
ATOM     54  C   UNL A   1      42.409  29.138  34.151  1.00  0.00     0.049 A 
ATOM     55  C   UNL A   1      38.040  31.279  31.362  1.00  0.00     0.074 A 
ATOM     56  C   UNL A   1      42.558  29.529  35.470  1.00  0.00     0.029 A 
ATOM     57  N   UNL A   1      41.267  29.763  33.674  1.00  0.00    -0.354 N 
ATOM     58  N   UNL A   1      39.014  30.869  32.139  1.00  0.00    -0.248 NA
ATOM     59  C   UNL A   1      37.043  32.114  32.050  1.00  0.00     0.031 C 
ATOM     60  C   UNL A   1      41.474  30.344  35.807  1.00  0.00     0.029 A 
ATOM     61  C   UNL A   1      40.686  30.515  34.680  1.00  0.00     0.049 A 
ATOM     62  H   UNL A   1      40.920  29.683  32.755  1.00  0.00     0.167 HD
ATOM     63  C   UNL A   1      38.771  31.426  33.389  1.00  0.00     0.074 A 
ATOM     64  C   UNL A   1      37.558  32.206  33.268  1.00  0.00     0.031 C 
ATOM     65  C   UNL A   1      39.488  31.306  34.533  1.00  0.00     0.037 A 
BRANCH  52  66
ATOM     66  C   UNL A   1      44.413  27.605  34.048  1.00  0.00     0.064 A 
ATOM     67  C   UNL A   1      44.284  26.410  34.775  1.00  0.00     0.173 A 
ATOM     68  C   UNL A   1      45.691  28.173  33.944  1.00  0.00     0.173 A 
ATOM     69  F   UNL A   1      43.080  25.836  34.921  1.00  0.00    -0.203 F 
ATOM     70  C   UNL A   1      45.386  25.827  35.395  1.00  0.00     0.198 A 
ATOM     71  C   UNL A   1      46.796  27.569  34.538  1.00  0.00     0.198 A 
ATOM     72  F   UNL A   1      45.871  29.315  33.263  1.00  0.00    -0.203 F 
ATOM     73  F   UNL A   1      45.228  24.716  36.129  1.00  0.00    -0.200 F 
ATOM     74  C   UNL A   1      46.641  26.401  35.269  1.00  0.00     0.200 A 
ATOM     75  F   UNL A   1      48.011  28.119  34.404  1.00  0.00    -0.200 F 
ATOM     76  F   UNL A   1      47.701  25.834  35.860  1.00  0.00    -0.200 F 
ENDBRANCH  52  66
BRANCH  53  77
ATOM     77  C   UNL A   1      36.627  31.585  29.198  1.00  0.00     0.064 A 
ATOM     78  C   UNL A   1      36.561  32.950  28.882  1.00  0.00     0.173 A 
ATOM     79  C   UNL A   1      35.523  30.787  28.862  1.00  0.00     0.173 A 
ATOM     80  F   UNL A   1      37.579  33.761  29.208  1.00  0.00    -0.203 F 
ATOM     81  C   UNL A   1      35.431  33.497  28.278  1.00  0.00     0.198 A 
ATOM     82  C   UNL A   1      34.405  31.330  28.231  1.00  0.00     0.198 A 
ATOM     83  F   UNL A   1      35.531  29.476  29.146  1.00  0.00    -0.203 F 
ATOM     84  F   UNL A   1      35.374  34.815  28.038  1.00  0.00    -0.200 F 
ATOM     85  C   UNL A   1      34.356  32.685  27.948  1.00  0.00     0.200 A 
ATOM     86  F   UNL A   1      33.375  30.540  27.902  1.00  0.00    -0.200 F 
ATOM     87  F   UNL A   1      33.270  33.212  27.367  1.00  0.00    -0.200 F 
ENDBRANCH  53  77
BRANCH  65  88
ATOM     88  C   UNL A   1      39.024  32.079  35.735  1.00  0.00     0.064 A 
ATOM     89  C   UNL A   1      38.235  31.493  36.734  1.00  0.00     0.173 A 
ATOM     90  C   UNL A   1      39.437  33.408  35.919  1.00  0.00     0.173 A 
ATOM     91  F   UNL A   1      37.803  30.230  36.601  1.00  0.00    -0.203 F 
ATOM     92  C   UNL A   1      37.859  32.216  37.864  1.00  0.00     0.198 A 
ATOM     93  C   UNL A   1      39.089  34.116  37.065  1.00  0.00     0.198 A 
ATOM     94  F   UNL A   1      40.203  34.012  34.998  1.00  0.00    -0.203 F 
ATOM     95  F   UNL A   1      37.070  31.650  38.787  1.00  0.00    -0.200 F 
ATOM     96  C   UNL A   1      38.294  33.523  38.034  1.00  0.00     0.200 A 
ATOM     97  F   UNL A   1      39.527  35.371  37.235  1.00  0.00    -0.200 F 
ATOM     98  F   UNL A   1      37.946  34.210  39.130  1.00  0.00    -0.200 F 
ENDBRANCH  65  88
ENDBRANCH  39  40
ENDBRANCH  32  34
ENDBRANCH  31  32
ENDBRANCH  30  31
ENDBRANCH  29  30
ENDBRANCH  28  29
ENDBRANCH  27  28
ENDBRANCH  26  27
ENDBRANCH  25  26
ENDBRANCH   1  25
TORSDOF 25
ENDMDL
MODEL 2
REMARK VINA RESULT:      -9.6      1.104      2.300
REMARK SMILES CC[C@@H](COC)NC(=O)N1CC[C@H](C(=O)OCCOCCOCCOCCOC(=O)c2ccc(-c3c4nc(c(-c5c(F)c(F)c(F)c(F)c5F)c5ccc([nH]5)c(-c5c(F)c(F)c(F)c(F)c5F)c5nc(c(-c6c(F)c(F)c(F)c(F)c6F)c6ccc3[nH]6)C=C5)C=C4)cc2)[C@@H]1C
REMARK SMILES IDX 21 1 20 2 19 3 18 4 17 5 16 6 14 7 15 8 13 9 10 10 11 11
REMARK SMILES IDX 94 12 12 13 95 14 8 15 7 16 9 18 3 19 2 20 1 21 4 22 5 23
REMARK SMILES IDX 6 24 22 25 23 26 24 27 25 28 26 29 27 30 28 31 29 32 30 33
REMARK SMILES IDX 31 34 32 35 93 36 33 37 92 38 34 39 35 40 36 41 86 42 37 43
REMARK SMILES IDX 91 44 85 45 87 46 38 47 90 48 84 49 83 50 39 52 71 53 51 54
REMARK SMILES IDX 70 55 52 56 55 57 69 58 88 59 53 60 54 61 68 63 89 64 56 65
REMARK SMILES IDX 40 66 41 67 49 68 42 69 43 70 47 71 50 72 44 73 45 74 48 75
REMARK SMILES IDX 46 76 72 77 73 78 81 79 74 80 75 81 79 82 82 83 76 84 77 85
REMARK SMILES IDX 80 86 78 87 57 88 58 89 66 90 59 91 60 92 64 93 67 94 61 95
REMARK SMILES IDX 62 96 65 97 63 98
REMARK H PARENT 7 17 87 51 55 62
REMARK Flexibility Score: inf
ROOT
ATOM      1  C   UNL A   1      37.600  21.044  24.883  1.00  0.00     0.188 C 
ENDROOT
BRANCH   1   2
ATOM      2  C   UNL A   1      36.197  21.609  25.192  1.00  0.00     0.188 C 
BRANCH   2   3
ATOM      3  O   UNL A   1      35.227  20.589  25.378  1.00  0.00    -0.376 OA
BRANCH   3   4
ATOM      4  C   UNL A   1      33.899  20.879  24.982  1.00  0.00     0.202 C 
BRANCH   4   5
ATOM      5  C   UNL A   1      33.618  22.217  24.282  1.00  0.00     0.261 C 
BRANCH   5   6
ATOM      6  O   UNL A   1      32.352  22.332  23.621  1.00  0.00    -0.463 OA
BRANCH   6   7
ATOM      7  C   UNL A   1      31.941  23.545  23.166  1.00  0.00     0.311 C 
ATOM      8  O   UNL A   1      30.794  23.955  23.210  1.00  0.00    -0.252 OA
BRANCH   7   9
ATOM      9  C   UNL A   1      33.140  24.277  22.587  1.00  0.00     0.123 C 
ATOM     10  N   UNL A   1      33.230  26.649  22.299  1.00  0.00    -0.321 N 
ATOM     11  C   UNL A   1      32.386  26.099  21.257  1.00  0.00     0.122 C 
ATOM     12  C   UNL A   1      33.596  25.600  23.251  1.00  0.00     0.098 C 
ATOM     13  C   UNL A   1      32.868  24.665  21.136  1.00  0.00     0.039 C 
ATOM     14  C   UNL A   1      33.100  25.926  24.660  1.00  0.00     0.032 C 
BRANCH  10  15
ATOM     15  C   UNL A   1      33.381  27.999  22.409  1.00  0.00     0.317 C 
ATOM     16  N   UNL A   1      32.304  28.806  22.567  1.00  0.00    -0.333 N 
ATOM     17  H   UNL A   1      32.395  29.691  22.145  1.00  0.00     0.165 HD
ATOM     18  O   UNL A   1      34.490  28.531  22.366  1.00  0.00    -0.249 OA
BRANCH  16  19
ATOM     19  C   UNL A   1      31.028  28.591  23.256  1.00  0.00     0.109 C 
BRANCH  19  20
ATOM     20  C   UNL A   1      31.141  29.098  24.703  1.00  0.00     0.024 C 
ATOM     21  C   UNL A   1      32.447  29.821  24.996  1.00  0.00     0.006 C 
ENDBRANCH  19  20
BRANCH  19  22
ATOM     22  C   UNL A   1      29.867  29.167  22.419  1.00  0.00     0.184 C 
BRANCH  22  23
ATOM     23  O   UNL A   1      29.094  30.162  23.089  1.00  0.00    -0.383 OA
ATOM     24  C   UNL A   1      28.387  31.038  22.226  1.00  0.00     0.194 C 
ENDBRANCH  22  23
ENDBRANCH  19  22
ENDBRANCH  16  19
ENDBRANCH  10  15
ENDBRANCH   7   9
ENDBRANCH   6   7
ENDBRANCH   5   6
ENDBRANCH   4   5
ENDBRANCH   3   4
ENDBRANCH   2   3
ENDBRANCH   1   2
BRANCH   1  25
ATOM     25  O   UNL A   1      37.851  19.741  25.378  1.00  0.00    -0.377 OA
BRANCH  25  26
ATOM     26  C   UNL A   1      39.191  19.253  25.344  1.00  0.00     0.188 C 
BRANCH  26  27
ATOM     27  C   UNL A   1      40.284  19.754  26.325  1.00  0.00     0.188 C 
BRANCH  27  28
ATOM     28  O   UNL A   1      41.220  20.665  25.766  1.00  0.00    -0.376 OA
BRANCH  28  29
ATOM     29  C   UNL A   1      42.583  20.510  26.119  1.00  0.00     0.202 C 
BRANCH  29  30
ATOM     30  C   UNL A   1      43.531  21.584  25.571  1.00  0.00     0.261 C 
BRANCH  30  31
ATOM     31  O   UNL A   1      42.901  22.779  25.083  1.00  0.00    -0.460 OA
BRANCH  31  32
ATOM     32  C   UNL A   1      43.650  23.901  25.009  1.00  0.00     0.338 C 
ATOM     33  O   UNL A   1      44.567  24.132  24.243  1.00  0.00    -0.246 OA
BRANCH  32  34
ATOM     34  C   UNL A   1      43.027  24.897  25.902  1.00  0.00     0.060 A 
ATOM     35  C   UNL A   1      43.422  26.242  25.819  1.00  0.00     0.016 A 
ATOM     36  C   UNL A   1      42.029  24.504  26.793  1.00  0.00     0.016 A 
ATOM     37  C   UNL A   1      42.836  27.193  26.653  1.00  0.00     0.010 A 
ATOM     38  C   UNL A   1      41.464  25.450  27.647  1.00  0.00     0.010 A 
ATOM     39  C   UNL A   1      41.889  26.790  27.604  1.00  0.00    -0.014 A 
BRANCH  39  40
ATOM     40  C   UNL A   1      41.521  27.693  28.717  1.00  0.00     0.031 A 
ATOM     41  C   UNL A   1      42.327  27.599  29.983  1.00  0.00     0.074 A 
ATOM     42  C   UNL A   1      40.493  28.551  28.625  1.00  0.00     0.049 A 
ATOM     43  N   UNL A   1      42.134  28.172  31.141  1.00  0.00    -0.248 NA
ATOM     44  C   UNL A   1      43.513  26.725  29.932  1.00  0.00     0.031 C 
ATOM     45  C   UNL A   1      39.674  28.768  27.436  1.00  0.00     0.029 A 
ATOM     46  N   UNL A   1      39.953  29.390  29.568  1.00  0.00    -0.354 N 
ATOM     47  C   UNL A   1      43.162  27.719  31.958  1.00  0.00     0.074 A 
ATOM     48  C   UNL A   1      43.960  26.803  31.175  1.00  0.00     0.031 C 
ATOM     49  C   UNL A   1      38.715  29.667  27.728  1.00  0.00     0.029 A 
ATOM     50  C   UNL A   1      38.831  30.052  29.134  1.00  0.00     0.049 A 
ATOM     51  H   UNL A   1      40.332  29.504  30.470  1.00  0.00     0.167 HD
ATOM     52  C   UNL A   1      43.417  28.043  33.246  1.00  0.00     0.037 A 
ATOM     53  C   UNL A   1      37.981  30.850  29.811  1.00  0.00     0.037 A 
ATOM     54  C   UNL A   1      42.614  28.949  34.021  1.00  0.00     0.049 A 
ATOM     55  C   UNL A   1      38.236  31.127  31.274  1.00  0.00     0.074 A 
ATOM     56  C   UNL A   1      42.789  29.352  35.332  1.00  0.00     0.029 A 
ATOM     57  N   UNL A   1      41.474  29.586  33.553  1.00  0.00    -0.354 N 
ATOM     58  N   UNL A   1      39.216  30.711  32.041  1.00  0.00    -0.248 NA
ATOM     59  C   UNL A   1      37.263  31.985  31.967  1.00  0.00     0.031 C 
ATOM     60  C   UNL A   1      41.723  30.188  35.676  1.00  0.00     0.029 A 
ATOM     61  C   UNL A   1      40.920  30.359  34.560  1.00  0.00     0.049 A 
ATOM     62  H   UNL A   1      41.112  29.501  32.641  1.00  0.00     0.167 HD
ATOM     63  C   UNL A   1      39.001  31.285  33.288  1.00  0.00     0.074 A 
ATOM     64  C   UNL A   1      37.799  32.083  33.176  1.00  0.00     0.031 C 
ATOM     65  C   UNL A   1      39.734  31.166  34.422  1.00  0.00     0.037 A 
BRANCH  52  66
ATOM     66  C   UNL A   1      44.592  27.383  33.905  1.00  0.00     0.064 A 
ATOM     67  C   UNL A   1      45.867  27.970  33.906  1.00  0.00     0.173 A 
ATOM     68  C   UNL A   1      44.436  26.154  34.563  1.00  0.00     0.173 A 
ATOM     69  F   UNL A   1      46.073  29.136  33.274  1.00  0.00    -0.203 F 
ATOM     70  C   UNL A   1      46.946  27.337  34.517  1.00  0.00     0.198 A 
ATOM     71  C   UNL A   1      45.510  25.540  35.201  1.00  0.00     0.198 A 
ATOM     72  F   UNL A   1      43.239  25.548  34.591  1.00  0.00    -0.203 F 
ATOM     73  F   UNL A   1      48.166  27.891  34.458  1.00  0.00    -0.200 F 
ATOM     74  C   UNL A   1      46.766  26.128  35.171  1.00  0.00     0.200 A 
ATOM     75  F   UNL A   1      45.331  24.378  35.843  1.00  0.00    -0.200 F 
ATOM     76  F   UNL A   1      47.804  25.525  35.765  1.00  0.00    -0.200 F 
ENDBRANCH  52  66
BRANCH  53  77
ATOM     77  C   UNL A   1      36.796  31.432  29.128  1.00  0.00     0.064 A 
ATOM     78  C   UNL A   1      36.748  32.793  28.794  1.00  0.00     0.173 A 
ATOM     79  C   UNL A   1      35.673  30.648  28.821  1.00  0.00     0.173 A 
ATOM     80  F   UNL A   1      37.784  33.590  29.092  1.00  0.00    -0.203 F 
ATOM     81  C   UNL A   1      35.617  33.352  28.201  1.00  0.00     0.198 A 
ATOM     82  C   UNL A   1      34.554  31.202  28.200  1.00  0.00     0.198 A 
ATOM     83  F   UNL A   1      35.663  29.341  29.122  1.00  0.00    -0.203 F 
ATOM     84  F   UNL A   1      35.579  34.667  27.944  1.00  0.00    -0.200 F 
ATOM     85  C   UNL A   1      34.523  32.554  27.900  1.00  0.00     0.200 A 
ATOM     86  F   UNL A   1      33.505  30.425  27.900  1.00  0.00    -0.200 F 
ATOM     87  F   UNL A   1      33.437  33.092  27.329  1.00  0.00    -0.200 F 
ENDBRANCH  53  77
BRANCH  65  88
ATOM     88  C   UNL A   1      39.300  31.960  35.622  1.00  0.00     0.064 A 
ATOM     89  C   UNL A   1      39.697  33.290  35.815  1.00  0.00     0.173 A 
ATOM     90  C   UNL A   1      38.417  31.396  36.557  1.00  0.00     0.173 A 
ATOM     91  F   UNL A   1      40.551  33.872  34.959  1.00  0.00    -0.203 F 
ATOM     92  C   UNL A   1      39.241  34.021  36.909  1.00  0.00     0.198 A 
ATOM     93  C   UNL A   1      37.936  32.140  37.630  1.00  0.00     0.198 A 
ATOM     94  F   UNL A   1      37.998  30.130  36.413  1.00  0.00    -0.203 F 
ATOM     95  F   UNL A   1      39.666  35.278  37.097  1.00  0.00    -0.200 F 
ATOM     96  C   UNL A   1      38.354  33.450  37.810  1.00  0.00     0.200 A 
ATOM     97  F   UNL A   1      37.064  31.591  38.487  1.00  0.00    -0.200 F 
ATOM     98  F   UNL A   1      37.904  34.160  38.852  1.00  0.00    -0.200 F 
ENDBRANCH  65  88
ENDBRANCH  39  40
ENDBRANCH  32  34
ENDBRANCH  31  32
ENDBRANCH  30  31
ENDBRANCH  29  30
ENDBRANCH  28  29
ENDBRANCH  27  28
ENDBRANCH  26  27
ENDBRANCH  25  26
ENDBRANCH   1  25
TORSDOF 25
ENDMDL
MODEL 3
REMARK VINA RESULT:      -8.7      5.185     10.445
REMARK SMILES CC[C@@H](COC)NC(=O)N1CC[C@H](C(=O)OCCOCCOCCOCCOC(=O)c2ccc(-c3c4nc(c(-c5c(F)c(F)c(F)c(F)c5F)c5ccc([nH]5)c(-c5c(F)c(F)c(F)c(F)c5F)c5nc(c(-c6c(F)c(F)c(F)c(F)c6F)c6ccc3[nH]6)C=C5)C=C4)cc2)[C@@H]1C
REMARK SMILES IDX 21 1 20 2 19 3 18 4 17 5 16 6 14 7 15 8 13 9 10 10 11 11
REMARK SMILES IDX 94 12 12 13 95 14 8 15 7 16 9 18 3 19 2 20 1 21 4 22 5 23
REMARK SMILES IDX 6 24 22 25 23 26 24 27 25 28 26 29 27 30 28 31 29 32 30 33
REMARK SMILES IDX 31 34 32 35 93 36 33 37 92 38 34 39 35 40 36 41 86 42 37 43
REMARK SMILES IDX 91 44 85 45 87 46 38 47 90 48 84 49 83 50 39 52 71 53 51 54
REMARK SMILES IDX 70 55 52 56 55 57 69 58 88 59 53 60 54 61 68 63 89 64 56 65
REMARK SMILES IDX 40 66 41 67 49 68 42 69 43 70 47 71 50 72 44 73 45 74 48 75
REMARK SMILES IDX 46 76 72 77 73 78 81 79 74 80 75 81 79 82 82 83 76 84 77 85
REMARK SMILES IDX 80 86 78 87 57 88 58 89 66 90 59 91 60 92 64 93 67 94 61 95
REMARK SMILES IDX 62 96 65 97 63 98
REMARK H PARENT 7 17 87 51 55 62
REMARK Flexibility Score: inf
ROOT
ATOM      1  C   UNL A   1      37.126  29.727  29.366  1.00  0.00     0.188 C 
ENDROOT
BRANCH   1   2
ATOM      2  C   UNL A   1      36.372  29.613  28.024  1.00  0.00     0.188 C 
BRANCH   2   3
ATOM      3  O   UNL A   1      34.963  29.588  28.189  1.00  0.00    -0.376 OA
BRANCH   3   4
ATOM      4  C   UNL A   1      34.228  30.676  27.659  1.00  0.00     0.202 C 
BRANCH   4   5
ATOM      5  C   UNL A   1      32.840  30.402  27.062  1.00  0.00     0.261 C 
BRANCH   5   6
ATOM      6  O   UNL A   1      32.799  30.121  25.657  1.00  0.00    -0.463 OA
BRANCH   6   7
ATOM      7  C   UNL A   1      31.811  29.332  25.160  1.00  0.00     0.311 C 
ATOM      8  O   UNL A   1      30.810  29.739  24.595  1.00  0.00    -0.252 OA
BRANCH   7   9
ATOM      9  C   UNL A   1      32.160  27.880  25.445  1.00  0.00     0.123 C 
ATOM     10  N   UNL A   1      32.098  26.155  23.792  1.00  0.00    -0.321 N 
ATOM     11  C   UNL A   1      30.735  26.461  24.176  1.00  0.00     0.122 C 
ATOM     12  C   UNL A   1      33.018  27.106  24.416  1.00  0.00     0.098 C 
ATOM     13  C   UNL A   1      30.885  27.048  25.567  1.00  0.00     0.039 C 
ATOM     14  C   UNL A   1      33.803  27.895  23.368  1.00  0.00     0.032 C 
BRANCH  10  15
ATOM     15  C   UNL A   1      32.337  25.254  22.797  1.00  0.00     0.317 C 
ATOM     16  N   UNL A   1      33.099  24.157  23.024  1.00  0.00    -0.333 N 
ATOM     17  H   UNL A   1      33.631  23.864  22.250  1.00  0.00     0.165 HD
ATOM     18  O   UNL A   1      31.877  25.404  21.666  1.00  0.00    -0.249 OA
BRANCH  16  19
ATOM     19  C   UNL A   1      33.270  23.331  24.224  1.00  0.00     0.109 C 
BRANCH  19  20
ATOM     20  C   UNL A   1      31.914  22.720  24.617  1.00  0.00     0.024 C 
ATOM     21  C   UNL A   1      31.349  23.275  25.916  1.00  0.00     0.006 C 
ENDBRANCH  19  20
BRANCH  19  22
ATOM     22  C   UNL A   1      34.434  22.338  24.025  1.00  0.00     0.184 C 
BRANCH  22  23
ATOM     23  O   UNL A   1      35.468  22.437  25.003  1.00  0.00    -0.383 OA
ATOM     24  C   UNL A   1      35.190  23.339  26.063  1.00  0.00     0.194 C 
ENDBRANCH  22  23
ENDBRANCH  19  22
ENDBRANCH  16  19
ENDBRANCH  10  15
ENDBRANCH   7   9
ENDBRANCH   6   7
ENDBRANCH   5   6
ENDBRANCH   4   5
ENDBRANCH   3   4
ENDBRANCH   2   3
ENDBRANCH   1   2
BRANCH   1  25
ATOM     25  O   UNL A   1      36.324  29.584  30.524  1.00  0.00    -0.377 OA
BRANCH  25  26
ATOM     26  C   UNL A   1      36.117  30.731  31.348  1.00  0.00     0.188 C 
BRANCH  26  27
ATOM     27  C   UNL A   1      35.543  32.061  30.792  1.00  0.00     0.188 C 
BRANCH  27  28
ATOM     28  O   UNL A   1      34.340  32.499  31.407  1.00  0.00    -0.376 OA
BRANCH  28  29
ATOM     29  C   UNL A   1      34.421  33.011  32.725  1.00  0.00     0.202 C 
BRANCH  29  30
ATOM     30  C   UNL A   1      35.597  33.960  32.991  1.00  0.00     0.261 C 
BRANCH  30  31
ATOM     31  O   UNL A   1      36.730  33.375  33.653  1.00  0.00    -0.460 OA
BRANCH  31  32
ATOM     32  C   UNL A   1      37.925  33.990  33.518  1.00  0.00     0.338 C 
ATOM     33  O   UNL A   1      38.301  35.010  34.065  1.00  0.00    -0.246 OA
BRANCH  32  34
ATOM     34  C   UNL A   1      38.788  33.091  32.728  1.00  0.00     0.060 A 
ATOM     35  C   UNL A   1      39.522  32.088  33.380  1.00  0.00     0.016 A 
ATOM     36  C   UNL A   1      38.841  33.221  31.340  1.00  0.00     0.016 A 
ATOM     37  C   UNL A   1      40.336  31.229  32.642  1.00  0.00     0.010 A 
ATOM     38  C   UNL A   1      39.677  32.380  30.606  1.00  0.00     0.010 A 
ATOM     39  C   UNL A   1      40.453  31.405  31.258  1.00  0.00    -0.014 A 
BRANCH  39  40
ATOM     40  C   UNL A   1      41.556  30.756  30.515  1.00  0.00     0.031 A 
ATOM     41  C   UNL A   1      42.805  31.561  30.284  1.00  0.00     0.074 A 
ATOM     42  C   UNL A   1      41.452  29.506  30.038  1.00  0.00     0.049 A 
ATOM     43  N   UNL A   1      43.855  31.283  29.557  1.00  0.00    -0.248 NA
ATOM     44  C   UNL A   1      42.869  32.867  30.962  1.00  0.00     0.031 C 
ATOM     45  C   UNL A   1      40.315  28.613  30.242  1.00  0.00     0.029 A 
ATOM     46  N   UNL A   1      42.319  28.780  29.259  1.00  0.00    -0.354 N 
ATOM     47  C   UNL A   1      44.695  32.382  29.680  1.00  0.00     0.074 A 
ATOM     48  C   UNL A   1      44.024  33.343  30.526  1.00  0.00     0.031 C 
ATOM     49  C   UNL A   1      40.544  27.462  29.583  1.00  0.00     0.029 A 
ATOM     50  C   UNL A   1      41.822  27.557  28.879  1.00  0.00     0.049 A 
ATOM     51  H   UNL A   1      43.211  29.105  28.998  1.00  0.00     0.167 HD
ATOM     52  C   UNL A   1      45.920  32.570  29.137  1.00  0.00     0.037 A 
ATOM     53  C   UNL A   1      42.333  26.642  28.032  1.00  0.00     0.037 A 
ATOM     54  C   UNL A   1      46.577  31.613  28.290  1.00  0.00     0.049 A 
ATOM     55  C   UNL A   1      43.661  26.912  27.367  1.00  0.00     0.074 A 
ATOM     56  C   UNL A   1      47.822  31.701  27.693  1.00  0.00     0.029 A 
ATOM     57  N   UNL A   1      46.035  30.394  27.911  1.00  0.00    -0.354 N 
ATOM     58  N   UNL A   1      44.461  27.944  27.495  1.00  0.00    -0.248 NA
ATOM     59  C   UNL A   1      44.158  25.889  26.434  1.00  0.00     0.031 C 
ATOM     60  C   UNL A   1      48.008  30.560  26.907  1.00  0.00     0.029 A 
ATOM     61  C   UNL A   1      46.910  29.732  27.066  1.00  0.00     0.049 A 
ATOM     62  H   UNL A   1      45.158  30.051  28.199  1.00  0.00     0.167 HD
ATOM     63  C   UNL A   1      45.567  27.677  26.697  1.00  0.00     0.074 A 
ATOM     64  C   UNL A   1      45.339  26.384  26.089  1.00  0.00     0.031 C 
ATOM     65  C   UNL A   1      46.674  28.432  26.488  1.00  0.00     0.037 A 
BRANCH  52  66
ATOM     66  C   UNL A   1      46.606  33.874  29.415  1.00  0.00     0.064 A 
ATOM     67  C   UNL A   1      47.473  34.036  30.507  1.00  0.00     0.173 A 
ATOM     68  C   UNL A   1      46.411  34.973  28.565  1.00  0.00     0.173 A 
ATOM     69  F   UNL A   1      47.680  33.023  31.361  1.00  0.00    -0.203 F 
ATOM     70  C   UNL A   1      48.095  35.257  30.752  1.00  0.00     0.198 A 
ATOM     71  C   UNL A   1      47.061  36.182  28.794  1.00  0.00     0.198 A 
ATOM     72  F   UNL A   1      45.592  34.872  27.507  1.00  0.00    -0.203 F 
ATOM     73  F   UNL A   1      48.876  35.404  31.832  1.00  0.00    -0.200 F 
ATOM     74  C   UNL A   1      47.896  36.326  29.891  1.00  0.00     0.200 A 
ATOM     75  F   UNL A   1      46.876  37.210  27.954  1.00  0.00    -0.200 F 
ATOM     76  F   UNL A   1      48.502  37.498  30.124  1.00  0.00    -0.200 F 
ENDBRANCH  52  66
BRANCH  53  77
ATOM     77  C   UNL A   1      41.583  25.391  27.742  1.00  0.00     0.064 A 
ATOM     78  C   UNL A   1      40.501  25.387  26.849  1.00  0.00     0.173 A 
ATOM     79  C   UNL A   1      41.909  24.181  28.372  1.00  0.00     0.173 A 
ATOM     80  F   UNL A   1      40.131  26.524  26.243  1.00  0.00    -0.203 F 
ATOM     81  C   UNL A   1      39.763  24.228  26.616  1.00  0.00     0.198 A 
ATOM     82  C   UNL A   1      41.190  23.016  28.115  1.00  0.00     0.198 A 
ATOM     83  F   UNL A   1      42.932  24.129  29.238  1.00  0.00    -0.203 F 
ATOM     84  F   UNL A   1      38.700  24.267  25.800  1.00  0.00    -0.200 F 
ATOM     85  C   UNL A   1      40.112  23.042  27.244  1.00  0.00     0.200 A 
ATOM     86  F   UNL A   1      41.538  21.869  28.715  1.00  0.00    -0.200 F 
ATOM     87  F   UNL A   1      39.402  21.928  27.019  1.00  0.00    -0.200 F 
ENDBRANCH  53  77
BRANCH  65  88
ATOM     88  C   UNL A   1      47.756  27.862  25.615  1.00  0.00     0.064 A 
ATOM     89  C   UNL A   1      48.855  27.175  26.149  1.00  0.00     0.173 A 
ATOM     90  C   UNL A   1      47.651  27.949  24.218  1.00  0.00     0.173 A 
ATOM     91  F   UNL A   1      49.009  27.074  27.477  1.00  0.00    -0.203 F 
ATOM     92  C   UNL A   1      49.819  26.612  25.316  1.00  0.00     0.198 A 
ATOM     93  C   UNL A   1      48.597  27.356  23.388  1.00  0.00     0.198 A 
ATOM     94  F   UNL A   1      46.613  28.587  23.656  1.00  0.00    -0.203 F 
ATOM     95  F   UNL A   1      50.883  25.995  25.848  1.00  0.00    -0.200 F 
ATOM     96  C   UNL A   1      49.685  26.694  23.937  1.00  0.00     0.200 A 
ATOM     97  F   UNL A   1      48.454  27.420  22.057  1.00  0.00    -0.200 F 
ATOM     98  F   UNL A   1      50.604  26.137  23.138  1.00  0.00    -0.200 F 
ENDBRANCH  65  88
ENDBRANCH  39  40
ENDBRANCH  32  34
ENDBRANCH  31  32
ENDBRANCH  30  31
ENDBRANCH  29  30
ENDBRANCH  28  29
ENDBRANCH  27  28
ENDBRANCH  26  27
ENDBRANCH  25  26
ENDBRANCH   1  25
TORSDOF 25
ENDMDL
