MODEL 1
REMARK VINA RESULT:     -10.8      0.000      0.000
REMARK SMILES Cc1cc2n(n1)CC[N@@H+](Cc1ncccc1C(=O)OCCOCCOCCOCCOC(=O)c1ccc(-c3c4nc(c(-c5c(F)c(F)c(F)c(F)c5F)c5ccc([nH]5)c(-c5c(F)c(F)c(F)c(F)c5F)c5nc(c(-c6c(F)c(F)c(F)c(F)c6F)c6ccc3[nH]6)C=C5)C=C4)cc1)C2
REMARK SMILES IDX 25 1 24 2 23 3 22 4 21 5 20 6 19 7 17 8 18 9 16 10 11 11
REMARK SMILES IDX 12 12 13 13 15 14 14 15 10 16 9 17 1 18 2 19 3 20 6 21 4 22
REMARK SMILES IDX 5 23 97 24 7 25 8 26 26 28 27 29 28 30 29 31 30 32 31 33
REMARK SMILES IDX 32 34 33 35 34 36 35 37 96 38 36 39 95 40 37 41 38 42 39 43
REMARK SMILES IDX 89 44 40 45 94 46 88 47 90 48 41 49 93 50 87 51 86 52 42 54
REMARK SMILES IDX 74 55 54 56 73 57 55 58 58 59 72 60 91 61 56 62 57 63 71 65
REMARK SMILES IDX 92 66 59 67 43 68 44 69 52 70 45 71 46 72 50 73 53 74 47 75
REMARK SMILES IDX 48 76 51 77 49 78 75 79 76 80 84 81 77 82 78 83 82 84 85 85
REMARK SMILES IDX 79 86 80 87 83 88 81 89 60 90 61 91 69 92 62 93 63 94 67 95
REMARK SMILES IDX 70 96 64 97 65 98 68 99 66 100
REMARK H PARENT 9 27 90 53 58 64
REMARK Flexibility Score: inf
ROOT
ATOM      1  O   UNL A   1      34.996  31.313  27.431  1.00  0.00    -0.377 OA
ENDROOT
BRANCH   1   2
ATOM      2  C   UNL A   1      34.292  30.083  27.291  1.00  0.00     0.188 C 
BRANCH   2   3
ATOM      3  C   UNL A   1      32.812  30.142  26.844  1.00  0.00     0.188 C 
BRANCH   3   4
ATOM      4  O   UNL A   1      32.177  28.888  26.614  1.00  0.00    -0.376 OA
BRANCH   4   5
ATOM      5  C   UNL A   1      33.033  27.755  26.676  1.00  0.00     0.202 C 
BRANCH   5   6
ATOM      6  C   UNL A   1      33.511  27.147  25.336  1.00  0.00     0.261 C 
BRANCH   6   7
ATOM      7  O   UNL A   1      34.214  25.876  25.419  1.00  0.00    -0.460 OA
BRANCH   7   8
ATOM      8  C   UNL A   1      34.325  25.111  24.288  1.00  0.00     0.340 C 
ATOM      9  O   UNL A   1      33.957  25.447  23.177  1.00  0.00    -0.246 OA
BRANCH   8  10
ATOM     10  C   UNL A   1      34.987  23.799  24.587  1.00  0.00     0.087 A 
ATOM     11  C   UNL A   1      34.774  23.047  25.760  1.00  0.00     0.109 A 
ATOM     12  N   UNL A   1      35.558  21.965  26.073  1.00  0.00    -0.254 NA
ATOM     13  C   UNL A   1      36.493  21.567  25.190  1.00  0.00     0.111 A 
ATOM     14  C   UNL A   1      35.950  23.323  23.681  1.00  0.00     0.019 A 
ATOM     15  C   UNL A   1      36.701  22.189  23.978  1.00  0.00     0.021 A 
BRANCH  11  16
ATOM     16  C   UNL A   1      33.668  23.287  26.774  1.00  0.00     0.320 C 
BRANCH  16  17
ATOM     17  N   UNL A   1      32.317  22.763  26.452  1.00  0.00    -0.323 N 
ATOM     18  C   UNL A   1      29.875  27.429  23.763  1.00  0.00     0.069 C 
ATOM     19  C   UNL A   1      30.167  26.066  24.263  1.00  0.00     0.060 A 
ATOM     20  C   UNL A   1      30.034  25.638  25.595  1.00  0.00     0.054 A 
ATOM     21  N   UNL A   1      30.677  25.092  23.495  1.00  0.00    -0.178 NA
ATOM     22  C   UNL A   1      30.749  24.476  25.685  1.00  0.00     0.093 A 
ATOM     23  N   UNL A   1      30.978  24.126  24.394  1.00  0.00    -0.258 N 
ATOM     24  C   UNL A   1      31.208  23.637  26.812  1.00  0.00     0.319 C 
ATOM     25  C   UNL A   1      31.396  22.801  24.015  1.00  0.00     0.206 C 
ATOM     26  C   UNL A   1      32.166  22.091  25.150  1.00  0.00     0.286 C 
ATOM     27  H   UNL A   1      32.244  21.986  27.107  1.00  0.00     0.348 HD
ENDBRANCH  16  17
ENDBRANCH  11  16
ENDBRANCH   8  10
ENDBRANCH   7   8
ENDBRANCH   6   7
ENDBRANCH   5   6
ENDBRANCH   4   5
ENDBRANCH   3   4
ENDBRANCH   2   3
ENDBRANCH   1   2
BRANCH   1  28
ATOM     28  C   UNL A   1      34.357  32.314  28.218  1.00  0.00     0.188 C 
BRANCH  28  29
ATOM     29  C   UNL A   1      35.222  33.576  28.202  1.00  0.00     0.188 C 
BRANCH  29  30
ATOM     30  O   UNL A   1      34.455  34.771  28.037  1.00  0.00    -0.376 OA
BRANCH  30  31
ATOM     31  C   UNL A   1      33.147  34.786  28.613  1.00  0.00     0.202 C 
BRANCH  31  32
ATOM     32  C   UNL A   1      33.000  35.499  29.963  1.00  0.00     0.261 C 
BRANCH  32  33
ATOM     33  O   UNL A   1      33.389  34.724  31.084  1.00  0.00    -0.460 OA
BRANCH  33  34
ATOM     34  C   UNL A   1      34.079  35.335  32.062  1.00  0.00     0.338 C 
ATOM     35  O   UNL A   1      33.916  36.464  32.498  1.00  0.00    -0.246 OA
BRANCH  34  36
ATOM     36  C   UNL A   1      35.060  34.363  32.561  1.00  0.00     0.060 A 
ATOM     37  C   UNL A   1      36.282  34.844  33.017  1.00  0.00     0.016 A 
ATOM     38  C   UNL A   1      34.811  32.986  32.426  1.00  0.00     0.016 A 
ATOM     39  C   UNL A   1      37.335  33.959  33.051  1.00  0.00     0.010 A 
ATOM     40  C   UNL A   1      35.841  32.092  32.532  1.00  0.00     0.010 A 
ATOM     41  C   UNL A   1      37.107  32.622  32.685  1.00  0.00    -0.014 A 
BRANCH  41  42
ATOM     42  C   UNL A   1      38.249  31.796  32.382  1.00  0.00     0.031 A 
ATOM     43  C   UNL A   1      39.086  31.530  33.558  1.00  0.00     0.074 A 
ATOM     44  C   UNL A   1      38.511  31.367  31.132  1.00  0.00     0.049 A 
ATOM     45  N   UNL A   1      40.216  32.085  33.832  1.00  0.00    -0.248 NA
ATOM     46  C   UNL A   1      38.511  30.734  34.649  1.00  0.00     0.031 C 
ATOM     47  C   UNL A   1      37.657  31.386  29.941  1.00  0.00     0.029 A 
ATOM     48  N   UNL A   1      39.638  30.756  30.684  1.00  0.00    -0.354 N 
ATOM     49  C   UNL A   1      40.602  31.552  35.050  1.00  0.00     0.074 A 
ATOM     50  C   UNL A   1      39.445  30.883  35.589  1.00  0.00     0.031 C 
ATOM     51  C   UNL A   1      38.213  30.616  28.976  1.00  0.00     0.029 A 
ATOM     52  C   UNL A   1      39.523  30.182  29.424  1.00  0.00     0.049 A 
ATOM     53  H   UNL A   1      40.470  30.722  31.211  1.00  0.00     0.167 HD
ATOM     54  C   UNL A   1      41.921  31.483  35.369  1.00  0.00     0.037 A 
ATOM     55  C   UNL A   1      40.439  29.363  28.851  1.00  0.00     0.037 A 
ATOM     56  C   UNL A   1      42.693  32.414  34.579  1.00  0.00     0.049 A 
ATOM     57  C   UNL A   1      41.743  29.629  29.521  1.00  0.00     0.074 A 
ATOM     58  C   UNL A   1      42.669  33.789  34.425  1.00  0.00     0.029 A 
ATOM     59  N   UNL A   1      43.375  31.934  33.486  1.00  0.00    -0.354 N 
ATOM     60  N   UNL A   1      42.400  30.749  29.386  1.00  0.00    -0.248 NA
ATOM     61  C   UNL A   1      42.049  28.869  30.726  1.00  0.00     0.031 C 
ATOM     62  C   UNL A   1      42.893  34.013  33.034  1.00  0.00     0.029 A 
ATOM     63  C   UNL A   1      43.121  32.776  32.431  1.00  0.00     0.049 A 
ATOM     64  H   UNL A   1      43.943  31.130  33.464  1.00  0.00     0.167 HD
ATOM     65  C   UNL A   1      42.857  31.048  30.662  1.00  0.00     0.074 A 
ATOM     66  C   UNL A   1      42.668  29.820  31.433  1.00  0.00     0.031 C 
ATOM     67  C   UNL A   1      43.065  32.339  31.056  1.00  0.00     0.037 A 
BRANCH  54  68
ATOM     68  C   UNL A   1      42.529  30.302  36.076  1.00  0.00     0.064 A 
ATOM     69  C   UNL A   1      43.471  30.534  37.095  1.00  0.00     0.173 A 
ATOM     70  C   UNL A   1      42.462  28.973  35.598  1.00  0.00     0.173 A 
ATOM     71  F   UNL A   1      43.629  31.762  37.612  1.00  0.00    -0.203 F 
ATOM     72  C   UNL A   1      44.338  29.532  37.535  1.00  0.00     0.198 A 
ATOM     73  C   UNL A   1      43.292  27.965  36.077  1.00  0.00     0.198 A 
ATOM     74  F   UNL A   1      41.681  28.615  34.573  1.00  0.00    -0.203 F 
ATOM     75  F   UNL A   1      45.306  29.831  38.411  1.00  0.00    -0.200 F 
ATOM     76  C   UNL A   1      44.253  28.252  37.020  1.00  0.00     0.200 A 
ATOM     77  F   UNL A   1      43.203  26.737  35.549  1.00  0.00    -0.200 F 
ATOM     78  F   UNL A   1      45.126  27.307  37.391  1.00  0.00    -0.200 F 
ENDBRANCH  54  68
BRANCH  55  79
ATOM     79  C   UNL A   1      40.185  28.140  28.050  1.00  0.00     0.064 A 
ATOM     80  C   UNL A   1      40.841  27.925  26.826  1.00  0.00     0.173 A 
ATOM     81  C   UNL A   1      39.513  27.029  28.599  1.00  0.00     0.173 A 
ATOM     82  F   UNL A   1      41.544  28.914  26.254  1.00  0.00    -0.203 F 
ATOM     83  C   UNL A   1      40.848  26.670  26.206  1.00  0.00     0.198 A 
ATOM     84  C   UNL A   1      39.516  25.780  27.978  1.00  0.00     0.198 A 
ATOM     85  F   UNL A   1      38.922  27.107  29.799  1.00  0.00    -0.203 F 
ATOM     86  F   UNL A   1      41.538  26.488  25.071  1.00  0.00    -0.200 F 
ATOM     87  C   UNL A   1      40.195  25.596  26.788  1.00  0.00     0.200 A 
ATOM     88  F   UNL A   1      38.914  24.741  28.573  1.00  0.00    -0.200 F 
ATOM     89  F   UNL A   1      40.254  24.380  26.228  1.00  0.00    -0.200 F 
ENDBRANCH  55  79
BRANCH  67  90
ATOM     90  C   UNL A   1      43.011  33.412  30.001  1.00  0.00     0.064 A 
ATOM     91  C   UNL A   1      41.845  34.119  29.653  1.00  0.00     0.173 A 
ATOM     92  C   UNL A   1      44.215  33.838  29.424  1.00  0.00     0.173 A 
ATOM     93  F   UNL A   1      40.672  33.845  30.236  1.00  0.00    -0.203 F 
ATOM     94  C   UNL A   1      41.882  35.170  28.736  1.00  0.00     0.198 A 
ATOM     95  C   UNL A   1      44.255  34.911  28.538  1.00  0.00     0.198 A 
ATOM     96  F   UNL A   1      45.369  33.240  29.761  1.00  0.00    -0.203 F 
ATOM     97  F   UNL A   1      40.755  35.820  28.411  1.00  0.00    -0.200 F 
ATOM     98  C   UNL A   1      43.088  35.569  28.184  1.00  0.00     0.200 A 
ATOM     99  F   UNL A   1      45.431  35.326  28.048  1.00  0.00    -0.200 F 
ATOM    100  F   UNL A   1      43.131  36.605  27.334  1.00  0.00    -0.200 F 
ENDBRANCH  67  90
ENDBRANCH  41  42
ENDBRANCH  34  36
ENDBRANCH  33  34
ENDBRANCH  32  33
ENDBRANCH  31  32
ENDBRANCH  30  31
ENDBRANCH  29  30
ENDBRANCH  28  29
ENDBRANCH   1  28
TORSDOF 22
ENDMDL
MODEL 2
REMARK VINA RESULT:     -10.7      1.062      2.289
REMARK SMILES Cc1cc2n(n1)CC[N@@H+](Cc1ncccc1C(=O)OCCOCCOCCOCCOC(=O)c1ccc(-c3c4nc(c(-c5c(F)c(F)c(F)c(F)c5F)c5ccc([nH]5)c(-c5c(F)c(F)c(F)c(F)c5F)c5nc(c(-c6c(F)c(F)c(F)c(F)c6F)c6ccc3[nH]6)C=C5)C=C4)cc1)C2
REMARK SMILES IDX 25 1 24 2 23 3 22 4 21 5 20 6 19 7 17 8 18 9 16 10 11 11
REMARK SMILES IDX 12 12 13 13 15 14 14 15 10 16 9 17 1 18 2 19 3 20 6 21 4 22
REMARK SMILES IDX 5 23 97 24 7 25 8 26 26 28 27 29 28 30 29 31 30 32 31 33
REMARK SMILES IDX 32 34 33 35 34 36 35 37 96 38 36 39 95 40 37 41 38 42 39 43
REMARK SMILES IDX 89 44 40 45 94 46 88 47 90 48 41 49 93 50 87 51 86 52 42 54
REMARK SMILES IDX 74 55 54 56 73 57 55 58 58 59 72 60 91 61 56 62 57 63 71 65
REMARK SMILES IDX 92 66 59 67 43 68 44 69 52 70 45 71 46 72 50 73 53 74 47 75
REMARK SMILES IDX 48 76 51 77 49 78 75 79 76 80 84 81 77 82 78 83 82 84 85 85
REMARK SMILES IDX 79 86 80 87 83 88 81 89 60 90 61 91 69 92 62 93 63 94 67 95
REMARK SMILES IDX 70 96 64 97 65 98 68 99 66 100
REMARK H PARENT 9 27 90 53 58 64
REMARK Flexibility Score: inf
ROOT
ATOM      1  O   UNL A   1      34.765  31.828  27.584  1.00  0.00    -0.377 OA
ENDROOT
BRANCH   1   2
ATOM      2  C   UNL A   1      34.163  30.538  27.625  1.00  0.00     0.188 C 
BRANCH   2   3
ATOM      3  C   UNL A   1      35.003  29.331  27.144  1.00  0.00     0.188 C 
BRANCH   3   4
ATOM      4  O   UNL A   1      34.274  28.153  26.810  1.00  0.00    -0.376 OA
BRANCH   4   5
ATOM      5  C   UNL A   1      33.007  28.377  26.206  1.00  0.00     0.202 C 
BRANCH   5   6
ATOM      6  C   UNL A   1      31.857  27.412  26.581  1.00  0.00     0.261 C 
BRANCH   6   7
ATOM      7  O   UNL A   1      31.496  26.420  25.580  1.00  0.00    -0.460 OA
BRANCH   7   8
ATOM      8  C   UNL A   1      31.567  25.093  25.914  1.00  0.00     0.340 C 
ATOM      9  O   UNL A   1      31.238  24.623  26.987  1.00  0.00    -0.246 OA
BRANCH   8  10
ATOM     10  C   UNL A   1      32.086  24.276  24.768  1.00  0.00     0.087 A 
ATOM     11  C   UNL A   1      33.419  24.297  24.312  1.00  0.00     0.109 A 
ATOM     12  N   UNL A   1      33.788  23.691  23.137  1.00  0.00    -0.254 NA
ATOM     13  C   UNL A   1      32.865  22.987  22.456  1.00  0.00     0.111 A 
ATOM     14  C   UNL A   1      31.168  23.498  24.042  1.00  0.00     0.019 A 
ATOM     15  C   UNL A   1      31.562  22.836  22.883  1.00  0.00     0.021 A 
BRANCH  11  16
ATOM     16  C   UNL A   1      34.593  24.925  25.044  1.00  0.00     0.320 C 
BRANCH  16  17
ATOM     17  N   UNL A   1      35.445  24.030  25.868  1.00  0.00    -0.323 N 
ATOM     18  C   UNL A   1      32.695  18.842  25.167  1.00  0.00     0.069 C 
ATOM     19  C   UNL A   1      33.686  19.897  25.481  1.00  0.00     0.060 A 
ATOM     20  C   UNL A   1      33.595  20.815  26.541  1.00  0.00     0.054 A 
ATOM     21  N   UNL A   1      34.764  20.147  24.722  1.00  0.00    -0.178 NA
ATOM     22  C   UNL A   1      34.479  21.816  26.244  1.00  0.00     0.093 A 
ATOM     23  N   UNL A   1      35.241  21.299  25.248  1.00  0.00    -0.258 N 
ATOM     24  C   UNL A   1      34.725  23.165  26.794  1.00  0.00     0.319 C 
ATOM     25  C   UNL A   1      36.507  21.872  24.867  1.00  0.00     0.206 C 
ATOM     26  C   UNL A   1      36.575  23.383  25.181  1.00  0.00     0.286 C 
ATOM     27  H   UNL A   1      35.915  24.704  26.472  1.00  0.00     0.348 HD
ENDBRANCH  16  17
ENDBRANCH  11  16
ENDBRANCH   8  10
ENDBRANCH   7   8
ENDBRANCH   6   7
ENDBRANCH   5   6
ENDBRANCH   4   5
ENDBRANCH   3   4
ENDBRANCH   2   3
ENDBRANCH   1   2
BRANCH   1  28
ATOM     28  C   UNL A   1      34.410  32.719  28.636  1.00  0.00     0.188 C 
BRANCH  28  29
ATOM     29  C   UNL A   1      35.277  33.975  28.530  1.00  0.00     0.188 C 
BRANCH  29  30
ATOM     30  O   UNL A   1      34.510  35.161  28.310  1.00  0.00    -0.376 OA
BRANCH  30  31
ATOM     31  C   UNL A   1      33.163  35.159  28.788  1.00  0.00     0.202 C 
BRANCH  31  32
ATOM     32  C   UNL A   1      32.936  35.708  30.201  1.00  0.00     0.261 C 
BRANCH  32  33
ATOM     33  O   UNL A   1      33.323  34.831  31.244  1.00  0.00    -0.460 OA
BRANCH  33  34
ATOM     34  C   UNL A   1      33.914  35.363  32.327  1.00  0.00     0.338 C 
ATOM     35  O   UNL A   1      33.666  36.432  32.864  1.00  0.00    -0.246 OA
BRANCH  34  36
ATOM     36  C   UNL A   1      34.906  34.386  32.793  1.00  0.00     0.060 A 
ATOM     37  C   UNL A   1      36.113  34.866  33.290  1.00  0.00     0.016 A 
ATOM     38  C   UNL A   1      34.685  33.013  32.589  1.00  0.00     0.016 A 
ATOM     39  C   UNL A   1      37.181  34.000  33.297  1.00  0.00     0.010 A 
ATOM     40  C   UNL A   1      35.730  32.134  32.666  1.00  0.00     0.010 A 
ATOM     41  C   UNL A   1      36.984  32.678  32.863  1.00  0.00    -0.014 A 
BRANCH  41  42
ATOM     42  C   UNL A   1      38.145  31.889  32.538  1.00  0.00     0.031 A 
ATOM     43  C   UNL A   1      39.002  31.631  33.702  1.00  0.00     0.074 A 
ATOM     44  C   UNL A   1      38.405  31.482  31.280  1.00  0.00     0.049 A 
ATOM     45  N   UNL A   1      40.119  32.215  33.970  1.00  0.00    -0.248 NA
ATOM     46  C   UNL A   1      38.461  30.806  34.788  1.00  0.00     0.031 C 
ATOM     47  C   UNL A   1      37.539  31.493  30.098  1.00  0.00     0.029 A 
ATOM     48  N   UNL A   1      39.545  30.909  30.812  1.00  0.00    -0.354 N 
ATOM     49  C   UNL A   1      40.533  31.677  35.178  1.00  0.00     0.074 A 
ATOM     50  C   UNL A   1      39.401  30.970  35.720  1.00  0.00     0.031 C 
ATOM     51  C   UNL A   1      38.105  30.751  29.118  1.00  0.00     0.029 A 
ATOM     52  C   UNL A   1      39.432  30.348  29.547  1.00  0.00     0.049 A 
ATOM     53  H   UNL A   1      40.382  30.892  31.329  1.00  0.00     0.167 HD
ATOM     54  C   UNL A   1      41.856  31.642  35.482  1.00  0.00     0.037 A 
ATOM     55  C   UNL A   1      40.364  29.562  28.953  1.00  0.00     0.037 A 
ATOM     56  C   UNL A   1      42.594  32.604  34.696  1.00  0.00     0.049 A 
ATOM     57  C   UNL A   1      41.667  29.857  29.613  1.00  0.00     0.074 A 
ATOM     58  C   UNL A   1      42.529  33.979  34.560  1.00  0.00     0.029 A 
ATOM     59  N   UNL A   1      43.277  32.157  33.590  1.00  0.00    -0.354 N 
ATOM     60  N   UNL A   1      42.291  30.997  29.486  1.00  0.00    -0.248 NA
ATOM     61  C   UNL A   1      42.007  29.091  30.805  1.00  0.00     0.031 C 
ATOM     62  C   UNL A   1      42.732  34.227  33.170  1.00  0.00     0.029 A 
ATOM     63  C   UNL A   1      42.988  33.004  32.549  1.00  0.00     0.049 A 
ATOM     64  H   UNL A   1      43.867  31.369  33.551  1.00  0.00     0.167 HD
ATOM     65  C   UNL A   1      42.753  31.292  30.760  1.00  0.00     0.074 A 
ATOM     66  C   UNL A   1      42.607  30.050  31.517  1.00  0.00     0.031 C 
ATOM     67  C   UNL A   1      42.929  32.583  31.169  1.00  0.00     0.037 A 
BRANCH  54  68
ATOM     68  C   UNL A   1      42.505  30.470  36.167  1.00  0.00     0.064 A 
ATOM     69  C   UNL A   1      43.435  30.715  37.194  1.00  0.00     0.173 A 
ATOM     70  C   UNL A   1      42.488  29.149  35.662  1.00  0.00     0.173 A 
ATOM     71  F   UNL A   1      43.547  31.937  37.736  1.00  0.00    -0.203 F 
ATOM     72  C   UNL A   1      44.336  29.736  37.617  1.00  0.00     0.198 A 
ATOM     73  C   UNL A   1      43.352  28.162  36.124  1.00  0.00     0.198 A 
ATOM     74  F   UNL A   1      41.723  28.783  34.628  1.00  0.00    -0.203 F 
ATOM     75  F   UNL A   1      45.291  30.052  38.502  1.00  0.00    -0.200 F 
ATOM     76  C   UNL A   1      44.300  28.464  37.077  1.00  0.00     0.200 A 
ATOM     77  F   UNL A   1      43.310  26.942  35.572  1.00  0.00    -0.200 F 
ATOM     78  F   UNL A   1      45.206  27.544  37.432  1.00  0.00    -0.200 F 
ENDBRANCH  54  68
BRANCH  55  79
ATOM     79  C   UNL A   1      40.135  28.343  28.139  1.00  0.00     0.064 A 
ATOM     80  C   UNL A   1      40.793  28.157  26.911  1.00  0.00     0.173 A 
ATOM     81  C   UNL A   1      39.491  27.211  28.678  1.00  0.00     0.173 A 
ATOM     82  F   UNL A   1      41.471  29.168  26.348  1.00  0.00    -0.203 F 
ATOM     83  C   UNL A   1      40.826  26.910  26.277  1.00  0.00     0.198 A 
ATOM     84  C   UNL A   1      39.521  25.969  28.042  1.00  0.00     0.198 A 
ATOM     85  F   UNL A   1      38.903  27.261  29.880  1.00  0.00    -0.203 F 
ATOM     86  F   UNL A   1      41.517  26.756  25.137  1.00  0.00    -0.200 F 
ATOM     87  C   UNL A   1      40.200  25.815  26.849  1.00  0.00     0.200 A 
ATOM     88  F   UNL A   1      38.945  24.910  28.628  1.00  0.00    -0.200 F 
ATOM     89  F   UNL A   1      40.286  24.606  26.275  1.00  0.00    -0.200 F 
ENDBRANCH  55  79
BRANCH  67  90
ATOM     90  C   UNL A   1      42.834  33.668  30.128  1.00  0.00     0.064 A 
ATOM     91  C   UNL A   1      41.633  34.297  29.752  1.00  0.00     0.173 A 
ATOM     92  C   UNL A   1      44.023  34.186  29.598  1.00  0.00     0.173 A 
ATOM     93  F   UNL A   1      40.464  33.932  30.292  1.00  0.00    -0.203 F 
ATOM     94  C   UNL A   1      41.625  35.363  28.852  1.00  0.00     0.198 A 
ATOM     95  C   UNL A   1      44.016  35.274  28.730  1.00  0.00     0.198 A 
ATOM     96  F   UNL A   1      45.204  33.665  29.964  1.00  0.00    -0.203 F 
ATOM     97  F   UNL A   1      40.466  35.938  28.499  1.00  0.00    -0.200 F 
ATOM     98  C   UNL A   1      42.817  35.855  28.346  1.00  0.00     0.200 A 
ATOM     99  F   UNL A   1      45.175  35.779  28.285  1.00  0.00    -0.200 F 
ATOM    100  F   UNL A   1      42.815  36.905  27.513  1.00  0.00    -0.200 F 
ENDBRANCH  67  90
ENDBRANCH  41  42
ENDBRANCH  34  36
ENDBRANCH  33  34
ENDBRANCH  32  33
ENDBRANCH  31  32
ENDBRANCH  30  31
ENDBRANCH  29  30
ENDBRANCH  28  29
ENDBRANCH   1  28
TORSDOF 22
ENDMDL
MODEL 3
REMARK VINA RESULT:     -10.5      2.712      4.260
REMARK SMILES Cc1cc2n(n1)CC[N@@H+](Cc1ncccc1C(=O)OCCOCCOCCOCCOC(=O)c1ccc(-c3c4nc(c(-c5c(F)c(F)c(F)c(F)c5F)c5ccc([nH]5)c(-c5c(F)c(F)c(F)c(F)c5F)c5nc(c(-c6c(F)c(F)c(F)c(F)c6F)c6ccc3[nH]6)C=C5)C=C4)cc1)C2
REMARK SMILES IDX 25 1 24 2 23 3 22 4 21 5 20 6 19 7 17 8 18 9 16 10 11 11
REMARK SMILES IDX 12 12 13 13 15 14 14 15 10 16 9 17 1 18 2 19 3 20 6 21 4 22
REMARK SMILES IDX 5 23 97 24 7 25 8 26 26 28 27 29 28 30 29 31 30 32 31 33
REMARK SMILES IDX 32 34 33 35 34 36 35 37 96 38 36 39 95 40 37 41 38 42 39 43
REMARK SMILES IDX 89 44 40 45 94 46 88 47 90 48 41 49 93 50 87 51 86 52 42 54
REMARK SMILES IDX 74 55 54 56 73 57 55 58 58 59 72 60 91 61 56 62 57 63 71 65
REMARK SMILES IDX 92 66 59 67 43 68 44 69 52 70 45 71 46 72 50 73 53 74 47 75
REMARK SMILES IDX 48 76 51 77 49 78 75 79 76 80 84 81 77 82 78 83 82 84 85 85
REMARK SMILES IDX 79 86 80 87 83 88 81 89 60 90 61 91 69 92 62 93 63 94 67 95
REMARK SMILES IDX 70 96 64 97 65 98 68 99 66 100
REMARK H PARENT 9 27 90 53 58 64
REMARK Flexibility Score: inf
ROOT
ATOM      1  O   UNL A   1      32.486  34.288  28.402  1.00  0.00    -0.377 OA
ENDROOT
BRANCH   1   2
ATOM      2  C   UNL A   1      32.881  33.190  27.585  1.00  0.00     0.188 C 
BRANCH   2   3
ATOM      3  C   UNL A   1      31.821  32.567  26.646  1.00  0.00     0.188 C 
BRANCH   3   4
ATOM      4  O   UNL A   1      31.492  31.202  26.890  1.00  0.00    -0.376 OA
BRANCH   4   5
ATOM      5  C   UNL A   1      32.579  30.292  26.802  1.00  0.00     0.202 C 
BRANCH   5   6
ATOM      6  C   UNL A   1      32.328  28.834  27.253  1.00  0.00     0.261 C 
BRANCH   6   7
ATOM      7  O   UNL A   1      33.389  27.879  26.969  1.00  0.00    -0.460 OA
BRANCH   7   8
ATOM      8  C   UNL A   1      33.379  27.226  25.764  1.00  0.00     0.340 C 
ATOM      9  O   UNL A   1      33.713  27.715  24.700  1.00  0.00    -0.246 OA
BRANCH   8  10
ATOM     10  C   UNL A   1      32.923  25.807  25.924  1.00  0.00     0.087 A 
ATOM     11  C   UNL A   1      31.575  25.396  25.914  1.00  0.00     0.109 A 
ATOM     12  N   UNL A   1      31.208  24.123  26.270  1.00  0.00    -0.254 NA
ATOM     13  C   UNL A   1      32.172  23.226  26.548  1.00  0.00     0.111 A 
ATOM     14  C   UNL A   1      33.894  24.826  26.187  1.00  0.00     0.019 A 
ATOM     15  C   UNL A   1      33.518  23.520  26.489  1.00  0.00     0.021 A 
BRANCH  11  16
ATOM     16  C   UNL A   1      30.394  26.250  25.483  1.00  0.00     0.320 C 
BRANCH  16  17
ATOM     17  N   UNL A   1      29.915  26.103  24.086  1.00  0.00    -0.323 N 
ATOM     18  C   UNL A   1      27.625  31.459  23.071  1.00  0.00     0.069 C 
ATOM     19  C   UNL A   1      28.174  30.093  22.914  1.00  0.00     0.060 A 
ATOM     20  C   UNL A   1      27.523  28.903  23.281  1.00  0.00     0.054 A 
ATOM     21  N   UNL A   1      29.413  29.842  22.466  1.00  0.00    -0.178 NA
ATOM     22  C   UNL A   1      28.497  27.944  23.326  1.00  0.00     0.093 A 
ATOM     23  N   UNL A   1      29.554  28.516  22.695  1.00  0.00    -0.258 N 
ATOM     24  C   UNL A   1      28.553  26.560  23.843  1.00  0.00     0.319 C 
ATOM     25  C   UNL A   1      30.673  27.748  22.213  1.00  0.00     0.206 C 
ATOM     26  C   UNL A   1      30.874  26.448  23.023  1.00  0.00     0.286 C 
ATOM     27  H   UNL A   1      29.855  25.089  24.003  1.00  0.00     0.348 HD
ENDBRANCH  16  17
ENDBRANCH  11  16
ENDBRANCH   8  10
ENDBRANCH   7   8
ENDBRANCH   6   7
ENDBRANCH   5   6
ENDBRANCH   4   5
ENDBRANCH   3   4
ENDBRANCH   2   3
ENDBRANCH   1   2
BRANCH   1  28
ATOM     28  C   UNL A   1      33.502  35.237  28.710  1.00  0.00     0.188 C 
BRANCH  28  29
ATOM     29  C   UNL A   1      33.340  35.673  30.167  1.00  0.00     0.188 C 
BRANCH  29  30
ATOM     30  O   UNL A   1      33.505  34.595  31.090  1.00  0.00    -0.376 OA
BRANCH  30  31
ATOM     31  C   UNL A   1      34.815  34.036  31.206  1.00  0.00     0.202 C 
BRANCH  31  32
ATOM     32  C   UNL A   1      34.914  32.506  31.172  1.00  0.00     0.261 C 
BRANCH  32  33
ATOM     33  O   UNL A   1      34.938  31.946  29.871  1.00  0.00    -0.460 OA
BRANCH  33  34
ATOM     34  C   UNL A   1      36.085  32.026  29.174  1.00  0.00     0.338 C 
ATOM     35  O   UNL A   1      36.290  32.645  28.142  1.00  0.00    -0.246 OA
BRANCH  34  36
ATOM     36  C   UNL A   1      37.088  31.254  29.918  1.00  0.00     0.060 A 
ATOM     37  C   UNL A   1      38.319  31.852  30.166  1.00  0.00     0.016 A 
ATOM     38  C   UNL A   1      36.848  29.903  30.222  1.00  0.00     0.016 A 
ATOM     39  C   UNL A   1      39.380  31.020  30.439  1.00  0.00     0.010 A 
ATOM     40  C   UNL A   1      37.888  29.085  30.566  1.00  0.00     0.010 A 
ATOM     41  C   UNL A   1      39.154  29.635  30.510  1.00  0.00    -0.014 A 
BRANCH  41  42
ATOM     42  C   UNL A   1      40.294  28.755  30.442  1.00  0.00     0.031 A 
ATOM     43  C   UNL A   1      40.972  28.602  31.735  1.00  0.00     0.074 A 
ATOM     44  C   UNL A   1      40.689  28.184  29.287  1.00  0.00     0.049 A 
ATOM     45  N   UNL A   1      42.079  29.159  32.086  1.00  0.00    -0.248 NA
ATOM     46  C   UNL A   1      40.240  27.945  32.824  1.00  0.00     0.031 C 
ATOM     47  C   UNL A   1      39.987  28.091  28.004  1.00  0.00     0.029 A 
ATOM     48  N   UNL A   1      41.840  27.502  29.051  1.00  0.00    -0.354 N 
ATOM     49  C   UNL A   1      42.296  28.755  33.393  1.00  0.00     0.074 A 
ATOM     50  C   UNL A   1      41.059  28.176  33.851  1.00  0.00     0.031 C 
ATOM     51  C   UNL A   1      40.628  27.207  27.204  1.00  0.00     0.029 A 
ATOM     52  C   UNL A   1      41.858  26.796  27.856  1.00  0.00     0.049 A 
ATOM     53  H   UNL A   1      42.600  27.509  29.677  1.00  0.00     0.167 HD
ATOM     54  C   UNL A   1      43.563  28.693  33.878  1.00  0.00     0.037 A 
ATOM     55  C   UNL A   1      42.807  25.897  27.492  1.00  0.00     0.037 A 
ATOM     56  C   UNL A   1      44.458  29.513  33.096  1.00  0.00     0.049 A 
ATOM     57  C   UNL A   1      44.028  26.207  28.286  1.00  0.00     0.074 A 
ATOM     58  C   UNL A   1      44.502  30.862  32.793  1.00  0.00     0.029 A 
ATOM     59  N   UNL A   1      45.249  28.900  32.154  1.00  0.00    -0.354 N 
ATOM     60  N   UNL A   1      44.737  27.291  28.115  1.00  0.00    -0.248 NA
ATOM     61  C   UNL A   1      44.159  25.579  29.595  1.00  0.00     0.031 C 
ATOM     62  C   UNL A   1      44.901  30.926  31.425  1.00  0.00     0.029 A 
ATOM     63  C   UNL A   1      45.155  29.625  30.991  1.00  0.00     0.049 A 
ATOM     64  H   UNL A   1      45.787  28.085  32.288  1.00  0.00     0.167 HD
ATOM     65  C   UNL A   1      45.046  27.718  29.398  1.00  0.00     0.074 A 
ATOM     66  C   UNL A   1      44.721  26.588  30.267  1.00  0.00     0.031 C 
ATOM     67  C   UNL A   1      45.251  29.040  29.674  1.00  0.00     0.037 A 
BRANCH  54  68
ATOM     68  C   UNL A   1      44.038  27.584  34.778  1.00  0.00     0.064 A 
ATOM     69  C   UNL A   1      43.937  26.255  34.328  1.00  0.00     0.173 A 
ATOM     70  C   UNL A   1      44.298  27.743  36.159  1.00  0.00     0.173 A 
ATOM     71  F   UNL A   1      43.678  25.989  33.039  1.00  0.00    -0.203 F 
ATOM     72  C   UNL A   1      44.002  25.175  35.210  1.00  0.00     0.198 A 
ATOM     73  C   UNL A   1      44.415  26.661  37.025  1.00  0.00     0.198 A 
ATOM     74  F   UNL A   1      44.334  28.940  36.753  1.00  0.00    -0.203 F 
ATOM     75  F   UNL A   1      43.768  23.936  34.758  1.00  0.00    -0.200 F 
ATOM     76  C   UNL A   1      44.232  25.379  36.557  1.00  0.00     0.200 A 
ATOM     77  F   UNL A   1      44.619  26.885  38.330  1.00  0.00    -0.200 F 
ATOM     78  F   UNL A   1      44.227  24.350  37.415  1.00  0.00    -0.200 F 
ENDBRANCH  54  68
BRANCH  55  79
ATOM     79  C   UNL A   1      42.607  24.600  26.801  1.00  0.00     0.064 A 
ATOM     80  C   UNL A   1      43.237  24.327  25.574  1.00  0.00     0.173 A 
ATOM     81  C   UNL A   1      42.028  23.498  27.461  1.00  0.00     0.173 A 
ATOM     82  F   UNL A   1      43.855  25.308  24.900  1.00  0.00    -0.203 F 
ATOM     83  C   UNL A   1      43.306  23.028  25.056  1.00  0.00     0.198 A 
ATOM     84  C   UNL A   1      42.093  22.204  26.942  1.00  0.00     0.198 A 
ATOM     85  F   UNL A   1      41.472  23.636  28.673  1.00  0.00    -0.203 F 
ATOM     86  F   UNL A   1      43.970  22.797  23.914  1.00  0.00    -0.200 F 
ATOM     87  C   UNL A   1      42.744  21.967  25.746  1.00  0.00     0.200 A 
ATOM     88  F   UNL A   1      41.580  21.182  27.640  1.00  0.00    -0.200 F 
ATOM     89  F   UNL A   1      42.865  20.715  25.283  1.00  0.00    -0.200 F 
ENDBRANCH  55  79
BRANCH  67  90
ATOM     90  C   UNL A   1      45.364  29.991  28.512  1.00  0.00     0.064 A 
ATOM     91  C   UNL A   1      44.263  30.590  27.873  1.00  0.00     0.173 A 
ATOM     92  C   UNL A   1      46.641  30.420  28.127  1.00  0.00     0.173 A 
ATOM     93  F   UNL A   1      43.010  30.312  28.252  1.00  0.00    -0.203 F 
ATOM     94  C   UNL A   1      44.439  31.537  26.864  1.00  0.00     0.198 A 
ATOM     95  C   UNL A   1      46.813  31.394  27.148  1.00  0.00     0.198 A 
ATOM     96  F   UNL A   1      47.728  29.928  28.741  1.00  0.00    -0.203 F 
ATOM     97  F   UNL A   1      43.373  32.084  26.261  1.00  0.00    -0.200 F 
ATOM     98  C   UNL A   1      45.714  31.944  26.507  1.00  0.00     0.200 A 
ATOM     99  F   UNL A   1      48.046  31.822  26.843  1.00  0.00    -0.200 F 
ATOM    100  F   UNL A   1      45.884  32.885  25.567  1.00  0.00    -0.200 F 
ENDBRANCH  67  90
ENDBRANCH  41  42
ENDBRANCH  34  36
ENDBRANCH  33  34
ENDBRANCH  32  33
ENDBRANCH  31  32
ENDBRANCH  30  31
ENDBRANCH  29  30
ENDBRANCH  28  29
ENDBRANCH   1  28
TORSDOF 22
ENDMDL
