MODEL 1
REMARK VINA RESULT:     -10.4      0.000      0.000
REMARK SMILES CN(C)S(=O)(=O)c1cccc(-c2cc(Cl)cc(C(=O)OCCOCCOCCOCCOC(=O)c3ccc(-c4c5nc(c(-c6c(F)c(F)c(F)c(F)c6F)c6ccc([nH]6)c(-c6c(F)c(F)c(F)c(F)c6F)c6nc(c(-c7c(F)c(F)c(F)c(F)c7F)c7ccc4[nH]7)C=C6)C=C5)cc3)c2)c1
REMARK SMILES IDX 25 1 24 2 23 3 22 4 21 5 20 6 18 7 19 8 17 9 12 10 13 11
REMARK SMILES IDX 98 12 14 13 15 14 16 15 11 16 7 17 8 18 99 19 9 20 10 21
REMARK SMILES IDX 4 22 5 23 6 24 2 25 1 26 3 27 26 28 27 29 28 30 29 31 30 32
REMARK SMILES IDX 31 33 32 34 33 35 34 36 35 37 36 38 97 39 37 40 96 41 38 42
REMARK SMILES IDX 39 43 40 44 90 45 41 46 95 47 89 48 91 49 42 50 94 51 88 52
REMARK SMILES IDX 87 53 43 55 75 56 55 57 74 58 56 59 59 60 73 61 92 62 57 63
REMARK SMILES IDX 58 64 72 66 93 67 60 68 44 69 45 70 53 71 46 72 47 73 51 74
REMARK SMILES IDX 54 75 48 76 49 77 52 78 50 79 76 80 77 81 85 82 78 83 79 84
REMARK SMILES IDX 83 85 86 86 80 87 81 88 84 89 82 90 61 91 62 92 70 93 63 94
REMARK SMILES IDX 64 95 68 96 71 97 65 98 66 99 69 100 67 101
REMARK H PARENT 91 54 59 65
REMARK Flexibility Score: inf
ROOT
ATOM      1  C   UNL A   1      33.083  22.070  25.665  1.00  0.00     0.188 C 
ENDROOT
BRANCH   1   2
ATOM      2  C   UNL A   1      33.059  22.887  26.969  1.00  0.00     0.188 C 
BRANCH   2   3
ATOM      3  O   UNL A   1      31.747  23.064  27.502  1.00  0.00    -0.376 OA
BRANCH   3   4
ATOM      4  C   UNL A   1      30.709  23.282  26.552  1.00  0.00     0.202 C 
BRANCH   4   5
ATOM      5  C   UNL A   1      30.348  24.755  26.333  1.00  0.00     0.261 C 
BRANCH   5   6
ATOM      6  O   UNL A   1      30.399  25.179  24.964  1.00  0.00    -0.460 OA
BRANCH   6   7
ATOM      7  C   UNL A   1      31.574  25.641  24.485  1.00  0.00     0.338 C 
ATOM      8  O   UNL A   1      32.427  25.012  23.888  1.00  0.00    -0.246 OA
BRANCH   7   9
ATOM      9  C   UNL A   1      31.565  27.113  24.646  1.00  0.00     0.062 A 
ATOM     10  C   UNL A   1      32.461  29.129  25.717  1.00  0.00    -0.016 A 
ATOM     11  C   UNL A   1      31.445  29.863  25.082  1.00  0.00     0.029 A 
ATOM     12  C   UNL A   1      32.473  27.739  25.510  1.00  0.00     0.024 A 
ATOM     13  C   UNL A   1      30.518  29.233  24.244  1.00  0.00     0.042 A 
ATOM     14  Cl  UNL A   1      29.274  30.165  23.504  1.00  0.00    -0.084 Cl
ATOM     15  C   UNL A   1      30.584  27.864  23.999  1.00  0.00     0.036 A 
BRANCH  10  16
ATOM     16  C   UNL A   1      33.539  29.781  26.495  1.00  0.00    -0.017 A 
ATOM     17  C   UNL A   1      34.297  31.748  27.744  1.00  0.00     0.083 A 
ATOM     18  C   UNL A   1      35.428  31.065  28.182  1.00  0.00     0.022 A 
ATOM     19  C   UNL A   1      33.397  31.125  26.880  1.00  0.00     0.030 A 
ATOM     20  C   UNL A   1      35.631  29.750  27.760  1.00  0.00     0.002 A 
ATOM     21  C   UNL A   1      34.693  29.113  26.934  1.00  0.00     0.009 A 
BRANCH  17  22
ATOM     22  S   UNL A   1      34.019  33.449  28.178  1.00  0.00     0.242 S 
ATOM     23  O   UNL A   1      32.586  33.655  28.217  1.00  0.00    -0.207 OA
ATOM     24  O   UNL A   1      34.862  34.260  27.323  1.00  0.00    -0.207 OA
BRANCH  22  25
ATOM     25  N   UNL A   1      34.615  33.611  29.787  1.00  0.00    -0.204 NA
ATOM     26  C   UNL A   1      36.065  33.932  29.802  1.00  0.00     0.124 C 
ATOM     27  C   UNL A   1      33.873  34.536  30.679  1.00  0.00     0.124 C 
ENDBRANCH  22  25
ENDBRANCH  17  22
ENDBRANCH  10  16
ENDBRANCH   7   9
ENDBRANCH   6   7
ENDBRANCH   5   6
ENDBRANCH   4   5
ENDBRANCH   3   4
ENDBRANCH   2   3
ENDBRANCH   1   2
BRANCH   1  28
ATOM     28  O   UNL A   1      34.356  21.973  25.052  1.00  0.00    -0.377 OA
BRANCH  28  29
ATOM     29  C   UNL A   1      35.494  21.735  25.878  1.00  0.00     0.188 C 
BRANCH  29  30
ATOM     30  C   UNL A   1      36.801  22.547  25.743  1.00  0.00     0.188 C 
BRANCH  30  31
ATOM     31  O   UNL A   1      37.961  21.770  25.460  1.00  0.00    -0.376 OA
BRANCH  31  32
ATOM     32  C   UNL A   1      37.745  20.437  25.015  1.00  0.00     0.202 C 
BRANCH  32  33
ATOM     33  C   UNL A   1      38.869  19.475  25.419  1.00  0.00     0.261 C 
BRANCH  33  34
ATOM     34  O   UNL A   1      39.714  19.970  26.468  1.00  0.00    -0.460 OA
BRANCH  34  35
ATOM     35  C   UNL A   1      41.043  19.797  26.299  1.00  0.00     0.338 C 
ATOM     36  O   UNL A   1      41.615  18.806  25.886  1.00  0.00    -0.246 OA
BRANCH  35  37
ATOM     37  C   UNL A   1      41.703  21.094  26.527  1.00  0.00     0.060 A 
ATOM     38  C   UNL A   1      42.018  21.458  27.840  1.00  0.00     0.016 A 
ATOM     39  C   UNL A   1      41.991  21.949  25.459  1.00  0.00     0.016 A 
ATOM     40  C   UNL A   1      42.579  22.707  28.096  1.00  0.00     0.010 A 
ATOM     41  C   UNL A   1      42.542  23.205  25.716  1.00  0.00     0.010 A 
ATOM     42  C   UNL A   1      42.800  23.603  27.039  1.00  0.00    -0.014 A 
BRANCH  42  43
ATOM     43  C   UNL A   1      43.123  25.014  27.348  1.00  0.00     0.031 A 
ATOM     44  C   UNL A   1      44.380  25.604  26.774  1.00  0.00     0.074 A 
ATOM     45  C   UNL A   1      42.296  25.768  28.089  1.00  0.00     0.049 A 
ATOM     46  N   UNL A   1      44.838  26.827  26.855  1.00  0.00    -0.248 NA
ATOM     47  C   UNL A   1      45.237  24.688  26.004  1.00  0.00     0.031 C 
ATOM     48  C   UNL A   1      41.051  25.308  28.698  1.00  0.00     0.029 A 
ATOM     49  N   UNL A   1      42.389  27.086  28.457  1.00  0.00    -0.354 N 
ATOM     50  C   UNL A   1      46.023  26.831  26.133  1.00  0.00     0.074 A 
ATOM     51  C   UNL A   1      46.241  25.480  25.663  1.00  0.00     0.031 C 
ATOM     52  C   UNL A   1      40.497  26.329  29.375  1.00  0.00     0.029 A 
ATOM     53  C   UNL A   1      41.354  27.507  29.252  1.00  0.00     0.049 A 
ATOM     54  H   UNL A   1      43.127  27.673  28.176  1.00  0.00     0.167 HD
ATOM     55  C   UNL A   1      46.848  27.872  25.868  1.00  0.00     0.037 A 
ATOM     56  C   UNL A   1      41.132  28.709  29.818  1.00  0.00     0.037 A 
ATOM     57  C   UNL A   1      46.648  29.209  26.359  1.00  0.00     0.049 A 
ATOM     58  C   UNL A   1      42.087  29.843  29.549  1.00  0.00     0.074 A 
ATOM     59  C   UNL A   1      47.425  30.334  26.149  1.00  0.00     0.029 A 
ATOM     60  N   UNL A   1      45.595  29.598  27.174  1.00  0.00    -0.354 N 
ATOM     61  N   UNL A   1      43.179  29.853  28.824  1.00  0.00    -0.248 NA
ATOM     62  C   UNL A   1      41.765  31.137  30.164  1.00  0.00     0.031 C 
ATOM     63  C   UNL A   1      46.866  31.394  26.873  1.00  0.00     0.029 A 
ATOM     64  C   UNL A   1      45.712  30.941  27.494  1.00  0.00     0.049 A 
ATOM     65  H   UNL A   1      44.871  29.005  27.482  1.00  0.00     0.167 HD
ATOM     66  C   UNL A   1      43.666  31.153  28.881  1.00  0.00     0.074 A 
ATOM     67  C   UNL A   1      42.734  31.909  29.692  1.00  0.00     0.031 C 
ATOM     68  C   UNL A   1      44.782  31.676  28.313  1.00  0.00     0.037 A 
BRANCH  55  69
ATOM     69  C   UNL A   1      48.051  27.586  25.020  1.00  0.00     0.064 A 
ATOM     70  C   UNL A   1      49.265  27.169  25.588  1.00  0.00     0.173 A 
ATOM     71  C   UNL A   1      47.996  27.735  23.627  1.00  0.00     0.173 A 
ATOM     72  F   UNL A   1      49.376  27.031  26.918  1.00  0.00    -0.203 F 
ATOM     73  C   UNL A   1      50.388  26.942  24.796  1.00  0.00     0.198 A 
ATOM     74  C   UNL A   1      49.112  27.480  22.835  1.00  0.00     0.198 A 
ATOM     75  F   UNL A   1      46.860  28.132  23.034  1.00  0.00    -0.203 F 
ATOM     76  F   UNL A   1      51.551  26.599  25.365  1.00  0.00    -0.200 F 
ATOM     77  C   UNL A   1      50.308  27.093  23.419  1.00  0.00     0.200 A 
ATOM     78  F   UNL A   1      49.033  27.618  21.504  1.00  0.00    -0.200 F 
ATOM     79  F   UNL A   1      51.390  26.877  22.658  1.00  0.00    -0.200 F 
ENDBRANCH  55  69
BRANCH  56  80
ATOM     80  C   UNL A   1      39.947  28.901  30.691  1.00  0.00     0.064 A 
ATOM     81  C   UNL A   1      38.648  28.907  30.162  1.00  0.00     0.173 A 
ATOM     82  C   UNL A   1      40.090  29.088  32.073  1.00  0.00     0.173 A 
ATOM     83  F   UNL A   1      38.463  28.758  28.841  1.00  0.00    -0.203 F 
ATOM     84  C   UNL A   1      37.540  29.106  30.981  1.00  0.00     0.198 A 
ATOM     85  C   UNL A   1      38.980  29.261  32.896  1.00  0.00     0.198 A 
ATOM     86  F   UNL A   1      41.313  29.094  32.626  1.00  0.00    -0.203 F 
ATOM     87  F   UNL A   1      36.312  29.147  30.445  1.00  0.00    -0.200 F 
ATOM     88  C   UNL A   1      37.706  29.276  32.348  1.00  0.00     0.200 A 
ATOM     89  F   UNL A   1      39.142  29.418  34.215  1.00  0.00    -0.200 F 
ATOM     90  F   UNL A   1      36.638  29.462  33.136  1.00  0.00    -0.200 F 
ENDBRANCH  56  80
BRANCH  68  91
ATOM     91  C   UNL A   1      45.045  33.137  28.540  1.00  0.00     0.064 A 
ATOM     92  C   UNL A   1      44.543  34.118  27.672  1.00  0.00     0.173 A 
ATOM     93  C   UNL A   1      45.795  33.561  29.647  1.00  0.00     0.173 A 
ATOM     94  F   UNL A   1      43.831  33.764  26.591  1.00  0.00    -0.203 F 
ATOM     95  C   UNL A   1      44.811  35.468  27.885  1.00  0.00     0.198 A 
ATOM     96  C   UNL A   1      46.036  34.914  29.873  1.00  0.00     0.198 A 
ATOM     97  F   UNL A   1      46.292  32.665  30.513  1.00  0.00    -0.203 F 
ATOM     98  F   UNL A   1      44.368  36.383  27.012  1.00  0.00    -0.200 F 
ATOM     99  C   UNL A   1      45.553  35.865  28.988  1.00  0.00     0.200 A 
ATOM    100  F   UNL A   1      46.742  35.297  30.946  1.00  0.00    -0.200 F 
ATOM    101  F   UNL A   1      45.811  37.164  29.190  1.00  0.00    -0.200 F 
ENDBRANCH  68  91
ENDBRANCH  42  43
ENDBRANCH  35  37
ENDBRANCH  34  35
ENDBRANCH  33  34
ENDBRANCH  32  33
ENDBRANCH  31  32
ENDBRANCH  30  31
ENDBRANCH  29  30
ENDBRANCH  28  29
ENDBRANCH   1  28
TORSDOF 23
ENDMDL
MODEL 2
REMARK VINA RESULT:     -10.2      4.869     10.168
REMARK SMILES CN(C)S(=O)(=O)c1cccc(-c2cc(Cl)cc(C(=O)OCCOCCOCCOCCOC(=O)c3ccc(-c4c5nc(c(-c6c(F)c(F)c(F)c(F)c6F)c6ccc([nH]6)c(-c6c(F)c(F)c(F)c(F)c6F)c6nc(c(-c7c(F)c(F)c(F)c(F)c7F)c7ccc4[nH]7)C=C6)C=C5)cc3)c2)c1
REMARK SMILES IDX 25 1 24 2 23 3 22 4 21 5 20 6 18 7 19 8 17 9 12 10 13 11
REMARK SMILES IDX 98 12 14 13 15 14 16 15 11 16 7 17 8 18 99 19 9 20 10 21
REMARK SMILES IDX 4 22 5 23 6 24 2 25 1 26 3 27 26 28 27 29 28 30 29 31 30 32
REMARK SMILES IDX 31 33 32 34 33 35 34 36 35 37 36 38 97 39 37 40 96 41 38 42
REMARK SMILES IDX 39 43 40 44 90 45 41 46 95 47 89 48 91 49 42 50 94 51 88 52
REMARK SMILES IDX 87 53 43 55 75 56 55 57 74 58 56 59 59 60 73 61 92 62 57 63
REMARK SMILES IDX 58 64 72 66 93 67 60 68 44 69 45 70 53 71 46 72 47 73 51 74
REMARK SMILES IDX 54 75 48 76 49 77 52 78 50 79 76 80 77 81 85 82 78 83 79 84
REMARK SMILES IDX 83 85 86 86 80 87 81 88 84 89 82 90 61 91 62 92 70 93 63 94
REMARK SMILES IDX 64 95 68 96 71 97 65 98 66 99 69 100 67 101
REMARK H PARENT 91 54 59 65
REMARK Flexibility Score: inf
ROOT
ATOM      1  C   UNL A   1      32.903  35.679  29.198  1.00  0.00     0.188 C 
ENDROOT
BRANCH   1   2
ATOM      2  C   UNL A   1      34.247  35.113  28.708  1.00  0.00     0.188 C 
BRANCH   2   3
ATOM      3  O   UNL A   1      34.900  34.289  29.673  1.00  0.00    -0.376 OA
BRANCH   3   4
ATOM      4  C   UNL A   1      34.563  32.907  29.647  1.00  0.00     0.202 C 
BRANCH   4   5
ATOM      5  C   UNL A   1      35.642  31.980  30.216  1.00  0.00     0.261 C 
BRANCH   5   6
ATOM      6  O   UNL A   1      36.641  31.583  29.266  1.00  0.00    -0.460 OA
BRANCH   6   7
ATOM      7  C   UNL A   1      36.436  30.447  28.566  1.00  0.00     0.338 C 
ATOM      8  O   UNL A   1      35.615  30.259  27.688  1.00  0.00    -0.246 OA
BRANCH   7   9
ATOM      9  C   UNL A   1      37.526  29.509  28.921  1.00  0.00     0.062 A 
ATOM     10  C   UNL A   1      39.488  28.197  28.253  1.00  0.00    -0.016 A 
ATOM     11  C   UNL A   1      39.479  27.618  29.532  1.00  0.00     0.029 A 
ATOM     12  C   UNL A   1      38.467  29.119  27.959  1.00  0.00     0.024 A 
ATOM     13  C   UNL A   1      38.518  27.985  30.483  1.00  0.00     0.042 A 
ATOM     14  Cl  UNL A   1      38.528  27.233  32.031  1.00  0.00    -0.084 Cl
ATOM     15  C   UNL A   1      37.555  28.947  30.195  1.00  0.00     0.036 A 
BRANCH  10  16
ATOM     16  C   UNL A   1      40.568  27.938  27.274  1.00  0.00    -0.017 A 
ATOM     17  C   UNL A   1      42.043  26.304  26.198  1.00  0.00     0.083 A 
ATOM     18  C   UNL A   1      42.478  27.260  25.286  1.00  0.00     0.022 A 
ATOM     19  C   UNL A   1      41.139  26.656  27.200  1.00  0.00     0.030 A 
ATOM     20  C   UNL A   1      41.981  28.561  25.379  1.00  0.00     0.002 A 
ATOM     21  C   UNL A   1      41.030  28.893  26.355  1.00  0.00     0.009 A 
BRANCH  17  22
ATOM     22  S   UNL A   1      42.697  24.651  26.187  1.00  0.00     0.242 S 
ATOM     23  O   UNL A   1      43.516  24.520  24.999  1.00  0.00    -0.207 OA
ATOM     24  O   UNL A   1      41.594  23.745  26.431  1.00  0.00    -0.207 OA
BRANCH  22  25
ATOM     25  N   UNL A   1      43.743  24.566  27.554  1.00  0.00    -0.204 NA
ATOM     26  C   UNL A   1      44.616  23.365  27.499  1.00  0.00     0.124 C 
ATOM     27  C   UNL A   1      44.549  25.776  27.849  1.00  0.00     0.124 C 
ENDBRANCH  22  25
ENDBRANCH  17  22
ENDBRANCH  10  16
ENDBRANCH   7   9
ENDBRANCH   6   7
ENDBRANCH   5   6
ENDBRANCH   4   5
ENDBRANCH   3   4
ENDBRANCH   2   3
ENDBRANCH   1   2
BRANCH   1  28
ATOM     28  O   UNL A   1      32.727  35.653  30.602  1.00  0.00    -0.377 OA
BRANCH  28  29
ATOM     29  C   UNL A   1      33.064  36.817  31.354  1.00  0.00     0.188 C 
BRANCH  29  30
ATOM     30  C   UNL A   1      34.073  36.787  32.522  1.00  0.00     0.188 C 
BRANCH  30  31
ATOM     31  O   UNL A   1      33.987  35.635  33.357  1.00  0.00    -0.376 OA
BRANCH  31  32
ATOM     32  C   UNL A   1      34.849  34.550  33.041  1.00  0.00     0.202 C 
BRANCH  32  33
ATOM     33  C   UNL A   1      36.001  34.383  34.039  1.00  0.00     0.261 C 
BRANCH  33  34
ATOM     34  O   UNL A   1      36.740  33.162  33.881  1.00  0.00    -0.460 OA
BRANCH  34  35
ATOM     35  C   UNL A   1      37.379  32.702  34.979  1.00  0.00     0.338 C 
ATOM     36  O   UNL A   1      37.030  32.811  36.139  1.00  0.00    -0.246 OA
BRANCH  35  37
ATOM     37  C   UNL A   1      38.507  31.866  34.532  1.00  0.00     0.060 A 
ATOM     38  C   UNL A   1      39.757  32.064  35.126  1.00  0.00     0.016 A 
ATOM     39  C   UNL A   1      38.336  30.911  33.525  1.00  0.00     0.016 A 
ATOM     40  C   UNL A   1      40.858  31.338  34.677  1.00  0.00     0.010 A 
ATOM     41  C   UNL A   1      39.441  30.193  33.067  1.00  0.00     0.010 A 
ATOM     42  C   UNL A   1      40.713  30.434  33.615  1.00  0.00    -0.014 A 
BRANCH  42  43
ATOM     43  C   UNL A   1      41.924  29.889  32.963  1.00  0.00     0.031 A 
ATOM     44  C   UNL A   1      42.488  30.613  31.774  1.00  0.00     0.074 A 
ATOM     45  C   UNL A   1      42.536  28.794  33.443  1.00  0.00     0.049 A 
ATOM     46  N   UNL A   1      43.568  30.362  31.080  1.00  0.00    -0.248 NA
ATOM     47  C   UNL A   1      41.727  31.782  31.304  1.00  0.00     0.031 C 
ATOM     48  C   UNL A   1      42.085  28.007  34.588  1.00  0.00     0.029 A 
ATOM     49  N   UNL A   1      43.672  28.154  33.016  1.00  0.00    -0.354 N 
ATOM     50  C   UNL A   1      43.626  31.349  30.107  1.00  0.00     0.074 A 
ATOM     51  C   UNL A   1      42.448  32.174  30.265  1.00  0.00     0.031 C 
ATOM     52  C   UNL A   1      42.933  26.980  34.769  1.00  0.00     0.029 A 
ATOM     53  C   UNL A   1      43.978  27.035  33.747  1.00  0.00     0.049 A 
ATOM     54  H   UNL A   1      44.215  28.470  32.258  1.00  0.00     0.167 HD
ATOM     55  C   UNL A   1      44.585  31.561  29.174  1.00  0.00     0.037 A 
ATOM     56  C   UNL A   1      44.988  26.155  33.600  1.00  0.00     0.037 A 
ATOM     57  C   UNL A   1      45.741  30.725  28.996  1.00  0.00     0.049 A 
ATOM     58  C   UNL A   1      46.019  26.384  32.526  1.00  0.00     0.074 A 
ATOM     59  C   UNL A   1      46.770  30.854  28.081  1.00  0.00     0.029 A 
ATOM     60  N   UNL A   1      46.013  29.590  29.747  1.00  0.00    -0.354 N 
ATOM     61  N   UNL A   1      46.095  27.348  31.641  1.00  0.00    -0.248 NA
ATOM     62  C   UNL A   1      47.115  25.410  32.446  1.00  0.00     0.031 C 
ATOM     63  C   UNL A   1      47.643  29.771  28.249  1.00  0.00     0.029 A 
ATOM     64  C   UNL A   1      47.183  28.996  29.303  1.00  0.00     0.049 A 
ATOM     65  H   UNL A   1      45.455  29.255  30.486  1.00  0.00     0.167 HD
ATOM     66  C   UNL A   1      47.252  27.108  30.910  1.00  0.00     0.074 A 
ATOM     67  C   UNL A   1      47.859  25.919  31.474  1.00  0.00     0.031 C 
ATOM     68  C   UNL A   1      47.767  27.806  29.867  1.00  0.00     0.037 A 
BRANCH  55  69
ATOM     69  C   UNL A   1      44.401  32.742  28.267  1.00  0.00     0.064 A 
ATOM     70  C   UNL A   1      44.638  34.052  28.713  1.00  0.00     0.173 A 
ATOM     71  C   UNL A   1      43.979  32.566  26.942  1.00  0.00     0.173 A 
ATOM     72  F   UNL A   1      45.024  34.275  29.979  1.00  0.00    -0.203 F 
ATOM     73  C   UNL A   1      44.429  35.144  27.875  1.00  0.00     0.198 A 
ATOM     74  C   UNL A   1      43.797  33.659  26.098  1.00  0.00     0.198 A 
ATOM     75  F   UNL A   1      43.737  31.335  26.467  1.00  0.00    -0.203 F 
ATOM     76  F   UNL A   1      44.607  36.388  28.339  1.00  0.00    -0.200 F 
ATOM     77  C   UNL A   1      44.013  34.946  26.566  1.00  0.00     0.200 A 
ATOM     78  F   UNL A   1      43.403  33.466  24.831  1.00  0.00    -0.200 F 
ATOM     79  F   UNL A   1      43.809  35.997  25.762  1.00  0.00    -0.200 F 
ENDBRANCH  55  69
BRANCH  56  80
ATOM     80  C   UNL A   1      45.073  24.980  34.503  1.00  0.00     0.064 A 
ATOM     81  C   UNL A   1      44.592  23.724  34.108  1.00  0.00     0.173 A 
ATOM     82  C   UNL A   1      45.636  25.093  35.782  1.00  0.00     0.173 A 
ATOM     83  F   UNL A   1      44.022  23.574  32.903  1.00  0.00    -0.203 F 
ATOM     84  C   UNL A   1      44.657  22.628  34.965  1.00  0.00     0.198 A 
ATOM     85  C   UNL A   1      45.725  23.990  36.629  1.00  0.00     0.198 A 
ATOM     86  F   UNL A   1      46.107  26.275  36.206  1.00  0.00    -0.203 F 
ATOM     87  F   UNL A   1      44.154  21.448  34.580  1.00  0.00    -0.200 F 
ATOM     88  C   UNL A   1      45.230  22.760  36.223  1.00  0.00     0.200 A 
ATOM     89  F   UNL A   1      46.284  24.120  37.839  1.00  0.00    -0.200 F 
ATOM     90  F   UNL A   1      45.297  21.704  37.044  1.00  0.00    -0.200 F 
ENDBRANCH  56  80
BRANCH  68  91
ATOM     91  C   UNL A   1      49.058  27.309  29.281  1.00  0.00     0.064 A 
ATOM     92  C   UNL A   1      50.299  27.802  29.710  1.00  0.00     0.173 A 
ATOM     93  C   UNL A   1      49.053  26.316  28.290  1.00  0.00     0.173 A 
ATOM     94  F   UNL A   1      50.358  28.761  30.646  1.00  0.00    -0.203 F 
ATOM     95  C   UNL A   1      51.486  27.344  29.144  1.00  0.00     0.198 A 
ATOM     96  C   UNL A   1      50.244  25.839  27.748  1.00  0.00     0.198 A 
ATOM     97  F   UNL A   1      47.894  25.804  27.850  1.00  0.00    -0.203 F 
ATOM     98  F   UNL A   1      52.657  27.870  29.530  1.00  0.00    -0.200 F 
ATOM     99  C   UNL A   1      51.458  26.360  28.167  1.00  0.00     0.200 A 
ATOM    100  F   UNL A   1      50.215  24.879  26.813  1.00  0.00    -0.200 F 
ATOM    101  F   UNL A   1      52.601  25.922  27.622  1.00  0.00    -0.200 F 
ENDBRANCH  68  91
ENDBRANCH  42  43
ENDBRANCH  35  37
ENDBRANCH  34  35
ENDBRANCH  33  34
ENDBRANCH  32  33
ENDBRANCH  31  32
ENDBRANCH  30  31
ENDBRANCH  29  30
ENDBRANCH  28  29
ENDBRANCH   1  28
TORSDOF 23
ENDMDL
MODEL 3
REMARK VINA RESULT:     -10.1      5.931     11.371
REMARK SMILES CN(C)S(=O)(=O)c1cccc(-c2cc(Cl)cc(C(=O)OCCOCCOCCOCCOC(=O)c3ccc(-c4c5nc(c(-c6c(F)c(F)c(F)c(F)c6F)c6ccc([nH]6)c(-c6c(F)c(F)c(F)c(F)c6F)c6nc(c(-c7c(F)c(F)c(F)c(F)c7F)c7ccc4[nH]7)C=C6)C=C5)cc3)c2)c1
REMARK SMILES IDX 25 1 24 2 23 3 22 4 21 5 20 6 18 7 19 8 17 9 12 10 13 11
REMARK SMILES IDX 98 12 14 13 15 14 16 15 11 16 7 17 8 18 99 19 9 20 10 21
REMARK SMILES IDX 4 22 5 23 6 24 2 25 1 26 3 27 26 28 27 29 28 30 29 31 30 32
REMARK SMILES IDX 31 33 32 34 33 35 34 36 35 37 36 38 97 39 37 40 96 41 38 42
REMARK SMILES IDX 39 43 40 44 90 45 41 46 95 47 89 48 91 49 42 50 94 51 88 52
REMARK SMILES IDX 87 53 43 55 75 56 55 57 74 58 56 59 59 60 73 61 92 62 57 63
REMARK SMILES IDX 58 64 72 66 93 67 60 68 44 69 45 70 53 71 46 72 47 73 51 74
REMARK SMILES IDX 54 75 48 76 49 77 52 78 50 79 76 80 77 81 85 82 78 83 79 84
REMARK SMILES IDX 83 85 86 86 80 87 81 88 84 89 82 90 61 91 62 92 70 93 63 94
REMARK SMILES IDX 64 95 68 96 71 97 65 98 66 99 69 100 67 101
REMARK H PARENT 91 54 59 65
REMARK Flexibility Score: inf
ROOT
ATOM      1  C   UNL A   1      32.898  36.434  30.615  1.00  0.00     0.188 C 
ENDROOT
BRANCH   1   2
ATOM      2  C   UNL A   1      33.011  36.114  29.115  1.00  0.00     0.188 C 
BRANCH   2   3
ATOM      3  O   UNL A   1      32.655  34.770  28.794  1.00  0.00    -0.376 OA
BRANCH   3   4
ATOM      4  C   UNL A   1      33.672  33.981  28.186  1.00  0.00     0.202 C 
BRANCH   4   5
ATOM      5  C   UNL A   1      34.365  32.998  29.133  1.00  0.00     0.261 C 
BRANCH   5   6
ATOM      6  O   UNL A   1      35.665  32.574  28.699  1.00  0.00    -0.460 OA
BRANCH   6   7
ATOM      7  C   UNL A   1      35.785  31.341  28.164  1.00  0.00     0.338 C 
ATOM      8  O   UNL A   1      35.056  30.818  27.343  1.00  0.00    -0.246 OA
BRANCH   7   9
ATOM      9  C   UNL A   1      37.086  30.793  28.612  1.00  0.00     0.062 A 
ATOM     10  C   UNL A   1      39.286  31.140  29.640  1.00  0.00    -0.016 A 
ATOM     11  C   UNL A   1      39.600  29.812  29.307  1.00  0.00     0.029 A 
ATOM     12  C   UNL A   1      38.026  31.619  29.242  1.00  0.00     0.024 A 
ATOM     13  C   UNL A   1      38.672  28.995  28.649  1.00  0.00     0.042 A 
ATOM     14  Cl  UNL A   1      39.106  27.381  28.238  1.00  0.00    -0.084 Cl
ATOM     15  C   UNL A   1      37.405  29.468  28.320  1.00  0.00     0.036 A 
BRANCH  10  16
ATOM     16  C   UNL A   1      40.187  31.985  30.456  1.00  0.00    -0.017 A 
ATOM     17  C   UNL A   1      42.471  32.460  31.206  1.00  0.00     0.083 A 
ATOM     18  C   UNL A   1      42.055  33.648  31.800  1.00  0.00     0.022 A 
ATOM     19  C   UNL A   1      41.539  31.627  30.587  1.00  0.00     0.030 A 
ATOM     20  C   UNL A   1      40.704  33.996  31.747  1.00  0.00     0.002 A 
ATOM     21  C   UNL A   1      39.783  33.178  31.074  1.00  0.00     0.009 A 
BRANCH  17  22
ATOM     22  S   UNL A   1      44.160  31.917  31.308  1.00  0.00     0.242 S 
ATOM     23  O   UNL A   1      44.987  33.102  31.421  1.00  0.00    -0.207 OA
ATOM     24  O   UNL A   1      44.376  30.962  30.241  1.00  0.00    -0.207 OA
BRANCH  22  25
ATOM     25  N   UNL A   1      44.273  31.058  32.797  1.00  0.00    -0.204 NA
ATOM     26  C   UNL A   1      45.607  30.425  32.962  1.00  0.00     0.124 C 
ATOM     27  C   UNL A   1      43.903  31.805  34.024  1.00  0.00     0.124 C 
ENDBRANCH  22  25
ENDBRANCH  17  22
ENDBRANCH  10  16
ENDBRANCH   7   9
ENDBRANCH   6   7
ENDBRANCH   5   6
ENDBRANCH   4   5
ENDBRANCH   3   4
ENDBRANCH   2   3
ENDBRANCH   1   2
BRANCH   1  28
ATOM     28  O   UNL A   1      32.509  35.340  31.425  1.00  0.00    -0.377 OA
BRANCH  28  29
ATOM     29  C   UNL A   1      33.356  34.958  32.507  1.00  0.00     0.188 C 
BRANCH  29  30
ATOM     30  C   UNL A   1      34.722  35.630  32.768  1.00  0.00     0.188 C 
BRANCH  30  31
ATOM     31  O   UNL A   1      35.852  34.785  32.567  1.00  0.00    -0.376 OA
BRANCH  31  32
ATOM     32  C   UNL A   1      35.945  33.633  33.394  1.00  0.00     0.202 C 
BRANCH  32  33
ATOM     33  C   UNL A   1      36.028  32.323  32.601  1.00  0.00     0.261 C 
BRANCH  33  34
ATOM     34  O   UNL A   1      36.974  31.380  33.127  1.00  0.00    -0.460 OA
BRANCH  34  35
ATOM     35  C   UNL A   1      37.037  30.184  32.502  1.00  0.00     0.338 C 
ATOM     36  O   UNL A   1      36.238  29.718  31.711  1.00  0.00    -0.246 OA
BRANCH  35  37
ATOM     37  C   UNL A   1      38.351  29.586  32.794  1.00  0.00     0.060 A 
ATOM     38  C   UNL A   1      39.339  30.399  33.360  1.00  0.00     0.016 A 
ATOM     39  C   UNL A   1      38.610  28.245  32.498  1.00  0.00     0.016 A 
ATOM     40  C   UNL A   1      40.613  29.882  33.584  1.00  0.00     0.010 A 
ATOM     41  C   UNL A   1      39.890  27.731  32.711  1.00  0.00     0.010 A 
ATOM     42  C   UNL A   1      40.905  28.560  33.217  1.00  0.00    -0.014 A 
BRANCH  42  43
ATOM     43  C   UNL A   1      42.317  28.116  33.193  1.00  0.00     0.031 A 
ATOM     44  C   UNL A   1      43.038  27.947  34.500  1.00  0.00     0.074 A 
ATOM     45  C   UNL A   1      42.933  27.828  32.036  1.00  0.00     0.049 A 
ATOM     46  N   UNL A   1      44.250  27.513  34.733  1.00  0.00    -0.248 NA
ATOM     47  C   UNL A   1      42.288  28.320  35.710  1.00  0.00     0.031 C 
ATOM     48  C   UNL A   1      42.338  27.952  30.708  1.00  0.00     0.029 A 
ATOM     49  N   UNL A   1      44.205  27.373  31.798  1.00  0.00    -0.354 N 
ATOM     50  C   UNL A   1      44.401  27.542  36.112  1.00  0.00     0.074 A 
ATOM     51  C   UNL A   1      43.177  28.084  36.663  1.00  0.00     0.031 C 
ATOM     52  C   UNL A   1      43.250  27.591  29.789  1.00  0.00     0.029 A 
ATOM     53  C   UNL A   1      44.492  27.219  30.466  1.00  0.00     0.049 A 
ATOM     54  H   UNL A   1      44.850  27.176  32.516  1.00  0.00     0.167 HD
ATOM     55  C   UNL A   1      45.458  27.137  36.856  1.00  0.00     0.037 A 
ATOM     56  C   UNL A   1      45.633  26.827  29.867  1.00  0.00     0.037 A 
ATOM     57  C   UNL A   1      46.686  26.626  36.309  1.00  0.00     0.049 A 
ATOM     58  C   UNL A   1      46.813  26.424  30.712  1.00  0.00     0.074 A 
ATOM     59  C   UNL A   1      47.815  26.190  36.976  1.00  0.00     0.029 A 
ATOM     60  N   UNL A   1      46.947  26.496  34.952  1.00  0.00    -0.354 N 
ATOM     61  N   UNL A   1      46.932  26.407  32.017  1.00  0.00    -0.248 NA
ATOM     62  C   UNL A   1      48.012  25.968  29.996  1.00  0.00     0.031 C 
ATOM     63  C   UNL A   1      48.778  25.836  36.022  1.00  0.00     0.029 A 
ATOM     64  C   UNL A   1      48.228  26.005  34.760  1.00  0.00     0.049 A 
ATOM     65  H   UNL A   1      46.315  26.721  34.231  1.00  0.00     0.167 HD
ATOM     66  C   UNL A   1      48.208  25.925  32.280  1.00  0.00     0.074 A 
ATOM     67  C   UNL A   1      48.815  25.638  30.998  1.00  0.00     0.031 C 
ATOM     68  C   UNL A   1      48.822  25.736  33.476  1.00  0.00     0.037 A 
BRANCH  55  69
ATOM     69  C   UNL A   1      45.324  27.253  38.345  1.00  0.00     0.064 A 
ATOM     70  C   UNL A   1      45.727  28.411  39.029  1.00  0.00     0.173 A 
ATOM     71  C   UNL A   1      44.793  26.197  39.100  1.00  0.00     0.173 A 
ATOM     72  F   UNL A   1      46.261  29.442  38.355  1.00  0.00    -0.203 F 
ATOM     73  C   UNL A   1      45.634  28.495  40.415  1.00  0.00     0.198 A 
ATOM     74  C   UNL A   1      44.674  26.296  40.484  1.00  0.00     0.198 A 
ATOM     75  F   UNL A   1      44.393  25.069  38.496  1.00  0.00    -0.203 F 
ATOM     76  F   UNL A   1      46.078  29.588  41.051  1.00  0.00    -0.200 F 
ATOM     77  C   UNL A   1      45.103  27.439  41.141  1.00  0.00     0.200 A 
ATOM     78  F   UNL A   1      44.154  25.279  41.184  1.00  0.00    -0.200 F 
ATOM     79  F   UNL A   1      45.016  27.520  42.476  1.00  0.00    -0.200 F 
ENDBRANCH  55  69
BRANCH  56  80
ATOM     80  C   UNL A   1      45.707  26.789  28.385  1.00  0.00     0.064 A 
ATOM     81  C   UNL A   1      45.487  25.599  27.676  1.00  0.00     0.173 A 
ATOM     82  C   UNL A   1      46.004  27.944  27.647  1.00  0.00     0.173 A 
ATOM     83  F   UNL A   1      45.227  24.463  28.341  1.00  0.00    -0.203 F 
ATOM     84  C   UNL A   1      45.577  25.563  26.287  1.00  0.00     0.198 A 
ATOM     85  C   UNL A   1      46.067  27.913  26.256  1.00  0.00     0.198 A 
ATOM     86  F   UNL A   1      46.225  29.106  28.280  1.00  0.00    -0.203 F 
ATOM     87  F   UNL A   1      45.402  24.405  25.636  1.00  0.00    -0.200 F 
ATOM     88  C   UNL A   1      45.859  26.722  25.577  1.00  0.00     0.200 A 
ATOM     89  F   UNL A   1      46.333  29.034  25.573  1.00  0.00    -0.200 F 
ATOM     90  F   UNL A   1      45.939  26.687  24.240  1.00  0.00    -0.200 F 
ENDBRANCH  56  80
BRANCH  68  91
ATOM     91  C   UNL A   1      50.217  25.180  33.447  1.00  0.00     0.064 A 
ATOM     92  C   UNL A   1      51.341  26.015  33.353  1.00  0.00     0.173 A 
ATOM     93  C   UNL A   1      50.433  23.796  33.531  1.00  0.00     0.173 A 
ATOM     94  F   UNL A   1      51.187  27.345  33.258  1.00  0.00    -0.203 F 
ATOM     95  C   UNL A   1      52.627  25.483  33.309  1.00  0.00     0.198 A 
ATOM     96  C   UNL A   1      51.723  23.270  33.517  1.00  0.00     0.198 A 
ATOM     97  F   UNL A   1      49.395  22.953  33.630  1.00  0.00    -0.203 F 
ATOM     98  F   UNL A   1      53.682  26.297  33.163  1.00  0.00    -0.200 F 
ATOM     99  C   UNL A   1      52.817  24.112  33.395  1.00  0.00     0.200 A 
ATOM    100  F   UNL A   1      51.906  21.946  33.613  1.00  0.00    -0.200 F 
ATOM    101  F   UNL A   1      54.056  23.602  33.351  1.00  0.00    -0.200 F 
ENDBRANCH  68  91
ENDBRANCH  42  43
ENDBRANCH  35  37
ENDBRANCH  34  35
ENDBRANCH  33  34
ENDBRANCH  32  33
ENDBRANCH  31  32
ENDBRANCH  30  31
ENDBRANCH  29  30
ENDBRANCH  28  29
ENDBRANCH   1  28
TORSDOF 23
ENDMDL
