MODEL 1
REMARK VINA RESULT:     -10.1      0.000      0.000
REMARK SMILES CC(C)C[C@H](NC(=O)Cc1ccccc1)C(=O)OCCOCCOCCOCCOC(=O)c1ccc(-c2c3nc(c(-c4c(F)c(F)c(F)c(F)c4F)c4ccc([nH]4)c(-c4c(F)c(F)c(F)c(F)c4F)c4nc(c(-c5c(F)c(F)c(F)c(F)c5F)c5ccc2[nH]5)C=C4)C=C3)cc1
REMARK SMILES IDX 23 1 22 2 21 3 20 4 19 5 18 6 16 7 17 8 5 9 4 10 2 11 1 12
REMARK SMILES IDX 3 13 6 14 7 15 8 17 9 18 10 19 11 20 15 21 12 22 14 23 13 24
REMARK SMILES IDX 24 25 25 26 26 27 27 28 28 29 29 30 30 31 31 32 32 33 33 34
REMARK SMILES IDX 34 35 95 36 35 37 94 38 36 39 37 40 38 41 88 42 39 43 93 44
REMARK SMILES IDX 87 45 89 46 40 47 92 48 86 49 85 50 41 52 73 53 53 54 72 55
REMARK SMILES IDX 54 56 57 57 71 58 90 59 55 60 56 61 70 63 91 64 58 65 42 66
REMARK SMILES IDX 43 67 51 68 44 69 45 70 49 71 52 72 46 73 47 74 50 75 48 76
REMARK SMILES IDX 74 77 75 78 83 79 76 80 77 81 81 82 84 83 78 84 79 85 82 86
REMARK SMILES IDX 80 87 59 88 60 89 68 90 61 91 62 92 66 93 69 94 63 95 64 96
REMARK SMILES IDX 67 97 65 98
REMARK H PARENT 6 16 89 51 57 62
REMARK Flexibility Score: inf
ROOT
ATOM      1  C   UNL A   1      30.322  29.429  23.359  1.00  0.00     0.188 C 
ENDROOT
BRANCH   1   2
ATOM      2  C   UNL A   1      31.209  28.284  22.842  1.00  0.00     0.188 C 
BRANCH   2   3
ATOM      3  O   UNL A   1      30.706  27.002  22.489  1.00  0.00    -0.376 OA
BRANCH   3   4
ATOM      4  C   UNL A   1      30.996  25.778  23.141  1.00  0.00     0.202 C 
BRANCH   4   5
ATOM      5  C   UNL A   1      30.841  25.514  24.646  1.00  0.00     0.261 C 
BRANCH   5   6
ATOM      6  O   UNL A   1      30.553  24.181  25.046  1.00  0.00    -0.462 OA
BRANCH   6   7
ATOM      7  C   UNL A   1      31.349  23.761  26.056  1.00  0.00     0.328 C 
ATOM      8  O   UNL A   1      31.359  24.264  27.176  1.00  0.00    -0.250 OA
BRANCH   7   9
ATOM      9  C   UNL A   1      32.375  22.725  25.590  1.00  0.00     0.192 C 
BRANCH   9  10
ATOM     10  C   UNL A   1      33.697  23.494  25.527  1.00  0.00     0.040 C 
BRANCH  10  11
ATOM     11  C   UNL A   1      34.688  23.157  26.664  1.00  0.00    -0.015 C 
ATOM     12  C   UNL A   1      34.281  21.952  27.520  1.00  0.00     0.007 C 
ATOM     13  C   UNL A   1      36.082  22.946  26.088  1.00  0.00     0.007 C 
ENDBRANCH  10  11
ENDBRANCH   9  10
BRANCH   9  14
ATOM     14  N   UNL A   1      32.062  22.090  24.299  1.00  0.00    -0.342 N 
ATOM     15  C   UNL A   1      32.499  20.879  23.821  1.00  0.00     0.225 C 
ATOM     16  H   UNL A   1      31.465  22.596  23.704  1.00  0.00     0.164 HD
ATOM     17  O   UNL A   1      31.964  20.408  22.814  1.00  0.00    -0.275 OA
BRANCH  15  18
ATOM     18  C   UNL A   1      33.615  20.121  24.539  1.00  0.00     0.135 C 
BRANCH  18  19
ATOM     19  C   UNL A   1      33.376  18.631  24.575  1.00  0.00    -0.039 A 
ATOM     20  C   UNL A   1      33.916  17.805  23.575  1.00  0.00     0.004 A 
ATOM     21  C   UNL A   1      32.700  18.043  25.653  1.00  0.00     0.004 A 
ATOM     22  C   UNL A   1      33.898  16.419  23.721  1.00  0.00     0.000 A 
ATOM     23  C   UNL A   1      32.671  16.654  25.787  1.00  0.00     0.000 A 
ATOM     24  C   UNL A   1      33.297  15.845  24.839  1.00  0.00     0.000 A 
ENDBRANCH  18  19
ENDBRANCH  15  18
ENDBRANCH   9  14
ENDBRANCH   7   9
ENDBRANCH   6   7
ENDBRANCH   5   6
ENDBRANCH   4   5
ENDBRANCH   3   4
ENDBRANCH   2   3
ENDBRANCH   1   2
BRANCH   1  25
ATOM     25  O   UNL A   1      30.746  29.991  24.584  1.00  0.00    -0.377 OA
BRANCH  25  26
ATOM     26  C   UNL A   1      31.583  29.178  25.397  1.00  0.00     0.188 C 
BRANCH  26  27
ATOM     27  C   UNL A   1      33.045  29.628  25.616  1.00  0.00     0.188 C 
BRANCH  27  28
ATOM     28  O   UNL A   1      33.248  30.394  26.792  1.00  0.00    -0.376 OA
BRANCH  28  29
ATOM     29  C   UNL A   1      32.443  31.538  27.017  1.00  0.00     0.202 C 
BRANCH  29  30
ATOM     30  C   UNL A   1      33.152  32.834  27.442  1.00  0.00     0.261 C 
BRANCH  30  31
ATOM     31  O   UNL A   1      32.341  33.809  28.117  1.00  0.00    -0.460 OA
BRANCH  31  32
ATOM     32  C   UNL A   1      32.967  34.883  28.651  1.00  0.00     0.338 C 
ATOM     33  O   UNL A   1      32.565  36.023  28.687  1.00  0.00    -0.246 OA
BRANCH  32  34
ATOM     34  C   UNL A   1      34.146  34.387  29.399  1.00  0.00     0.060 A 
ATOM     35  C   UNL A   1      35.421  34.637  28.876  1.00  0.00     0.016 A 
ATOM     36  C   UNL A   1      34.000  33.681  30.595  1.00  0.00     0.016 A 
ATOM     37  C   UNL A   1      36.552  34.146  29.526  1.00  0.00     0.010 A 
ATOM     38  C   UNL A   1      35.133  33.163  31.231  1.00  0.00     0.010 A 
ATOM     39  C   UNL A   1      36.410  33.362  30.677  1.00  0.00    -0.014 A 
BRANCH  39  40
ATOM     40  C   UNL A   1      37.577  32.590  31.170  1.00  0.00     0.031 A 
ATOM     41  C   UNL A   1      38.178  32.974  32.495  1.00  0.00     0.074 A 
ATOM     42  C   UNL A   1      38.056  31.534  30.490  1.00  0.00     0.049 A 
ATOM     43  N   UNL A   1      39.199  32.457  33.129  1.00  0.00    -0.248 NA
ATOM     44  C   UNL A   1      37.536  34.094  33.205  1.00  0.00     0.031 C 
ATOM     45  C   UNL A   1      37.529  31.035  29.222  1.00  0.00     0.029 A 
ATOM     46  N   UNL A   1      39.100  30.690  30.778  1.00  0.00    -0.354 N 
ATOM     47  C   UNL A   1      39.319  33.182  34.307  1.00  0.00     0.074 A 
ATOM     48  C   UNL A   1      38.291  34.201  34.286  1.00  0.00     0.031 C 
ATOM     49  C   UNL A   1      38.261  29.977  28.833  1.00  0.00     0.029 A 
ATOM     50  C   UNL A   1      39.326  29.744  29.807  1.00  0.00     0.049 A 
ATOM     51  H   UNL A   1      39.636  30.757  31.600  1.00  0.00     0.167 HD
ATOM     52  C   UNL A   1      40.197  33.007  35.322  1.00  0.00     0.037 A 
ATOM     53  C   UNL A   1      40.297  28.815  29.711  1.00  0.00     0.037 A 
ATOM     54  C   UNL A   1      41.222  31.997  35.339  1.00  0.00     0.049 A 
ATOM     55  C   UNL A   1      41.319  28.700  30.818  1.00  0.00     0.074 A 
ATOM     56  C   UNL A   1      42.160  31.737  36.322  1.00  0.00     0.029 A 
ATOM     57  N   UNL A   1      41.447  31.084  34.320  1.00  0.00    -0.354 N 
ATOM     58  N   UNL A   1      41.410  29.374  31.940  1.00  0.00    -0.248 NA
ATOM     59  C   UNL A   1      42.369  27.686  30.646  1.00  0.00     0.031 C 
ATOM     60  C   UNL A   1      42.990  30.706  35.872  1.00  0.00     0.029 A 
ATOM     61  C   UNL A   1      42.528  30.277  34.639  1.00  0.00     0.049 A 
ATOM     62  H   UNL A   1      40.918  31.019  33.492  1.00  0.00     0.167 HD
ATOM     63  C   UNL A   1      42.504  28.845  32.616  1.00  0.00     0.074 A 
ATOM     64  C   UNL A   1      43.027  27.778  31.791  1.00  0.00     0.031 C 
ATOM     65  C   UNL A   1      43.032  29.213  33.811  1.00  0.00     0.037 A 
BRANCH  52  66
ATOM     66  C   UNL A   1      40.104  33.940  36.494  1.00  0.00     0.064 A 
ATOM     67  C   UNL A   1      40.852  35.125  36.556  1.00  0.00     0.173 A 
ATOM     68  C   UNL A   1      39.212  33.672  37.545  1.00  0.00     0.173 A 
ATOM     69  F   UNL A   1      41.731  35.420  35.585  1.00  0.00    -0.203 F 
ATOM     70  C   UNL A   1      40.722  36.000  37.631  1.00  0.00     0.198 A 
ATOM     71  C   UNL A   1      39.063  34.564  38.603  1.00  0.00     0.198 A 
ATOM     72  F   UNL A   1      38.472  32.553  37.535  1.00  0.00    -0.203 F 
ATOM     73  F   UNL A   1      41.476  37.106  37.688  1.00  0.00    -0.200 F 
ATOM     74  C   UNL A   1      39.821  35.723  38.649  1.00  0.00     0.200 A 
ATOM     75  F   UNL A   1      38.181  34.302  39.578  1.00  0.00    -0.200 F 
ATOM     76  F   UNL A   1      39.685  36.575  39.675  1.00  0.00    -0.200 F 
ENDBRANCH  52  66
BRANCH  53  77
ATOM     77  C   UNL A   1      40.382  27.932  28.516  1.00  0.00     0.064 A 
ATOM     78  C   UNL A   1      39.777  26.667  28.500  1.00  0.00     0.173 A 
ATOM     79  C   UNL A   1      41.122  28.311  27.386  1.00  0.00     0.173 A 
ATOM     80  F   UNL A   1      39.081  26.245  29.566  1.00  0.00    -0.203 F 
ATOM     81  C   UNL A   1      39.940  25.803  27.419  1.00  0.00     0.198 A 
ATOM     82  C   UNL A   1      41.254  27.462  26.290  1.00  0.00     0.198 A 
ATOM     83  F   UNL A   1      41.725  29.509  27.348  1.00  0.00    -0.203 F 
ATOM     84  F   UNL A   1      39.411  24.573  27.462  1.00  0.00    -0.200 F 
ATOM     85  C   UNL A   1      40.674  26.202  26.313  1.00  0.00     0.200 A 
ATOM     86  F   UNL A   1      41.954  27.857  25.218  1.00  0.00    -0.200 F 
ATOM     87  F   UNL A   1      40.837  25.369  25.276  1.00  0.00    -0.200 F 
ENDBRANCH  53  77
BRANCH  65  88
ATOM     88  C   UNL A   1      44.210  28.425  34.315  1.00  0.00     0.064 A 
ATOM     89  C   UNL A   1      44.049  27.253  35.070  1.00  0.00     0.173 A 
ATOM     90  C   UNL A   1      45.519  28.839  34.023  1.00  0.00     0.173 A 
ATOM     91  F   UNL A   1      42.820  26.817  35.387  1.00  0.00    -0.203 F 
ATOM     92  C   UNL A   1      45.152  26.551  35.549  1.00  0.00     0.198 A 
ATOM     93  C   UNL A   1      46.620  28.114  34.471  1.00  0.00     0.198 A 
ATOM     94  F   UNL A   1      45.733  29.947  33.295  1.00  0.00    -0.203 F 
ATOM     95  F   UNL A   1      44.972  25.473  36.324  1.00  0.00    -0.200 F 
ATOM     96  C   UNL A   1      46.436  26.978  35.244  1.00  0.00     0.200 A 
ATOM     97  F   UNL A   1      47.859  28.518  34.159  1.00  0.00    -0.200 F 
ATOM     98  F   UNL A   1      47.496  26.301  35.705  1.00  0.00    -0.200 F 
ENDBRANCH  65  88
ENDBRANCH  39  40
ENDBRANCH  32  34
ENDBRANCH  31  32
ENDBRANCH  30  31
ENDBRANCH  29  30
ENDBRANCH  28  29
ENDBRANCH  27  28
ENDBRANCH  26  27
ENDBRANCH  25  26
ENDBRANCH   1  25
TORSDOF 25
ENDMDL
MODEL 2
REMARK VINA RESULT:      -9.9      3.475      5.470
REMARK SMILES CC(C)C[C@H](NC(=O)Cc1ccccc1)C(=O)OCCOCCOCCOCCOC(=O)c1ccc(-c2c3nc(c(-c4c(F)c(F)c(F)c(F)c4F)c4ccc([nH]4)c(-c4c(F)c(F)c(F)c(F)c4F)c4nc(c(-c5c(F)c(F)c(F)c(F)c5F)c5ccc2[nH]5)C=C4)C=C3)cc1
REMARK SMILES IDX 23 1 22 2 21 3 20 4 19 5 18 6 16 7 17 8 5 9 4 10 2 11 1 12
REMARK SMILES IDX 3 13 6 14 7 15 8 17 9 18 10 19 11 20 15 21 12 22 14 23 13 24
REMARK SMILES IDX 24 25 25 26 26 27 27 28 28 29 29 30 30 31 31 32 32 33 33 34
REMARK SMILES IDX 34 35 95 36 35 37 94 38 36 39 37 40 38 41 88 42 39 43 93 44
REMARK SMILES IDX 87 45 89 46 40 47 92 48 86 49 85 50 41 52 73 53 53 54 72 55
REMARK SMILES IDX 54 56 57 57 71 58 90 59 55 60 56 61 70 63 91 64 58 65 42 66
REMARK SMILES IDX 43 67 51 68 44 69 45 70 49 71 52 72 46 73 47 74 50 75 48 76
REMARK SMILES IDX 74 77 75 78 83 79 76 80 77 81 81 82 84 83 78 84 79 85 82 86
REMARK SMILES IDX 80 87 59 88 60 89 68 90 61 91 62 92 66 93 69 94 63 95 64 96
REMARK SMILES IDX 67 97 65 98
REMARK H PARENT 6 16 89 51 57 62
REMARK Flexibility Score: inf
ROOT
ATOM      1  C   UNL A   1      30.479  27.884  22.564  1.00  0.00     0.188 C 
ENDROOT
BRANCH   1   2
ATOM      2  C   UNL A   1      31.238  26.702  21.938  1.00  0.00     0.188 C 
BRANCH   2   3
ATOM      3  O   UNL A   1      32.107  25.852  22.674  1.00  0.00    -0.376 OA
BRANCH   3   4
ATOM      4  C   UNL A   1      32.205  24.444  22.551  1.00  0.00     0.202 C 
BRANCH   4   5
ATOM      5  C   UNL A   1      33.479  23.670  22.180  1.00  0.00     0.261 C 
BRANCH   5   6
ATOM      6  O   UNL A   1      33.915  22.664  23.084  1.00  0.00    -0.462 OA
BRANCH   6   7
ATOM      7  C   UNL A   1      35.190  22.853  23.493  1.00  0.00     0.328 C 
ATOM      8  O   UNL A   1      36.047  23.423  22.823  1.00  0.00    -0.250 OA
BRANCH   7   9
ATOM      9  C   UNL A   1      35.497  22.106  24.793  1.00  0.00     0.192 C 
BRANCH   9  10
ATOM     10  C   UNL A   1      36.985  21.759  24.694  1.00  0.00     0.040 C 
BRANCH  10  11
ATOM     11  C   UNL A   1      37.835  22.237  25.893  1.00  0.00    -0.015 C 
ATOM     12  C   UNL A   1      39.258  21.669  25.924  1.00  0.00     0.007 C 
ATOM     13  C   UNL A   1      37.875  23.760  25.923  1.00  0.00     0.007 C 
ENDBRANCH  10  11
ENDBRANCH   9  10
BRANCH   9  14
ATOM     14  N   UNL A   1      34.679  20.904  25.018  1.00  0.00    -0.342 N 
ATOM     15  C   UNL A   1      33.761  20.674  26.013  1.00  0.00     0.225 C 
ATOM     16  H   UNL A   1      34.805  20.172  24.373  1.00  0.00     0.164 HD
ATOM     17  O   UNL A   1      33.014  19.698  25.921  1.00  0.00    -0.275 OA
BRANCH  15  18
ATOM     18  C   UNL A   1      33.659  21.626  27.204  1.00  0.00     0.135 C 
BRANCH  18  19
ATOM     19  C   UNL A   1      32.737  22.792  26.940  1.00  0.00    -0.039 A 
ATOM     20  C   UNL A   1      33.267  24.047  26.597  1.00  0.00     0.004 A 
ATOM     21  C   UNL A   1      31.347  22.614  26.936  1.00  0.00     0.004 A 
ATOM     22  C   UNL A   1      32.432  25.060  26.131  1.00  0.00     0.000 A 
ATOM     23  C   UNL A   1      30.513  23.637  26.481  1.00  0.00     0.000 A 
ATOM     24  C   UNL A   1      31.057  24.847  26.050  1.00  0.00     0.000 A 
ENDBRANCH  18  19
ENDBRANCH  15  18
ENDBRANCH   9  14
ENDBRANCH   7   9
ENDBRANCH   6   7
ENDBRANCH   5   6
ENDBRANCH   4   5
ENDBRANCH   3   4
ENDBRANCH   2   3
ENDBRANCH   1   2
BRANCH   1  25
ATOM     25  O   UNL A   1      31.298  28.972  22.944  1.00  0.00    -0.377 OA
BRANCH  25  26
ATOM     26  C   UNL A   1      31.136  29.451  24.273  1.00  0.00     0.188 C 
BRANCH  26  27
ATOM     27  C   UNL A   1      31.359  28.458  25.436  1.00  0.00     0.188 C 
BRANCH  27  28
ATOM     28  O   UNL A   1      31.670  29.075  26.675  1.00  0.00    -0.376 OA
BRANCH  28  29
ATOM     29  C   UNL A   1      31.910  30.471  26.710  1.00  0.00     0.202 C 
BRANCH  29  30
ATOM     30  C   UNL A   1      33.360  30.938  26.918  1.00  0.00     0.261 C 
BRANCH  30  31
ATOM     31  O   UNL A   1      34.111  30.241  27.926  1.00  0.00    -0.460 OA
BRANCH  31  32
ATOM     32  C   UNL A   1      34.946  30.971  28.702  1.00  0.00     0.338 C 
ATOM     33  O   UNL A   1      34.660  31.918  29.396  1.00  0.00    -0.246 OA
BRANCH  32  34
ATOM     34  C   UNL A   1      36.250  30.268  28.739  1.00  0.00     0.060 A 
ATOM     35  C   UNL A   1      36.612  29.595  29.912  1.00  0.00     0.016 A 
ATOM     36  C   UNL A   1      37.106  30.275  27.636  1.00  0.00     0.016 A 
ATOM     37  C   UNL A   1      37.851  28.963  30.002  1.00  0.00     0.010 A 
ATOM     38  C   UNL A   1      38.361  29.666  27.736  1.00  0.00     0.010 A 
ATOM     39  C   UNL A   1      38.753  29.040  28.933  1.00  0.00    -0.014 A 
BRANCH  39  40
ATOM     40  C   UNL A   1      40.166  28.646  29.154  1.00  0.00     0.031 A 
ATOM     41  C   UNL A   1      41.053  29.581  29.928  1.00  0.00     0.074 A 
ATOM     42  C   UNL A   1      40.636  27.460  28.732  1.00  0.00     0.049 A 
ATOM     43  N   UNL A   1      42.318  29.462  30.244  1.00  0.00    -0.248 NA
ATOM     44  C   UNL A   1      40.428  30.822  30.418  1.00  0.00     0.031 C 
ATOM     45  C   UNL A   1      39.861  26.449  28.016  1.00  0.00     0.029 A 
ATOM     46  N   UNL A   1      41.887  26.906  28.850  1.00  0.00    -0.354 N 
ATOM     47  C   UNL A   1      42.636  30.603  30.968  1.00  0.00     0.074 A 
ATOM     48  C   UNL A   1      41.445  31.423  31.016  1.00  0.00     0.031 C 
ATOM     49  C   UNL A   1      40.659  25.400  27.745  1.00  0.00     0.029 A 
ATOM     50  C   UNL A   1      42.005  25.680  28.241  1.00  0.00     0.049 A 
ATOM     51  H   UNL A   1      42.628  27.346  29.323  1.00  0.00     0.167 HD
ATOM     52  C   UNL A   1      43.811  30.933  31.553  1.00  0.00     0.037 A 
ATOM     53  C   UNL A   1      43.086  24.890  28.086  1.00  0.00     0.037 A 
ATOM     54  C   UNL A   1      44.997  30.118  31.501  1.00  0.00     0.049 A 
ATOM     55  C   UNL A   1      44.408  25.325  28.674  1.00  0.00     0.074 A 
ATOM     56  C   UNL A   1      46.237  30.365  32.063  1.00  0.00     0.029 A 
ATOM     57  N   UNL A   1      45.091  28.903  30.840  1.00  0.00    -0.354 N 
ATOM     58  N   UNL A   1      44.694  26.394  29.378  1.00  0.00    -0.248 NA
ATOM     59  C   UNL A   1      45.556  24.435  28.450  1.00  0.00     0.031 C 
ATOM     60  C   UNL A   1      47.098  29.326  31.693  1.00  0.00     0.029 A 
ATOM     61  C   UNL A   1      46.377  28.400  30.957  1.00  0.00     0.049 A 
ATOM     62  H   UNL A   1      44.353  28.463  30.358  1.00  0.00     0.167 HD
ATOM     63  C   UNL A   1      46.041  26.288  29.704  1.00  0.00     0.074 A 
ATOM     64  C   UNL A   1      46.508  25.038  29.145  1.00  0.00     0.031 C 
ATOM     65  C   UNL A   1      46.824  27.150  30.401  1.00  0.00     0.037 A 
BRANCH  52  66
ATOM     66  C   UNL A   1      43.883  32.241  32.287  1.00  0.00     0.064 A 
ATOM     67  C   UNL A   1      43.604  32.334  33.658  1.00  0.00     0.173 A 
ATOM     68  C   UNL A   1      44.291  33.407  31.619  1.00  0.00     0.173 A 
ATOM     69  F   UNL A   1      43.194  31.252  34.338  1.00  0.00    -0.203 F 
ATOM     70  C   UNL A   1      43.716  33.547  34.331  1.00  0.00     0.198 A 
ATOM     71  C   UNL A   1      44.430  34.611  32.302  1.00  0.00     0.198 A 
ATOM     72  F   UNL A   1      44.570  33.372  30.308  1.00  0.00    -0.203 F 
ATOM     73  F   UNL A   1      43.406  33.621  35.633  1.00  0.00    -0.200 F 
ATOM     74  C   UNL A   1      44.138  34.682  33.655  1.00  0.00     0.200 A 
ATOM     75  F   UNL A   1      44.853  35.703  31.650  1.00  0.00    -0.200 F 
ATOM     76  F   UNL A   1      44.262  35.846  34.309  1.00  0.00    -0.200 F 
ENDBRANCH  52  66
BRANCH  53  77
ATOM     77  C   UNL A   1      42.987  23.618  27.319  1.00  0.00     0.064 A 
ATOM     78  C   UNL A   1      42.505  22.443  27.915  1.00  0.00     0.173 A 
ATOM     79  C   UNL A   1      43.430  23.536  25.990  1.00  0.00     0.173 A 
ATOM     80  F   UNL A   1      42.094  22.461  29.192  1.00  0.00    -0.203 F 
ATOM     81  C   UNL A   1      42.505  21.232  27.226  1.00  0.00     0.198 A 
ATOM     82  C   UNL A   1      43.396  22.333  25.290  1.00  0.00     0.198 A 
ATOM     83  F   UNL A   1      43.905  24.628  25.372  1.00  0.00    -0.203 F 
ATOM     84  F   UNL A   1      42.107  20.112  27.844  1.00  0.00    -0.200 F 
ATOM     85  C   UNL A   1      42.946  21.178  25.912  1.00  0.00     0.200 A 
ATOM     86  F   UNL A   1      43.811  22.289  24.017  1.00  0.00    -0.200 F 
ATOM     87  F   UNL A   1      42.953  20.013  25.252  1.00  0.00    -0.200 F 
ENDBRANCH  53  77
BRANCH  65  88
ATOM     88  C   UNL A   1      48.255  26.747  30.633  1.00  0.00     0.064 A 
ATOM     89  C   UNL A   1      49.287  27.151  29.771  1.00  0.00     0.173 A 
ATOM     90  C   UNL A   1      48.602  25.964  31.744  1.00  0.00     0.173 A 
ATOM     91  F   UNL A   1      49.010  27.892  28.687  1.00  0.00    -0.203 F 
ATOM     92  C   UNL A   1      50.602  26.748  29.988  1.00  0.00     0.198 A 
ATOM     93  C   UNL A   1      49.923  25.595  31.981  1.00  0.00     0.198 A 
ATOM     94  F   UNL A   1      47.658  25.559  32.609  1.00  0.00    -0.203 F 
ATOM     95  F   UNL A   1      51.558  27.089  29.114  1.00  0.00    -0.200 F 
ATOM     96  C   UNL A   1      50.920  25.976  31.096  1.00  0.00     0.200 A 
ATOM     97  F   UNL A   1      50.232  24.865  33.062  1.00  0.00    -0.200 F 
ATOM     98  F   UNL A   1      52.187  25.591  31.304  1.00  0.00    -0.200 F 
ENDBRANCH  65  88
ENDBRANCH  39  40
ENDBRANCH  32  34
ENDBRANCH  31  32
ENDBRANCH  30  31
ENDBRANCH  29  30
ENDBRANCH  28  29
ENDBRANCH  27  28
ENDBRANCH  26  27
ENDBRANCH  25  26
ENDBRANCH   1  25
TORSDOF 25
ENDMDL
MODEL 3
REMARK VINA RESULT:      -9.8      1.970      3.385
REMARK SMILES CC(C)C[C@H](NC(=O)Cc1ccccc1)C(=O)OCCOCCOCCOCCOC(=O)c1ccc(-c2c3nc(c(-c4c(F)c(F)c(F)c(F)c4F)c4ccc([nH]4)c(-c4c(F)c(F)c(F)c(F)c4F)c4nc(c(-c5c(F)c(F)c(F)c(F)c5F)c5ccc2[nH]5)C=C4)C=C3)cc1
REMARK SMILES IDX 23 1 22 2 21 3 20 4 19 5 18 6 16 7 17 8 5 9 4 10 2 11 1 12
REMARK SMILES IDX 3 13 6 14 7 15 8 17 9 18 10 19 11 20 15 21 12 22 14 23 13 24
REMARK SMILES IDX 24 25 25 26 26 27 27 28 28 29 29 30 30 31 31 32 32 33 33 34
REMARK SMILES IDX 34 35 95 36 35 37 94 38 36 39 37 40 38 41 88 42 39 43 93 44
REMARK SMILES IDX 87 45 89 46 40 47 92 48 86 49 85 50 41 52 73 53 53 54 72 55
REMARK SMILES IDX 54 56 57 57 71 58 90 59 55 60 56 61 70 63 91 64 58 65 42 66
REMARK SMILES IDX 43 67 51 68 44 69 45 70 49 71 52 72 46 73 47 74 50 75 48 76
REMARK SMILES IDX 74 77 75 78 83 79 76 80 77 81 81 82 84 83 78 84 79 85 82 86
REMARK SMILES IDX 80 87 59 88 60 89 68 90 61 91 62 92 66 93 69 94 63 95 64 96
REMARK SMILES IDX 67 97 65 98
REMARK H PARENT 6 16 89 51 57 62
REMARK Flexibility Score: inf
ROOT
ATOM      1  C   UNL A   1      32.234  26.917  22.718  1.00  0.00     0.188 C 
ENDROOT
BRANCH   1   2
ATOM      2  C   UNL A   1      32.122  25.861  21.606  1.00  0.00     0.188 C 
BRANCH   2   3
ATOM      3  O   UNL A   1      33.153  24.934  21.298  1.00  0.00    -0.376 OA
BRANCH   3   4
ATOM      4  C   UNL A   1      33.295  23.629  21.831  1.00  0.00     0.202 C 
BRANCH   4   5
ATOM      5  C   UNL A   1      33.964  23.283  23.170  1.00  0.00     0.261 C 
BRANCH   5   6
ATOM      6  O   UNL A   1      33.168  22.615  24.140  1.00  0.00    -0.462 OA
BRANCH   6   7
ATOM      7  C   UNL A   1      33.002  21.302  23.857  1.00  0.00     0.328 C 
ATOM      8  O   UNL A   1      32.076  20.857  23.185  1.00  0.00    -0.250 OA
BRANCH   7   9
ATOM      9  C   UNL A   1      33.981  20.417  24.632  1.00  0.00     0.192 C 
BRANCH   9  10
ATOM     10  C   UNL A   1      33.391  19.008  24.526  1.00  0.00     0.040 C 
BRANCH  10  11
ATOM     11  C   UNL A   1      34.344  17.959  23.911  1.00  0.00    -0.015 C 
ATOM     12  C   UNL A   1      35.150  17.158  24.939  1.00  0.00     0.007 C 
ATOM     13  C   UNL A   1      33.560  17.017  23.006  1.00  0.00     0.007 C 
ENDBRANCH  10  11
ENDBRANCH   9  10
BRANCH   9  14
ATOM     14  N   UNL A   1      34.185  20.810  26.036  1.00  0.00    -0.342 N 
ATOM     15  C   UNL A   1      35.045  21.755  26.537  1.00  0.00     0.225 C 
ATOM     16  H   UNL A   1      33.635  20.335  26.699  1.00  0.00     0.164 HD
ATOM     17  O   UNL A   1      34.927  22.104  27.714  1.00  0.00    -0.275 OA
BRANCH  15  18
ATOM     18  C   UNL A   1      36.117  22.377  25.643  1.00  0.00     0.135 C 
BRANCH  18  19
ATOM     19  C   UNL A   1      37.349  21.514  25.525  1.00  0.00    -0.039 A 
ATOM     20  C   UNL A   1      38.583  21.977  26.011  1.00  0.00     0.004 A 
ATOM     21  C   UNL A   1      37.260  20.208  25.023  1.00  0.00     0.004 A 
ATOM     22  C   UNL A   1      39.669  21.109  26.116  1.00  0.00     0.000 A 
ATOM     23  C   UNL A   1      38.354  19.346  25.118  1.00  0.00     0.000 A 
ATOM     24  C   UNL A   1      39.546  19.787  25.692  1.00  0.00     0.000 A 
ENDBRANCH  18  19
ENDBRANCH  15  18
ENDBRANCH   9  14
ENDBRANCH   7   9
ENDBRANCH   6   7
ENDBRANCH   5   6
ENDBRANCH   4   5
ENDBRANCH   3   4
ENDBRANCH   2   3
ENDBRANCH   1   2
BRANCH   1  25
ATOM     25  O   UNL A   1      33.554  27.170  23.155  1.00  0.00    -0.377 OA
BRANCH  25  26
ATOM     26  C   UNL A   1      33.761  28.380  23.873  1.00  0.00     0.188 C 
BRANCH  26  27
ATOM     27  C   UNL A   1      32.647  28.856  24.833  1.00  0.00     0.188 C 
BRANCH  27  28
ATOM     28  O   UNL A   1      33.070  29.823  25.780  1.00  0.00    -0.376 OA
BRANCH  28  29
ATOM     29  C   UNL A   1      32.099  30.477  26.579  1.00  0.00     0.202 C 
BRANCH  29  30
ATOM     30  C   UNL A   1      32.221  32.000  26.743  1.00  0.00     0.261 C 
BRANCH  30  31
ATOM     31  O   UNL A   1      32.763  32.462  27.991  1.00  0.00    -0.460 OA
BRANCH  31  32
ATOM     32  C   UNL A   1      33.771  33.362  27.941  1.00  0.00     0.338 C 
ATOM     33  O   UNL A   1      33.679  34.562  27.819  1.00  0.00    -0.246 OA
BRANCH  32  34
ATOM     34  C   UNL A   1      35.023  32.651  28.293  1.00  0.00     0.060 A 
ATOM     35  C   UNL A   1      34.942  31.302  28.663  1.00  0.00     0.016 A 
ATOM     36  C   UNL A   1      36.258  33.302  28.265  1.00  0.00     0.016 A 
ATOM     37  C   UNL A   1      36.091  30.612  29.046  1.00  0.00     0.010 A 
ATOM     38  C   UNL A   1      37.406  32.618  28.677  1.00  0.00     0.010 A 
ATOM     39  C   UNL A   1      37.320  31.281  29.105  1.00  0.00    -0.014 A 
BRANCH  39  40
ATOM     40  C   UNL A   1      38.456  30.637  29.808  1.00  0.00     0.031 A 
ATOM     41  C   UNL A   1      38.703  31.002  31.246  1.00  0.00     0.074 A 
ATOM     42  C   UNL A   1      39.214  29.705  29.206  1.00  0.00     0.049 A 
ATOM     43  N   UNL A   1      39.632  30.580  32.066  1.00  0.00    -0.248 NA
ATOM     44  C   UNL A   1      37.772  31.974  31.845  1.00  0.00     0.031 C 
ATOM     45  C   UNL A   1      39.043  29.232  27.834  1.00  0.00     0.029 A 
ATOM     46  N   UNL A   1      40.285  28.988  29.679  1.00  0.00    -0.354 N 
ATOM     47  C   UNL A   1      39.395  31.229  33.271  1.00  0.00     0.074 A 
ATOM     48  C   UNL A   1      38.260  32.102  33.069  1.00  0.00     0.031 C 
ATOM     49  C   UNL A   1      39.986  28.310  27.570  1.00  0.00     0.029 A 
ATOM     50  C   UNL A   1      40.844  28.151  28.743  1.00  0.00     0.049 A 
ATOM     51  H   UNL A   1      40.621  29.066  30.600  1.00  0.00     0.167 HD
ATOM     52  C   UNL A   1      40.057  31.100  34.445  1.00  0.00     0.037 A 
ATOM     53  C   UNL A   1      41.938  27.368  28.823  1.00  0.00     0.037 A 
ATOM     54  C   UNL A   1      41.190  30.235  34.643  1.00  0.00     0.049 A 
ATOM     55  C   UNL A   1      42.709  27.310  30.121  1.00  0.00     0.074 A 
ATOM     56  C   UNL A   1      41.929  30.032  35.796  1.00  0.00     0.029 A 
ATOM     57  N   UNL A   1      41.754  29.435  33.661  1.00  0.00    -0.354 N 
ATOM     58  N   UNL A   1      42.465  27.909  31.262  1.00  0.00    -0.248 NA
ATOM     59  C   UNL A   1      43.908  26.459  30.140  1.00  0.00     0.031 C 
ATOM     60  C   UNL A   1      42.975  29.154  35.496  1.00  0.00     0.029 A 
ATOM     61  C   UNL A   1      42.848  28.757  34.174  1.00  0.00     0.049 A 
ATOM     62  H   UNL A   1      41.425  29.359  32.736  1.00  0.00     0.167 HD
ATOM     63  C   UNL A   1      43.457  27.483  32.137  1.00  0.00     0.074 A 
ATOM     64  C   UNL A   1      44.290  26.555  31.404  1.00  0.00     0.031 C 
ATOM     65  C   UNL A   1      43.663  27.830  33.433  1.00  0.00     0.037 A 
BRANCH  52  66
ATOM     66  C   UNL A   1      39.586  31.927  35.606  1.00  0.00     0.064 A 
ATOM     67  C   UNL A   1      40.087  33.215  35.846  1.00  0.00     0.173 A 
ATOM     68  C   UNL A   1      38.579  31.445  36.457  1.00  0.00     0.173 A 
ATOM     69  F   UNL A   1      41.063  33.715  35.072  1.00  0.00    -0.203 F 
ATOM     70  C   UNL A   1      39.609  33.984  36.904  1.00  0.00     0.198 A 
ATOM     71  C   UNL A   1      38.083  32.229  37.495  1.00  0.00     0.198 A 
ATOM     72  F   UNL A   1      38.065  30.220  36.271  1.00  0.00    -0.203 F 
ATOM     73  F   UNL A   1      40.130  35.196  37.139  1.00  0.00    -0.200 F 
ATOM     74  C   UNL A   1      38.600  33.494  37.721  1.00  0.00     0.200 A 
ATOM     75  F   UNL A   1      37.098  31.759  38.274  1.00  0.00    -0.200 F 
ATOM     76  F   UNL A   1      38.129  34.242  38.728  1.00  0.00    -0.200 F 
ENDBRANCH  52  66
BRANCH  53  77
ATOM     77  C   UNL A   1      42.398  26.591  27.640  1.00  0.00     0.064 A 
ATOM     78  C   UNL A   1      41.928  25.293  27.392  1.00  0.00     0.173 A 
ATOM     79  C   UNL A   1      43.364  27.109  26.764  1.00  0.00     0.173 A 
ATOM     80  F   UNL A   1      41.024  24.741  28.214  1.00  0.00    -0.203 F 
ATOM     81  C   UNL A   1      42.434  24.531  26.340  1.00  0.00     0.198 A 
ATOM     82  C   UNL A   1      43.842  26.361  25.691  1.00  0.00     0.198 A 
ATOM     83  F   UNL A   1      43.851  28.344  26.956  1.00  0.00    -0.203 F 
ATOM     84  F   UNL A   1      42.020  23.269  26.172  1.00  0.00    -0.200 F 
ATOM     85  C   UNL A   1      43.387  25.067  25.488  1.00  0.00     0.200 A 
ATOM     86  F   UNL A   1      44.754  26.888  24.862  1.00  0.00    -0.200 F 
ATOM     87  F   UNL A   1      43.877  24.333  24.481  1.00  0.00    -0.200 F 
ENDBRANCH  53  77
BRANCH  65  88
ATOM     88  C   UNL A   1      44.810  27.172  34.149  1.00  0.00     0.064 A 
ATOM     89  C   UNL A   1      46.085  27.758  34.203  1.00  0.00     0.173 A 
ATOM     90  C   UNL A   1      44.628  25.946  34.808  1.00  0.00     0.173 A 
ATOM     91  F   UNL A   1      46.318  28.924  33.581  1.00  0.00    -0.203 F 
ATOM     92  C   UNL A   1      47.141  27.121  34.849  1.00  0.00     0.198 A 
ATOM     93  C   UNL A   1      45.675  25.331  35.487  1.00  0.00     0.198 A 
ATOM     94  F   UNL A   1      43.427  25.345  34.800  1.00  0.00    -0.203 F 
ATOM     95  F   UNL A   1      48.364  27.668  34.829  1.00  0.00    -0.200 F 
ATOM     96  C   UNL A   1      46.934  25.912  35.496  1.00  0.00     0.200 A 
ATOM     97  F   UNL A   1      45.469  24.172  36.128  1.00  0.00    -0.200 F 
ATOM     98  F   UNL A   1      47.951  25.301  36.120  1.00  0.00    -0.200 F 
ENDBRANCH  65  88
ENDBRANCH  39  40
ENDBRANCH  32  34
ENDBRANCH  31  32
ENDBRANCH  30  31
ENDBRANCH  29  30
ENDBRANCH  28  29
ENDBRANCH  27  28
ENDBRANCH  26  27
ENDBRANCH  25  26
ENDBRANCH   1  25
TORSDOF 25
ENDMDL
