MODEL 1
REMARK VINA RESULT:     -10.7      0.000      0.000
REMARK SMILES O=C(OCCOCCOCCOCCOC(=O)c1cc(N/N=C/C2=c3ccccc3=NC2)ccc1Cl)c1ccc(-c2c3nc(c(-c4c(F)c(F)c(F)c(F)c4F)c4ccc([nH]4)c(-c4c(F)c(F)c(F)c(F)c4F)c4nc(c(-c5c(F)c(F)c(F)c(F)c5F)c5ccc2[nH]5)C=C4)C=C3)cc1
REMARK SMILES IDX 10 1 9 2 8 3 7 4 6 5 5 6 4 7 3 8 2 9 1 10 37 11 38 12 99 13
REMARK SMILES IDX 39 14 98 15 40 16 41 17 42 18 92 19 43 20 97 21 91 22 93 23
REMARK SMILES IDX 44 24 96 25 90 26 89 27 45 29 77 30 57 31 76 32 58 33 61 34
REMARK SMILES IDX 75 35 94 36 59 37 60 38 74 40 95 41 62 42 46 43 47 44 55 45
REMARK SMILES IDX 48 46 49 47 53 48 56 49 50 50 51 51 54 52 52 53 78 54 79 55
REMARK SMILES IDX 87 56 80 57 81 58 85 59 88 60 82 61 83 62 86 63 84 64 63 65
REMARK SMILES IDX 64 66 72 67 65 68 66 69 70 70 73 71 67 72 68 73 71 74 69 75
REMARK SMILES IDX 11 76 12 77 13 78 14 79 15 80 16 81 17 82 18 83 19 84 35 85
REMARK SMILES IDX 20 86 34 87 36 88 33 89 21 90 22 92 23 93 24 94 25 95 32 96
REMARK SMILES IDX 26 97 30 98 31 99 27 100 29 101 28 102
REMARK H PARENT 93 28 61 39 21 91
REMARK Flexibility Score: inf
ROOT
ATOM      1  C   UNL A   1      41.039  21.483  27.596  1.00  0.00     0.188 C 
ENDROOT
BRANCH   1   2
ATOM      2  O   UNL A   1      42.105  20.633  27.212  1.00  0.00    -0.377 OA
BRANCH   2   3
ATOM      3  C   UNL A   1      41.913  19.764  26.101  1.00  0.00     0.188 C 
BRANCH   3   4
ATOM      4  C   UNL A   1      43.160  19.188  25.434  1.00  0.00     0.188 C 
BRANCH   4   5
ATOM      5  O   UNL A   1      44.285  20.022  25.692  1.00  0.00    -0.376 OA
BRANCH   5   6
ATOM      6  C   UNL A   1      44.411  21.149  24.826  1.00  0.00     0.202 C 
BRANCH   6   7
ATOM      7  C   UNL A   1      44.871  22.424  25.526  1.00  0.00     0.261 C 
BRANCH   7   8
ATOM      8  O   UNL A   1      43.779  23.347  25.528  1.00  0.00    -0.460 OA
BRANCH   8   9
ATOM      9  C   UNL A   1      44.162  24.644  25.437  1.00  0.00     0.338 C 
ATOM     10  O   UNL A   1      44.978  25.107  24.658  1.00  0.00    -0.246 OA
BRANCH   9  11
ATOM     11  C   UNL A   1      43.507  25.407  26.520  1.00  0.00     0.060 A 
ATOM     12  C   UNL A   1      42.490  24.810  27.267  1.00  0.00     0.016 A 
ATOM     13  C   UNL A   1      43.852  26.749  26.736  1.00  0.00     0.016 A 
ATOM     14  C   UNL A   1      41.847  25.548  28.260  1.00  0.00     0.010 A 
ATOM     15  C   UNL A   1      43.213  27.486  27.714  1.00  0.00     0.010 A 
ATOM     16  C   UNL A   1      42.220  26.882  28.488  1.00  0.00    -0.014 A 
BRANCH  16  17
ATOM     17  C   UNL A   1      41.705  27.656  29.625  1.00  0.00     0.031 A 
ATOM     18  C   UNL A   1      40.507  28.531  29.472  1.00  0.00     0.074 A 
ATOM     19  C   UNL A   1      42.469  27.683  30.730  1.00  0.00     0.049 A 
ATOM     20  N   UNL A   1      39.937  29.303  30.360  1.00  0.00    -0.248 NA
ATOM     21  C   UNL A   1      39.884  28.571  28.141  1.00  0.00     0.031 C 
ATOM     22  C   UNL A   1      43.723  26.946  30.894  1.00  0.00     0.029 A 
ATOM     23  N   UNL A   1      42.328  28.377  31.897  1.00  0.00    -0.354 N 
ATOM     24  C   UNL A   1      38.868  29.896  29.706  1.00  0.00     0.074 A 
ATOM     25  C   UNL A   1      38.913  29.454  28.328  1.00  0.00     0.031 C 
ATOM     26  C   UNL A   1      44.237  27.222  32.101  1.00  0.00     0.029 A 
ATOM     27  C   UNL A   1      43.346  28.150  32.786  1.00  0.00     0.049 A 
ATOM     28  H   UNL A   1      41.572  28.980  32.082  1.00  0.00     0.167 HD
ATOM     29  C   UNL A   1      37.924  30.713  30.232  1.00  0.00     0.037 A 
ATOM     30  C   UNL A   1      43.521  28.626  34.030  1.00  0.00     0.037 A 
ATOM     31  C   UNL A   1      37.953  31.180  31.597  1.00  0.00     0.049 A 
ATOM     32  C   UNL A   1      42.465  29.526  34.597  1.00  0.00     0.074 A 
ATOM     33  C   UNL A   1      37.039  31.970  32.266  1.00  0.00     0.029 A 
ATOM     34  N   UNL A   1      38.980  30.909  32.496  1.00  0.00    -0.354 N 
ATOM     35  N   UNL A   1      41.379  29.987  34.020  1.00  0.00    -0.248 NA
ATOM     36  C   UNL A   1      42.639  29.947  35.989  1.00  0.00     0.031 C 
ATOM     37  C   UNL A   1      37.534  32.215  33.554  1.00  0.00     0.029 A 
ATOM     38  C   UNL A   1      38.733  31.534  33.707  1.00  0.00     0.049 A 
ATOM     39  H   UNL A   1      39.768  30.353  32.299  1.00  0.00     0.167 HD
ATOM     40  C   UNL A   1      40.731  30.748  34.979  1.00  0.00     0.074 A 
ATOM     41  C   UNL A   1      41.538  30.660  36.184  1.00  0.00     0.031 C 
ATOM     42  C   UNL A   1      39.579  31.456  34.876  1.00  0.00     0.037 A 
BRANCH  29  43
ATOM     43  C   UNL A   1      36.790  31.126  29.334  1.00  0.00     0.064 A 
ATOM     44  C   UNL A   1      35.770  30.222  28.991  1.00  0.00     0.173 A 
ATOM     45  C   UNL A   1      36.697  32.431  28.829  1.00  0.00     0.173 A 
ATOM     46  F   UNL A   1      35.808  28.958  29.440  1.00  0.00    -0.203 F 
ATOM     47  C   UNL A   1      34.724  30.597  28.152  1.00  0.00     0.198 A 
ATOM     48  C   UNL A   1      35.632  32.813  28.014  1.00  0.00     0.198 A 
ATOM     49  F   UNL A   1      37.637  33.342  29.126  1.00  0.00    -0.203 F 
ATOM     50  F   UNL A   1      33.794  29.698  27.799  1.00  0.00    -0.200 F 
ATOM     51  C   UNL A   1      34.652  31.894  27.668  1.00  0.00     0.200 A 
ATOM     52  F   UNL A   1      35.554  34.071  27.560  1.00  0.00    -0.200 F 
ATOM     53  F   UNL A   1      33.641  32.256  26.866  1.00  0.00    -0.200 F 
ENDBRANCH  29  43
BRANCH  30  54
ATOM     54  C   UNL A   1      44.670  28.133  34.823  1.00  0.00     0.064 A 
ATOM     55  C   UNL A   1      45.866  28.863  34.850  1.00  0.00     0.173 A 
ATOM     56  C   UNL A   1      44.560  27.021  35.671  1.00  0.00     0.173 A 
ATOM     57  F   UNL A   1      46.013  29.933  34.055  1.00  0.00    -0.203 F 
ATOM     58  C   UNL A   1      46.906  28.506  35.702  1.00  0.00     0.198 A 
ATOM     59  C   UNL A   1      45.595  26.677  36.538  1.00  0.00     0.198 A 
ATOM     60  F   UNL A   1      43.425  26.308  35.700  1.00  0.00    -0.203 F 
ATOM     61  F   UNL A   1      48.037  29.225  35.713  1.00  0.00    -0.200 F 
ATOM     62  C   UNL A   1      46.766  27.421  36.555  1.00  0.00     0.200 A 
ATOM     63  F   UNL A   1      45.447  25.645  37.380  1.00  0.00    -0.200 F 
ATOM     64  F   UNL A   1      47.753  27.102  37.402  1.00  0.00    -0.200 F 
ENDBRANCH  30  54
BRANCH  42  65
ATOM     65  C   UNL A   1      39.146  32.204  36.102  1.00  0.00     0.064 A 
ATOM     66  C   UNL A   1      38.271  31.628  37.037  1.00  0.00     0.173 A 
ATOM     67  C   UNL A   1      39.614  33.502  36.350  1.00  0.00     0.173 A 
ATOM     68  F   UNL A   1      37.783  30.394  36.834  1.00  0.00    -0.203 F 
ATOM     69  C   UNL A   1      37.851  32.340  38.156  1.00  0.00     0.198 A 
ATOM     70  C   UNL A   1      39.218  34.198  37.487  1.00  0.00     0.198 A 
ATOM     71  F   UNL A   1      40.455  34.094  35.490  1.00  0.00    -0.203 F 
ATOM     72  F   UNL A   1      36.967  31.794  39.001  1.00  0.00    -0.200 F 
ATOM     73  C   UNL A   1      38.329  33.622  38.383  1.00  0.00     0.200 A 
ATOM     74  F   UNL A   1      39.688  35.433  37.713  1.00  0.00    -0.200 F 
ATOM     75  F   UNL A   1      37.922  34.307  39.460  1.00  0.00    -0.200 F 
ENDBRANCH  42  65
ENDBRANCH  16  17
ENDBRANCH   9  11
ENDBRANCH   8   9
ENDBRANCH   7   8
ENDBRANCH   6   7
ENDBRANCH   5   6
ENDBRANCH   4   5
ENDBRANCH   3   4
ENDBRANCH   2   3
ENDBRANCH   1   2
BRANCH   1  76
ATOM     76  C   UNL A   1      40.112  22.101  26.526  1.00  0.00     0.188 C 
BRANCH  76  77
ATOM     77  O   UNL A   1      38.725  21.838  26.509  1.00  0.00    -0.376 OA
BRANCH  77  78
ATOM     78  C   UNL A   1      38.041  21.637  25.285  1.00  0.00     0.202 C 
BRANCH  78  79
ATOM     79  C   UNL A   1      36.605  21.089  25.190  1.00  0.00     0.261 C 
BRANCH  79  80
ATOM     80  O   UNL A   1      35.562  22.014  25.503  1.00  0.00    -0.460 OA
BRANCH  80  81
ATOM     81  C   UNL A   1      34.388  21.498  25.945  1.00  0.00     0.339 C 
ATOM     82  O   UNL A   1      34.027  21.363  27.100  1.00  0.00    -0.246 OA
BRANCH  81  83
ATOM     83  C   UNL A   1      33.499  21.345  24.776  1.00  0.00     0.080 A 
ATOM     84  C   UNL A   1      33.148  22.521  24.083  1.00  0.00     0.045 A 
ATOM     85  C   UNL A   1      33.145  20.096  24.265  1.00  0.00     0.055 A 
ATOM     86  C   UNL A   1      32.496  22.463  22.847  1.00  0.00     0.057 A 
ATOM     87  C   UNL A   1      32.452  20.029  23.055  1.00  0.00     0.023 A 
ATOM     88  Cl  UNL A   1      33.552  18.616  25.052  1.00  0.00    -0.083 Cl
ATOM     89  C   UNL A   1      32.147  21.200  22.349  1.00  0.00     0.029 A 
BRANCH  86  90
ATOM     90  N   UNL A   1      32.336  23.591  22.017  1.00  0.00    -0.278 N 
ATOM     91  H   UNL A   1      32.339  23.477  21.040  1.00  0.00     0.190 HD
BRANCH  90  92
ATOM     92  N   UNL A   1      32.180  24.830  22.544  1.00  0.00    -0.183 NA
ATOM     93  C   UNL A   1      33.254  25.556  22.495  1.00  0.00     0.139 C 
BRANCH  93  94
ATOM     94  C   UNL A   1      33.307  26.932  23.010  1.00  0.00     0.003 C 
ATOM     95  C   UNL A   1      32.731  27.380  24.120  1.00  0.00     0.006 A 
ATOM     96  C   UNL A   1      33.997  28.028  22.272  1.00  0.00     0.180 C 
ATOM     97  C   UNL A   1      31.995  26.821  25.207  1.00  0.00     0.011 A 
ATOM     98  C   UNL A   1      32.937  28.836  24.003  1.00  0.00     0.065 A 
ATOM     99  N   UNL A   1      33.659  29.271  23.017  1.00  0.00    -0.280 NA
ATOM    100  C   UNL A   1      31.406  27.647  26.088  1.00  0.00     0.001 A 
ATOM    101  C   UNL A   1      32.246  29.681  25.004  1.00  0.00     0.028 A 
ATOM    102  C   UNL A   1      31.505  29.090  25.956  1.00  0.00     0.002 A 
ENDBRANCH  93  94
ENDBRANCH  90  92
ENDBRANCH  86  90
ENDBRANCH  81  83
ENDBRANCH  80  81
ENDBRANCH  79  80
ENDBRANCH  78  79
ENDBRANCH  77  78
ENDBRANCH  76  77
ENDBRANCH   1  76
TORSDOF 23
ENDMDL
MODEL 2
REMARK VINA RESULT:     -10.3      3.239      8.687
REMARK SMILES O=C(OCCOCCOCCOCCOC(=O)c1cc(N/N=C/C2=c3ccccc3=NC2)ccc1Cl)c1ccc(-c2c3nc(c(-c4c(F)c(F)c(F)c(F)c4F)c4ccc([nH]4)c(-c4c(F)c(F)c(F)c(F)c4F)c4nc(c(-c5c(F)c(F)c(F)c(F)c5F)c5ccc2[nH]5)C=C4)C=C3)cc1
REMARK SMILES IDX 10 1 9 2 8 3 7 4 6 5 5 6 4 7 3 8 2 9 1 10 37 11 38 12 99 13
REMARK SMILES IDX 39 14 98 15 40 16 41 17 42 18 92 19 43 20 97 21 91 22 93 23
REMARK SMILES IDX 44 24 96 25 90 26 89 27 45 29 77 30 57 31 76 32 58 33 61 34
REMARK SMILES IDX 75 35 94 36 59 37 60 38 74 40 95 41 62 42 46 43 47 44 55 45
REMARK SMILES IDX 48 46 49 47 53 48 56 49 50 50 51 51 54 52 52 53 78 54 79 55
REMARK SMILES IDX 87 56 80 57 81 58 85 59 88 60 82 61 83 62 86 63 84 64 63 65
REMARK SMILES IDX 64 66 72 67 65 68 66 69 70 70 73 71 67 72 68 73 71 74 69 75
REMARK SMILES IDX 11 76 12 77 13 78 14 79 15 80 16 81 17 82 18 83 19 84 35 85
REMARK SMILES IDX 20 86 34 87 36 88 33 89 21 90 22 92 23 93 24 94 25 95 32 96
REMARK SMILES IDX 26 97 30 98 31 99 27 100 29 101 28 102
REMARK H PARENT 93 28 61 39 21 91
REMARK Flexibility Score: inf
ROOT
ATOM      1  C   UNL A   1      34.631  23.268  23.185  1.00  0.00     0.188 C 
ENDROOT
BRANCH   1   2
ATOM      2  O   UNL A   1      35.941  23.013  22.711  1.00  0.00    -0.377 OA
BRANCH   2   3
ATOM      3  C   UNL A   1      36.817  22.241  23.524  1.00  0.00     0.188 C 
BRANCH   3   4
ATOM      4  C   UNL A   1      36.186  21.361  24.601  1.00  0.00     0.188 C 
BRANCH   4   5
ATOM      5  O   UNL A   1      37.149  21.037  25.598  1.00  0.00    -0.376 OA
BRANCH   5   6
ATOM      6  C   UNL A   1      38.493  21.391  25.277  1.00  0.00     0.202 C 
BRANCH   6   7
ATOM      7  C   UNL A   1      39.316  21.861  26.472  1.00  0.00     0.261 C 
BRANCH   7   8
ATOM      8  O   UNL A   1      39.680  23.226  26.250  1.00  0.00    -0.460 OA
BRANCH   8   9
ATOM      9  C   UNL A   1      38.679  24.104  26.502  1.00  0.00     0.338 C 
ATOM     10  O   UNL A   1      37.539  24.048  26.074  1.00  0.00    -0.246 OA
BRANCH   9  11
ATOM     11  C   UNL A   1      39.221  25.222  27.303  1.00  0.00     0.060 A 
ATOM     12  C   UNL A   1      40.052  26.166  26.696  1.00  0.00     0.016 A 
ATOM     13  C   UNL A   1      38.969  25.281  28.681  1.00  0.00     0.016 A 
ATOM     14  C   UNL A   1      40.594  27.195  27.465  1.00  0.00     0.010 A 
ATOM     15  C   UNL A   1      39.509  26.294  29.447  1.00  0.00     0.010 A 
ATOM     16  C   UNL A   1      40.311  27.261  28.838  1.00  0.00    -0.014 A 
BRANCH  16  17
ATOM     17  C   UNL A   1      40.709  28.409  29.665  1.00  0.00     0.031 A 
ATOM     18  C   UNL A   1      42.033  28.433  30.349  1.00  0.00     0.074 A 
ATOM     19  C   UNL A   1      39.759  29.322  29.923  1.00  0.00     0.049 A 
ATOM     20  N   UNL A   1      42.533  29.349  31.136  1.00  0.00    -0.248 NA
ATOM     21  C   UNL A   1      42.902  27.263  30.148  1.00  0.00     0.031 C 
ATOM     22  C   UNL A   1      38.397  29.285  29.383  1.00  0.00     0.029 A 
ATOM     23  N   UNL A   1      39.775  30.428  30.724  1.00  0.00    -0.354 N 
ATOM     24  C   UNL A   1      43.787  28.884  31.501  1.00  0.00     0.074 A 
ATOM     25  C   UNL A   1      43.942  27.571  30.911  1.00  0.00     0.031 C 
ATOM     26  C   UNL A   1      37.708  30.328  29.865  1.00  0.00     0.029 A 
ATOM     27  C   UNL A   1      38.581  31.101  30.741  1.00  0.00     0.049 A 
ATOM     28  H   UNL A   1      40.564  30.713  31.238  1.00  0.00     0.167 HD
ATOM     29  C   UNL A   1      44.725  29.521  32.242  1.00  0.00     0.037 A 
ATOM     30  C   UNL A   1      38.244  32.234  31.379  1.00  0.00     0.037 A 
ATOM     31  C   UNL A   1      44.504  30.803  32.865  1.00  0.00     0.049 A 
ATOM     32  C   UNL A   1      39.296  32.927  32.190  1.00  0.00     0.074 A 
ATOM     33  C   UNL A   1      45.382  31.577  33.600  1.00  0.00     0.029 A 
ATOM     34  N   UNL A   1      43.293  31.488  32.840  1.00  0.00    -0.354 N 
ATOM     35  N   UNL A   1      40.530  32.552  32.431  1.00  0.00    -0.248 NA
ATOM     36  C   UNL A   1      38.921  34.209  32.791  1.00  0.00     0.031 C 
ATOM     37  C   UNL A   1      44.690  32.706  34.058  1.00  0.00     0.029 A 
ATOM     38  C   UNL A   1      43.393  32.664  33.565  1.00  0.00     0.049 A 
ATOM     39  H   UNL A   1      42.482  31.181  32.375  1.00  0.00     0.167 HD
ATOM     40  C   UNL A   1      41.090  33.554  33.207  1.00  0.00     0.074 A 
ATOM     41  C   UNL A   1      40.061  34.567  33.369  1.00  0.00     0.031 C 
ATOM     42  C   UNL A   1      42.335  33.632  33.738  1.00  0.00     0.037 A 
BRANCH  29  43
ATOM     43  C   UNL A   1      46.062  28.847  32.392  1.00  0.00     0.064 A 
ATOM     44  C   UNL A   1      47.094  29.069  31.464  1.00  0.00     0.173 A 
ATOM     45  C   UNL A   1      46.333  27.997  33.473  1.00  0.00     0.173 A 
ATOM     46  F   UNL A   1      46.891  29.869  30.406  1.00  0.00    -0.203 F 
ATOM     47  C   UNL A   1      48.329  28.439  31.593  1.00  0.00     0.198 A 
ATOM     48  C   UNL A   1      47.580  27.392  33.617  1.00  0.00     0.198 A 
ATOM     49  F   UNL A   1      45.390  27.750  34.395  1.00  0.00    -0.203 F 
ATOM     50  F   UNL A   1      49.277  28.628  30.664  1.00  0.00    -0.200 F 
ATOM     51  C   UNL A   1      48.574  27.606  32.673  1.00  0.00     0.200 A 
ATOM     52  F   UNL A   1      47.823  26.599  34.670  1.00  0.00    -0.200 F 
ATOM     53  F   UNL A   1      49.766  27.005  32.800  1.00  0.00    -0.200 F 
ENDBRANCH  29  43
BRANCH  30  54
ATOM     54  C   UNL A   1      36.901  32.810  31.139  1.00  0.00     0.064 A 
ATOM     55  C   UNL A   1      35.924  32.745  32.142  1.00  0.00     0.173 A 
ATOM     56  C   UNL A   1      36.609  33.549  29.984  1.00  0.00     0.173 A 
ATOM     57  F   UNL A   1      36.162  32.048  33.263  1.00  0.00    -0.203 F 
ATOM     58  C   UNL A   1      34.708  33.407  32.003  1.00  0.00     0.198 A 
ATOM     59  C   UNL A   1      35.399  34.228  29.855  1.00  0.00     0.198 A 
ATOM     60  F   UNL A   1      37.523  33.662  29.010  1.00  0.00    -0.203 F 
ATOM     61  F   UNL A   1      33.793  33.335  32.980  1.00  0.00    -0.200 F 
ATOM     62  C   UNL A   1      34.451  34.159  30.866  1.00  0.00     0.200 A 
ATOM     63  F   UNL A   1      35.164  34.976  28.768  1.00  0.00    -0.200 F 
ATOM     64  F   UNL A   1      33.295  34.827  30.751  1.00  0.00    -0.200 F 
ENDBRANCH  30  54
BRANCH  42  65
ATOM     65  C   UNL A   1      42.632  34.852  34.561  1.00  0.00     0.064 A 
ATOM     66  C   UNL A   1      43.175  36.009  33.980  1.00  0.00     0.173 A 
ATOM     67  C   UNL A   1      42.365  34.868  35.937  1.00  0.00     0.173 A 
ATOM     68  F   UNL A   1      43.463  36.035  32.670  1.00  0.00    -0.203 F 
ATOM     69  C   UNL A   1      43.475  37.124  34.756  1.00  0.00     0.198 A 
ATOM     70  C   UNL A   1      42.635  35.997  36.703  1.00  0.00     0.198 A 
ATOM     71  F   UNL A   1      41.842  33.789  36.538  1.00  0.00    -0.203 F 
ATOM     72  F   UNL A   1      44.051  38.194  34.192  1.00  0.00    -0.200 F 
ATOM     73  C   UNL A   1      43.200  37.119  36.115  1.00  0.00     0.200 A 
ATOM     74  F   UNL A   1      42.359  35.996  38.015  1.00  0.00    -0.200 F 
ATOM     75  F   UNL A   1      43.491  38.193  36.862  1.00  0.00    -0.200 F 
ENDBRANCH  42  65
ENDBRANCH  16  17
ENDBRANCH   9  11
ENDBRANCH   8   9
ENDBRANCH   7   8
ENDBRANCH   6   7
ENDBRANCH   5   6
ENDBRANCH   4   5
ENDBRANCH   3   4
ENDBRANCH   2   3
ENDBRANCH   1   2
BRANCH   1  76
ATOM     76  C   UNL A   1      33.445  23.338  22.196  1.00  0.00     0.188 C 
BRANCH  76  77
ATOM     77  O   UNL A   1      33.377  24.331  21.193  1.00  0.00    -0.376 OA
BRANCH  77  78
ATOM     78  C   UNL A   1      32.954  25.646  21.504  1.00  0.00     0.202 C 
BRANCH  78  79
ATOM     79  C   UNL A   1      31.481  26.040  21.720  1.00  0.00     0.261 C 
BRANCH  79  80
ATOM     80  O   UNL A   1      30.896  25.612  22.951  1.00  0.00    -0.460 OA
BRANCH  80  81
ATOM     81  C   UNL A   1      31.060  26.420  24.029  1.00  0.00     0.339 C 
ATOM     82  O   UNL A   1      30.405  27.405  24.322  1.00  0.00    -0.246 OA
BRANCH  81  83
ATOM     83  C   UNL A   1      32.023  25.766  24.936  1.00  0.00     0.080 A 
ATOM     84  C   UNL A   1      31.624  24.546  25.517  1.00  0.00     0.045 A 
ATOM     85  C   UNL A   1      33.329  26.227  25.097  1.00  0.00     0.055 A 
ATOM     86  C   UNL A   1      32.536  23.745  26.211  1.00  0.00     0.057 A 
ATOM     87  C   UNL A   1      34.236  25.459  25.829  1.00  0.00     0.023 A 
ATOM     88  Cl  UNL A   1      33.891  27.704  24.404  1.00  0.00    -0.083 Cl
ATOM     89  C   UNL A   1      33.845  24.224  26.364  1.00  0.00     0.029 A 
BRANCH  86  90
ATOM     90  N   UNL A   1      32.245  22.423  26.603  1.00  0.00    -0.278 N 
ATOM     91  H   UNL A   1      31.687  22.265  27.399  1.00  0.00     0.190 HD
BRANCH  90  92
ATOM     92  N   UNL A   1      32.721  21.364  25.903  1.00  0.00    -0.183 NA
ATOM     93  C   UNL A   1      31.897  20.918  25.006  1.00  0.00     0.139 C 
BRANCH  93  94
ATOM     94  C   UNL A   1      32.212  19.778  24.134  1.00  0.00     0.003 C 
ATOM     95  C   UNL A   1      32.586  18.566  24.529  1.00  0.00     0.006 A 
ATOM     96  C   UNL A   1      32.198  19.889  22.648  1.00  0.00     0.180 C 
ATOM     97  C   UNL A   1      32.741  17.878  25.769  1.00  0.00     0.011 A 
ATOM     98  C   UNL A   1      32.966  17.934  23.250  1.00  0.00     0.065 A 
ATOM     99  N   UNL A   1      32.750  18.598  22.156  1.00  0.00    -0.280 NA
ATOM    100  C   UNL A   1      33.328  16.670  25.775  1.00  0.00     0.001 A 
ATOM    101  C   UNL A   1      33.617  16.608  23.340  1.00  0.00     0.028 A 
ATOM    102  C   UNL A   1      33.803  16.052  24.548  1.00  0.00     0.002 A 
ENDBRANCH  93  94
ENDBRANCH  90  92
ENDBRANCH  86  90
ENDBRANCH  81  83
ENDBRANCH  80  81
ENDBRANCH  79  80
ENDBRANCH  78  79
ENDBRANCH  77  78
ENDBRANCH  76  77
ENDBRANCH   1  76
TORSDOF 23
ENDMDL
MODEL 3
REMARK VINA RESULT:     -10.2      0.911      2.075
REMARK SMILES O=C(OCCOCCOCCOCCOC(=O)c1cc(N/N=C/C2=c3ccccc3=NC2)ccc1Cl)c1ccc(-c2c3nc(c(-c4c(F)c(F)c(F)c(F)c4F)c4ccc([nH]4)c(-c4c(F)c(F)c(F)c(F)c4F)c4nc(c(-c5c(F)c(F)c(F)c(F)c5F)c5ccc2[nH]5)C=C4)C=C3)cc1
REMARK SMILES IDX 10 1 9 2 8 3 7 4 6 5 5 6 4 7 3 8 2 9 1 10 37 11 38 12 99 13
REMARK SMILES IDX 39 14 98 15 40 16 41 17 42 18 92 19 43 20 97 21 91 22 93 23
REMARK SMILES IDX 44 24 96 25 90 26 89 27 45 29 77 30 57 31 76 32 58 33 61 34
REMARK SMILES IDX 75 35 94 36 59 37 60 38 74 40 95 41 62 42 46 43 47 44 55 45
REMARK SMILES IDX 48 46 49 47 53 48 56 49 50 50 51 51 54 52 52 53 78 54 79 55
REMARK SMILES IDX 87 56 80 57 81 58 85 59 88 60 82 61 83 62 86 63 84 64 63 65
REMARK SMILES IDX 64 66 72 67 65 68 66 69 70 70 73 71 67 72 68 73 71 74 69 75
REMARK SMILES IDX 11 76 12 77 13 78 14 79 15 80 16 81 17 82 18 83 19 84 35 85
REMARK SMILES IDX 20 86 34 87 36 88 33 89 21 90 22 92 23 93 24 94 25 95 32 96
REMARK SMILES IDX 26 97 30 98 31 99 27 100 29 101 28 102
REMARK H PARENT 93 28 61 39 21 91
REMARK Flexibility Score: inf
ROOT
ATOM      1  C   UNL A   1      41.224  22.642  27.690  1.00  0.00     0.188 C 
ENDROOT
BRANCH   1   2
ATOM      2  O   UNL A   1      42.416  22.063  27.189  1.00  0.00    -0.377 OA
BRANCH   2   3
ATOM      3  C   UNL A   1      42.317  21.116  26.131  1.00  0.00     0.188 C 
BRANCH   3   4
ATOM      4  C   UNL A   1      43.620  20.565  25.556  1.00  0.00     0.188 C 
BRANCH   4   5
ATOM      5  O   UNL A   1      44.693  21.463  25.821  1.00  0.00    -0.376 OA
BRANCH   5   6
ATOM      6  C   UNL A   1      45.157  22.198  24.690  1.00  0.00     0.202 C 
BRANCH   6   7
ATOM      7  C   UNL A   1      45.738  23.566  25.031  1.00  0.00     0.261 C 
BRANCH   7   8
ATOM      8  O   UNL A   1      44.651  24.473  25.228  1.00  0.00    -0.460 OA
BRANCH   8   9
ATOM      9  C   UNL A   1      45.033  25.769  25.325  1.00  0.00     0.338 C 
ATOM     10  O   UNL A   1      45.909  26.318  24.679  1.00  0.00    -0.246 OA
BRANCH   9  11
ATOM     11  C   UNL A   1      44.285  26.401  26.432  1.00  0.00     0.060 A 
ATOM     12  C   UNL A   1      43.405  25.633  27.197  1.00  0.00     0.016 A 
ATOM     13  C   UNL A   1      44.400  27.781  26.654  1.00  0.00     0.016 A 
ATOM     14  C   UNL A   1      42.671  26.243  28.214  1.00  0.00     0.010 A 
ATOM     15  C   UNL A   1      43.669  28.390  27.656  1.00  0.00     0.010 A 
ATOM     16  C   UNL A   1      42.815  27.619  28.447  1.00  0.00    -0.014 A 
BRANCH  16  17
ATOM     17  C   UNL A   1      42.205  28.286  29.605  1.00  0.00     0.031 A 
ATOM     18  C   UNL A   1      40.916  29.023  29.469  1.00  0.00     0.074 A 
ATOM     19  C   UNL A   1      42.951  28.359  30.720  1.00  0.00     0.049 A 
ATOM     20  N   UNL A   1      40.252  29.690  30.377  1.00  0.00    -0.248 NA
ATOM     21  C   UNL A   1      40.303  29.041  28.132  1.00  0.00     0.031 C 
ATOM     22  C   UNL A   1      44.281  27.765  30.873  1.00  0.00     0.029 A 
ATOM     23  N   UNL A   1      42.721  28.987  31.910  1.00  0.00    -0.354 N 
ATOM     24  C   UNL A   1      39.128  30.180  29.731  1.00  0.00     0.074 A 
ATOM     25  C   UNL A   1      39.236  29.800  28.338  1.00  0.00     0.031 C 
ATOM     26  C   UNL A   1      44.749  28.052  32.096  1.00  0.00     0.029 A 
ATOM     27  C   UNL A   1      43.751  28.845  32.803  1.00  0.00     0.049 A 
ATOM     28  H   UNL A   1      41.899  29.491  32.107  1.00  0.00     0.167 HD
ATOM     29  C   UNL A   1      38.092  30.864  30.274  1.00  0.00     0.037 A 
ATOM     30  C   UNL A   1      43.858  29.291  34.065  1.00  0.00     0.037 A 
ATOM     31  C   UNL A   1      38.055  31.278  31.655  1.00  0.00     0.049 A 
ATOM     32  C   UNL A   1      42.701  30.041  34.651  1.00  0.00     0.074 A 
ATOM     33  C   UNL A   1      37.050  31.933  32.342  1.00  0.00     0.029 A 
ATOM     34  N   UNL A   1      39.099  31.093  32.557  1.00  0.00    -0.354 N 
ATOM     35  N   UNL A   1      41.575  30.396  34.078  1.00  0.00    -0.248 NA
ATOM     36  C   UNL A   1      42.814  30.427  36.060  1.00  0.00     0.031 C 
ATOM     37  C   UNL A   1      37.503  32.184  33.643  1.00  0.00     0.029 A 
ATOM     38  C   UNL A   1      38.771  31.639  33.787  1.00  0.00     0.049 A 
ATOM     39  H   UNL A   1      39.947  30.639  32.351  1.00  0.00     0.167 HD
ATOM     40  C   UNL A   1      40.835  31.041  35.055  1.00  0.00     0.074 A 
ATOM     41  C   UNL A   1      41.636  31.000  36.266  1.00  0.00     0.031 C 
ATOM     42  C   UNL A   1      39.610  31.615  34.963  1.00  0.00     0.037 A 
BRANCH  29  43
ATOM     43  C   UNL A   1      36.926  31.177  29.377  1.00  0.00     0.064 A 
ATOM     44  C   UNL A   1      36.700  32.484  28.911  1.00  0.00     0.173 A 
ATOM     45  C   UNL A   1      36.039  30.177  28.957  1.00  0.00     0.173 A 
ATOM     46  F   UNL A   1      37.513  33.484  29.284  1.00  0.00    -0.203 F 
ATOM     47  C   UNL A   1      35.615  32.781  28.090  1.00  0.00     0.198 A 
ATOM     48  C   UNL A   1      34.971  30.470  28.109  1.00  0.00     0.198 A 
ATOM     49  F   UNL A   1      36.205  28.908  29.363  1.00  0.00    -0.203 F 
ATOM     50  F   UNL A   1      35.395  34.045  27.704  1.00  0.00    -0.200 F 
ATOM     51  C   UNL A   1      34.754  31.773  27.684  1.00  0.00     0.200 A 
ATOM     52  F   UNL A   1      34.149  29.493  27.704  1.00  0.00    -0.200 F 
ATOM     53  F   UNL A   1      33.715  32.059  26.889  1.00  0.00    -0.200 F 
ENDBRANCH  29  43
BRANCH  30  54
ATOM     54  C   UNL A   1      45.050  28.902  34.855  1.00  0.00     0.064 A 
ATOM     55  C   UNL A   1      45.089  27.655  35.494  1.00  0.00     0.173 A 
ATOM     56  C   UNL A   1      46.212  29.687  34.874  1.00  0.00     0.173 A 
ATOM     57  F   UNL A   1      44.000  26.873  35.499  1.00  0.00    -0.203 F 
ATOM     58  C   UNL A   1      46.250  27.202  36.113  1.00  0.00     0.198 A 
ATOM     59  C   UNL A   1      47.379  29.224  35.479  1.00  0.00     0.198 A 
ATOM     60  F   UNL A   1      46.230  30.876  34.254  1.00  0.00    -0.203 F 
ATOM     61  F   UNL A   1      46.263  26.002  36.711  1.00  0.00    -0.200 F 
ATOM     62  C   UNL A   1      47.398  27.980  36.094  1.00  0.00     0.200 A 
ATOM     63  F   UNL A   1      48.494  29.965  35.436  1.00  0.00    -0.200 F 
ATOM     64  F   UNL A   1      48.525  27.527  36.659  1.00  0.00    -0.200 F 
ENDBRANCH  30  54
BRANCH  42  65
ATOM     65  C   UNL A   1      39.083  32.261  36.211  1.00  0.00     0.064 A 
ATOM     66  C   UNL A   1      39.409  33.586  36.539  1.00  0.00     0.173 A 
ATOM     67  C   UNL A   1      38.240  31.555  37.080  1.00  0.00     0.173 A 
ATOM     68  F   UNL A   1      40.226  34.297  35.746  1.00  0.00    -0.203 F 
ATOM     69  C   UNL A   1      38.941  34.167  37.713  1.00  0.00     0.198 A 
ATOM     70  C   UNL A   1      37.747  32.150  38.236  1.00  0.00     0.198 A 
ATOM     71  F   UNL A   1      37.896  30.287  36.808  1.00  0.00    -0.203 F 
ATOM     72  F   UNL A   1      39.316  35.411  38.038  1.00  0.00    -0.200 F 
ATOM     73  C   UNL A   1      38.106  33.451  38.558  1.00  0.00     0.200 A 
ATOM     74  F   UNL A   1      36.931  31.462  39.047  1.00  0.00    -0.200 F 
ATOM     75  F   UNL A   1      37.657  34.011  39.689  1.00  0.00    -0.200 F 
ENDBRANCH  42  65
ENDBRANCH  16  17
ENDBRANCH   9  11
ENDBRANCH   8   9
ENDBRANCH   7   8
ENDBRANCH   6   7
ENDBRANCH   5   6
ENDBRANCH   4   5
ENDBRANCH   3   4
ENDBRANCH   2   3
ENDBRANCH   1   2
BRANCH   1  76
ATOM     76  C   UNL A   1      40.096  23.060  26.721  1.00  0.00     0.188 C 
BRANCH  76  77
ATOM     77  O   UNL A   1      39.206  22.113  26.169  1.00  0.00    -0.376 OA
BRANCH  77  78
ATOM     78  C   UNL A   1      37.908  22.496  25.750  1.00  0.00     0.202 C 
BRANCH  78  79
ATOM     79  C   UNL A   1      36.724  21.517  25.643  1.00  0.00     0.261 C 
BRANCH  79  80
ATOM     80  O   UNL A   1      35.444  22.111  25.413  1.00  0.00    -0.460 OA
BRANCH  80  81
ATOM     81  C   UNL A   1      34.368  21.493  25.963  1.00  0.00     0.339 C 
ATOM     82  O   UNL A   1      34.128  21.337  27.147  1.00  0.00    -0.246 OA
BRANCH  81  83
ATOM     83  C   UNL A   1      33.393  21.248  24.881  1.00  0.00     0.080 A 
ATOM     84  C   UNL A   1      32.593  22.337  24.485  1.00  0.00     0.045 A 
ATOM     85  C   UNL A   1      33.363  20.054  24.160  1.00  0.00     0.055 A 
ATOM     86  C   UNL A   1      31.800  22.269  23.334  1.00  0.00     0.057 A 
ATOM     87  C   UNL A   1      32.539  19.959  23.037  1.00  0.00     0.023 A 
ATOM     88  Cl  UNL A   1      34.325  18.685  24.579  1.00  0.00    -0.083 Cl
ATOM     89  C   UNL A   1      31.781  21.062  22.622  1.00  0.00     0.029 A 
BRANCH  86  90
ATOM     90  N   UNL A   1      31.171  23.400  22.776  1.00  0.00    -0.278 N 
ATOM     91  H   UNL A   1      30.355  23.284  22.238  1.00  0.00     0.190 HD
BRANCH  90  92
ATOM     92  N   UNL A   1      31.673  24.645  22.965  1.00  0.00    -0.183 NA
ATOM     93  C   UNL A   1      30.801  25.497  23.407  1.00  0.00     0.139 C 
BRANCH  93  94
ATOM     94  C   UNL A   1      31.132  26.903  23.681  1.00  0.00     0.003 C 
ATOM     95  C   UNL A   1      31.376  27.435  24.874  1.00  0.00     0.006 A 
ATOM     96  C   UNL A   1      31.172  27.933  22.604  1.00  0.00     0.180 C 
ATOM     97  C   UNL A   1      31.508  26.965  26.215  1.00  0.00     0.011 A 
ATOM     98  C   UNL A   1      31.425  28.876  24.559  1.00  0.00     0.065 A 
ATOM     99  N   UNL A   1      31.349  29.229  23.313  1.00  0.00    -0.280 NA
ATOM    100  C   UNL A   1      31.586  27.860  27.213  1.00  0.00     0.001 A 
ATOM    101  C   UNL A   1      31.500  29.800  25.714  1.00  0.00     0.028 A 
ATOM    102  C   UNL A   1      31.543  29.289  26.956  1.00  0.00     0.002 A 
ENDBRANCH  93  94
ENDBRANCH  90  92
ENDBRANCH  86  90
ENDBRANCH  81  83
ENDBRANCH  80  81
ENDBRANCH  79  80
ENDBRANCH  78  79
ENDBRANCH  77  78
ENDBRANCH  76  77
ENDBRANCH   1  76
TORSDOF 23
ENDMDL
