MODEL 1
REMARK VINA RESULT:     -10.2      0.000      0.000
REMARK SMILES Cc1cc([C@H]([NH3+])C(=O)OCCOCCOCCOCCOC(=O)c2ccc(-c3c4nc(c(-c5c(F)c(F)c(F)c(F)c5F)c5ccc([nH]5)c(-c5c(F)c(F)c(F)c(F)c5F)c5nc(c(-c6c(F)c(F)c(F)c(F)c6F)c6ccc3[nH]6)C=C5)C=C4)cc2)ccc1F
REMARK SMILES IDX 16 1 15 2 14 3 13 4 12 5 11 6 10 7 9 8 7 9 8 10 5 11 4 12
REMARK SMILES IDX 1 13 2 14 3 15 89 16 88 17 90 18 87 19 6 20 17 24 18 25
REMARK SMILES IDX 19 26 20 27 21 28 22 29 23 30 24 31 25 32 86 33 26 34 85 35
REMARK SMILES IDX 27 36 28 37 29 38 79 39 30 40 84 41 78 42 80 43 31 44 83 45
REMARK SMILES IDX 77 46 76 47 32 49 64 50 44 51 63 52 45 53 48 54 62 55 81 56
REMARK SMILES IDX 46 57 47 58 61 60 82 61 49 62 33 63 34 64 42 65 35 66 36 67
REMARK SMILES IDX 40 68 43 69 37 70 38 71 41 72 39 73 65 74 66 75 74 76 67 77
REMARK SMILES IDX 68 78 72 79 75 80 69 81 70 82 73 83 71 84 50 85 51 86 59 87
REMARK SMILES IDX 52 88 53 89 57 90 60 91 54 92 55 93 58 94 56 95
REMARK H PARENT 6 21 6 22 6 23 80 48 48 59
REMARK Flexibility Score: inf
ROOT
ATOM      1  C   UNL A   1      31.331  27.194  26.165  1.00  0.00     0.188 C 
ENDROOT
BRANCH   1   2
ATOM      2  O   UNL A   1      30.627  26.181  25.448  1.00  0.00    -0.377 OA
BRANCH   2   3
ATOM      3  C   UNL A   1      30.294  26.450  24.089  1.00  0.00     0.188 C 
BRANCH   3   4
ATOM      4  C   UNL A   1      31.066  25.709  22.989  1.00  0.00     0.188 C 
BRANCH   4   5
ATOM      5  O   UNL A   1      31.853  26.551  22.165  1.00  0.00    -0.376 OA
BRANCH   5   6
ATOM      6  C   UNL A   1      33.259  26.348  22.127  1.00  0.00     0.202 C 
BRANCH   6   7
ATOM      7  C   UNL A   1      33.978  25.441  23.152  1.00  0.00     0.261 C 
BRANCH   7   8
ATOM      8  O   UNL A   1      34.369  24.127  22.726  1.00  0.00    -0.459 OA
BRANCH   8   9
ATOM      9  C   UNL A   1      33.731  23.090  23.317  1.00  0.00     0.369 C 
ATOM     10  O   UNL A   1      32.960  22.341  22.720  1.00  0.00    -0.245 OA
BRANCH   9  11
ATOM     11  C   UNL A   1      34.019  22.959  24.832  1.00  0.00     0.323 C 
BRANCH  11  12
ATOM     12  C   UNL A   1      35.482  22.673  25.006  1.00  0.00     0.021 A 
ATOM     13  C   UNL A   1      38.531  24.314  26.576  1.00  0.00     0.047 C 
ATOM     14  C   UNL A   1      37.651  23.315  25.897  1.00  0.00    -0.015 A 
ATOM     15  C   UNL A   1      36.315  23.612  25.643  1.00  0.00     0.017 A 
ATOM     16  C   UNL A   1      38.129  22.057  25.530  1.00  0.00     0.126 A 
ATOM     17  C   UNL A   1      37.312  21.115  24.906  1.00  0.00     0.040 A 
ATOM     18  F   UNL A   1      39.402  21.729  25.794  1.00  0.00    -0.207 F 
ATOM     19  C   UNL A   1      35.986  21.425  24.637  1.00  0.00     0.013 A 
ENDBRANCH  11  12
BRANCH  11  20
ATOM     20  N   UNL A   1      33.212  21.993  25.601  1.00  0.00    -0.342 N 
ATOM     21  H   UNL A   1      32.748  22.473  26.371  1.00  0.00     0.345 HD
ATOM     22  H   UNL A   1      33.819  21.262  25.971  1.00  0.00     0.345 HD
ATOM     23  H   UNL A   1      32.510  21.574  24.990  1.00  0.00     0.345 HD
ENDBRANCH  11  20
ENDBRANCH   9  11
ENDBRANCH   8   9
ENDBRANCH   7   8
ENDBRANCH   6   7
ENDBRANCH   5   6
ENDBRANCH   4   5
ENDBRANCH   3   4
ENDBRANCH   2   3
ENDBRANCH   1   2
BRANCH   1  24
ATOM     24  C   UNL A   1      32.340  28.087  25.406  1.00  0.00     0.188 C 
BRANCH  24  25
ATOM     25  O   UNL A   1      31.868  29.386  25.068  1.00  0.00    -0.376 OA
BRANCH  25  26
ATOM     26  C   UNL A   1      31.790  30.382  26.071  1.00  0.00     0.202 C 
BRANCH  26  27
ATOM     27  C   UNL A   1      32.794  30.478  27.255  1.00  0.00     0.261 C 
BRANCH  27  28
ATOM     28  O   UNL A   1      33.276  31.727  27.767  1.00  0.00    -0.460 OA
BRANCH  28  29
ATOM     29  C   UNL A   1      34.597  31.833  27.902  1.00  0.00     0.338 C 
ATOM     30  O   UNL A   1      35.444  31.152  27.304  1.00  0.00    -0.246 OA
BRANCH  29  31
ATOM     31  C   UNL A   1      35.062  32.709  28.998  1.00  0.00     0.060 A 
ATOM     32  C   UNL A   1      36.134  33.504  28.532  1.00  0.00     0.016 A 
ATOM     33  C   UNL A   1      35.208  31.937  30.148  1.00  0.00     0.016 A 
ATOM     34  C   UNL A   1      37.415  33.058  28.786  1.00  0.00     0.010 A 
ATOM     35  C   UNL A   1      36.478  31.496  30.422  1.00  0.00     0.010 A 
ATOM     36  C   UNL A   1      37.552  31.984  29.659  1.00  0.00    -0.014 A 
BRANCH  36  37
ATOM     37  C   UNL A   1      38.845  31.480  30.033  1.00  0.00     0.031 A 
ATOM     38  C   UNL A   1      39.161  30.162  29.459  1.00  0.00     0.074 A 
ATOM     39  C   UNL A   1      39.682  32.273  30.732  1.00  0.00     0.049 A 
ATOM     40  N   UNL A   1      40.000  29.323  29.948  1.00  0.00    -0.248 NA
ATOM     41  C   UNL A   1      38.401  29.614  28.327  1.00  0.00     0.031 C 
ATOM     42  C   UNL A   1      41.133  32.205  30.762  1.00  0.00     0.029 A 
ATOM     43  N   UNL A   1      39.359  33.300  31.637  1.00  0.00    -0.354 N 
ATOM     44  C   UNL A   1      40.147  28.326  29.005  1.00  0.00     0.074 A 
ATOM     45  C   UNL A   1      39.004  28.441  28.141  1.00  0.00     0.031 C 
ATOM     46  C   UNL A   1      41.587  32.986  31.758  1.00  0.00     0.029 A 
ATOM     47  C   UNL A   1      40.440  33.428  32.537  1.00  0.00     0.049 A 
ATOM     48  H   UNL A   1      38.531  33.832  31.642  1.00  0.00     0.167 HD
ATOM     49  C   UNL A   1      41.347  27.685  28.923  1.00  0.00     0.037 A 
ATOM     50  C   UNL A   1      40.312  33.156  33.877  1.00  0.00     0.037 A 
ATOM     51  C   UNL A   1      42.234  28.195  29.968  1.00  0.00     0.049 A 
ATOM     52  C   UNL A   1      41.017  31.907  34.291  1.00  0.00     0.074 A 
ATOM     53  C   UNL A   1      43.159  29.228  29.950  1.00  0.00     0.029 A 
ATOM     54  N   UNL A   1      41.919  27.971  31.304  1.00  0.00    -0.354 N 
ATOM     55  N   UNL A   1      41.342  30.954  33.469  1.00  0.00    -0.248 NA
ATOM     56  C   UNL A   1      41.395  31.647  35.670  1.00  0.00     0.031 C 
ATOM     57  C   UNL A   1      43.353  29.663  31.286  1.00  0.00     0.029 A 
ATOM     58  C   UNL A   1      42.570  28.882  32.118  1.00  0.00     0.049 A 
ATOM     59  H   UNL A   1      41.317  27.262  31.626  1.00  0.00     0.167 HD
ATOM     60  C   UNL A   1      41.977  29.971  34.167  1.00  0.00     0.074 A 
ATOM     61  C   UNL A   1      42.007  30.461  35.535  1.00  0.00     0.031 C 
ATOM     62  C   UNL A   1      42.420  28.831  33.565  1.00  0.00     0.037 A 
BRANCH  49  63
ATOM     63  C   UNL A   1      41.822  26.937  27.693  1.00  0.00     0.064 A 
ATOM     64  C   UNL A   1      41.823  25.525  27.680  1.00  0.00     0.173 A 
ATOM     65  C   UNL A   1      42.331  27.532  26.522  1.00  0.00     0.173 A 
ATOM     66  F   UNL A   1      41.290  24.815  28.683  1.00  0.00    -0.203 F 
ATOM     67  C   UNL A   1      42.374  24.780  26.632  1.00  0.00     0.198 A 
ATOM     68  C   UNL A   1      42.927  26.789  25.495  1.00  0.00     0.198 A 
ATOM     69  F   UNL A   1      42.222  28.847  26.297  1.00  0.00    -0.203 F 
ATOM     70  F   UNL A   1      42.347  23.441  26.686  1.00  0.00    -0.200 F 
ATOM     71  C   UNL A   1      42.953  25.412  25.552  1.00  0.00     0.200 A 
ATOM     72  F   UNL A   1      43.467  27.421  24.443  1.00  0.00    -0.200 F 
ATOM     73  F   UNL A   1      43.503  24.699  24.561  1.00  0.00    -0.200 F 
ENDBRANCH  49  63
BRANCH  50  74
ATOM     74  C   UNL A   1      39.059  33.617  34.547  1.00  0.00     0.064 A 
ATOM     75  C   UNL A   1      38.215  32.556  34.900  1.00  0.00     0.173 A 
ATOM     76  C   UNL A   1      39.200  34.697  35.430  1.00  0.00     0.173 A 
ATOM     77  F   UNL A   1      37.935  31.585  34.020  1.00  0.00    -0.203 F 
ATOM     78  C   UNL A   1      37.966  32.334  36.230  1.00  0.00     0.198 A 
ATOM     79  C   UNL A   1      38.952  34.481  36.770  1.00  0.00     0.198 A 
ATOM     80  F   UNL A   1      39.815  35.821  35.039  1.00  0.00    -0.203 F 
ATOM     81  F   UNL A   1      37.484  31.157  36.654  1.00  0.00    -0.200 F 
ATOM     82  C   UNL A   1      38.453  33.240  37.146  1.00  0.00     0.200 A 
ATOM     83  F   UNL A   1      39.354  35.382  37.675  1.00  0.00    -0.200 F 
ATOM     84  F   UNL A   1      38.628  32.767  38.366  1.00  0.00    -0.200 F 
ENDBRANCH  50  74
BRANCH  62  85
ATOM     85  C   UNL A   1      42.866  27.603  34.307  1.00  0.00     0.064 A 
ATOM     86  C   UNL A   1      44.172  27.407  34.781  1.00  0.00     0.173 A 
ATOM     87  C   UNL A   1      41.926  26.614  34.679  1.00  0.00     0.173 A 
ATOM     88  F   UNL A   1      45.117  28.348  34.652  1.00  0.00    -0.203 F 
ATOM     89  C   UNL A   1      44.541  26.252  35.467  1.00  0.00     0.198 A 
ATOM     90  C   UNL A   1      42.277  25.509  35.446  1.00  0.00     0.198 A 
ATOM     91  F   UNL A   1      40.633  26.699  34.335  1.00  0.00    -0.203 F 
ATOM     92  F   UNL A   1      45.821  26.071  35.816  1.00  0.00    -0.200 F 
ATOM     93  C   UNL A   1      43.591  25.310  35.810  1.00  0.00     0.200 A 
ATOM     94  F   UNL A   1      41.329  24.649  35.841  1.00  0.00    -0.200 F 
ATOM     95  F   UNL A   1      43.938  24.225  36.513  1.00  0.00    -0.200 F 
ENDBRANCH  62  85
ENDBRANCH  36  37
ENDBRANCH  29  31
ENDBRANCH  28  29
ENDBRANCH  27  28
ENDBRANCH  26  27
ENDBRANCH  25  26
ENDBRANCH  24  25
ENDBRANCH   1  24
TORSDOF 22
ENDMDL
MODEL 2
REMARK VINA RESULT:      -9.9      1.997      7.586
REMARK SMILES Cc1cc([C@H]([NH3+])C(=O)OCCOCCOCCOCCOC(=O)c2ccc(-c3c4nc(c(-c5c(F)c(F)c(F)c(F)c5F)c5ccc([nH]5)c(-c5c(F)c(F)c(F)c(F)c5F)c5nc(c(-c6c(F)c(F)c(F)c(F)c6F)c6ccc3[nH]6)C=C5)C=C4)cc2)ccc1F
REMARK SMILES IDX 16 1 15 2 14 3 13 4 12 5 11 6 10 7 9 8 7 9 8 10 5 11 4 12
REMARK SMILES IDX 1 13 2 14 3 15 89 16 88 17 90 18 87 19 6 20 17 24 18 25
REMARK SMILES IDX 19 26 20 27 21 28 22 29 23 30 24 31 25 32 86 33 26 34 85 35
REMARK SMILES IDX 27 36 28 37 29 38 79 39 30 40 84 41 78 42 80 43 31 44 83 45
REMARK SMILES IDX 77 46 76 47 32 49 64 50 44 51 63 52 45 53 48 54 62 55 81 56
REMARK SMILES IDX 46 57 47 58 61 60 82 61 49 62 33 63 34 64 42 65 35 66 36 67
REMARK SMILES IDX 40 68 43 69 37 70 38 71 41 72 39 73 65 74 66 75 74 76 67 77
REMARK SMILES IDX 68 78 72 79 75 80 69 81 70 82 73 83 71 84 50 85 51 86 59 87
REMARK SMILES IDX 52 88 53 89 57 90 60 91 54 92 55 93 58 94 56 95
REMARK H PARENT 6 21 6 22 6 23 80 48 48 59
REMARK Flexibility Score: inf
ROOT
ATOM      1  C   UNL A   1      31.418  27.112  24.334  1.00  0.00     0.188 C 
ENDROOT
BRANCH   1   2
ATOM      2  O   UNL A   1      30.898  25.983  23.633  1.00  0.00    -0.377 OA
BRANCH   2   3
ATOM      3  C   UNL A   1      31.494  25.656  22.381  1.00  0.00     0.188 C 
BRANCH   3   4
ATOM      4  C   UNL A   1      33.010  25.423  22.334  1.00  0.00     0.188 C 
BRANCH   4   5
ATOM      5  O   UNL A   1      33.472  24.432  23.235  1.00  0.00    -0.376 OA
BRANCH   5   6
ATOM      6  C   UNL A   1      33.687  23.114  22.750  1.00  0.00     0.202 C 
BRANCH   6   7
ATOM      7  C   UNL A   1      32.517  22.127  22.531  1.00  0.00     0.261 C 
BRANCH   7   8
ATOM      8  O   UNL A   1      31.892  21.561  23.692  1.00  0.00    -0.459 OA
BRANCH   8   9
ATOM      9  C   UNL A   1      32.385  20.375  24.121  1.00  0.00     0.369 C 
ATOM     10  O   UNL A   1      32.487  19.384  23.401  1.00  0.00    -0.245 OA
BRANCH   9  11
ATOM     11  C   UNL A   1      32.764  20.362  25.621  1.00  0.00     0.323 C 
BRANCH  11  12
ATOM     12  C   UNL A   1      33.987  21.215  25.802  1.00  0.00     0.021 A 
ATOM     13  C   UNL A   1      37.636  21.213  24.738  1.00  0.00     0.047 C 
ATOM     14  C   UNL A   1      36.331  21.643  25.328  1.00  0.00    -0.015 A 
ATOM     15  C   UNL A   1      35.217  20.813  25.250  1.00  0.00     0.017 A 
ATOM     16  C   UNL A   1      36.187  22.888  25.940  1.00  0.00     0.126 A 
ATOM     17  C   UNL A   1      34.972  23.301  26.483  1.00  0.00     0.040 A 
ATOM     18  F   UNL A   1      37.234  23.724  25.998  1.00  0.00    -0.207 F 
ATOM     19  C   UNL A   1      33.869  22.461  26.421  1.00  0.00     0.013 A 
ENDBRANCH  11  12
BRANCH  11  20
ATOM     20  N   UNL A   1      32.954  19.049  26.268  1.00  0.00    -0.342 N 
ATOM     21  H   UNL A   1      33.670  18.524  25.767  1.00  0.00     0.345 HD
ATOM     22  H   UNL A   1      32.076  18.531  26.248  1.00  0.00     0.345 HD
ATOM     23  H   UNL A   1      33.247  19.186  27.235  1.00  0.00     0.345 HD
ENDBRANCH  11  20
ENDBRANCH   9  11
ENDBRANCH   8   9
ENDBRANCH   7   8
ENDBRANCH   6   7
ENDBRANCH   5   6
ENDBRANCH   4   5
ENDBRANCH   3   4
ENDBRANCH   2   3
ENDBRANCH   1   2
BRANCH   1  24
ATOM     24  C   UNL A   1      31.392  27.110  25.880  1.00  0.00     0.188 C 
BRANCH  24  25
ATOM     25  O   UNL A   1      32.027  28.222  26.501  1.00  0.00    -0.376 OA
BRANCH  25  26
ATOM     26  C   UNL A   1      33.378  28.117  26.906  1.00  0.00     0.202 C 
BRANCH  26  27
ATOM     27  C   UNL A   1      34.417  29.259  26.709  1.00  0.00     0.261 C 
BRANCH  27  28
ATOM     28  O   UNL A   1      34.749  30.195  27.743  1.00  0.00    -0.460 OA
BRANCH  28  29
ATOM     29  C   UNL A   1      33.994  31.291  27.804  1.00  0.00     0.338 C 
ATOM     30  O   UNL A   1      32.873  31.428  27.292  1.00  0.00    -0.246 OA
BRANCH  29  31
ATOM     31  C   UNL A   1      34.647  32.489  28.371  1.00  0.00     0.060 A 
ATOM     32  C   UNL A   1      35.987  32.544  27.920  1.00  0.00     0.016 A 
ATOM     33  C   UNL A   1      34.363  32.543  29.734  1.00  0.00     0.016 A 
ATOM     34  C   UNL A   1      36.960  32.023  28.749  1.00  0.00     0.010 A 
ATOM     35  C   UNL A   1      35.326  32.041  30.572  1.00  0.00     0.010 A 
ATOM     36  C   UNL A   1      36.578  31.686  30.042  1.00  0.00    -0.014 A 
BRANCH  36  37
ATOM     37  C   UNL A   1      37.528  31.189  31.000  1.00  0.00     0.031 A 
ATOM     38  C   UNL A   1      38.050  32.219  31.913  1.00  0.00     0.074 A 
ATOM     39  C   UNL A   1      37.751  29.862  31.075  1.00  0.00     0.049 A 
ATOM     40  N   UNL A   1      39.172  32.157  32.534  1.00  0.00    -0.248 NA
ATOM     41  C   UNL A   1      37.382  33.518  32.071  1.00  0.00     0.031 C 
ATOM     42  C   UNL A   1      38.219  29.115  32.231  1.00  0.00     0.029 A 
ATOM     43  N   UNL A   1      37.649  28.900  30.054  1.00  0.00    -0.354 N 
ATOM     44  C   UNL A   1      39.178  33.208  33.429  1.00  0.00     0.074 A 
ATOM     45  C   UNL A   1      38.169  34.119  32.962  1.00  0.00     0.031 C 
ATOM     46  C   UNL A   1      38.556  27.873  31.842  1.00  0.00     0.029 A 
ATOM     47  C   UNL A   1      38.511  27.832  30.388  1.00  0.00     0.049 A 
ATOM     48  H   UNL A   1      37.082  28.961  29.252  1.00  0.00     0.167 HD
ATOM     49  C   UNL A   1      39.863  33.059  34.598  1.00  0.00     0.037 A 
ATOM     50  C   UNL A   1      39.608  27.512  29.627  1.00  0.00     0.037 A 
ATOM     51  C   UNL A   1      40.529  31.756  34.598  1.00  0.00     0.049 A 
ATOM     52  C   UNL A   1      40.901  27.849  30.292  1.00  0.00     0.074 A 
ATOM     53  C   UNL A   1      40.110  30.522  35.071  1.00  0.00     0.029 A 
ATOM     54  N   UNL A   1      41.541  31.503  33.678  1.00  0.00    -0.354 N 
ATOM     55  N   UNL A   1      41.015  28.720  31.251  1.00  0.00    -0.248 NA
ATOM     56  C   UNL A   1      42.159  27.231  29.908  1.00  0.00     0.031 C 
ATOM     57  C   UNL A   1      40.841  29.520  34.381  1.00  0.00     0.029 A 
ATOM     58  C   UNL A   1      41.720  30.141  33.511  1.00  0.00     0.049 A 
ATOM     59  H   UNL A   1      42.059  32.198  33.210  1.00  0.00     0.167 HD
ATOM     60  C   UNL A   1      42.321  28.781  31.634  1.00  0.00     0.074 A 
ATOM     61  C   UNL A   1      42.993  27.814  30.782  1.00  0.00     0.031 C 
ATOM     62  C   UNL A   1      42.746  29.627  32.616  1.00  0.00     0.037 A 
BRANCH  49  63
ATOM     63  C   UNL A   1      39.596  33.879  35.844  1.00  0.00     0.064 A 
ATOM     64  C   UNL A   1      40.276  35.100  36.048  1.00  0.00     0.173 A 
ATOM     65  C   UNL A   1      38.732  33.510  36.894  1.00  0.00     0.173 A 
ATOM     66  F   UNL A   1      41.064  35.628  35.103  1.00  0.00    -0.203 F 
ATOM     67  C   UNL A   1      40.175  35.832  37.235  1.00  0.00     0.198 A 
ATOM     68  C   UNL A   1      38.667  34.215  38.102  1.00  0.00     0.198 A 
ATOM     69  F   UNL A   1      37.875  32.489  36.773  1.00  0.00    -0.203 F 
ATOM     70  F   UNL A   1      40.852  36.980  37.365  1.00  0.00    -0.200 F 
ATOM     71  C   UNL A   1      39.393  35.374  38.275  1.00  0.00     0.200 A 
ATOM     72  F   UNL A   1      37.885  33.766  39.095  1.00  0.00    -0.200 F 
ATOM     73  F   UNL A   1      39.316  36.063  39.421  1.00  0.00    -0.200 F 
ENDBRANCH  49  63
BRANCH  50  74
ATOM     74  C   UNL A   1      39.443  27.562  28.143  1.00  0.00     0.064 A 
ATOM     75  C   UNL A   1      40.009  28.712  27.577  1.00  0.00     0.173 A 
ATOM     76  C   UNL A   1      39.574  26.338  27.472  1.00  0.00     0.173 A 
ATOM     77  F   UNL A   1      39.773  29.920  28.107  1.00  0.00    -0.203 F 
ATOM     78  C   UNL A   1      41.063  28.564  26.713  1.00  0.00     0.198 A 
ATOM     79  C   UNL A   1      40.634  26.181  26.601  1.00  0.00     0.198 A 
ATOM     80  F   UNL A   1      38.868  25.268  27.861  1.00  0.00    -0.203 F 
ATOM     81  F   UNL A   1      41.870  29.595  26.426  1.00  0.00    -0.200 F 
ATOM     82  C   UNL A   1      41.433  27.288  26.345  1.00  0.00     0.200 A 
ATOM     83  F   UNL A   1      40.968  24.957  26.174  1.00  0.00    -0.200 F 
ATOM     84  F   UNL A   1      42.684  27.159  25.945  1.00  0.00    -0.200 F 
ENDBRANCH  50  74
BRANCH  62  85
ATOM     85  C   UNL A   1      44.188  29.946  32.889  1.00  0.00     0.064 A 
ATOM     86  C   UNL A   1      44.971  30.781  32.079  1.00  0.00     0.173 A 
ATOM     87  C   UNL A   1      44.802  29.501  34.083  1.00  0.00     0.173 A 
ATOM     88  F   UNL A   1      44.458  31.411  31.013  1.00  0.00    -0.203 F 
ATOM     89  C   UNL A   1      46.305  31.051  32.372  1.00  0.00     0.198 A 
ATOM     90  C   UNL A   1      46.104  29.851  34.421  1.00  0.00     0.198 A 
ATOM     91  F   UNL A   1      44.154  28.736  34.973  1.00  0.00    -0.203 F 
ATOM     92  F   UNL A   1      47.036  31.779  31.518  1.00  0.00    -0.200 F 
ATOM     93  C   UNL A   1      46.868  30.597  33.549  1.00  0.00     0.200 A 
ATOM     94  F   UNL A   1      46.606  29.472  35.604  1.00  0.00    -0.200 F 
ATOM     95  F   UNL A   1      48.136  30.900  33.854  1.00  0.00    -0.200 F 
ENDBRANCH  62  85
ENDBRANCH  36  37
ENDBRANCH  29  31
ENDBRANCH  28  29
ENDBRANCH  27  28
ENDBRANCH  26  27
ENDBRANCH  25  26
ENDBRANCH  24  25
ENDBRANCH   1  24
TORSDOF 22
ENDMDL
MODEL 3
REMARK VINA RESULT:      -9.7      3.621      9.123
REMARK SMILES Cc1cc([C@H]([NH3+])C(=O)OCCOCCOCCOCCOC(=O)c2ccc(-c3c4nc(c(-c5c(F)c(F)c(F)c(F)c5F)c5ccc([nH]5)c(-c5c(F)c(F)c(F)c(F)c5F)c5nc(c(-c6c(F)c(F)c(F)c(F)c6F)c6ccc3[nH]6)C=C5)C=C4)cc2)ccc1F
REMARK SMILES IDX 16 1 15 2 14 3 13 4 12 5 11 6 10 7 9 8 7 9 8 10 5 11 4 12
REMARK SMILES IDX 1 13 2 14 3 15 89 16 88 17 90 18 87 19 6 20 17 24 18 25
REMARK SMILES IDX 19 26 20 27 21 28 22 29 23 30 24 31 25 32 86 33 26 34 85 35
REMARK SMILES IDX 27 36 28 37 29 38 79 39 30 40 84 41 78 42 80 43 31 44 83 45
REMARK SMILES IDX 77 46 76 47 32 49 64 50 44 51 63 52 45 53 48 54 62 55 81 56
REMARK SMILES IDX 46 57 47 58 61 60 82 61 49 62 33 63 34 64 42 65 35 66 36 67
REMARK SMILES IDX 40 68 43 69 37 70 38 71 41 72 39 73 65 74 66 75 74 76 67 77
REMARK SMILES IDX 68 78 72 79 75 80 69 81 70 82 73 83 71 84 50 85 51 86 59 87
REMARK SMILES IDX 52 88 53 89 57 90 60 91 54 92 55 93 58 94 56 95
REMARK H PARENT 6 21 6 22 6 23 80 48 48 59
REMARK Flexibility Score: inf
ROOT
ATOM      1  C   UNL A   1      35.474  23.484  25.535  1.00  0.00     0.188 C 
ENDROOT
BRANCH   1   2
ATOM      2  O   UNL A   1      34.746  22.998  26.661  1.00  0.00    -0.377 OA
BRANCH   2   3
ATOM      3  C   UNL A   1      34.544  21.591  26.756  1.00  0.00     0.188 C 
BRANCH   3   4
ATOM      4  C   UNL A   1      34.473  20.776  25.459  1.00  0.00     0.188 C 
BRANCH   4   5
ATOM      5  O   UNL A   1      33.196  20.226  25.187  1.00  0.00    -0.376 OA
BRANCH   5   6
ATOM      6  C   UNL A   1      32.147  21.099  24.789  1.00  0.00     0.202 C 
BRANCH   6   7
ATOM      7  C   UNL A   1      32.379  22.237  23.768  1.00  0.00     0.261 C 
BRANCH   7   8
ATOM      8  O   UNL A   1      32.303  23.589  24.243  1.00  0.00    -0.459 OA
BRANCH   8   9
ATOM      9  C   UNL A   1      31.067  24.139  24.295  1.00  0.00     0.369 C 
ATOM     10  O   UNL A   1      30.277  24.119  23.353  1.00  0.00    -0.245 OA
BRANCH   9  11
ATOM     11  C   UNL A   1      30.752  24.842  25.637  1.00  0.00     0.323 C 
BRANCH  11  12
ATOM     12  C   UNL A   1      31.217  26.267  25.538  1.00  0.00     0.021 A 
ATOM     13  C   UNL A   1      34.038  28.434  26.875  1.00  0.00     0.047 C 
ATOM     14  C   UNL A   1      32.839  27.985  26.104  1.00  0.00    -0.015 A 
ATOM     15  C   UNL A   1      32.343  26.694  26.265  1.00  0.00     0.017 A 
ATOM     16  C   UNL A   1      32.208  28.827  25.188  1.00  0.00     0.126 A 
ATOM     17  C   UNL A   1      31.096  28.412  24.456  1.00  0.00     0.040 A 
ATOM     18  F   UNL A   1      32.685  30.063  24.986  1.00  0.00    -0.207 F 
ATOM     19  C   UNL A   1      30.594  27.130  24.636  1.00  0.00     0.013 A 
ENDBRANCH  11  12
BRANCH  11  20
ATOM     20  N   UNL A   1      31.265  24.219  26.873  1.00  0.00    -0.342 N 
ATOM     21  H   UNL A   1      30.756  24.588  27.675  1.00  0.00     0.345 HD
ATOM     22  H   UNL A   1      32.258  24.431  26.972  1.00  0.00     0.345 HD
ATOM     23  H   UNL A   1      31.136  23.209  26.822  1.00  0.00     0.345 HD
ENDBRANCH  11  20
ENDBRANCH   9  11
ENDBRANCH   8   9
ENDBRANCH   7   8
ENDBRANCH   6   7
ENDBRANCH   5   6
ENDBRANCH   4   5
ENDBRANCH   3   4
ENDBRANCH   2   3
ENDBRANCH   1   2
BRANCH   1  24
ATOM     24  C   UNL A   1      37.019  23.448  25.570  1.00  0.00     0.188 C 
BRANCH  24  25
ATOM     25  O   UNL A   1      37.615  22.302  24.972  1.00  0.00    -0.376 OA
BRANCH  25  26
ATOM     26  C   UNL A   1      38.408  21.436  25.762  1.00  0.00     0.202 C 
BRANCH  26  27
ATOM     27  C   UNL A   1      39.893  21.731  26.120  1.00  0.00     0.261 C 
BRANCH  27  28
ATOM     28  O   UNL A   1      40.291  22.328  27.361  1.00  0.00    -0.460 OA
BRANCH  28  29
ATOM     29  C   UNL A   1      40.753  23.575  27.288  1.00  0.00     0.338 C 
ATOM     30  O   UNL A   1      41.876  23.955  27.651  1.00  0.00    -0.246 OA
BRANCH  29  31
ATOM     31  C   UNL A   1      39.760  24.606  26.916  1.00  0.00     0.060 A 
ATOM     32  C   UNL A   1      40.410  25.638  26.201  1.00  0.00     0.016 A 
ATOM     33  C   UNL A   1      38.993  24.905  28.039  1.00  0.00     0.016 A 
ATOM     34  C   UNL A   1      40.812  26.751  26.912  1.00  0.00     0.010 A 
ATOM     35  C   UNL A   1      39.371  26.015  28.750  1.00  0.00     0.010 A 
ATOM     36  C   UNL A   1      40.358  26.864  28.221  1.00  0.00    -0.014 A 
BRANCH  36  37
ATOM     37  C   UNL A   1      40.673  28.011  29.029  1.00  0.00     0.031 A 
ATOM     38  C   UNL A   1      39.673  29.088  28.953  1.00  0.00     0.074 A 
ATOM     39  C   UNL A   1      41.735  27.959  29.857  1.00  0.00     0.049 A 
ATOM     40  N   UNL A   1      39.899  30.328  29.198  1.00  0.00    -0.248 NA
ATOM     41  C   UNL A   1      38.324  28.849  28.419  1.00  0.00     0.031 C 
ATOM     42  C   UNL A   1      41.933  28.721  31.078  1.00  0.00     0.029 A 
ATOM     43  N   UNL A   1      42.921  27.215  29.711  1.00  0.00    -0.354 N 
ATOM     44  C   UNL A   1      38.667  30.951  29.215  1.00  0.00     0.074 A 
ATOM     45  C   UNL A   1      37.772  30.056  28.532  1.00  0.00     0.031 C 
ATOM     46  C   UNL A   1      43.209  28.581  31.480  1.00  0.00     0.029 A 
ATOM     47  C   UNL A   1      43.935  27.889  30.426  1.00  0.00     0.049 A 
ATOM     48  H   UNL A   1      43.023  26.379  29.203  1.00  0.00     0.167 HD
ATOM     49  C   UNL A   1      38.502  32.034  30.025  1.00  0.00     0.037 A 
ATOM     50  C   UNL A   1      45.027  28.440  29.801  1.00  0.00     0.037 A 
ATOM     51  C   UNL A   1      39.774  32.340  30.680  1.00  0.00     0.049 A 
ATOM     52  C   UNL A   1      45.005  29.933  29.791  1.00  0.00     0.074 A 
ATOM     53  C   UNL A   1      40.292  31.925  31.897  1.00  0.00     0.029 A 
ATOM     54  N   UNL A   1      40.856  32.761  29.914  1.00  0.00    -0.354 N 
ATOM     55  N   UNL A   1      43.924  30.641  29.943  1.00  0.00    -0.248 NA
ATOM     56  C   UNL A   1      46.205  30.729  29.597  1.00  0.00     0.031 C 
ATOM     57  C   UNL A   1      41.704  32.044  31.833  1.00  0.00     0.029 A 
ATOM     58  C   UNL A   1      42.044  32.556  30.593  1.00  0.00     0.049 A 
ATOM     59  H   UNL A   1      40.785  33.152  29.013  1.00  0.00     0.167 HD
ATOM     60  C   UNL A   1      44.255  31.961  29.891  1.00  0.00     0.074 A 
ATOM     61  C   UNL A   1      45.695  31.966  29.697  1.00  0.00     0.031 C 
ATOM     62  C   UNL A   1      43.317  32.945  30.004  1.00  0.00     0.037 A 
BRANCH  49  63
ATOM     63  C   UNL A   1      37.154  32.526  30.512  1.00  0.00     0.064 A 
ATOM     64  C   UNL A   1      36.354  33.341  29.680  1.00  0.00     0.173 A 
ATOM     65  C   UNL A   1      36.608  32.282  31.788  1.00  0.00     0.173 A 
ATOM     66  F   UNL A   1      36.695  33.590  28.409  1.00  0.00    -0.203 F 
ATOM     67  C   UNL A   1      35.167  33.935  30.120  1.00  0.00     0.198 A 
ATOM     68  C   UNL A   1      35.445  32.915  32.246  1.00  0.00     0.198 A 
ATOM     69  F   UNL A   1      37.142  31.380  32.620  1.00  0.00    -0.203 F 
ATOM     70  F   UNL A   1      34.459  34.702  29.280  1.00  0.00    -0.200 F 
ATOM     71  C   UNL A   1      34.727  33.747  31.413  1.00  0.00     0.200 A 
ATOM     72  F   UNL A   1      35.022  32.705  33.501  1.00  0.00    -0.200 F 
ATOM     73  F   UNL A   1      33.604  34.337  31.842  1.00  0.00    -0.200 F 
ENDBRANCH  49  63
BRANCH  50  74
ATOM     74  C   UNL A   1      45.648  27.650  28.696  1.00  0.00     0.064 A 
ATOM     75  C   UNL A   1      45.361  28.178  27.430  1.00  0.00     0.173 A 
ATOM     76  C   UNL A   1      46.932  27.150  28.949  1.00  0.00     0.173 A 
ATOM     77  F   UNL A   1      44.109  28.522  27.101  1.00  0.00    -0.203 F 
ATOM     78  C   UNL A   1      46.399  28.659  26.672  1.00  0.00     0.198 A 
ATOM     79  C   UNL A   1      47.982  27.629  28.192  1.00  0.00     0.198 A 
ATOM     80  F   UNL A   1      47.182  26.443  30.060  1.00  0.00    -0.203 F 
ATOM     81  F   UNL A   1      46.175  29.487  25.643  1.00  0.00    -0.200 F 
ATOM     82  C   UNL A   1      47.684  28.484  27.138  1.00  0.00     0.200 A 
ATOM     83  F   UNL A   1      49.242  27.411  28.587  1.00  0.00    -0.200 F 
ATOM     84  F   UNL A   1      48.571  29.346  26.676  1.00  0.00    -0.200 F 
ENDBRANCH  50  74
BRANCH  62  85
ATOM     85  C   UNL A   1      43.565  34.390  29.678  1.00  0.00     0.064 A 
ATOM     86  C   UNL A   1      43.609  34.900  28.372  1.00  0.00     0.173 A 
ATOM     87  C   UNL A   1      43.647  35.350  30.714  1.00  0.00     0.173 A 
ATOM     88  F   UNL A   1      43.369  34.126  27.305  1.00  0.00    -0.203 F 
ATOM     89  C   UNL A   1      43.841  36.250  28.117  1.00  0.00     0.198 A 
ATOM     90  C   UNL A   1      43.782  36.709  30.454  1.00  0.00     0.198 A 
ATOM     91  F   UNL A   1      43.571  35.007  32.007  1.00  0.00    -0.203 F 
ATOM     92  F   UNL A   1      43.966  36.671  26.851  1.00  0.00    -0.200 F 
ATOM     93  C   UNL A   1      43.914  37.156  29.157  1.00  0.00     0.200 A 
ATOM     94  F   UNL A   1      43.768  37.582  31.470  1.00  0.00    -0.200 F 
ATOM     95  F   UNL A   1      44.087  38.459  28.908  1.00  0.00    -0.200 F 
ENDBRANCH  62  85
ENDBRANCH  36  37
ENDBRANCH  29  31
ENDBRANCH  28  29
ENDBRANCH  27  28
ENDBRANCH  26  27
ENDBRANCH  25  26
ENDBRANCH  24  25
ENDBRANCH   1  24
TORSDOF 22
ENDMDL
