MODEL 1
REMARK VINA RESULT:      -9.2      0.000      0.000
REMARK SMILES Cc1cc(C)c(/C=N/NC(=O)C(=O)Nc2ccc(C(=O)OCCOCCOCCOCCOC(=O)c3ccc(-c4c5nc(c(-c6c(F)c(F)c(F)c(F)c6F)c6ccc([nH]6)c(-c6c(F)c(F)c(F)c(F)c6F)c6nc(c(-c7c(F)c(F)c(F)c(F)c7F)c7ccc4[nH]7)C=C6)C=C5)cc3)cc2)c(C)c1
REMARK SMILES IDX 26 1 25 2 24 3 23 4 22 5 21 6 19 7 20 8 18 9 15 10 16 11
REMARK SMILES IDX 100 12 17 13 99 14 14 15 12 16 13 17 10 19 9 20 11 22 8 23
REMARK SMILES IDX 7 24 6 25 1 26 2 27 3 28 103 29 4 30 101 31 5 32 102 33
REMARK SMILES IDX 27 34 28 35 29 36 30 37 31 38 32 39 33 40 34 41 35 42 36 43
REMARK SMILES IDX 37 44 98 45 38 46 97 47 39 48 40 49 41 50 91 51 42 52 96 53
REMARK SMILES IDX 90 54 92 55 43 56 95 57 89 58 88 59 44 61 76 62 56 63 75 64
REMARK SMILES IDX 57 65 60 66 74 67 93 68 58 69 59 70 73 72 94 73 61 74 45 75
REMARK SMILES IDX 46 76 54 77 47 78 48 79 52 80 55 81 49 82 50 83 53 84 51 85
REMARK SMILES IDX 77 86 78 87 86 88 79 89 80 90 84 91 87 92 81 93 82 94 85 95
REMARK SMILES IDX 83 96 62 97 63 98 71 99 64 100 65 101 69 102 72 103 66 104
REMARK SMILES IDX 67 105 70 106 68 107
REMARK H PARENT 14 18 9 21 92 60 60 71
REMARK Flexibility Score: inf
ROOT
ATOM      1  C   UNL A   1      40.300  26.818  27.248  1.00  0.00     0.188 C 
ENDROOT
BRANCH   1   2
ATOM      2  C   UNL A   1      39.261  27.306  28.282  1.00  0.00     0.188 C 
BRANCH   2   3
ATOM      3  O   UNL A   1      38.661  28.547  27.947  1.00  0.00    -0.376 OA
BRANCH   3   4
ATOM      4  C   UNL A   1      37.485  28.954  28.622  1.00  0.00     0.202 C 
BRANCH   4   5
ATOM      5  C   UNL A   1      36.469  29.814  27.857  1.00  0.00     0.261 C 
BRANCH   5   6
ATOM      6  O   UNL A   1      35.145  29.285  27.800  1.00  0.00    -0.460 OA
BRANCH   6   7
ATOM      7  C   UNL A   1      34.200  30.078  27.253  1.00  0.00     0.338 C 
ATOM      8  O   UNL A   1      34.087  31.285  27.392  1.00  0.00    -0.246 OA
BRANCH   7   9
ATOM      9  C   UNL A   1      33.470  29.269  26.253  1.00  0.00     0.060 A 
ATOM     10  C   UNL A   1      32.041  27.775  24.418  1.00  0.00     0.041 A 
ATOM     11  C   UNL A   1      31.395  28.804  25.099  1.00  0.00     0.027 A 
ATOM     12  C   UNL A   1      33.423  27.592  24.529  1.00  0.00     0.027 A 
ATOM     13  C   UNL A   1      32.106  29.528  26.052  1.00  0.00     0.018 A 
ATOM     14  C   UNL A   1      34.143  28.340  25.453  1.00  0.00     0.018 A 
BRANCH  10  15
ATOM     15  N   UNL A   1      31.267  26.878  23.688  1.00  0.00    -0.318 N 
ATOM     16  C   UNL A   1      30.634  25.754  24.196  1.00  0.00     0.315 C 
ATOM     17  O   UNL A   1      30.154  24.956  23.405  1.00  0.00    -0.263 OA
ATOM     18  H   UNL A   1      31.157  27.059  22.727  1.00  0.00     0.170 HD
BRANCH  16  19
ATOM     19  C   UNL A   1      30.420  25.643  25.746  1.00  0.00     0.329 C 
ATOM     20  N   UNL A   1      31.513  25.521  26.584  1.00  0.00    -0.239 N 
ATOM     21  H   UNL A   1      31.378  25.860  27.498  1.00  0.00     0.194 HD
ATOM     22  O   UNL A   1      29.298  25.680  26.244  1.00  0.00    -0.262 OA
BRANCH  20  23
ATOM     23  N   UNL A   1      32.748  25.003  26.335  1.00  0.00    -0.180 NA
ATOM     24  C   UNL A   1      32.769  23.839  25.763  1.00  0.00     0.142 C 
BRANCH  24  25
ATOM     25  C   UNL A   1      34.017  23.094  25.500  1.00  0.00     0.000 A 
ATOM     26  C   UNL A   1      37.406  20.639  24.489  1.00  0.00     0.044 C 
ATOM     27  C   UNL A   1      36.249  21.521  24.848  1.00  0.00    -0.051 A 
ATOM     28  C   UNL A   1      35.683  21.457  26.125  1.00  0.00     0.007 A 
ATOM     29  C   UNL A   1      35.702  22.390  23.904  1.00  0.00     0.007 A 
ATOM     30  C   UNL A   1      34.563  22.235  26.474  1.00  0.00    -0.042 A 
ATOM     31  C   UNL A   1      34.584  23.177  24.209  1.00  0.00    -0.042 A 
ATOM     32  C   UNL A   1      34.006  22.034  27.857  1.00  0.00     0.045 C 
ATOM     33  C   UNL A   1      34.086  24.124  23.152  1.00  0.00     0.045 C 
ENDBRANCH  24  25
ENDBRANCH  20  23
ENDBRANCH  16  19
ENDBRANCH  10  15
ENDBRANCH   7   9
ENDBRANCH   6   7
ENDBRANCH   5   6
ENDBRANCH   4   5
ENDBRANCH   3   4
ENDBRANCH   2   3
ENDBRANCH   1   2
BRANCH   1  34
ATOM     34  O   UNL A   1      40.005  25.653  26.490  1.00  0.00    -0.377 OA
BRANCH  34  35
ATOM     35  C   UNL A   1      39.282  24.584  27.096  1.00  0.00     0.188 C 
BRANCH  35  36
ATOM     36  C   UNL A   1      39.680  23.100  26.892  1.00  0.00     0.188 C 
BRANCH  36  37
ATOM     37  O   UNL A   1      41.064  22.876  26.688  1.00  0.00    -0.376 OA
BRANCH  37  38
ATOM     38  C   UNL A   1      41.936  23.049  27.788  1.00  0.00     0.202 C 
BRANCH  38  39
ATOM     39  C   UNL A   1      43.442  22.958  27.507  1.00  0.00     0.261 C 
BRANCH  39  40
ATOM     40  O   UNL A   1      43.923  23.723  26.391  1.00  0.00    -0.460 OA
BRANCH  40  41
ATOM     41  C   UNL A   1      45.211  24.123  26.424  1.00  0.00     0.338 C 
ATOM     42  O   UNL A   1      46.196  23.479  26.098  1.00  0.00    -0.246 OA
BRANCH  41  43
ATOM     43  C   UNL A   1      45.222  25.564  26.747  1.00  0.00     0.060 A 
ATOM     44  C   UNL A   1      45.763  25.991  27.967  1.00  0.00     0.016 A 
ATOM     45  C   UNL A   1      44.710  26.491  25.835  1.00  0.00     0.016 A 
ATOM     46  C   UNL A   1      45.763  27.346  28.294  1.00  0.00     0.010 A 
ATOM     47  C   UNL A   1      44.688  27.844  26.174  1.00  0.00     0.010 A 
ATOM     48  C   UNL A   1      45.182  28.274  27.420  1.00  0.00    -0.014 A 
BRANCH  48  49
ATOM     49  C   UNL A   1      44.905  29.653  27.888  1.00  0.00     0.031 A 
ATOM     50  C   UNL A   1      45.943  30.710  27.637  1.00  0.00     0.074 A 
ATOM     51  C   UNL A   1      43.755  29.966  28.508  1.00  0.00     0.049 A 
ATOM     52  N   UNL A   1      45.958  31.969  27.995  1.00  0.00    -0.248 NA
ATOM     53  C   UNL A   1      47.132  30.284  26.882  1.00  0.00     0.031 C 
ATOM     54  C   UNL A   1      42.658  29.040  28.774  1.00  0.00     0.029 A 
ATOM     55  N   UNL A   1      43.328  31.159  29.039  1.00  0.00    -0.354 N 
ATOM     56  C   UNL A   1      47.159  32.479  27.521  1.00  0.00     0.074 A 
ATOM     57  C   UNL A   1      47.861  31.389  26.879  1.00  0.00     0.031 C 
ATOM     58  C   UNL A   1      41.687  29.695  29.433  1.00  0.00     0.029 A 
ATOM     59  C   UNL A   1      42.111  31.075  29.666  1.00  0.00     0.049 A 
ATOM     60  H   UNL A   1      43.848  31.993  28.976  1.00  0.00     0.167 HD
ATOM     61  C   UNL A   1      47.630  33.745  27.607  1.00  0.00     0.037 A 
ATOM     62  C   UNL A   1      41.433  32.003  30.370  1.00  0.00     0.037 A 
ATOM     63  C   UNL A   1      46.929  34.824  28.252  1.00  0.00     0.049 A 
ATOM     64  C   UNL A   1      42.010  33.389  30.517  1.00  0.00     0.074 A 
ATOM     65  C   UNL A   1      47.306  36.150  28.370  1.00  0.00     0.029 A 
ATOM     66  N   UNL A   1      45.709  34.696  28.902  1.00  0.00    -0.354 N 
ATOM     67  N   UNL A   1      43.129  33.877  30.038  1.00  0.00    -0.248 NA
ATOM     68  C   UNL A   1      41.224  34.354  31.300  1.00  0.00     0.031 C 
ATOM     69  C   UNL A   1      46.351  36.807  29.153  1.00  0.00     0.029 A 
ATOM     70  C   UNL A   1      45.338  35.910  29.456  1.00  0.00     0.049 A 
ATOM     71  H   UNL A   1      45.185  33.864  28.962  1.00  0.00     0.167 HD
ATOM     72  C   UNL A   1      43.169  35.209  30.434  1.00  0.00     0.074 A 
ATOM     73  C   UNL A   1      41.952  35.456  31.180  1.00  0.00     0.031 C 
ATOM     74  C   UNL A   1      44.123  36.144  30.197  1.00  0.00     0.037 A 
BRANCH  61  75
ATOM     75  C   UNL A   1      48.989  34.018  27.028  1.00  0.00     0.064 A 
ATOM     76  C   UNL A   1      50.170  33.718  27.725  1.00  0.00     0.173 A 
ATOM     77  C   UNL A   1      49.111  34.581  25.748  1.00  0.00     0.173 A 
ATOM     78  F   UNL A   1      50.111  33.194  28.959  1.00  0.00    -0.203 F 
ATOM     79  C   UNL A   1      51.419  34.005  27.179  1.00  0.00     0.198 A 
ATOM     80  C   UNL A   1      50.362  34.831  25.190  1.00  0.00     0.198 A 
ATOM     81  F   UNL A   1      48.017  34.884  25.035  1.00  0.00    -0.203 F 
ATOM     82  F   UNL A   1      52.530  33.768  27.890  1.00  0.00    -0.200 F 
ATOM     83  C   UNL A   1      51.513  34.554  25.909  1.00  0.00     0.200 A 
ATOM     84  F   UNL A   1      50.451  35.348  23.957  1.00  0.00    -0.200 F 
ATOM     85  F   UNL A   1      52.716  34.826  25.382  1.00  0.00    -0.200 F 
ENDBRANCH  61  75
BRANCH  62  86
ATOM     86  C   UNL A   1      40.134  31.648  31.003  1.00  0.00     0.064 A 
ATOM     87  C   UNL A   1      38.916  31.942  30.376  1.00  0.00     0.173 A 
ATOM     88  C   UNL A   1      40.086  31.014  32.255  1.00  0.00     0.173 A 
ATOM     89  F   UNL A   1      38.908  32.572  29.192  1.00  0.00    -0.203 F 
ATOM     90  C   UNL A   1      37.700  31.630  30.982  1.00  0.00     0.198 A 
ATOM     91  C   UNL A   1      38.871  30.675  32.845  1.00  0.00     0.198 A 
ATOM     92  F   UNL A   1      41.223  30.714  32.900  1.00  0.00    -0.203 F 
ATOM     93  F   UNL A   1      36.550  31.965  30.382  1.00  0.00    -0.200 F 
ATOM     94  C   UNL A   1      37.679  30.989  32.212  1.00  0.00     0.200 A 
ATOM     95  F   UNL A   1      38.856  30.044  34.027  1.00  0.00    -0.200 F 
ATOM     96  F   UNL A   1      36.509  30.682  32.790  1.00  0.00    -0.200 F 
ENDBRANCH  62  86
BRANCH  74  97
ATOM     97  C   UNL A   1      43.876  37.535  30.713  1.00  0.00     0.064 A 
ATOM     98  C   UNL A   1      44.147  37.894  32.042  1.00  0.00     0.173 A 
ATOM     99  C   UNL A   1      43.399  38.536  29.850  1.00  0.00     0.173 A 
ATOM    100  F   UNL A   1      44.592  36.975  32.912  1.00  0.00    -0.203 F 
ATOM    101  C   UNL A   1      43.920  39.191  32.495  1.00  0.00     0.198 A 
ATOM    102  C   UNL A   1      43.209  39.841  30.297  1.00  0.00     0.198 A 
ATOM    103  F   UNL A   1      43.133  38.252  28.567  1.00  0.00    -0.203 F 
ATOM    104  F   UNL A   1      44.132  39.496  33.783  1.00  0.00    -0.200 F 
ATOM    105  C   UNL A   1      43.459  40.165  31.621  1.00  0.00     0.200 A 
ATOM    106  F   UNL A   1      42.784  40.784  29.446  1.00  0.00    -0.200 F 
ATOM    107  F   UNL A   1      43.251  41.415  32.057  1.00  0.00    -0.200 F 
ENDBRANCH  74  97
ENDBRANCH  48  49
ENDBRANCH  41  43
ENDBRANCH  40  41
ENDBRANCH  39  40
ENDBRANCH  38  39
ENDBRANCH  37  38
ENDBRANCH  36  37
ENDBRANCH  35  36
ENDBRANCH  34  35
ENDBRANCH   1  34
TORSDOF 24
ENDMDL
MODEL 2
REMARK VINA RESULT:      -8.9      3.612      9.368
REMARK SMILES Cc1cc(C)c(/C=N/NC(=O)C(=O)Nc2ccc(C(=O)OCCOCCOCCOCCOC(=O)c3ccc(-c4c5nc(c(-c6c(F)c(F)c(F)c(F)c6F)c6ccc([nH]6)c(-c6c(F)c(F)c(F)c(F)c6F)c6nc(c(-c7c(F)c(F)c(F)c(F)c7F)c7ccc4[nH]7)C=C6)C=C5)cc3)cc2)c(C)c1
REMARK SMILES IDX 26 1 25 2 24 3 23 4 22 5 21 6 19 7 20 8 18 9 15 10 16 11
REMARK SMILES IDX 100 12 17 13 99 14 14 15 12 16 13 17 10 19 9 20 11 22 8 23
REMARK SMILES IDX 7 24 6 25 1 26 2 27 3 28 103 29 4 30 101 31 5 32 102 33
REMARK SMILES IDX 27 34 28 35 29 36 30 37 31 38 32 39 33 40 34 41 35 42 36 43
REMARK SMILES IDX 37 44 98 45 38 46 97 47 39 48 40 49 41 50 91 51 42 52 96 53
REMARK SMILES IDX 90 54 92 55 43 56 95 57 89 58 88 59 44 61 76 62 56 63 75 64
REMARK SMILES IDX 57 65 60 66 74 67 93 68 58 69 59 70 73 72 94 73 61 74 45 75
REMARK SMILES IDX 46 76 54 77 47 78 48 79 52 80 55 81 49 82 50 83 53 84 51 85
REMARK SMILES IDX 77 86 78 87 86 88 79 89 80 90 84 91 87 92 81 93 82 94 85 95
REMARK SMILES IDX 83 96 62 97 63 98 71 99 64 100 65 101 69 102 72 103 66 104
REMARK SMILES IDX 67 105 70 106 68 107
REMARK H PARENT 14 18 9 21 92 60 60 71
REMARK Flexibility Score: inf
ROOT
ATOM      1  C   UNL A   1      37.104  23.132  25.674  1.00  0.00     0.188 C 
ENDROOT
BRANCH   1   2
ATOM      2  C   UNL A   1      36.573  21.737  25.275  1.00  0.00     0.188 C 
BRANCH   2   3
ATOM      3  O   UNL A   1      35.572  21.236  26.148  1.00  0.00    -0.376 OA
BRANCH   3   4
ATOM      4  C   UNL A   1      34.221  21.232  25.725  1.00  0.00     0.202 C 
BRANCH   4   5
ATOM      5  C   UNL A   1      33.932  21.254  24.218  1.00  0.00     0.261 C 
BRANCH   5   6
ATOM      6  O   UNL A   1      33.198  22.387  23.756  1.00  0.00    -0.460 OA
BRANCH   6   7
ATOM      7  C   UNL A   1      33.900  23.522  23.554  1.00  0.00     0.338 C 
ATOM      8  O   UNL A   1      34.840  23.674  22.790  1.00  0.00    -0.246 OA
BRANCH   7   9
ATOM      9  C   UNL A   1      33.177  24.616  24.234  1.00  0.00     0.060 A 
ATOM     10  C   UNL A   1      31.807  26.692  25.441  1.00  0.00     0.041 A 
ATOM     11  C   UNL A   1      31.490  26.348  24.129  1.00  0.00     0.027 A 
ATOM     12  C   UNL A   1      32.683  25.911  26.201  1.00  0.00     0.027 A 
ATOM     13  C   UNL A   1      32.210  25.330  23.510  1.00  0.00     0.018 A 
ATOM     14  C   UNL A   1      33.374  24.869  25.596  1.00  0.00     0.018 A 
BRANCH  10  15
ATOM     15  N   UNL A   1      31.296  27.881  25.953  1.00  0.00    -0.318 N 
ATOM     16  C   UNL A   1      32.017  29.043  26.176  1.00  0.00     0.315 C 
ATOM     17  O   UNL A   1      31.482  29.941  26.810  1.00  0.00    -0.263 OA
ATOM     18  H   UNL A   1      30.337  27.898  26.176  1.00  0.00     0.170 HD
BRANCH  16  19
ATOM     19  C   UNL A   1      33.406  29.217  25.470  1.00  0.00     0.329 C 
ATOM     20  N   UNL A   1      34.567  29.199  26.221  1.00  0.00    -0.239 N 
ATOM     21  H   UNL A   1      35.372  28.903  25.739  1.00  0.00     0.194 HD
ATOM     22  O   UNL A   1      33.497  29.352  24.252  1.00  0.00    -0.262 OA
BRANCH  20  23
ATOM     23  N   UNL A   1      34.763  29.531  27.527  1.00  0.00    -0.180 NA
ATOM     24  C   UNL A   1      35.807  30.261  27.776  1.00  0.00     0.142 C 
BRANCH  24  25
ATOM     25  C   UNL A   1      36.216  30.638  29.144  1.00  0.00     0.000 A 
ATOM     26  C   UNL A   1      37.172  31.382  33.275  1.00  0.00     0.044 C 
ATOM     27  C   UNL A   1      36.869  31.142  31.828  1.00  0.00    -0.051 A 
ATOM     28  C   UNL A   1      35.932  31.939  31.162  1.00  0.00     0.007 A 
ATOM     29  C   UNL A   1      37.490  30.102  31.137  1.00  0.00     0.007 A 
ATOM     30  C   UNL A   1      35.589  31.704  29.818  1.00  0.00    -0.042 A 
ATOM     31  C   UNL A   1      37.172  29.830  29.800  1.00  0.00    -0.042 A 
ATOM     32  C   UNL A   1      34.524  32.589  29.228  1.00  0.00     0.045 C 
ATOM     33  C   UNL A   1      37.922  28.722  29.113  1.00  0.00     0.045 C 
ENDBRANCH  24  25
ENDBRANCH  20  23
ENDBRANCH  16  19
ENDBRANCH  10  15
ENDBRANCH   7   9
ENDBRANCH   6   7
ENDBRANCH   5   6
ENDBRANCH   4   5
ENDBRANCH   3   4
ENDBRANCH   2   3
ENDBRANCH   1   2
BRANCH   1  34
ATOM     34  O   UNL A   1      38.332  23.211  26.385  1.00  0.00    -0.377 OA
BRANCH  34  35
ATOM     35  C   UNL A   1      39.004  24.464  26.491  1.00  0.00     0.188 C 
BRANCH  35  36
ATOM     36  C   UNL A   1      39.666  24.935  27.811  1.00  0.00     0.188 C 
BRANCH  36  37
ATOM     37  O   UNL A   1      40.735  24.124  28.265  1.00  0.00    -0.376 OA
BRANCH  37  38
ATOM     38  C   UNL A   1      41.776  23.824  27.354  1.00  0.00     0.202 C 
BRANCH  38  39
ATOM     39  C   UNL A   1      42.697  22.649  27.710  1.00  0.00     0.261 C 
BRANCH  39  40
ATOM     40  O   UNL A   1      44.101  22.857  27.491  1.00  0.00    -0.460 OA
BRANCH  40  41
ATOM     41  C   UNL A   1      44.492  23.171  26.239  1.00  0.00     0.338 C 
ATOM     42  O   UNL A   1      44.240  22.565  25.209  1.00  0.00    -0.246 OA
BRANCH  41  43
ATOM     43  C   UNL A   1      45.131  24.501  26.293  1.00  0.00     0.060 A 
ATOM     44  C   UNL A   1      45.238  25.262  25.120  1.00  0.00     0.016 A 
ATOM     45  C   UNL A   1      45.611  25.000  27.507  1.00  0.00     0.016 A 
ATOM     46  C   UNL A   1      45.856  26.510  25.152  1.00  0.00     0.010 A 
ATOM     47  C   UNL A   1      46.250  26.240  27.533  1.00  0.00     0.010 A 
ATOM     48  C   UNL A   1      46.408  26.985  26.350  1.00  0.00    -0.014 A 
BRANCH  48  49
ATOM     49  C   UNL A   1      47.321  28.152  26.328  1.00  0.00     0.031 A 
ATOM     50  C   UNL A   1      46.737  29.515  26.567  1.00  0.00     0.074 A 
ATOM     51  C   UNL A   1      48.640  28.007  26.114  1.00  0.00     0.049 A 
ATOM     52  N   UNL A   1      47.316  30.689  26.545  1.00  0.00    -0.248 NA
ATOM     53  C   UNL A   1      45.298  29.560  26.868  1.00  0.00     0.031 C 
ATOM     54  C   UNL A   1      49.329  26.737  25.908  1.00  0.00     0.029 A 
ATOM     55  N   UNL A   1      49.633  28.951  26.024  1.00  0.00    -0.354 N 
ATOM     56  C   UNL A   1      46.312  31.608  26.816  1.00  0.00     0.074 A 
ATOM     57  C   UNL A   1      45.081  30.862  26.966  1.00  0.00     0.031 C 
ATOM     58  C   UNL A   1      50.634  26.980  25.699  1.00  0.00     0.029 A 
ATOM     59  C   UNL A   1      50.864  28.424  25.722  1.00  0.00     0.049 A 
ATOM     60  H   UNL A   1      49.477  29.914  26.163  1.00  0.00     0.167 HD
ATOM     61  C   UNL A   1      46.408  32.953  26.935  1.00  0.00     0.037 A 
ATOM     62  C   UNL A   1      52.033  29.043  25.466  1.00  0.00     0.037 A 
ATOM     63  C   UNL A   1      47.635  33.690  26.779  1.00  0.00     0.049 A 
ATOM     64  C   UNL A   1      52.103  30.549  25.532  1.00  0.00     0.074 A 
ATOM     65  C   UNL A   1      47.846  35.051  26.907  1.00  0.00     0.029 A 
ATOM     66  N   UNL A   1      48.858  33.125  26.444  1.00  0.00    -0.354 N 
ATOM     67  N   UNL A   1      51.160  31.412  25.822  1.00  0.00    -0.248 NA
ATOM     68  C   UNL A   1      53.406  31.165  25.240  1.00  0.00     0.031 C 
ATOM     69  C   UNL A   1      49.180  35.318  26.579  1.00  0.00     0.029 A 
ATOM     70  C   UNL A   1      49.820  34.115  26.324  1.00  0.00     0.049 A 
ATOM     71  H   UNL A   1      49.019  32.162  26.311  1.00  0.00     0.167 HD
ATOM     72  C   UNL A   1      51.758  32.666  25.778  1.00  0.00     0.074 A 
ATOM     73  C   UNL A   1      53.151  32.449  25.446  1.00  0.00     0.031 C 
ATOM     74  C   UNL A   1      51.205  33.886  25.994  1.00  0.00     0.037 A 
BRANCH  61  75
ATOM     75  C   UNL A   1      45.143  33.716  27.205  1.00  0.00     0.064 A 
ATOM     76  C   UNL A   1      44.320  34.182  26.169  1.00  0.00     0.173 A 
ATOM     77  C   UNL A   1      44.743  33.977  28.524  1.00  0.00     0.173 A 
ATOM     78  F   UNL A   1      44.662  33.976  24.888  1.00  0.00    -0.203 F 
ATOM     79  C   UNL A   1      43.165  34.912  26.443  1.00  0.00     0.198 A 
ATOM     80  C   UNL A   1      43.569  34.673  28.795  1.00  0.00     0.198 A 
ATOM     81  F   UNL A   1      45.490  33.552  29.554  1.00  0.00    -0.203 F 
ATOM     82  F   UNL A   1      42.428  35.400  25.435  1.00  0.00    -0.200 F 
ATOM     83  C   UNL A   1      42.786  35.149  27.755  1.00  0.00     0.200 A 
ATOM     84  F   UNL A   1      43.197  34.889  30.065  1.00  0.00    -0.200 F 
ATOM     85  F   UNL A   1      41.672  35.847  28.018  1.00  0.00    -0.200 F 
ENDBRANCH  61  75
BRANCH  62  86
ATOM     86  C   UNL A   1      53.234  28.240  25.110  1.00  0.00     0.064 A 
ATOM     87  C   UNL A   1      53.518  27.910  23.778  1.00  0.00     0.173 A 
ATOM     88  C   UNL A   1      54.116  27.776  26.099  1.00  0.00     0.173 A 
ATOM     89  F   UNL A   1      52.691  28.305  22.799  1.00  0.00    -0.203 F 
ATOM     90  C   UNL A   1      54.630  27.136  23.450  1.00  0.00     0.198 A 
ATOM     91  C   UNL A   1      55.243  27.030  25.766  1.00  0.00     0.198 A 
ATOM     92  F   UNL A   1      53.887  28.060  27.390  1.00  0.00    -0.203 F 
ATOM     93  F   UNL A   1      54.853  26.797  22.173  1.00  0.00    -0.200 F 
ATOM     94  C   UNL A   1      55.496  26.705  24.443  1.00  0.00     0.200 A 
ATOM     95  F   UNL A   1      56.085  26.626  26.728  1.00  0.00    -0.200 F 
ATOM     96  F   UNL A   1      56.569  25.968  24.125  1.00  0.00    -0.200 F 
ENDBRANCH  62  86
BRANCH  74  97
ATOM     97  C   UNL A   1      52.113  35.083  25.924  1.00  0.00     0.064 A 
ATOM     98  C   UNL A   1      52.288  35.814  24.738  1.00  0.00     0.173 A 
ATOM     99  C   UNL A   1      52.787  35.530  27.072  1.00  0.00     0.173 A 
ATOM    100  F   UNL A   1      51.679  35.424  23.609  1.00  0.00    -0.203 F 
ATOM    101  C   UNL A   1      53.126  36.925  24.699  1.00  0.00     0.198 A 
ATOM    102  C   UNL A   1      53.594  36.664  27.038  1.00  0.00     0.198 A 
ATOM    103  F   UNL A   1      52.649  34.876  28.235  1.00  0.00    -0.203 F 
ATOM    104  F   UNL A   1      53.322  37.573  23.541  1.00  0.00    -0.200 F 
ATOM    105  C   UNL A   1      53.772  37.354  25.849  1.00  0.00     0.200 A 
ATOM    106  F   UNL A   1      54.200  37.087  28.155  1.00  0.00    -0.200 F 
ATOM    107  F   UNL A   1      54.571  38.430  25.810  1.00  0.00    -0.200 F 
ENDBRANCH  74  97
ENDBRANCH  48  49
ENDBRANCH  41  43
ENDBRANCH  40  41
ENDBRANCH  39  40
ENDBRANCH  38  39
ENDBRANCH  37  38
ENDBRANCH  36  37
ENDBRANCH  35  36
ENDBRANCH  34  35
ENDBRANCH   1  34
TORSDOF 24
ENDMDL
MODEL 3
REMARK VINA RESULT:      -8.6      9.257     16.059
REMARK SMILES Cc1cc(C)c(/C=N/NC(=O)C(=O)Nc2ccc(C(=O)OCCOCCOCCOCCOC(=O)c3ccc(-c4c5nc(c(-c6c(F)c(F)c(F)c(F)c6F)c6ccc([nH]6)c(-c6c(F)c(F)c(F)c(F)c6F)c6nc(c(-c7c(F)c(F)c(F)c(F)c7F)c7ccc4[nH]7)C=C6)C=C5)cc3)cc2)c(C)c1
REMARK SMILES IDX 26 1 25 2 24 3 23 4 22 5 21 6 19 7 20 8 18 9 15 10 16 11
REMARK SMILES IDX 100 12 17 13 99 14 14 15 12 16 13 17 10 19 9 20 11 22 8 23
REMARK SMILES IDX 7 24 6 25 1 26 2 27 3 28 103 29 4 30 101 31 5 32 102 33
REMARK SMILES IDX 27 34 28 35 29 36 30 37 31 38 32 39 33 40 34 41 35 42 36 43
REMARK SMILES IDX 37 44 98 45 38 46 97 47 39 48 40 49 41 50 91 51 42 52 96 53
REMARK SMILES IDX 90 54 92 55 43 56 95 57 89 58 88 59 44 61 76 62 56 63 75 64
REMARK SMILES IDX 57 65 60 66 74 67 93 68 58 69 59 70 73 72 94 73 61 74 45 75
REMARK SMILES IDX 46 76 54 77 47 78 48 79 52 80 55 81 49 82 50 83 53 84 51 85
REMARK SMILES IDX 77 86 78 87 86 88 79 89 80 90 84 91 87 92 81 93 82 94 85 95
REMARK SMILES IDX 83 96 62 97 63 98 71 99 64 100 65 101 69 102 72 103 66 104
REMARK SMILES IDX 67 105 70 106 68 107
REMARK H PARENT 14 18 9 21 92 60 60 71
REMARK Flexibility Score: inf
ROOT
ATOM      1  C   UNL A   1      42.133  42.095  24.186  1.00  0.00     0.188 C 
ENDROOT
BRANCH   1   2
ATOM      2  C   UNL A   1      41.432  42.128  22.810  1.00  0.00     0.188 C 
BRANCH   2   3
ATOM      3  O   UNL A   1      42.007  43.049  21.896  1.00  0.00    -0.376 OA
BRANCH   3   4
ATOM      4  C   UNL A   1      42.715  42.560  20.772  1.00  0.00     0.202 C 
BRANCH   4   5
ATOM      5  C   UNL A   1      42.202  42.929  19.373  1.00  0.00     0.261 C 
BRANCH   5   6
ATOM      6  O   UNL A   1      41.600  44.219  19.266  1.00  0.00    -0.460 OA
BRANCH   6   7
ATOM      7  C   UNL A   1      41.315  44.652  18.021  1.00  0.00     0.338 C 
ATOM      8  O   UNL A   1      40.335  44.366  17.353  1.00  0.00    -0.246 OA
BRANCH   7   9
ATOM      9  C   UNL A   1      42.273  45.730  17.699  1.00  0.00     0.060 A 
ATOM     10  C   UNL A   1      44.023  47.767  17.039  1.00  0.00     0.041 A 
ATOM     11  C   UNL A   1      42.701  47.847  16.607  1.00  0.00     0.027 A 
ATOM     12  C   UNL A   1      44.434  46.765  17.924  1.00  0.00     0.027 A 
ATOM     13  C   UNL A   1      41.833  46.801  16.906  1.00  0.00     0.018 A 
ATOM     14  C   UNL A   1      43.557  45.740  18.255  1.00  0.00     0.018 A 
BRANCH  10  15
ATOM     15  N   UNL A   1      44.948  48.657  16.502  1.00  0.00    -0.318 N 
ATOM     16  C   UNL A   1      45.335  49.862  17.068  1.00  0.00     0.315 C 
ATOM     17  O   UNL A   1      46.005  50.628  16.391  1.00  0.00    -0.263 OA
ATOM     18  H   UNL A   1      45.365  48.410  15.646  1.00  0.00     0.170 HD
BRANCH  16  19
ATOM     19  C   UNL A   1      45.041  50.112  18.588  1.00  0.00     0.329 C 
ATOM     20  N   UNL A   1      46.013  49.836  19.532  1.00  0.00    -0.239 N 
ATOM     21  H   UNL A   1      45.953  50.365  20.360  1.00  0.00     0.194 HD
ATOM     22  O   UNL A   1      43.965  50.567  18.969  1.00  0.00    -0.262 OA
BRANCH  20  23
ATOM     23  N   UNL A   1      47.040  48.943  19.488  1.00  0.00    -0.180 NA
ATOM     24  C   UNL A   1      46.722  47.702  19.698  1.00  0.00     0.142 C 
BRANCH  24  25
ATOM     25  C   UNL A   1      47.721  46.618  19.773  1.00  0.00     0.000 A 
ATOM     26  C   UNL A   1      50.342  43.202  19.757  1.00  0.00     0.044 C 
ATOM     27  C   UNL A   1      49.459  44.412  19.768  1.00  0.00    -0.051 A 
ATOM     28  C   UNL A   1      48.759  44.764  20.927  1.00  0.00     0.007 A 
ATOM     29  C   UNL A   1      49.296  45.181  18.616  1.00  0.00     0.007 A 
ATOM     30  C   UNL A   1      47.882  45.864  20.952  1.00  0.00    -0.042 A 
ATOM     31  C   UNL A   1      48.428  46.280  18.597  1.00  0.00    -0.042 A 
ATOM     32  C   UNL A   1      47.140  46.108  22.239  1.00  0.00     0.045 C 
ATOM     33  C   UNL A   1      48.347  47.086  17.330  1.00  0.00     0.045 C 
ENDBRANCH  24  25
ENDBRANCH  20  23
ENDBRANCH  16  19
ENDBRANCH  10  15
ENDBRANCH   7   9
ENDBRANCH   6   7
ENDBRANCH   5   6
ENDBRANCH   4   5
ENDBRANCH   3   4
ENDBRANCH   2   3
ENDBRANCH   1   2
BRANCH   1  34
ATOM     34  O   UNL A   1      43.502  41.714  24.239  1.00  0.00    -0.377 OA
BRANCH  34  35
ATOM     35  C   UNL A   1      44.190  41.739  25.488  1.00  0.00     0.188 C 
BRANCH  35  36
ATOM     36  C   UNL A   1      45.734  41.848  25.575  1.00  0.00     0.188 C 
BRANCH  36  37
ATOM     37  O   UNL A   1      46.327  41.099  26.621  1.00  0.00    -0.376 OA
BRANCH  37  38
ATOM     38  C   UNL A   1      47.387  40.221  26.293  1.00  0.00     0.202 C 
BRANCH  38  39
ATOM     39  C   UNL A   1      47.013  38.904  25.599  1.00  0.00     0.261 C 
BRANCH  39  40
ATOM     40  O   UNL A   1      45.963  38.141  26.215  1.00  0.00    -0.460 OA
BRANCH  40  41
ATOM     41  C   UNL A   1      46.247  36.871  26.569  1.00  0.00     0.338 C 
ATOM     42  O   UNL A   1      47.261  36.240  26.318  1.00  0.00    -0.246 OA
BRANCH  41  43
ATOM     43  C   UNL A   1      45.186  36.419  27.492  1.00  0.00     0.060 A 
ATOM     44  C   UNL A   1      44.451  37.370  28.213  1.00  0.00     0.016 A 
ATOM     45  C   UNL A   1      44.912  35.056  27.631  1.00  0.00     0.016 A 
ATOM     46  C   UNL A   1      43.460  36.958  29.102  1.00  0.00     0.010 A 
ATOM     47  C   UNL A   1      43.936  34.644  28.539  1.00  0.00     0.010 A 
ATOM     48  C   UNL A   1      43.231  35.590  29.305  1.00  0.00    -0.014 A 
BRANCH  48  49
ATOM     49  C   UNL A   1      42.408  35.145  30.455  1.00  0.00     0.031 A 
ATOM     50  C   UNL A   1      43.064  35.051  31.804  1.00  0.00     0.074 A 
ATOM     51  C   UNL A   1      41.106  34.844  30.312  1.00  0.00     0.049 A 
ATOM     52  N   UNL A   1      42.574  34.639  32.945  1.00  0.00    -0.248 NA
ATOM     53  C   UNL A   1      44.471  35.477  31.871  1.00  0.00     0.031 C 
ATOM     54  C   UNL A   1      40.350  34.932  29.066  1.00  0.00     0.029 A 
ATOM     55  N   UNL A   1      40.194  34.388  31.231  1.00  0.00    -0.354 N 
ATOM     56  C   UNL A   1      43.613  34.743  33.859  1.00  0.00     0.074 A 
ATOM     57  C   UNL A   1      44.769  35.226  33.136  1.00  0.00     0.031 C 
ATOM     58  C   UNL A   1      39.089  34.527  29.295  1.00  0.00     0.029 A 
ATOM     59  C   UNL A   1      38.961  34.119  30.693  1.00  0.00     0.049 A 
ATOM     60  H   UNL A   1      40.405  34.265  32.186  1.00  0.00     0.167 HD
ATOM     61  C   UNL A   1      43.602  34.468  35.185  1.00  0.00     0.037 A 
ATOM     62  C   UNL A   1      37.866  33.577  31.262  1.00  0.00     0.037 A 
ATOM     63  C   UNL A   1      42.449  33.983  35.897  1.00  0.00     0.049 A 
ATOM     64  C   UNL A   1      37.897  33.209  32.725  1.00  0.00     0.074 A 
ATOM     65  C   UNL A   1      42.324  33.700  37.246  1.00  0.00     0.029 A 
ATOM     66  N   UNL A   1      41.223  33.694  35.313  1.00  0.00    -0.354 N 
ATOM     67  N   UNL A   1      38.870  33.342  33.594  1.00  0.00    -0.248 NA
ATOM     68  C   UNL A   1      36.672  32.620  33.286  1.00  0.00     0.031 C 
ATOM     69  C   UNL A   1      41.047  33.172  37.464  1.00  0.00     0.029 A 
ATOM     70  C   UNL A   1      40.349  33.200  36.267  1.00  0.00     0.049 A 
ATOM     71  H   UNL A   1      41.007  33.822  34.360  1.00  0.00     0.167 HD
ATOM     72  C   UNL A   1      38.368  32.883  34.807  1.00  0.00     0.074 A 
ATOM     73  C   UNL A   1      36.999  32.482  34.563  1.00  0.00     0.031 C 
ATOM     74  C   UNL A   1      38.985  32.805  36.013  1.00  0.00     0.037 A 
BRANCH  61  75
ATOM     75  C   UNL A   1      44.889  34.644  35.939  1.00  0.00     0.064 A 
ATOM     76  C   UNL A   1      45.240  35.863  36.538  1.00  0.00     0.173 A 
ATOM     77  C   UNL A   1      45.781  33.569  36.071  1.00  0.00     0.173 A 
ATOM     78  F   UNL A   1      44.431  36.928  36.429  1.00  0.00    -0.203 F 
ATOM     79  C   UNL A   1      46.452  36.010  37.209  1.00  0.00     0.198 A 
ATOM     80  C   UNL A   1      46.974  33.709  36.775  1.00  0.00     0.198 A 
ATOM     81  F   UNL A   1      45.495  32.380  35.522  1.00  0.00    -0.203 F 
ATOM     82  F   UNL A   1      46.794  37.201  37.720  1.00  0.00    -0.200 F 
ATOM     83  C   UNL A   1      47.314  34.931  37.334  1.00  0.00     0.200 A 
ATOM     84  F   UNL A   1      47.799  32.661  36.906  1.00  0.00    -0.200 F 
ATOM     85  F   UNL A   1      48.478  35.072  37.983  1.00  0.00    -0.200 F 
ENDBRANCH  61  75
BRANCH  62  86
ATOM     86  C   UNL A   1      36.648  33.338  30.442  1.00  0.00     0.064 A 
ATOM     87  C   UNL A   1      36.620  32.342  29.457  1.00  0.00     0.173 A 
ATOM     88  C   UNL A   1      35.489  34.109  30.622  1.00  0.00     0.173 A 
ATOM     89  F   UNL A   1      37.711  31.597  29.226  1.00  0.00    -0.203 F 
ATOM     90  C   UNL A   1      35.486  32.136  28.672  1.00  0.00     0.198 A 
ATOM     91  C   UNL A   1      34.346  33.881  29.859  1.00  0.00     0.198 A 
ATOM     92  F   UNL A   1      35.464  35.078  31.549  1.00  0.00    -0.203 F 
ATOM     93  F   UNL A   1      35.502  31.208  27.706  1.00  0.00    -0.200 F 
ATOM     94  C   UNL A   1      34.347  32.900  28.881  1.00  0.00     0.200 A 
ATOM     95  F   UNL A   1      33.244  34.613  30.074  1.00  0.00    -0.200 F 
ATOM     96  F   UNL A   1      33.254  32.695  28.132  1.00  0.00    -0.200 F 
ENDBRANCH  62  86
BRANCH  74  97
ATOM     97  C   UNL A   1      38.174  32.305  37.177  1.00  0.00     0.064 A 
ATOM     98  C   UNL A   1      37.713  33.165  38.185  1.00  0.00     0.173 A 
ATOM     99  C   UNL A   1      37.819  30.948  37.262  1.00  0.00     0.173 A 
ATOM    100  F   UNL A   1      38.033  34.467  38.159  1.00  0.00    -0.203 F 
ATOM    101  C   UNL A   1      36.955  32.681  39.248  1.00  0.00     0.198 A 
ATOM    102  C   UNL A   1      37.030  30.476  38.307  1.00  0.00     0.198 A 
ATOM    103  F   UNL A   1      38.224  30.083  36.321  1.00  0.00    -0.203 F 
ATOM    104  F   UNL A   1      36.574  33.512  40.229  1.00  0.00    -0.200 F 
ATOM    105  C   UNL A   1      36.608  31.340  39.304  1.00  0.00     0.200 A 
ATOM    106  F   UNL A   1      36.679  29.183  38.347  1.00  0.00    -0.200 F 
ATOM    107  F   UNL A   1      35.870  30.879  40.324  1.00  0.00    -0.200 F 
ENDBRANCH  74  97
ENDBRANCH  48  49
ENDBRANCH  41  43
ENDBRANCH  40  41
ENDBRANCH  39  40
ENDBRANCH  38  39
ENDBRANCH  37  38
ENDBRANCH  36  37
ENDBRANCH  35  36
ENDBRANCH  34  35
ENDBRANCH   1  34
TORSDOF 24
ENDMDL
