MODEL 1
REMARK VINA RESULT:     -10.3      0.000      0.000
REMARK SMILES C[C@@H]1C[C@@H](C)CN(S(=O)(=O)N2CC[C@H](C(=O)OCCOCCOCCOCCOC(=O)c3ccc(-c4c5nc(c(-c6c(F)c(F)c(F)c(F)c6F)c6ccc([nH]6)c(-c6c(F)c(F)c(F)c(F)c6F)c6nc(c(-c7c(F)c(F)c(F)c(F)c7F)c7ccc4[nH]7)C=C6)C=C5)cc3)[C@@H]2C)C1
REMARK SMILES IDX 23 1 22 2 21 3 20 4 19 5 18 6 17 7 15 8 16 9 14 10 11 11
REMARK SMILES IDX 12 12 95 13 13 14 96 15 8 16 9 17 10 18 7 19 1 20 2 21 3 22
REMARK SMILES IDX 97 23 4 24 6 25 5 26 24 27 25 28 26 29 27 30 28 31 29 32
REMARK SMILES IDX 30 33 31 34 32 35 33 36 94 37 34 38 93 39 35 40 36 41 37 42
REMARK SMILES IDX 87 43 38 44 92 45 86 46 88 47 39 48 91 49 85 50 84 51 40 53
REMARK SMILES IDX 72 54 52 55 71 56 53 57 56 58 70 59 89 60 54 61 55 62 69 64
REMARK SMILES IDX 90 65 57 66 41 67 42 68 50 69 43 70 44 71 48 72 51 73 45 74
REMARK SMILES IDX 46 75 49 76 47 77 73 78 74 79 82 80 75 81 76 82 80 83 83 84
REMARK SMILES IDX 77 85 78 86 81 87 79 88 58 89 59 90 67 91 60 92 61 93 65 94
REMARK SMILES IDX 68 95 62 96 63 97 66 98 64 99
REMARK H PARENT 88 52 56 63
REMARK Flexibility Score: inf
ROOT
ATOM      1  O   UNL A   1      34.845  33.049  28.050  1.00  0.00    -0.377 OA
ENDROOT
BRANCH   1   2
ATOM      2  C   UNL A   1      34.918  31.722  28.539  1.00  0.00     0.188 C 
BRANCH   2   3
ATOM      3  C   UNL A   1      34.355  30.603  27.630  1.00  0.00     0.188 C 
BRANCH   3   4
ATOM      4  O   UNL A   1      33.350  31.041  26.724  1.00  0.00    -0.376 OA
BRANCH   4   5
ATOM      5  C   UNL A   1      32.032  30.531  26.869  1.00  0.00     0.202 C 
BRANCH   5   6
ATOM      6  C   UNL A   1      31.850  29.029  26.613  1.00  0.00     0.261 C 
BRANCH   6   7
ATOM      7  O   UNL A   1      31.284  28.740  25.330  1.00  0.00    -0.463 OA
BRANCH   7   8
ATOM      8  C   UNL A   1      32.168  28.522  24.316  1.00  0.00     0.310 C 
ATOM      9  O   UNL A   1      33.015  29.325  23.964  1.00  0.00    -0.252 OA
BRANCH   8  10
ATOM     10  C   UNL A   1      32.030  27.077  23.885  1.00  0.00     0.118 C 
ATOM     11  N   UNL A   1      33.708  25.607  23.070  1.00  0.00    -0.185 NA
ATOM     12  C   UNL A   1      33.272  26.472  21.959  1.00  0.00     0.105 C 
ATOM     13  C   UNL A   1      33.070  26.048  24.327  1.00  0.00     0.085 C 
ATOM     14  C   UNL A   1      31.891  26.926  22.376  1.00  0.00     0.034 C 
ATOM     15  C   UNL A   1      34.086  26.448  25.380  1.00  0.00     0.027 C 
BRANCH  11  16
ATOM     16  S   UNL A   1      33.950  23.984  22.766  1.00  0.00     0.282 S 
ATOM     17  O   UNL A   1      35.370  23.713  22.798  1.00  0.00    -0.195 OA
ATOM     18  O   UNL A   1      33.153  23.652  21.609  1.00  0.00    -0.195 OA
BRANCH  16  19
ATOM     19  N   UNL A   1      33.239  23.180  24.122  1.00  0.00    -0.188 NA
ATOM     20  C   UNL A   1      31.247  23.484  26.499  1.00  0.00     0.009 C 
ATOM     21  C   UNL A   1      31.023  22.669  25.221  1.00  0.00     0.001 C 
ATOM     22  C   UNL A   1      31.445  21.208  25.384  1.00  0.00     0.009 C 
ATOM     23  C   UNL A   1      31.738  23.296  24.021  1.00  0.00     0.106 C 
ATOM     24  C   UNL A   1      32.960  21.098  25.518  1.00  0.00     0.001 C 
ATOM     25  C   UNL A   1      33.650  21.755  24.316  1.00  0.00     0.106 C 
ATOM     26  C   UNL A   1      33.391  19.635  25.652  1.00  0.00     0.009 C 
ENDBRANCH  16  19
ENDBRANCH  11  16
ENDBRANCH   8  10
ENDBRANCH   7   8
ENDBRANCH   6   7
ENDBRANCH   5   6
ENDBRANCH   4   5
ENDBRANCH   3   4
ENDBRANCH   2   3
ENDBRANCH   1   2
BRANCH   1  27
ATOM     27  C   UNL A   1      33.777  33.883  28.491  1.00  0.00     0.188 C 
BRANCH  27  28
ATOM     28  C   UNL A   1      33.721  34.486  29.920  1.00  0.00     0.188 C 
BRANCH  28  29
ATOM     29  O   UNL A   1      34.033  33.584  30.968  1.00  0.00    -0.376 OA
BRANCH  29  30
ATOM     30  C   UNL A   1      34.987  33.979  31.935  1.00  0.00     0.202 C 
BRANCH  30  31
ATOM     31  C   UNL A   1      35.116  33.113  33.196  1.00  0.00     0.261 C 
BRANCH  31  32
ATOM     32  O   UNL A   1      35.854  31.892  33.056  1.00  0.00    -0.460 OA
BRANCH  32  33
ATOM     33  C   UNL A   1      37.049  31.806  33.681  1.00  0.00     0.338 C 
ATOM     34  O   UNL A   1      37.283  31.977  34.862  1.00  0.00    -0.246 OA
BRANCH  33  35
ATOM     35  C   UNL A   1      38.009  31.275  32.690  1.00  0.00     0.060 A 
ATOM     36  C   UNL A   1      39.146  30.573  33.122  1.00  0.00     0.016 A 
ATOM     37  C   UNL A   1      37.747  31.432  31.329  1.00  0.00     0.016 A 
ATOM     38  C   UNL A   1      40.035  30.038  32.187  1.00  0.00     0.010 A 
ATOM     39  C   UNL A   1      38.653  30.929  30.398  1.00  0.00     0.010 A 
ATOM     40  C   UNL A   1      39.814  30.258  30.822  1.00  0.00    -0.014 A 
BRANCH  40  41
ATOM     41  C   UNL A   1      40.893  30.036  29.831  1.00  0.00     0.031 A 
ATOM     42  C   UNL A   1      40.972  28.672  29.204  1.00  0.00     0.074 A 
ATOM     43  C   UNL A   1      41.805  30.979  29.537  1.00  0.00     0.049 A 
ATOM     44  N   UNL A   1      41.929  28.134  28.497  1.00  0.00    -0.248 NA
ATOM     45  C   UNL A   1      39.812  27.790  29.423  1.00  0.00     0.031 C 
ATOM     46  C   UNL A   1      41.794  32.353  30.031  1.00  0.00     0.029 A 
ATOM     47  N   UNL A   1      42.942  30.900  28.772  1.00  0.00    -0.354 N 
ATOM     48  C   UNL A   1      41.491  26.850  28.197  1.00  0.00     0.074 A 
ATOM     49  C   UNL A   1      40.200  26.677  28.822  1.00  0.00     0.031 C 
ATOM     50  C   UNL A   1      42.898  32.981  29.585  1.00  0.00     0.029 A 
ATOM     51  C   UNL A   1      43.714  32.037  28.822  1.00  0.00     0.049 A 
ATOM     52  H   UNL A   1      43.182  30.107  28.240  1.00  0.00     0.167 HD
ATOM     53  C   UNL A   1      42.113  25.901  27.459  1.00  0.00     0.037 A 
ATOM     54  C   UNL A   1      44.957  32.260  28.346  1.00  0.00     0.037 A 
ATOM     55  C   UNL A   1      43.404  26.076  26.856  1.00  0.00     0.049 A 
ATOM     56  C   UNL A   1      45.680  31.145  27.622  1.00  0.00     0.074 A 
ATOM     57  C   UNL A   1      44.139  25.170  26.113  1.00  0.00     0.029 A 
ATOM     58  N   UNL A   1      44.154  27.240  26.931  1.00  0.00    -0.354 N 
ATOM     59  N   UNL A   1      45.269  29.930  27.346  1.00  0.00    -0.248 NA
ATOM     60  C   UNL A   1      47.042  31.432  27.147  1.00  0.00     0.031 C 
ATOM     61  C   UNL A   1      45.355  25.769  25.776  1.00  0.00     0.029 A 
ATOM     62  C   UNL A   1      45.349  27.072  26.252  1.00  0.00     0.049 A 
ATOM     63  H   UNL A   1      43.878  28.062  27.395  1.00  0.00     0.167 HD
ATOM     64  C   UNL A   1      46.297  29.333  26.624  1.00  0.00     0.074 A 
ATOM     65  C   UNL A   1      47.351  30.315  26.505  1.00  0.00     0.031 C 
ATOM     66  C   UNL A   1      46.363  28.082  26.103  1.00  0.00     0.037 A 
BRANCH  53  67
ATOM     67  C   UNL A   1      41.411  24.589  27.280  1.00  0.00     0.064 A 
ATOM     68  C   UNL A   1      41.854  23.428  27.930  1.00  0.00     0.173 A 
ATOM     69  C   UNL A   1      40.258  24.500  26.487  1.00  0.00     0.173 A 
ATOM     70  F   UNL A   1      42.963  23.456  28.684  1.00  0.00    -0.203 F 
ATOM     71  C   UNL A   1      41.177  22.221  27.779  1.00  0.00     0.198 A 
ATOM     72  C   UNL A   1      39.565  23.299  26.365  1.00  0.00     0.198 A 
ATOM     73  F   UNL A   1      39.794  25.581  25.842  1.00  0.00    -0.203 F 
ATOM     74  F   UNL A   1      41.642  21.115  28.376  1.00  0.00    -0.200 F 
ATOM     75  C   UNL A   1      40.028  22.160  27.006  1.00  0.00     0.200 A 
ATOM     76  F   UNL A   1      38.447  23.245  25.627  1.00  0.00    -0.200 F 
ATOM     77  F   UNL A   1      39.368  21.001  26.875  1.00  0.00    -0.200 F 
ENDBRANCH  53  67
BRANCH  54  78
ATOM     78  C   UNL A   1      45.632  33.568  28.569  1.00  0.00     0.064 A 
ATOM     79  C   UNL A   1      45.498  34.617  27.646  1.00  0.00     0.173 A 
ATOM     80  C   UNL A   1      46.484  33.774  29.664  1.00  0.00     0.173 A 
ATOM     81  F   UNL A   1      44.716  34.464  26.567  1.00  0.00    -0.203 F 
ATOM     82  C   UNL A   1      46.220  35.801  27.789  1.00  0.00     0.198 A 
ATOM     83  C   UNL A   1      47.177  34.974  29.826  1.00  0.00     0.198 A 
ATOM     84  F   UNL A   1      46.653  32.806  30.577  1.00  0.00    -0.203 F 
ATOM     85  F   UNL A   1      46.131  36.754  26.851  1.00  0.00    -0.200 F 
ATOM     86  C   UNL A   1      47.057  35.980  28.880  1.00  0.00     0.200 A 
ATOM     87  F   UNL A   1      47.974  35.146  30.890  1.00  0.00    -0.200 F 
ATOM     88  F   UNL A   1      47.761  37.113  29.010  1.00  0.00    -0.200 F 
ENDBRANCH  54  78
BRANCH  66  89
ATOM     89  C   UNL A   1      47.564  27.724  25.276  1.00  0.00     0.064 A 
ATOM     90  C   UNL A   1      48.732  27.203  25.848  1.00  0.00     0.173 A 
ATOM     91  C   UNL A   1      47.502  27.818  23.877  1.00  0.00     0.173 A 
ATOM     92  F   UNL A   1      48.846  27.103  27.181  1.00  0.00    -0.203 F 
ATOM     93  C   UNL A   1      49.800  26.800  25.049  1.00  0.00     0.198 A 
ATOM     94  C   UNL A   1      48.557  27.385  23.081  1.00  0.00     0.198 A 
ATOM     95  F   UNL A   1      46.400  28.301  23.280  1.00  0.00    -0.203 F 
ATOM     96  F   UNL A   1      50.921  26.336  25.617  1.00  0.00    -0.200 F 
ATOM     97  C   UNL A   1      49.706  26.880  23.667  1.00  0.00     0.200 A 
ATOM     98  F   UNL A   1      48.455  27.444  21.745  1.00  0.00    -0.200 F 
ATOM     99  F   UNL A   1      50.725  26.469  22.900  1.00  0.00    -0.200 F 
ENDBRANCH  66  89
ENDBRANCH  40  41
ENDBRANCH  33  35
ENDBRANCH  32  33
ENDBRANCH  31  32
ENDBRANCH  30  31
ENDBRANCH  29  30
ENDBRANCH  28  29
ENDBRANCH  27  28
ENDBRANCH   1  27
TORSDOF 22
ENDMDL
MODEL 2
REMARK VINA RESULT:     -10.1      5.461     10.504
REMARK SMILES C[C@@H]1C[C@@H](C)CN(S(=O)(=O)N2CC[C@H](C(=O)OCCOCCOCCOCCOC(=O)c3ccc(-c4c5nc(c(-c6c(F)c(F)c(F)c(F)c6F)c6ccc([nH]6)c(-c6c(F)c(F)c(F)c(F)c6F)c6nc(c(-c7c(F)c(F)c(F)c(F)c7F)c7ccc4[nH]7)C=C6)C=C5)cc3)[C@@H]2C)C1
REMARK SMILES IDX 23 1 22 2 21 3 20 4 19 5 18 6 17 7 15 8 16 9 14 10 11 11
REMARK SMILES IDX 12 12 95 13 13 14 96 15 8 16 9 17 10 18 7 19 1 20 2 21 3 22
REMARK SMILES IDX 97 23 4 24 6 25 5 26 24 27 25 28 26 29 27 30 28 31 29 32
REMARK SMILES IDX 30 33 31 34 32 35 33 36 94 37 34 38 93 39 35 40 36 41 37 42
REMARK SMILES IDX 87 43 38 44 92 45 86 46 88 47 39 48 91 49 85 50 84 51 40 53
REMARK SMILES IDX 72 54 52 55 71 56 53 57 56 58 70 59 89 60 54 61 55 62 69 64
REMARK SMILES IDX 90 65 57 66 41 67 42 68 50 69 43 70 44 71 48 72 51 73 45 74
REMARK SMILES IDX 46 75 49 76 47 77 73 78 74 79 82 80 75 81 76 82 80 83 83 84
REMARK SMILES IDX 77 85 78 86 81 87 79 88 58 89 59 90 67 91 60 92 61 93 65 94
REMARK SMILES IDX 68 95 62 96 63 97 66 98 64 99
REMARK H PARENT 88 52 56 63
REMARK Flexibility Score: inf
ROOT
ATOM      1  O   UNL A   1      38.561  21.525  25.090  1.00  0.00    -0.377 OA
ENDROOT
BRANCH   1   2
ATOM      2  C   UNL A   1      37.313  22.190  25.149  1.00  0.00     0.188 C 
BRANCH   2   3
ATOM      3  C   UNL A   1      36.120  21.402  25.744  1.00  0.00     0.188 C 
BRANCH   3   4
ATOM      4  O   UNL A   1      35.210  22.201  26.490  1.00  0.00    -0.376 OA
BRANCH   4   5
ATOM      5  C   UNL A   1      34.242  21.553  27.303  1.00  0.00     0.202 C 
BRANCH   5   6
ATOM      6  C   UNL A   1      33.129  20.797  26.566  1.00  0.00     0.261 C 
BRANCH   6   7
ATOM      7  O   UNL A   1      32.328  21.643  25.735  1.00  0.00    -0.463 OA
BRANCH   7   8
ATOM      8  C   UNL A   1      32.647  21.663  24.410  1.00  0.00     0.310 C 
ATOM      9  O   UNL A   1      32.448  20.736  23.645  1.00  0.00    -0.252 OA
BRANCH   8  10
ATOM     10  C   UNL A   1      33.079  23.073  24.061  1.00  0.00     0.118 C 
ATOM     11  N   UNL A   1      32.392  24.421  22.231  1.00  0.00    -0.185 NA
ATOM     12  C   UNL A   1      33.422  23.482  21.752  1.00  0.00     0.105 C 
ATOM     13  C   UNL A   1      32.036  24.102  23.628  1.00  0.00     0.085 C 
ATOM     14  C   UNL A   1      34.177  23.105  23.006  1.00  0.00     0.034 C 
ATOM     15  C   UNL A   1      30.567  23.759  23.786  1.00  0.00     0.027 C 
BRANCH  11  16
ATOM     16  S   UNL A   1      32.458  26.007  21.714  1.00  0.00     0.282 S 
ATOM     17  O   UNL A   1      31.407  26.223  20.744  1.00  0.00    -0.195 OA
ATOM     18  O   UNL A   1      33.838  26.285  21.393  1.00  0.00    -0.195 OA
BRANCH  16  19
ATOM     19  N   UNL A   1      32.066  26.936  23.118  1.00  0.00    -0.188 NA
ATOM     20  C   UNL A   1      32.569  27.256  26.177  1.00  0.00     0.009 C 
ATOM     21  C   UNL A   1      33.096  28.170  25.066  1.00  0.00     0.001 C 
ATOM     22  C   UNL A   1      32.168  29.356  24.802  1.00  0.00     0.009 C 
ATOM     23  C   UNL A   1      33.347  27.394  23.770  1.00  0.00     0.106 C 
ATOM     24  C   UNL A   1      30.861  28.886  24.173  1.00  0.00     0.001 C 
ATOM     25  C   UNL A   1      31.142  28.091  22.891  1.00  0.00     0.106 C 
ATOM     26  C   UNL A   1      29.939  30.072  23.878  1.00  0.00     0.009 C 
ENDBRANCH  16  19
ENDBRANCH  11  16
ENDBRANCH   8  10
ENDBRANCH   7   8
ENDBRANCH   6   7
ENDBRANCH   5   6
ENDBRANCH   4   5
ENDBRANCH   3   4
ENDBRANCH   2   3
ENDBRANCH   1   2
BRANCH   1  27
ATOM     27  C   UNL A   1      39.456  21.649  26.192  1.00  0.00     0.188 C 
BRANCH  27  28
ATOM     28  C   UNL A   1      40.566  20.606  26.489  1.00  0.00     0.188 C 
BRANCH  28  29
ATOM     29  O   UNL A   1      41.892  21.102  26.430  1.00  0.00    -0.376 OA
BRANCH  29  30
ATOM     30  C   UNL A   1      42.122  22.326  25.757  1.00  0.00     0.202 C 
BRANCH  30  31
ATOM     31  C   UNL A   1      43.553  22.612  25.281  1.00  0.00     0.261 C 
BRANCH  31  32
ATOM     32  O   UNL A   1      44.351  23.446  26.131  1.00  0.00    -0.460 OA
BRANCH  32  33
ATOM     33  C   UNL A   1      44.310  24.780  25.921  1.00  0.00     0.338 C 
ATOM     34  O   UNL A   1      44.366  25.365  24.857  1.00  0.00    -0.246 OA
BRANCH  33  35
ATOM     35  C   UNL A   1      43.994  25.405  27.223  1.00  0.00     0.060 A 
ATOM     36  C   UNL A   1      43.228  24.705  28.170  1.00  0.00     0.016 A 
ATOM     37  C   UNL A   1      44.506  26.668  27.519  1.00  0.00     0.016 A 
ATOM     38  C   UNL A   1      42.960  25.279  29.414  1.00  0.00     0.010 A 
ATOM     39  C   UNL A   1      44.207  27.255  28.747  1.00  0.00     0.010 A 
ATOM     40  C   UNL A   1      43.409  26.577  29.686  1.00  0.00    -0.014 A 
BRANCH  40  41
ATOM     41  C   UNL A   1      42.852  27.353  30.818  1.00  0.00     0.031 A 
ATOM     42  C   UNL A   1      41.617  28.165  30.545  1.00  0.00     0.074 A 
ATOM     43  C   UNL A   1      43.444  27.390  32.024  1.00  0.00     0.049 A 
ATOM     44  N   UNL A   1      41.058  29.101  31.265  1.00  0.00    -0.248 NA
ATOM     45  C   UNL A   1      40.928  27.888  29.272  1.00  0.00     0.031 C 
ATOM     46  C   UNL A   1      44.604  26.600  32.426  1.00  0.00     0.029 A 
ATOM     47  N   UNL A   1      43.159  28.160  33.125  1.00  0.00    -0.354 N 
ATOM     48  C   UNL A   1      39.962  29.531  30.528  1.00  0.00     0.074 A 
ATOM     49  C   UNL A   1      39.950  28.779  29.294  1.00  0.00     0.031 C 
ATOM     50  C   UNL A   1      44.957  26.955  33.675  1.00  0.00     0.029 A 
ATOM     51  C   UNL A   1      44.081  28.031  34.136  1.00  0.00     0.049 A 
ATOM     52  H   UNL A   1      42.371  28.749  33.184  1.00  0.00     0.167 HD
ATOM     53  C   UNL A   1      39.043  30.467  30.857  1.00  0.00     0.037 A 
ATOM     54  C   UNL A   1      44.221  28.741  35.275  1.00  0.00     0.037 A 
ATOM     55  C   UNL A   1      39.073  31.222  32.079  1.00  0.00     0.049 A 
ATOM     56  C   UNL A   1      43.248  29.862  35.568  1.00  0.00     0.074 A 
ATOM     57  C   UNL A   1      38.209  32.217  32.500  1.00  0.00     0.029 A 
ATOM     58  N   UNL A   1      40.023  31.063  33.076  1.00  0.00    -0.354 N 
ATOM     59  N   UNL A   1      42.218  30.274  34.869  1.00  0.00    -0.248 NA
ATOM     60  C   UNL A   1      43.462  30.622  36.810  1.00  0.00     0.031 C 
ATOM     61  C   UNL A   1      38.663  32.693  33.732  1.00  0.00     0.029 A 
ATOM     62  C   UNL A   1      39.770  31.949  34.109  1.00  0.00     0.049 A 
ATOM     63  H   UNL A   1      40.766  30.417  33.053  1.00  0.00     0.167 HD
ATOM     64  C   UNL A   1      41.635  31.297  35.608  1.00  0.00     0.074 A 
ATOM     65  C   UNL A   1      42.425  31.448  36.810  1.00  0.00     0.031 C 
ATOM     66  C   UNL A   1      40.542  32.046  35.321  1.00  0.00     0.037 A 
BRANCH  53  67
ATOM     67  C   UNL A   1      37.943  30.738  29.876  1.00  0.00     0.064 A 
ATOM     68  C   UNL A   1      36.952  29.782  29.606  1.00  0.00     0.173 A 
ATOM     69  C   UNL A   1      37.851  31.980  29.232  1.00  0.00     0.173 A 
ATOM     70  F   UNL A   1      37.007  28.571  30.181  1.00  0.00    -0.203 F 
ATOM     71  C   UNL A   1      35.918  30.055  28.716  1.00  0.00     0.198 A 
ATOM     72  C   UNL A   1      36.797  32.261  28.368  1.00  0.00     0.198 A 
ATOM     73  F   UNL A   1      38.774  32.928  29.455  1.00  0.00    -0.203 F 
ATOM     74  F   UNL A   1      35.007  29.112  28.441  1.00  0.00    -0.200 F 
ATOM     75  C   UNL A   1      35.835  31.297  28.106  1.00  0.00     0.200 A 
ATOM     76  F   UNL A   1      36.711  33.467  27.789  1.00  0.00    -0.200 F 
ATOM     77  F   UNL A   1      34.831  31.564  27.260  1.00  0.00    -0.200 F 
ENDBRANCH  53  67
BRANCH  54  78
ATOM     78  C   UNL A   1      45.344  28.461  36.212  1.00  0.00     0.064 A 
ATOM     79  C   UNL A   1      46.597  29.071  36.041  1.00  0.00     0.173 A 
ATOM     80  C   UNL A   1      45.216  27.526  37.249  1.00  0.00     0.173 A 
ATOM     81  F   UNL A   1      46.782  29.954  35.048  1.00  0.00    -0.203 F 
ATOM     82  C   UNL A   1      47.683  28.725  36.843  1.00  0.00     0.198 A 
ATOM     83  C   UNL A   1      46.294  27.209  38.075  1.00  0.00     0.198 A 
ATOM     84  F   UNL A   1      44.043  26.909  37.458  1.00  0.00    -0.203 F 
ATOM     85  F   UNL A   1      48.886  29.267  36.606  1.00  0.00    -0.200 F 
ATOM     86  C   UNL A   1      47.531  27.797  37.861  1.00  0.00     0.200 A 
ATOM     87  F   UNL A   1      46.137  26.319  39.066  1.00  0.00    -0.200 F 
ATOM     88  F   UNL A   1      48.579  27.455  38.623  1.00  0.00    -0.200 F 
ENDBRANCH  54  78
BRANCH  66  89
ATOM     89  C   UNL A   1      40.068  33.030  36.351  1.00  0.00     0.064 A 
ATOM     90  C   UNL A   1      40.585  34.330  36.431  1.00  0.00     0.173 A 
ATOM     91  C   UNL A   1      39.012  32.688  37.210  1.00  0.00     0.173 A 
ATOM     92  F   UNL A   1      41.603  34.703  35.640  1.00  0.00    -0.203 F 
ATOM     93  C   UNL A   1      40.069  35.249  37.342  1.00  0.00     0.198 A 
ATOM     94  C   UNL A   1      38.476  33.618  38.095  1.00  0.00     0.198 A 
ATOM     95  F   UNL A   1      38.475  31.459  37.165  1.00  0.00    -0.203 F 
ATOM     96  F   UNL A   1      40.599  36.476  37.425  1.00  0.00    -0.200 F 
ATOM     97  C   UNL A   1      39.008  34.896  38.163  1.00  0.00     0.200 A 
ATOM     98  F   UNL A   1      37.438  33.280  38.873  1.00  0.00    -0.200 F 
ATOM     99  F   UNL A   1      38.497  35.789  39.022  1.00  0.00    -0.200 F 
ENDBRANCH  66  89
ENDBRANCH  40  41
ENDBRANCH  33  35
ENDBRANCH  32  33
ENDBRANCH  31  32
ENDBRANCH  30  31
ENDBRANCH  29  30
ENDBRANCH  28  29
ENDBRANCH  27  28
ENDBRANCH   1  27
TORSDOF 22
ENDMDL
MODEL 3
REMARK VINA RESULT:      -9.9      5.509     10.809
REMARK SMILES C[C@@H]1C[C@@H](C)CN(S(=O)(=O)N2CC[C@H](C(=O)OCCOCCOCCOCCOC(=O)c3ccc(-c4c5nc(c(-c6c(F)c(F)c(F)c(F)c6F)c6ccc([nH]6)c(-c6c(F)c(F)c(F)c(F)c6F)c6nc(c(-c7c(F)c(F)c(F)c(F)c7F)c7ccc4[nH]7)C=C6)C=C5)cc3)[C@@H]2C)C1
REMARK SMILES IDX 23 1 22 2 21 3 20 4 19 5 18 6 17 7 15 8 16 9 14 10 11 11
REMARK SMILES IDX 12 12 95 13 13 14 96 15 8 16 9 17 10 18 7 19 1 20 2 21 3 22
REMARK SMILES IDX 97 23 4 24 6 25 5 26 24 27 25 28 26 29 27 30 28 31 29 32
REMARK SMILES IDX 30 33 31 34 32 35 33 36 94 37 34 38 93 39 35 40 36 41 37 42
REMARK SMILES IDX 87 43 38 44 92 45 86 46 88 47 39 48 91 49 85 50 84 51 40 53
REMARK SMILES IDX 72 54 52 55 71 56 53 57 56 58 70 59 89 60 54 61 55 62 69 64
REMARK SMILES IDX 90 65 57 66 41 67 42 68 50 69 43 70 44 71 48 72 51 73 45 74
REMARK SMILES IDX 46 75 49 76 47 77 73 78 74 79 82 80 75 81 76 82 80 83 83 84
REMARK SMILES IDX 77 85 78 86 81 87 79 88 58 89 59 90 67 91 60 92 61 93 65 94
REMARK SMILES IDX 68 95 62 96 63 97 66 98 64 99
REMARK H PARENT 88 52 56 63
REMARK Flexibility Score: inf
ROOT
ATOM      1  O   UNL A   1      40.831  20.410  27.442  1.00  0.00    -0.377 OA
ENDROOT
BRANCH   1   2
ATOM      2  C   UNL A   1      40.503  21.773  27.247  1.00  0.00     0.188 C 
BRANCH   2   3
ATOM      3  C   UNL A   1      39.485  22.101  26.126  1.00  0.00     0.188 C 
BRANCH   3   4
ATOM      4  O   UNL A   1      38.328  21.274  26.132  1.00  0.00    -0.376 OA
BRANCH   4   5
ATOM      5  C   UNL A   1      37.673  21.010  24.900  1.00  0.00     0.202 C 
BRANCH   5   6
ATOM      6  C   UNL A   1      36.195  20.603  24.988  1.00  0.00     0.261 C 
BRANCH   6   7
ATOM      7  O   UNL A   1      35.350  21.651  25.472  1.00  0.00    -0.463 OA
BRANCH   7   8
ATOM      8  C   UNL A   1      34.074  21.666  24.993  1.00  0.00     0.310 C 
ATOM      9  O   UNL A   1      33.129  21.136  25.550  1.00  0.00    -0.252 OA
BRANCH   8  10
ATOM     10  C   UNL A   1      34.038  22.607  23.806  1.00  0.00     0.118 C 
ATOM     11  N   UNL A   1      32.779  24.602  23.534  1.00  0.00    -0.185 NA
ATOM     12  C   UNL A   1      31.896  23.456  23.253  1.00  0.00     0.105 C 
ATOM     13  C   UNL A   1      34.083  24.117  24.030  1.00  0.00     0.085 C 
ATOM     14  C   UNL A   1      32.852  22.344  22.887  1.00  0.00     0.034 C 
ATOM     15  C   UNL A   1      34.401  24.636  25.419  1.00  0.00     0.027 C 
BRANCH  11  16
ATOM     16  S   UNL A   1      32.695  25.936  22.534  1.00  0.00     0.282 S 
ATOM     17  O   UNL A   1      31.979  25.569  21.332  1.00  0.00    -0.195 OA
ATOM     18  O   UNL A   1      34.024  26.494  22.469  1.00  0.00    -0.195 OA
BRANCH  16  19
ATOM     19  N   UNL A   1      31.710  27.062  23.400  1.00  0.00    -0.188 NA
ATOM     20  C   UNL A   1      31.463  28.736  26.017  1.00  0.00     0.009 C 
ATOM     21  C   UNL A   1      31.781  29.274  24.618  1.00  0.00     0.001 C 
ATOM     22  C   UNL A   1      30.524  29.721  23.870  1.00  0.00     0.009 C 
ATOM     23  C   UNL A   1      32.557  28.250  23.784  1.00  0.00     0.106 C 
ATOM     24  C   UNL A   1      29.655  28.521  23.513  1.00  0.00     0.001 C 
ATOM     25  C   UNL A   1      30.463  27.502  22.699  1.00  0.00     0.106 C 
ATOM     26  C   UNL A   1      28.410  28.959  22.738  1.00  0.00     0.009 C 
ENDBRANCH  16  19
ENDBRANCH  11  16
ENDBRANCH   8  10
ENDBRANCH   7   8
ENDBRANCH   6   7
ENDBRANCH   5   6
ENDBRANCH   4   5
ENDBRANCH   3   4
ENDBRANCH   2   3
ENDBRANCH   1   2
BRANCH   1  27
ATOM     27  C   UNL A   1      42.161  19.980  27.163  1.00  0.00     0.188 C 
BRANCH  27  28
ATOM     28  C   UNL A   1      42.759  19.985  25.731  1.00  0.00     0.188 C 
BRANCH  28  29
ATOM     29  O   UNL A   1      44.066  20.520  25.625  1.00  0.00    -0.376 OA
BRANCH  29  30
ATOM     30  C   UNL A   1      44.212  21.862  25.199  1.00  0.00     0.202 C 
BRANCH  30  31
ATOM     31  C   UNL A   1      44.443  22.926  26.280  1.00  0.00     0.261 C 
BRANCH  31  32
ATOM     32  O   UNL A   1      44.682  24.262  25.817  1.00  0.00    -0.460 OA
BRANCH  32  33
ATOM     33  C   UNL A   1      43.611  25.066  25.640  1.00  0.00     0.338 C 
ATOM     34  O   UNL A   1      42.925  25.180  24.642  1.00  0.00    -0.246 OA
BRANCH  33  35
ATOM     35  C   UNL A   1      43.302  25.659  26.959  1.00  0.00     0.060 A 
ATOM     36  C   UNL A   1      42.476  24.970  27.861  1.00  0.00     0.016 A 
ATOM     37  C   UNL A   1      43.880  26.878  27.315  1.00  0.00     0.016 A 
ATOM     38  C   UNL A   1      42.213  25.510  29.121  1.00  0.00     0.010 A 
ATOM     39  C   UNL A   1      43.588  27.433  28.559  1.00  0.00     0.010 A 
ATOM     40  C   UNL A   1      42.731  26.768  29.454  1.00  0.00    -0.014 A 
BRANCH  40  41
ATOM     41  C   UNL A   1      42.195  27.533  30.604  1.00  0.00     0.031 A 
ATOM     42  C   UNL A   1      40.977  28.378  30.352  1.00  0.00     0.074 A 
ATOM     43  C   UNL A   1      42.790  27.530  31.809  1.00  0.00     0.049 A 
ATOM     44  N   UNL A   1      40.441  29.310  31.094  1.00  0.00    -0.248 NA
ATOM     45  C   UNL A   1      40.279  28.145  29.076  1.00  0.00     0.031 C 
ATOM     46  C   UNL A   1      43.933  26.706  32.190  1.00  0.00     0.029 A 
ATOM     47  N   UNL A   1      42.525  28.283  32.926  1.00  0.00    -0.354 N 
ATOM     48  C   UNL A   1      39.354  29.781  30.369  1.00  0.00     0.074 A 
ATOM     49  C   UNL A   1      39.321  29.057  29.120  1.00  0.00     0.031 C 
ATOM     50  C   UNL A   1      44.297  27.025  33.445  1.00  0.00     0.029 A 
ATOM     51  C   UNL A   1      43.447  28.110  33.932  1.00  0.00     0.049 A 
ATOM     52  H   UNL A   1      41.751  28.887  33.001  1.00  0.00     0.167 HD
ATOM     53  C   UNL A   1      38.458  30.731  30.722  1.00  0.00     0.037 A 
ATOM     54  C   UNL A   1      43.606  28.792  35.086  1.00  0.00     0.037 A 
ATOM     55  C   UNL A   1      38.507  31.458  31.959  1.00  0.00     0.049 A 
ATOM     56  C   UNL A   1      42.660  29.929  35.406  1.00  0.00     0.074 A 
ATOM     57  C   UNL A   1      37.668  32.463  32.404  1.00  0.00     0.029 A 
ATOM     58  N   UNL A   1      39.457  31.256  32.950  1.00  0.00    -0.354 N 
ATOM     59  N   UNL A   1      41.637  30.378  34.719  1.00  0.00    -0.248 NA
ATOM     60  C   UNL A   1      42.894  30.657  36.663  1.00  0.00     0.031 C 
ATOM     61  C   UNL A   1      38.136  32.902  33.645  1.00  0.00     0.029 A 
ATOM     62  C   UNL A   1      39.226  32.125  34.003  1.00  0.00     0.049 A 
ATOM     63  H   UNL A   1      40.184  30.594  32.911  1.00  0.00     0.167 HD
ATOM     64  C   UNL A   1      41.080  31.399  35.481  1.00  0.00     0.074 A 
ATOM     65  C   UNL A   1      41.876  31.506  36.684  1.00  0.00     0.031 C 
ATOM     66  C   UNL A   1      40.003  32.178  35.213  1.00  0.00     0.037 A 
BRANCH  53  67
ATOM     67  C   UNL A   1      37.361  31.047  29.750  1.00  0.00     0.064 A 
ATOM     68  C   UNL A   1      36.309  30.150  29.517  1.00  0.00     0.173 A 
ATOM     69  C   UNL A   1      37.337  32.278  29.078  1.00  0.00     0.173 A 
ATOM     70  F   UNL A   1      36.297  28.951  30.119  1.00  0.00    -0.203 F 
ATOM     71  C   UNL A   1      35.280  30.467  28.634  1.00  0.00     0.198 A 
ATOM     72  C   UNL A   1      36.290  32.605  28.222  1.00  0.00     0.198 A 
ATOM     73  F   UNL A   1      38.320  33.171  29.265  1.00  0.00    -0.203 F 
ATOM     74  F   UNL A   1      34.308  29.576  28.395  1.00  0.00    -0.200 F 
ATOM     75  C   UNL A   1      35.266  31.697  27.996  1.00  0.00     0.200 A 
ATOM     76  F   UNL A   1      36.270  33.801  27.616  1.00  0.00    -0.200 F 
ATOM     77  F   UNL A   1      34.267  32.007  27.159  1.00  0.00    -0.200 F 
ENDBRANCH  53  67
BRANCH  54  78
ATOM     78  C   UNL A   1      44.725  28.467  36.013  1.00  0.00     0.064 A 
ATOM     79  C   UNL A   1      44.548  27.560  37.069  1.00  0.00     0.173 A 
ATOM     80  C   UNL A   1      45.968  29.108  35.911  1.00  0.00     0.173 A 
ATOM     81  F   UNL A   1      43.369  26.938  37.227  1.00  0.00    -0.203 F 
ATOM     82  C   UNL A   1      45.554  27.340  38.008  1.00  0.00     0.198 A 
ATOM     83  C   UNL A   1      46.988  28.858  36.830  1.00  0.00     0.198 A 
ATOM     84  F   UNL A   1      46.194  29.986  34.924  1.00  0.00    -0.203 F 
ATOM     85  F   UNL A   1      45.328  26.528  39.050  1.00  0.00    -0.200 F 
ATOM     86  C   UNL A   1      46.774  27.987  37.887  1.00  0.00     0.200 A 
ATOM     87  F   UNL A   1      48.169  29.477  36.700  1.00  0.00    -0.200 F 
ATOM     88  F   UNL A   1      47.737  27.785  38.797  1.00  0.00    -0.200 F 
ENDBRANCH  54  78
BRANCH  66  89
ATOM     89  C   UNL A   1      39.555  33.151  36.266  1.00  0.00     0.064 A 
ATOM     90  C   UNL A   1      38.660  32.787  37.282  1.00  0.00     0.173 A 
ATOM     91  C   UNL A   1      40.107  34.440  36.306  1.00  0.00     0.173 A 
ATOM     92  F   UNL A   1      38.096  31.570  37.283  1.00  0.00    -0.203 F 
ATOM     93  C   UNL A   1      38.326  33.685  38.294  1.00  0.00     0.198 A 
ATOM     94  C   UNL A   1      39.797  35.323  37.336  1.00  0.00     0.198 A 
ATOM     95  F   UNL A   1      40.977  34.833  35.362  1.00  0.00    -0.203 F 
ATOM     96  F   UNL A   1      37.445  33.329  39.237  1.00  0.00    -0.200 F 
ATOM     97  C   UNL A   1      38.904  34.946  38.326  1.00  0.00     0.200 A 
ATOM     98  F   UNL A   1      40.373  36.533  37.376  1.00  0.00    -0.200 F 
ATOM     99  F   UNL A   1      38.600  35.799  39.315  1.00  0.00    -0.200 F 
ENDBRANCH  66  89
ENDBRANCH  40  41
ENDBRANCH  33  35
ENDBRANCH  32  33
ENDBRANCH  31  32
ENDBRANCH  30  31
ENDBRANCH  29  30
ENDBRANCH  28  29
ENDBRANCH  27  28
ENDBRANCH   1  27
TORSDOF 22
ENDMDL
