MODEL 1
REMARK VINA RESULT:     -11.5      0.000      0.000
REMARK SMILES C[NH+]1CCN(c2nc3c(cc2F)c(=O)c(C(=O)OCCOCCOCCOCCOC(=O)c2ccc(-c4c5nc(c(-c6c(F)c(F)c(F)c(F)c6F)c6ccc([nH]6)c(-c6c(F)c(F)c(F)c(F)c6F)c6nc(c(-c7c(F)c(F)c(F)c(F)c7F)c7ccc4[nH]7)C=C6)C=C5)cc2)cn3-c2ccc(F)cc2F)CC1
REMARK SMILES IDX 25 1 24 2 23 3 22 4 21 5 20 6 19 7 18 8 16 9 17 10 15 11
REMARK SMILES IDX 6 12 7 13 11 14 8 15 10 16 12 17 9 18 97 19 13 20 96 21
REMARK SMILES IDX 14 22 5 23 1 24 2 25 3 26 107 27 4 29 106 30 98 31 99 32
REMARK SMILES IDX 104 33 100 34 103 35 105 36 101 37 102 38 26 39 27 40 28 41
REMARK SMILES IDX 29 42 30 43 31 44 32 45 33 46 34 47 95 48 35 49 94 50 36 51
REMARK SMILES IDX 37 52 38 53 88 54 39 55 93 56 87 57 89 58 40 59 92 60 86 61
REMARK SMILES IDX 85 62 41 64 73 65 53 66 72 67 54 68 57 69 71 70 90 71 55 72
REMARK SMILES IDX 56 73 70 75 91 76 58 77 42 78 43 79 51 80 44 81 45 82 49 83
REMARK SMILES IDX 52 84 46 85 47 86 50 87 48 88 74 89 75 90 83 91 76 92 77 93
REMARK SMILES IDX 81 94 84 95 78 96 79 97 82 98 80 99 59 100 60 101 68 102
REMARK SMILES IDX 61 103 62 104 66 105 69 106 63 107 64 108 67 109 65 110
REMARK H PARENT 2 28 89 63 57 74
REMARK Flexibility Score: inf
ROOT
ATOM      1  C   UNL A   1      33.105  19.968  25.176  1.00  0.00     0.188 C 
ENDROOT
BRANCH   1   2
ATOM      2  O   UNL A   1      31.856  20.635  25.296  1.00  0.00    -0.377 OA
BRANCH   2   3
ATOM      3  C   UNL A   1      31.822  22.027  25.584  1.00  0.00     0.188 C 
BRANCH   3   4
ATOM      4  C   UNL A   1      31.821  23.077  24.446  1.00  0.00     0.188 C 
BRANCH   4   5
ATOM      5  O   UNL A   1      31.474  22.563  23.170  1.00  0.00    -0.376 OA
BRANCH   5   6
ATOM      6  C   UNL A   1      32.487  22.011  22.352  1.00  0.00     0.202 C 
BRANCH   6   7
ATOM      7  C   UNL A   1      32.906  22.819  21.120  1.00  0.00     0.261 C 
BRANCH   7   8
ATOM      8  O   UNL A   1      33.496  24.087  21.408  1.00  0.00    -0.459 OA
BRANCH   8   9
ATOM      9  C   UNL A   1      32.865  25.188  20.952  1.00  0.00     0.343 C 
ATOM     10  O   UNL A   1      32.409  25.347  19.830  1.00  0.00    -0.246 OA
BRANCH   9  11
ATOM     11  C   UNL A   1      32.640  26.108  22.081  1.00  0.00     0.124 A 
ATOM     12  C   UNL A   1      32.816  29.249  26.015  1.00  0.00     0.167 A 
ATOM     13  N   UNL A   1      31.903  29.046  25.035  1.00  0.00    -0.209 NA
ATOM     14  C   UNL A   1      33.876  28.355  26.222  1.00  0.00     0.166 A 
ATOM     15  C   UNL A   1      32.097  28.018  24.162  1.00  0.00     0.151 A 
ATOM     16  C   UNL A   1      34.044  27.269  25.392  1.00  0.00     0.059 A 
ATOM     17  F   UNL A   1      34.760  28.554  27.212  1.00  0.00    -0.203 F 
ATOM     18  C   UNL A   1      33.169  27.127  24.323  1.00  0.00     0.069 A 
ATOM     19  N   UNL A   1      31.243  27.870  23.017  1.00  0.00    -0.297 N 
ATOM     20  C   UNL A   1      33.454  26.094  23.311  1.00  0.00     0.205 A 
ATOM     21  C   UNL A   1      31.600  26.955  22.033  1.00  0.00     0.113 A 
ATOM     22  O   UNL A   1      34.387  25.318  23.478  1.00  0.00    -0.288 OA
BRANCH  12  23
ATOM     23  N   UNL A   1      32.742  30.387  26.778  1.00  0.00    -0.343 N 
ATOM     24  C   UNL A   1      33.195  34.442  27.789  1.00  0.00     0.332 C 
ATOM     25  N   UNL A   1      32.790  33.040  27.888  1.00  0.00    -0.334 N 
ATOM     26  C   UNL A   1      33.981  32.150  27.912  1.00  0.00     0.283 C 
ATOM     27  C   UNL A   1      31.919  32.690  26.741  1.00  0.00     0.283 C 
ATOM     28  H   UNL A   1      32.274  32.911  28.759  1.00  0.00     0.347 HD
ATOM     29  C   UNL A   1      33.625  30.635  27.906  1.00  0.00     0.179 C 
ATOM     30  C   UNL A   1      31.529  31.200  26.728  1.00  0.00     0.179 C 
ENDBRANCH  12  23
BRANCH  19  31
ATOM     31  C   UNL A   1      30.153  28.754  22.775  1.00  0.00     0.083 A 
ATOM     32  C   UNL A   1      30.381  29.983  22.134  1.00  0.00     0.033 A 
ATOM     33  C   UNL A   1      28.835  28.419  23.131  1.00  0.00     0.150 A 
ATOM     34  C   UNL A   1      29.318  30.842  21.854  1.00  0.00     0.041 A 
ATOM     35  C   UNL A   1      27.773  29.279  22.867  1.00  0.00     0.080 A 
ATOM     36  F   UNL A   1      28.581  27.248  23.735  1.00  0.00    -0.205 F 
ATOM     37  C   UNL A   1      28.026  30.484  22.225  1.00  0.00     0.126 A 
ATOM     38  F   UNL A   1      27.012  31.314  21.953  1.00  0.00    -0.207 F 
ENDBRANCH  19  31
ENDBRANCH   9  11
ENDBRANCH   8   9
ENDBRANCH   7   8
ENDBRANCH   6   7
ENDBRANCH   5   6
ENDBRANCH   4   5
ENDBRANCH   3   4
ENDBRANCH   2   3
ENDBRANCH   1   2
BRANCH   1  39
ATOM     39  C   UNL A   1      34.417  20.727  25.487  1.00  0.00     0.188 C 
BRANCH  39  40
ATOM     40  O   UNL A   1      35.211  20.990  24.343  1.00  0.00    -0.376 OA
BRANCH  40  41
ATOM     41  C   UNL A   1      36.399  21.737  24.539  1.00  0.00     0.202 C 
BRANCH  41  42
ATOM     42  C   UNL A   1      37.671  20.969  24.927  1.00  0.00     0.261 C 
BRANCH  42  43
ATOM     43  O   UNL A   1      38.239  21.270  26.211  1.00  0.00    -0.460 OA
BRANCH  43  44
ATOM     44  C   UNL A   1      39.583  21.243  26.335  1.00  0.00     0.338 C 
ATOM     45  O   UNL A   1      40.345  20.358  25.985  1.00  0.00    -0.246 OA
BRANCH  44  46
ATOM     46  C   UNL A   1      39.993  22.572  26.830  1.00  0.00     0.060 A 
ATOM     47  C   UNL A   1      39.342  23.720  26.357  1.00  0.00     0.016 A 
ATOM     48  C   UNL A   1      41.003  22.677  27.789  1.00  0.00     0.016 A 
ATOM     49  C   UNL A   1      39.697  24.976  26.847  1.00  0.00     0.010 A 
ATOM     50  C   UNL A   1      41.388  23.939  28.248  1.00  0.00     0.010 A 
ATOM     51  C   UNL A   1      40.751  25.094  27.763  1.00  0.00    -0.014 A 
BRANCH  51  52
ATOM     52  C   UNL A   1      41.336  26.430  28.023  1.00  0.00     0.031 A 
ATOM     53  C   UNL A   1      42.742  26.679  27.554  1.00  0.00     0.074 A 
ATOM     54  C   UNL A   1      40.639  27.403  28.637  1.00  0.00     0.049 A 
ATOM     55  N   UNL A   1      43.481  27.750  27.673  1.00  0.00    -0.248 NA
ATOM     56  C   UNL A   1      43.405  25.567  26.849  1.00  0.00     0.031 C 
ATOM     57  C   UNL A   1      39.259  27.293  29.101  1.00  0.00     0.029 A 
ATOM     58  N   UNL A   1      41.010  28.681  28.978  1.00  0.00    -0.354 N 
ATOM     59  C   UNL A   1      44.685  27.445  27.054  1.00  0.00     0.074 A 
ATOM     60  C   UNL A   1      44.596  26.082  26.583  1.00  0.00     0.031 C 
ATOM     61  C   UNL A   1      38.903  28.451  29.686  1.00  0.00     0.029 A 
ATOM     62  C   UNL A   1      40.039  29.374  29.659  1.00  0.00     0.049 A 
ATOM     63  H   UNL A   1      41.889  29.064  28.757  1.00  0.00     0.167 HD
ATOM     64  C   UNL A   1      45.767  28.238  26.885  1.00  0.00     0.037 A 
ATOM     65  C   UNL A   1      40.076  30.604  30.213  1.00  0.00     0.037 A 
ATOM     66  C   UNL A   1      45.857  29.592  27.358  1.00  0.00     0.049 A 
ATOM     67  C   UNL A   1      41.329  31.438  30.079  1.00  0.00     0.074 A 
ATOM     68  C   UNL A   1      46.905  30.482  27.214  1.00  0.00     0.029 A 
ATOM     69  N   UNL A   1      44.866  30.247  28.072  1.00  0.00    -0.354 N 
ATOM     70  N   UNL A   1      42.447  31.160  29.450  1.00  0.00    -0.248 NA
ATOM     71  C   UNL A   1      41.326  32.758  30.728  1.00  0.00     0.031 C 
ATOM     72  C   UNL A   1      46.575  31.655  27.895  1.00  0.00     0.029 A 
ATOM     73  C   UNL A   1      45.295  31.520  28.406  1.00  0.00     0.049 A 
ATOM     74  H   UNL A   1      43.990  29.864  28.308  1.00  0.00     0.167 HD
ATOM     75  C   UNL A   1      43.261  32.276  29.603  1.00  0.00     0.074 A 
ATOM     76  C   UNL A   1      42.506  33.244  30.368  1.00  0.00     0.031 C 
ATOM     77  C   UNL A   1      44.524  32.479  29.154  1.00  0.00     0.037 A 
BRANCH  64  78
ATOM     78  C   UNL A   1      46.953  27.673  26.167  1.00  0.00     0.064 A 
ATOM     79  C   UNL A   1      47.041  27.701  24.769  1.00  0.00     0.173 A 
ATOM     80  C   UNL A   1      48.061  27.207  26.890  1.00  0.00     0.173 A 
ATOM     81  F   UNL A   1      46.000  28.123  24.034  1.00  0.00    -0.203 F 
ATOM     82  C   UNL A   1      48.201  27.290  24.119  1.00  0.00     0.198 A 
ATOM     83  C   UNL A   1      49.227  26.821  26.239  1.00  0.00     0.198 A 
ATOM     84  F   UNL A   1      48.023  27.161  28.231  1.00  0.00    -0.203 F 
ATOM     85  F   UNL A   1      48.262  27.314  22.780  1.00  0.00    -0.200 F 
ATOM     86  C   UNL A   1      49.298  26.866  24.854  1.00  0.00     0.200 A 
ATOM     87  F   UNL A   1      50.291  26.425  26.952  1.00  0.00    -0.200 F 
ATOM     88  F   UNL A   1      50.426  26.504  24.228  1.00  0.00    -0.200 F 
ENDBRANCH  64  78
BRANCH  65  89
ATOM     89  C   UNL A   1      38.902  31.125  30.965  1.00  0.00     0.064 A 
ATOM     90  C   UNL A   1      37.923  31.906  30.335  1.00  0.00     0.173 A 
ATOM     91  C   UNL A   1      38.756  30.887  32.341  1.00  0.00     0.173 A 
ATOM     92  F   UNL A   1      38.031  32.191  29.029  1.00  0.00    -0.203 F 
ATOM     93  C   UNL A   1      36.860  32.450  31.056  1.00  0.00     0.198 A 
ATOM     94  C   UNL A   1      37.675  31.402  33.053  1.00  0.00     0.198 A 
ATOM     95  F   UNL A   1      39.668  30.153  32.996  1.00  0.00    -0.203 F 
ATOM     96  F   UNL A   1      35.973  33.244  30.439  1.00  0.00    -0.200 F 
ATOM     97  C   UNL A   1      36.734  32.193  32.413  1.00  0.00     0.200 A 
ATOM     98  F   UNL A   1      37.554  31.146  34.363  1.00  0.00    -0.200 F 
ATOM     99  F   UNL A   1      35.714  32.718  33.105  1.00  0.00    -0.200 F 
ENDBRANCH  65  89
BRANCH  77 100
ATOM    100  C   UNL A   1      45.174  33.801  29.444  1.00  0.00     0.064 A 
ATOM    101  C   UNL A   1      45.905  34.018  30.620  1.00  0.00     0.173 A 
ATOM    102  C   UNL A   1      45.149  34.830  28.488  1.00  0.00     0.173 A 
ATOM    103  F   UNL A   1      45.953  33.070  31.569  1.00  0.00    -0.203 F 
ATOM    104  C   UNL A   1      46.576  35.218  30.836  1.00  0.00     0.198 A 
ATOM    105  C   UNL A   1      45.849  36.015  28.691  1.00  0.00     0.198 A 
ATOM    106  F   UNL A   1      44.476  34.669  27.338  1.00  0.00    -0.203 F 
ATOM    107  F   UNL A   1      47.242  35.415  31.982  1.00  0.00    -0.200 F 
ATOM    108  C   UNL A   1      46.558  36.210  29.867  1.00  0.00     0.200 A 
ATOM    109  F   UNL A   1      45.850  36.963  27.743  1.00  0.00    -0.200 F 
ATOM    110  F   UNL A   1      47.226  37.355  30.065  1.00  0.00    -0.200 F 
ENDBRANCH  77 100
ENDBRANCH  51  52
ENDBRANCH  44  46
ENDBRANCH  43  44
ENDBRANCH  42  43
ENDBRANCH  41  42
ENDBRANCH  40  41
ENDBRANCH  39  40
ENDBRANCH   1  39
TORSDOF 22
ENDMDL
MODEL 2
REMARK VINA RESULT:     -10.8      0.812      6.856
REMARK SMILES C[NH+]1CCN(c2nc3c(cc2F)c(=O)c(C(=O)OCCOCCOCCOCCOC(=O)c2ccc(-c4c5nc(c(-c6c(F)c(F)c(F)c(F)c6F)c6ccc([nH]6)c(-c6c(F)c(F)c(F)c(F)c6F)c6nc(c(-c7c(F)c(F)c(F)c(F)c7F)c7ccc4[nH]7)C=C6)C=C5)cc2)cn3-c2ccc(F)cc2F)CC1
REMARK SMILES IDX 25 1 24 2 23 3 22 4 21 5 20 6 19 7 18 8 16 9 17 10 15 11
REMARK SMILES IDX 6 12 7 13 11 14 8 15 10 16 12 17 9 18 97 19 13 20 96 21
REMARK SMILES IDX 14 22 5 23 1 24 2 25 3 26 107 27 4 29 106 30 98 31 99 32
REMARK SMILES IDX 104 33 100 34 103 35 105 36 101 37 102 38 26 39 27 40 28 41
REMARK SMILES IDX 29 42 30 43 31 44 32 45 33 46 34 47 95 48 35 49 94 50 36 51
REMARK SMILES IDX 37 52 38 53 88 54 39 55 93 56 87 57 89 58 40 59 92 60 86 61
REMARK SMILES IDX 85 62 41 64 73 65 53 66 72 67 54 68 57 69 71 70 90 71 55 72
REMARK SMILES IDX 56 73 70 75 91 76 58 77 42 78 43 79 51 80 44 81 45 82 49 83
REMARK SMILES IDX 52 84 46 85 47 86 50 87 48 88 74 89 75 90 83 91 76 92 77 93
REMARK SMILES IDX 81 94 84 95 78 96 79 97 82 98 80 99 59 100 60 101 68 102
REMARK SMILES IDX 61 103 62 104 66 105 69 106 63 107 64 108 67 109 65 110
REMARK H PARENT 2 28 89 63 57 74
REMARK Flexibility Score: inf
ROOT
ATOM      1  C   UNL A   1      33.116  20.503  25.263  1.00  0.00     0.188 C 
ENDROOT
BRANCH   1   2
ATOM      2  O   UNL A   1      32.020  21.180  25.863  1.00  0.00    -0.377 OA
BRANCH   2   3
ATOM      3  C   UNL A   1      32.120  22.566  26.158  1.00  0.00     0.188 C 
BRANCH   3   4
ATOM      4  C   UNL A   1      32.190  23.619  25.025  1.00  0.00     0.188 C 
BRANCH   4   5
ATOM      5  O   UNL A   1      31.581  23.218  23.808  1.00  0.00    -0.376 OA
BRANCH   5   6
ATOM      6  C   UNL A   1      32.360  22.547  22.837  1.00  0.00     0.202 C 
BRANCH   6   7
ATOM      7  C   UNL A   1      32.829  23.368  21.632  1.00  0.00     0.261 C 
BRANCH   7   8
ATOM      8  O   UNL A   1      33.340  24.662  21.951  1.00  0.00    -0.459 OA
BRANCH   8   9
ATOM      9  C   UNL A   1      32.603  25.732  21.592  1.00  0.00     0.343 C 
ATOM     10  O   UNL A   1      31.953  25.848  20.565  1.00  0.00    -0.246 OA
BRANCH   9  11
ATOM     11  C   UNL A   1      32.549  26.673  22.724  1.00  0.00     0.124 A 
ATOM     12  C   UNL A   1      33.309  29.880  26.534  1.00  0.00     0.167 A 
ATOM     13  N   UNL A   1      32.263  29.668  25.699  1.00  0.00    -0.209 NA
ATOM     14  C   UNL A   1      34.382  28.980  26.602  1.00  0.00     0.166 A 
ATOM     15  C   UNL A   1      32.323  28.624  24.826  1.00  0.00     0.151 A 
ATOM     16  C   UNL A   1      34.422  27.879  25.776  1.00  0.00     0.059 A 
ATOM     17  F   UNL A   1      35.401  29.189  27.451  1.00  0.00    -0.203 F 
ATOM     18  C   UNL A   1      33.401  27.726  24.847  1.00  0.00     0.069 A 
ATOM     19  N   UNL A   1      31.312  28.463  23.819  1.00  0.00    -0.297 N 
ATOM     20  C   UNL A   1      33.531  26.673  23.825  1.00  0.00     0.205 A 
ATOM     21  C   UNL A   1      31.518  27.529  22.811  1.00  0.00     0.113 A 
ATOM     22  O   UNL A   1      34.474  25.892  23.870  1.00  0.00    -0.288 OA
BRANCH  12  23
ATOM     23  N   UNL A   1      33.352  31.032  27.278  1.00  0.00    -0.343 N 
ATOM     24  C   UNL A   1      33.972  35.099  28.139  1.00  0.00     0.332 C 
ATOM     25  N   UNL A   1      33.577  33.703  28.321  1.00  0.00    -0.334 N 
ATOM     26  C   UNL A   1      34.753  32.803  28.190  1.00  0.00     0.283 C 
ATOM     27  C   UNL A   1      32.548  33.341  27.317  1.00  0.00     0.283 C 
ATOM     28  H   UNL A   1      33.190  33.593  29.259  1.00  0.00     0.347 HD
ATOM     29  C   UNL A   1      34.390  31.291  28.264  1.00  0.00     0.179 C 
ATOM     30  C   UNL A   1      32.151  31.854  27.388  1.00  0.00     0.179 C 
ENDBRANCH  12  23
BRANCH  19  31
ATOM     31  C   UNL A   1      30.204  29.353  23.720  1.00  0.00     0.083 A 
ATOM     32  C   UNL A   1      30.295  30.644  24.263  1.00  0.00     0.033 A 
ATOM     33  C   UNL A   1      29.018  28.986  23.060  1.00  0.00     0.150 A 
ATOM     34  C   UNL A   1      29.234  31.541  24.139  1.00  0.00     0.041 A 
ATOM     35  C   UNL A   1      27.950  29.872  22.945  1.00  0.00     0.080 A 
ATOM     36  F   UNL A   1      28.901  27.763  22.520  1.00  0.00    -0.205 F 
ATOM     37  C   UNL A   1      28.071  31.146  23.484  1.00  0.00     0.126 A 
ATOM     38  F   UNL A   1      27.057  32.011  23.370  1.00  0.00    -0.207 F 
ENDBRANCH  19  31
ENDBRANCH   9  11
ENDBRANCH   8   9
ENDBRANCH   7   8
ENDBRANCH   6   7
ENDBRANCH   5   6
ENDBRANCH   4   5
ENDBRANCH   3   4
ENDBRANCH   2   3
ENDBRANCH   1   2
BRANCH   1  39
ATOM     39  C   UNL A   1      34.555  21.032  25.470  1.00  0.00     0.188 C 
BRANCH  39  40
ATOM     40  O   UNL A   1      35.223  21.365  24.265  1.00  0.00    -0.376 OA
BRANCH  40  41
ATOM     41  C   UNL A   1      36.536  21.884  24.375  1.00  0.00     0.202 C 
BRANCH  41  42
ATOM     42  C   UNL A   1      37.649  20.926  24.825  1.00  0.00     0.261 C 
BRANCH  42  43
ATOM     43  O   UNL A   1      38.181  21.129  26.143  1.00  0.00    -0.460 OA
BRANCH  43  44
ATOM     44  C   UNL A   1      39.505  20.948  26.331  1.00  0.00     0.338 C 
ATOM     45  O   UNL A   1      40.165  19.957  26.067  1.00  0.00    -0.246 OA
BRANCH  44  46
ATOM     46  C   UNL A   1      40.057  22.246  26.766  1.00  0.00     0.060 A 
ATOM     47  C   UNL A   1      39.593  23.430  26.177  1.00  0.00     0.016 A 
ATOM     48  C   UNL A   1      41.011  22.290  27.785  1.00  0.00     0.016 A 
ATOM     49  C   UNL A   1      40.082  24.663  26.609  1.00  0.00     0.010 A 
ATOM     50  C   UNL A   1      41.531  23.522  28.189  1.00  0.00     0.010 A 
ATOM     51  C   UNL A   1      41.084  24.711  27.587  1.00  0.00    -0.014 A 
BRANCH  51  52
ATOM     52  C   UNL A   1      41.824  25.976  27.802  1.00  0.00     0.031 A 
ATOM     53  C   UNL A   1      41.143  27.055  28.598  1.00  0.00     0.074 A 
ATOM     54  C   UNL A   1      43.069  26.160  27.329  1.00  0.00     0.049 A 
ATOM     55  N   UNL A   1      41.568  28.251  28.911  1.00  0.00    -0.248 NA
ATOM     56  C   UNL A   1      39.799  26.740  29.116  1.00  0.00     0.031 C 
ATOM     57  C   UNL A   1      43.844  25.176  26.578  1.00  0.00     0.029 A 
ATOM     58  N   UNL A   1      43.897  27.254  27.410  1.00  0.00    -0.354 N 
ATOM     59  C   UNL A   1      40.552  28.822  29.665  1.00  0.00     0.074 A 
ATOM     60  C   UNL A   1      39.477  27.860  29.743  1.00  0.00     0.031 C 
ATOM     61  C   UNL A   1      45.031  25.717  26.250  1.00  0.00     0.029 A 
ATOM     62  C   UNL A   1      45.088  27.094  26.744  1.00  0.00     0.049 A 
ATOM     63  H   UNL A   1      43.659  28.075  27.898  1.00  0.00     0.167 HD
ATOM     64  C   UNL A   1      40.526  30.041  30.250  1.00  0.00     0.037 A 
ATOM     65  C   UNL A   1      46.095  27.969  26.544  1.00  0.00     0.037 A 
ATOM     66  C   UNL A   1      41.594  30.999  30.168  1.00  0.00     0.049 A 
ATOM     67  C   UNL A   1      46.002  29.354  27.141  1.00  0.00     0.074 A 
ATOM     68  C   UNL A   1      41.666  32.253  30.748  1.00  0.00     0.029 A 
ATOM     69  N   UNL A   1      42.769  30.813  29.458  1.00  0.00    -0.354 N 
ATOM     70  N   UNL A   1      45.059  29.870  27.893  1.00  0.00    -0.248 NA
ATOM     71  C   UNL A   1      47.114  30.277  26.865  1.00  0.00     0.031 C 
ATOM     72  C   UNL A   1      42.858  32.852  30.337  1.00  0.00     0.029 A 
ATOM     73  C   UNL A   1      43.558  31.947  29.556  1.00  0.00     0.049 A 
ATOM     74  H   UNL A   1      43.006  29.999  28.957  1.00  0.00     0.167 HD
ATOM     75  C   UNL A   1      45.477  31.159  28.201  1.00  0.00     0.074 A 
ATOM     76  C   UNL A   1      46.766  31.344  27.571  1.00  0.00     0.031 C 
ATOM     77  C   UNL A   1      44.847  32.108  28.937  1.00  0.00     0.037 A 
BRANCH  64  78
ATOM     78  C   UNL A   1      39.306  30.426  31.027  1.00  0.00     0.064 A 
ATOM     79  C   UNL A   1      39.136  30.032  32.361  1.00  0.00     0.173 A 
ATOM     80  C   UNL A   1      38.355  31.293  30.468  1.00  0.00     0.173 A 
ATOM     81  F   UNL A   1      40.009  29.190  32.935  1.00  0.00    -0.203 F 
ATOM     82  C   UNL A   1      38.061  30.500  33.112  1.00  0.00     0.198 A 
ATOM     83  C   UNL A   1      37.297  31.779  31.228  1.00  0.00     0.198 A 
ATOM     84  F   UNL A   1      38.475  31.697  29.194  1.00  0.00    -0.203 F 
ATOM     85  F   UNL A   1      37.910  30.104  34.383  1.00  0.00    -0.200 F 
ATOM     86  C   UNL A   1      37.153  31.386  32.550  1.00  0.00     0.200 A 
ATOM     87  F   UNL A   1      36.429  32.646  30.688  1.00  0.00    -0.200 F 
ATOM     88  F   UNL A   1      36.139  31.863  33.285  1.00  0.00    -0.200 F 
ENDBRANCH  64  78
BRANCH  65  89
ATOM     89  C   UNL A   1      47.277  27.580  25.725  1.00  0.00     0.064 A 
ATOM     90  C   UNL A   1      48.451  27.101  26.324  1.00  0.00     0.173 A 
ATOM     91  C   UNL A   1      47.271  27.718  24.328  1.00  0.00     0.173 A 
ATOM     92  F   UNL A   1      48.521  26.980  27.658  1.00  0.00    -0.203 F 
ATOM     93  C   UNL A   1      49.579  26.802  25.562  1.00  0.00     0.198 A 
ATOM     94  C   UNL A   1      48.388  27.387  23.565  1.00  0.00     0.198 A 
ATOM     95  F   UNL A   1      46.177  28.180  23.704  1.00  0.00    -0.203 F 
ATOM     96  F   UNL A   1      50.708  26.405  26.167  1.00  0.00    -0.200 F 
ATOM     97  C   UNL A   1      49.545  26.940  24.182  1.00  0.00     0.200 A 
ATOM     98  F   UNL A   1      48.347  27.515  22.231  1.00  0.00    -0.200 F 
ATOM     99  F   UNL A   1      50.631  26.654  23.451  1.00  0.00    -0.200 F 
ENDBRANCH  65  89
BRANCH  77 100
ATOM    100  C   UNL A   1      45.540  33.426  29.135  1.00  0.00     0.064 A 
ATOM    101  C   UNL A   1      45.285  34.522  28.299  1.00  0.00     0.173 A 
ATOM    102  C   UNL A   1      46.393  33.622  30.234  1.00  0.00     0.173 A 
ATOM    103  F   UNL A   1      44.485  34.384  27.231  1.00  0.00    -0.203 F 
ATOM    104  C   UNL A   1      45.867  35.762  28.547  1.00  0.00     0.198 A 
ATOM    105  C   UNL A   1      46.945  34.872  30.499  1.00  0.00     0.198 A 
ATOM    106  F   UNL A   1      46.658  32.610  31.074  1.00  0.00    -0.203 F 
ATOM    107  F   UNL A   1      45.635  36.788  27.716  1.00  0.00    -0.200 F 
ATOM    108  C   UNL A   1      46.686  35.939  29.653  1.00  0.00     0.200 A 
ATOM    109  F   UNL A   1      47.716  35.046  31.581  1.00  0.00    -0.200 F 
ATOM    110  F   UNL A   1      47.224  37.141  29.904  1.00  0.00    -0.200 F 
ENDBRANCH  77 100
ENDBRANCH  51  52
ENDBRANCH  44  46
ENDBRANCH  43  44
ENDBRANCH  42  43
ENDBRANCH  41  42
ENDBRANCH  40  41
ENDBRANCH  39  40
ENDBRANCH   1  39
TORSDOF 22
ENDMDL
MODEL 3
REMARK VINA RESULT:     -10.5      6.547     14.086
REMARK SMILES C[NH+]1CCN(c2nc3c(cc2F)c(=O)c(C(=O)OCCOCCOCCOCCOC(=O)c2ccc(-c4c5nc(c(-c6c(F)c(F)c(F)c(F)c6F)c6ccc([nH]6)c(-c6c(F)c(F)c(F)c(F)c6F)c6nc(c(-c7c(F)c(F)c(F)c(F)c7F)c7ccc4[nH]7)C=C6)C=C5)cc2)cn3-c2ccc(F)cc2F)CC1
REMARK SMILES IDX 25 1 24 2 23 3 22 4 21 5 20 6 19 7 18 8 16 9 17 10 15 11
REMARK SMILES IDX 6 12 7 13 11 14 8 15 10 16 12 17 9 18 97 19 13 20 96 21
REMARK SMILES IDX 14 22 5 23 1 24 2 25 3 26 107 27 4 29 106 30 98 31 99 32
REMARK SMILES IDX 104 33 100 34 103 35 105 36 101 37 102 38 26 39 27 40 28 41
REMARK SMILES IDX 29 42 30 43 31 44 32 45 33 46 34 47 95 48 35 49 94 50 36 51
REMARK SMILES IDX 37 52 38 53 88 54 39 55 93 56 87 57 89 58 40 59 92 60 86 61
REMARK SMILES IDX 85 62 41 64 73 65 53 66 72 67 54 68 57 69 71 70 90 71 55 72
REMARK SMILES IDX 56 73 70 75 91 76 58 77 42 78 43 79 51 80 44 81 45 82 49 83
REMARK SMILES IDX 52 84 46 85 47 86 50 87 48 88 74 89 75 90 83 91 76 92 77 93
REMARK SMILES IDX 81 94 84 95 78 96 79 97 82 98 80 99 59 100 60 101 68 102
REMARK SMILES IDX 61 103 62 104 66 105 69 106 63 107 64 108 67 109 65 110
REMARK H PARENT 2 28 89 63 57 74
REMARK Flexibility Score: inf
ROOT
ATOM      1  C   UNL A   1      36.774  32.375  31.747  1.00  0.00     0.188 C 
ENDROOT
BRANCH   1   2
ATOM      2  O   UNL A   1      37.874  31.995  32.563  1.00  0.00    -0.377 OA
BRANCH   2   3
ATOM      3  C   UNL A   1      37.740  30.909  33.470  1.00  0.00     0.188 C 
BRANCH   3   4
ATOM      4  C   UNL A   1      38.571  30.854  34.775  1.00  0.00     0.188 C 
BRANCH   4   5
ATOM      5  O   UNL A   1      39.299  29.651  34.961  1.00  0.00    -0.376 OA
BRANCH   5   6
ATOM      6  C   UNL A   1      40.700  29.657  34.766  1.00  0.00     0.202 C 
BRANCH   6   7
ATOM      7  C   UNL A   1      41.369  28.310  34.471  1.00  0.00     0.261 C 
BRANCH   7   8
ATOM      8  O   UNL A   1      42.329  27.894  35.443  1.00  0.00    -0.459 OA
BRANCH   8   9
ATOM      9  C   UNL A   1      41.981  26.894  36.278  1.00  0.00     0.343 C 
ATOM     10  O   UNL A   1      40.871  26.701  36.748  1.00  0.00    -0.246 OA
BRANCH   9  11
ATOM     11  C   UNL A   1      43.109  25.953  36.388  1.00  0.00     0.124 A 
ATOM     12  C   UNL A   1      46.738  22.498  35.874  1.00  0.00     0.167 A 
ATOM     13  N   UNL A   1      46.604  23.586  36.671  1.00  0.00    -0.209 NA
ATOM     14  C   UNL A   1      45.656  21.995  35.138  1.00  0.00     0.166 A 
ATOM     15  C   UNL A   1      45.425  24.268  36.653  1.00  0.00     0.151 A 
ATOM     16  C   UNL A   1      44.436  22.632  35.167  1.00  0.00     0.059 A 
ATOM     17  F   UNL A   1      45.795  20.901  34.371  1.00  0.00    -0.203 F 
ATOM     18  C   UNL A   1      44.335  23.808  35.899  1.00  0.00     0.069 A 
ATOM     19  N   UNL A   1      45.300  25.514  37.357  1.00  0.00    -0.297 N 
ATOM     20  C   UNL A   1      43.105  24.610  35.779  1.00  0.00     0.205 A 
ATOM     21  C   UNL A   1      44.169  26.292  37.139  1.00  0.00     0.113 A 
ATOM     22  O   UNL A   1      42.160  24.182  35.126  1.00  0.00    -0.288 OA
BRANCH  12  23
ATOM     23  N   UNL A   1      47.973  21.916  35.732  1.00  0.00    -0.343 N 
ATOM     24  C   UNL A   1      52.079  21.278  36.362  1.00  0.00     0.332 C 
ATOM     25  N   UNL A   1      50.719  21.070  35.869  1.00  0.00    -0.334 N 
ATOM     26  C   UNL A   1      50.284  22.217  35.027  1.00  0.00     0.283 C 
ATOM     27  C   UNL A   1      49.792  20.903  37.014  1.00  0.00     0.283 C 
ATOM     28  H   UNL A   1      50.705  20.227  35.295  1.00  0.00     0.347 HD
ATOM     29  C   UNL A   1      48.804  22.116  34.556  1.00  0.00     0.179 C 
ATOM     30  C   UNL A   1      48.323  20.774  36.572  1.00  0.00     0.179 C 
ENDBRANCH  12  23
BRANCH  19  31
ATOM     31  C   UNL A   1      46.374  26.056  38.120  1.00  0.00     0.083 A 
ATOM     32  C   UNL A   1      47.298  26.918  37.508  1.00  0.00     0.033 A 
ATOM     33  C   UNL A   1      46.522  25.779  39.489  1.00  0.00     0.150 A 
ATOM     34  C   UNL A   1      48.332  27.489  38.251  1.00  0.00     0.041 A 
ATOM     35  C   UNL A   1      47.560  26.334  40.232  1.00  0.00     0.080 A 
ATOM     36  F   UNL A   1      45.650  24.967  40.108  1.00  0.00    -0.205 F 
ATOM     37  C   UNL A   1      48.455  27.190  39.604  1.00  0.00     0.126 A 
ATOM     38  F   UNL A   1      49.450  27.741  40.310  1.00  0.00    -0.207 F 
ENDBRANCH  19  31
ENDBRANCH   9  11
ENDBRANCH   8   9
ENDBRANCH   7   8
ENDBRANCH   6   7
ENDBRANCH   5   6
ENDBRANCH   4   5
ENDBRANCH   3   4
ENDBRANCH   2   3
ENDBRANCH   1   2
BRANCH   1  39
ATOM     39  C   UNL A   1      35.328  32.148  32.249  1.00  0.00     0.188 C 
BRANCH  39  40
ATOM     40  O   UNL A   1      34.393  33.089  31.750  1.00  0.00    -0.376 OA
BRANCH  40  41
ATOM     41  C   UNL A   1      34.671  33.670  30.489  1.00  0.00     0.202 C 
BRANCH  41  42
ATOM     42  C   UNL A   1      34.120  32.966  29.240  1.00  0.00     0.261 C 
BRANCH  42  43
ATOM     43  O   UNL A   1      35.071  32.263  28.425  1.00  0.00    -0.460 OA
BRANCH  43  44
ATOM     44  C   UNL A   1      34.875  30.944  28.212  1.00  0.00     0.338 C 
ATOM     45  O   UNL A   1      33.863  30.397  27.808  1.00  0.00    -0.246 OA
BRANCH  44  46
ATOM     46  C   UNL A   1      36.183  30.283  28.398  1.00  0.00     0.060 A 
ATOM     47  C   UNL A   1      36.477  29.661  29.620  1.00  0.00     0.016 A 
ATOM     48  C   UNL A   1      37.102  30.250  27.348  1.00  0.00     0.016 A 
ATOM     49  C   UNL A   1      37.694  29.001  29.791  1.00  0.00     0.010 A 
ATOM     50  C   UNL A   1      38.337  29.625  27.534  1.00  0.00     0.010 A 
ATOM     51  C   UNL A   1      38.647  29.018  28.764  1.00  0.00    -0.014 A 
BRANCH  51  52
ATOM     52  C   UNL A   1      40.039  28.611  29.062  1.00  0.00     0.031 A 
ATOM     53  C   UNL A   1      40.891  29.567  29.850  1.00  0.00     0.074 A 
ATOM     54  C   UNL A   1      40.532  27.424  28.669  1.00  0.00     0.049 A 
ATOM     55  N   UNL A   1      42.138  29.454  30.225  1.00  0.00    -0.248 NA
ATOM     56  C   UNL A   1      40.246  30.822  30.278  1.00  0.00     0.031 C 
ATOM     57  C   UNL A   1      39.792  26.400  27.935  1.00  0.00     0.029 A 
ATOM     58  N   UNL A   1      41.785  26.883  28.833  1.00  0.00    -0.354 N 
ATOM     59  C   UNL A   1      42.420  30.613  30.936  1.00  0.00     0.074 A 
ATOM     60  C   UNL A   1      41.230  31.431  30.919  1.00  0.00     0.031 C 
ATOM     61  C   UNL A   1      40.611  25.360  27.693  1.00  0.00     0.029 A 
ATOM     62  C   UNL A   1      41.939  25.656  28.234  1.00  0.00     0.049 A 
ATOM     63  H   UNL A   1      42.504  27.333  29.332  1.00  0.00     0.167 HD
ATOM     64  C   UNL A   1      43.571  30.956  31.556  1.00  0.00     0.037 A 
ATOM     65  C   UNL A   1      43.034  24.877  28.121  1.00  0.00     0.037 A 
ATOM     66  C   UNL A   1      44.756  30.144  31.568  1.00  0.00     0.049 A 
ATOM     67  C   UNL A   1      44.330  25.326  28.755  1.00  0.00     0.074 A 
ATOM     68  C   UNL A   1      45.964  30.400  32.190  1.00  0.00     0.029 A 
ATOM     69  N   UNL A   1      44.884  28.924  30.922  1.00  0.00    -0.354 N 
ATOM     70  N   UNL A   1      44.577  26.400  29.466  1.00  0.00    -0.248 NA
ATOM     71  C   UNL A   1      45.500  24.452  28.574  1.00  0.00     0.031 C 
ATOM     72  C   UNL A   1      46.845  29.365  31.869  1.00  0.00     0.029 A 
ATOM     73  C   UNL A   1      46.165  28.432  31.103  1.00  0.00     0.049 A 
ATOM     74  H   UNL A   1      44.171  28.476  30.411  1.00  0.00     0.167 HD
ATOM     75  C   UNL A   1      45.913  26.316  29.839  1.00  0.00     0.074 A 
ATOM     76  C   UNL A   1      46.423  25.078  29.292  1.00  0.00     0.031 C 
ATOM     77  C   UNL A   1      46.653  27.189  30.566  1.00  0.00     0.037 A 
BRANCH  64  78
ATOM     78  C   UNL A   1      43.623  32.270  32.272  1.00  0.00     0.064 A 
ATOM     79  C   UNL A   1      43.513  32.347  33.667  1.00  0.00     0.173 A 
ATOM     80  C   UNL A   1      43.903  33.450  31.566  1.00  0.00     0.173 A 
ATOM     81  F   UNL A   1      43.229  31.248  34.384  1.00  0.00    -0.203 F 
ATOM     82  C   UNL A   1      43.689  33.557  34.331  1.00  0.00     0.198 A 
ATOM     83  C   UNL A   1      44.104  34.652  32.235  1.00  0.00     0.198 A 
ATOM     84  F   UNL A   1      44.017  33.426  30.229  1.00  0.00    -0.203 F 
ATOM     85  F   UNL A   1      43.569  33.611  35.665  1.00  0.00    -0.200 F 
ATOM     86  C   UNL A   1      44.001  34.704  33.617  1.00  0.00     0.200 A 
ATOM     87  F   UNL A   1      44.419  35.757  31.544  1.00  0.00    -0.200 F 
ATOM     88  F   UNL A   1      44.205  35.861  34.262  1.00  0.00    -0.200 F 
ENDBRANCH  64  78
BRANCH  65  89
ATOM     89  C   UNL A   1      42.971  23.598  27.361  1.00  0.00     0.064 A 
ATOM     90  C   UNL A   1      42.462  22.429  27.946  1.00  0.00     0.173 A 
ATOM     91  C   UNL A   1      43.457  23.507  26.048  1.00  0.00     0.173 A 
ATOM     92  F   UNL A   1      42.013  22.453  29.210  1.00  0.00    -0.203 F 
ATOM     93  C   UNL A   1      42.466  21.217  27.257  1.00  0.00     0.198 A 
ATOM     94  C   UNL A   1      43.429  22.303  25.349  1.00  0.00     0.198 A 
ATOM     95  F   UNL A   1      43.963  24.592  25.443  1.00  0.00    -0.203 F 
ATOM     96  F   UNL A   1      42.030  20.104  27.863  1.00  0.00    -0.200 F 
ATOM     97  C   UNL A   1      42.945  21.156  25.957  1.00  0.00     0.200 A 
ATOM     98  F   UNL A   1      43.887  22.250  24.090  1.00  0.00    -0.200 F 
ATOM     99  F   UNL A   1      42.951  19.990  25.297  1.00  0.00    -0.200 F 
ENDBRANCH  65  89
BRANCH  77 100
ATOM    100  C   UNL A   1      48.086  26.839  30.846  1.00  0.00     0.064 A 
ATOM    101  C   UNL A   1      49.130  27.323  30.045  1.00  0.00     0.173 A 
ATOM    102  C   UNL A   1      48.426  26.093  31.987  1.00  0.00     0.173 A 
ATOM    103  F   UNL A   1      48.859  28.033  28.940  1.00  0.00    -0.203 F 
ATOM    104  C   UNL A   1      50.459  27.064  30.367  1.00  0.00     0.198 A 
ATOM    105  C   UNL A   1      49.756  25.866  32.326  1.00  0.00     0.198 A 
ATOM    106  F   UNL A   1      47.466  25.619  32.796  1.00  0.00    -0.203 F 
ATOM    107  F   UNL A   1      51.440  27.510  29.570  1.00  0.00    -0.200 F 
ATOM    108  C   UNL A   1      50.772  26.347  31.513  1.00  0.00     0.200 A 
ATOM    109  F   UNL A   1      50.056  25.193  33.445  1.00  0.00    -0.200 F 
ATOM    110  F   UNL A   1      52.053  26.121  31.835  1.00  0.00    -0.200 F 
ENDBRANCH  77 100
ENDBRANCH  51  52
ENDBRANCH  44  46
ENDBRANCH  43  44
ENDBRANCH  42  43
ENDBRANCH  41  42
ENDBRANCH  40  41
ENDBRANCH  39  40
ENDBRANCH   1  39
TORSDOF 22
ENDMDL
