MODEL 1
REMARK VINA RESULT:     -10.6      0.000      0.000
REMARK SMILES COc1ccc(NC(=O)N2CC[C@@H](C(=O)OCCOCCOCCOCCOC(=O)c3ccc(-c4c5nc(c(-c6c(F)c(F)c(F)c(F)c6F)c6ccc([nH]6)c(-c6c(F)c(F)c(F)c(F)c6F)c6nc(c(-c7c(F)c(F)c(F)c(F)c7F)c7ccc4[nH]7)C=C6)C=C5)cc3)[C@H]2C)cc1F
REMARK SMILES IDX 21 1 20 2 19 3 18 4 17 5 16 6 14 7 15 8 13 9 10 10 11 11
REMARK SMILES IDX 94 12 12 13 95 14 8 15 7 16 9 18 6 19 3 20 4 21 97 22 5 23
REMARK SMILES IDX 96 24 98 25 2 26 1 27 22 28 23 29 24 30 25 31 26 32 27 33
REMARK SMILES IDX 28 34 29 35 30 36 31 37 32 38 93 39 33 40 92 41 34 42 35 43
REMARK SMILES IDX 36 44 86 45 37 46 91 47 85 48 87 49 38 50 90 51 84 52 83 53
REMARK SMILES IDX 39 55 71 56 51 57 70 58 52 59 55 60 69 61 88 62 53 63 54 64
REMARK SMILES IDX 68 66 89 67 56 68 40 69 41 70 49 71 42 72 43 73 47 74 50 75
REMARK SMILES IDX 44 76 45 77 48 78 46 79 72 80 73 81 81 82 74 83 75 84 79 85
REMARK SMILES IDX 82 86 76 87 77 88 80 89 78 90 57 91 58 92 66 93 59 94 60 95
REMARK SMILES IDX 64 96 67 97 61 98 62 99 65 100 63 101
REMARK H PARENT 7 17 87 54 55 65
REMARK Flexibility Score: inf
ROOT
ATOM      1  C   UNL A   1      32.483  26.980  26.461  1.00  0.00     0.188 C 
ENDROOT
BRANCH   1   2
ATOM      2  C   UNL A   1      31.100  26.980  25.777  1.00  0.00     0.188 C 
BRANCH   2   3
ATOM      3  O   UNL A   1      30.889  28.133  24.997  1.00  0.00    -0.376 OA
BRANCH   3   4
ATOM      4  C   UNL A   1      31.376  28.245  23.677  1.00  0.00     0.202 C 
BRANCH   4   5
ATOM      5  C   UNL A   1      31.204  27.131  22.631  1.00  0.00     0.261 C 
BRANCH   5   6
ATOM      6  O   UNL A   1      32.341  26.855  21.813  1.00  0.00    -0.463 OA
BRANCH   6   7
ATOM      7  C   UNL A   1      32.932  25.649  21.915  1.00  0.00     0.311 C 
ATOM      8  O   UNL A   1      33.367  25.023  20.954  1.00  0.00    -0.252 OA
BRANCH   7   9
ATOM      9  C   UNL A   1      33.043  25.117  23.335  1.00  0.00     0.123 C 
ATOM     10  N   UNL A   1      33.269  23.320  24.915  1.00  0.00    -0.321 N 
ATOM     11  C   UNL A   1      34.441  24.174  24.992  1.00  0.00     0.122 C 
ATOM     12  C   UNL A   1      32.338  23.838  23.867  1.00  0.00     0.098 C 
ATOM     13  C   UNL A   1      34.515  24.848  23.642  1.00  0.00     0.039 C 
ATOM     14  C   UNL A   1      31.974  22.805  22.820  1.00  0.00     0.032 C 
BRANCH  10  15
ATOM     15  C   UNL A   1      32.884  22.694  26.082  1.00  0.00     0.322 C 
ATOM     16  N   UNL A   1      32.608  21.363  26.099  1.00  0.00    -0.308 N 
ATOM     17  H   UNL A   1      31.933  21.096  26.763  1.00  0.00     0.171 HD
ATOM     18  O   UNL A   1      32.733  23.324  27.132  1.00  0.00    -0.248 OA
BRANCH  16  19
ATOM     19  C   UNL A   1      33.120  20.305  25.334  1.00  0.00     0.046 A 
ATOM     20  C   UNL A   1      34.243  17.958  24.334  1.00  0.00     0.154 A 
ATOM     21  C   UNL A   1      32.869  18.160  24.241  1.00  0.00     0.052 A 
ATOM     22  C   UNL A   1      35.061  19.007  24.758  1.00  0.00     0.167 A 
ATOM     23  C   UNL A   1      32.307  19.346  24.723  1.00  0.00     0.030 A 
ATOM     24  C   UNL A   1      34.507  20.187  25.245  1.00  0.00     0.069 A 
ATOM     25  F   UNL A   1      36.396  18.876  24.770  1.00  0.00    -0.203 F 
BRANCH  20  26
ATOM     26  O   UNL A   1      34.677  16.701  24.020  1.00  0.00    -0.494 OA
ATOM     27  C   UNL A   1      34.923  15.895  25.168  1.00  0.00     0.278 C 
ENDBRANCH  20  26
ENDBRANCH  16  19
ENDBRANCH  10  15
ENDBRANCH   7   9
ENDBRANCH   6   7
ENDBRANCH   5   6
ENDBRANCH   4   5
ENDBRANCH   3   4
ENDBRANCH   2   3
ENDBRANCH   1   2
BRANCH   1  28
ATOM     28  O   UNL A   1      32.880  28.067  27.295  1.00  0.00    -0.377 OA
BRANCH  28  29
ATOM     29  C   UNL A   1      33.771  29.061  26.793  1.00  0.00     0.188 C 
BRANCH  29  30
ATOM     30  C   UNL A   1      33.229  30.485  26.560  1.00  0.00     0.188 C 
BRANCH  30  31
ATOM     31  O   UNL A   1      31.865  30.658  26.905  1.00  0.00    -0.376 OA
BRANCH  31  32
ATOM     32  C   UNL A   1      31.303  31.948  26.692  1.00  0.00     0.202 C 
BRANCH  32  33
ATOM     33  C   UNL A   1      32.223  33.167  26.875  1.00  0.00     0.261 C 
BRANCH  33  34
ATOM     34  O   UNL A   1      32.543  33.513  28.236  1.00  0.00    -0.460 OA
BRANCH  34  35
ATOM     35  C   UNL A   1      33.584  34.338  28.450  1.00  0.00     0.338 C 
ATOM     36  O   UNL A   1      33.586  35.560  28.472  1.00  0.00    -0.246 OA
BRANCH  35  37
ATOM     37  C   UNL A   1      34.743  33.505  28.804  1.00  0.00     0.060 A 
ATOM     38  C   UNL A   1      34.545  32.252  29.399  1.00  0.00     0.016 A 
ATOM     39  C   UNL A   1      36.029  33.983  28.565  1.00  0.00     0.016 A 
ATOM     40  C   UNL A   1      35.643  31.482  29.783  1.00  0.00     0.010 A 
ATOM     41  C   UNL A   1      37.125  33.212  28.957  1.00  0.00     0.010 A 
ATOM     42  C   UNL A   1      36.943  31.970  29.597  1.00  0.00    -0.014 A 
BRANCH  42  43
ATOM     43  C   UNL A   1      38.096  31.284  30.241  1.00  0.00     0.031 A 
ATOM     44  C   UNL A   1      38.394  31.597  31.684  1.00  0.00     0.074 A 
ATOM     45  C   UNL A   1      38.848  30.381  29.584  1.00  0.00     0.049 A 
ATOM     46  N   UNL A   1      39.354  31.151  32.454  1.00  0.00    -0.248 NA
ATOM     47  C   UNL A   1      37.503  32.567  32.343  1.00  0.00     0.031 C 
ATOM     48  C   UNL A   1      38.677  29.986  28.187  1.00  0.00     0.029 A 
ATOM     49  N   UNL A   1      39.915  29.628  30.013  1.00  0.00    -0.354 N 
ATOM     50  C   UNL A   1      39.195  31.806  33.667  1.00  0.00     0.074 A 
ATOM     51  C   UNL A   1      38.094  32.729  33.515  1.00  0.00     0.031 C 
ATOM     52  C   UNL A   1      39.595  29.052  27.879  1.00  0.00     0.029 A 
ATOM     53  C   UNL A   1      40.433  28.795  29.050  1.00  0.00     0.049 A 
ATOM     54  H   UNL A   1      40.276  29.680  30.928  1.00  0.00     0.167 HD
ATOM     55  C   UNL A   1      39.876  31.629  34.823  1.00  0.00     0.037 A 
ATOM     56  C   UNL A   1      41.462  27.925  29.107  1.00  0.00     0.037 A 
ATOM     57  C   UNL A   1      40.932  30.673  34.997  1.00  0.00     0.049 A 
ATOM     58  C   UNL A   1      42.209  27.743  30.406  1.00  0.00     0.074 A 
ATOM     59  C   UNL A   1      41.645  30.380  36.146  1.00  0.00     0.029 A 
ATOM     60  N   UNL A   1      41.423  29.848  33.996  1.00  0.00    -0.354 N 
ATOM     61  N   UNL A   1      42.019  28.334  31.561  1.00  0.00    -0.248 NA
ATOM     62  C   UNL A   1      43.308  26.765  30.411  1.00  0.00     0.031 C 
ATOM     63  C   UNL A   1      42.603  29.415  35.829  1.00  0.00     0.029 A 
ATOM     64  C   UNL A   1      42.445  29.059  34.498  1.00  0.00     0.049 A 
ATOM     65  H   UNL A   1      41.094  29.826  33.069  1.00  0.00     0.167 HD
ATOM     66  C   UNL A   1      42.952  27.784  32.432  1.00  0.00     0.074 A 
ATOM     67  C   UNL A   1      43.696  26.798  31.679  1.00  0.00     0.031 C 
ATOM     68  C   UNL A   1      43.173  28.073  33.740  1.00  0.00     0.037 A 
BRANCH  55  69
ATOM     69  C   UNL A   1      39.490  32.488  35.992  1.00  0.00     0.064 A 
ATOM     70  C   UNL A   1      40.136  33.712  36.217  1.00  0.00     0.173 A 
ATOM     71  C   UNL A   1      38.501  32.091  36.906  1.00  0.00     0.173 A 
ATOM     72  F   UNL A   1      41.090  34.138  35.374  1.00  0.00    -0.203 F 
ATOM     73  C   UNL A   1      39.811  34.503  37.314  1.00  0.00     0.198 A 
ATOM     74  C   UNL A   1      38.152  32.902  37.981  1.00  0.00     0.198 A 
ATOM     75  F   UNL A   1      37.840  30.937  36.726  1.00  0.00    -0.203 F 
ATOM     76  F   UNL A   1      40.462  35.656  37.523  1.00  0.00    -0.200 F 
ATOM     77  C   UNL A   1      38.814  34.103  38.191  1.00  0.00     0.200 A 
ATOM     78  F   UNL A   1      37.164  32.529  38.806  1.00  0.00    -0.200 F 
ATOM     79  F   UNL A   1      38.485  34.877  39.233  1.00  0.00    -0.200 F 
ENDBRANCH  55  69
BRANCH  56  80
ATOM     80  C   UNL A   1      41.825  27.125  27.906  1.00  0.00     0.064 A 
ATOM     81  C   UNL A   1      42.758  27.596  26.970  1.00  0.00     0.173 A 
ATOM     82  C   UNL A   1      41.242  25.872  27.666  1.00  0.00     0.173 A 
ATOM     83  F   UNL A   1      43.348  28.786  27.151  1.00  0.00    -0.203 F 
ATOM     84  C   UNL A   1      43.080  26.853  25.835  1.00  0.00     0.198 A 
ATOM     85  C   UNL A   1      41.586  25.118  26.545  1.00  0.00     0.198 A 
ATOM     86  F   UNL A   1      40.363  25.365  28.543  1.00  0.00    -0.203 F 
ATOM     87  F   UNL A   1      43.953  27.341  24.942  1.00  0.00    -0.200 F 
ATOM     88  C   UNL A   1      42.498  25.612  25.626  1.00  0.00     0.200 A 
ATOM     89  F   UNL A   1      41.041  23.906  26.363  1.00  0.00    -0.200 F 
ATOM     90  F   UNL A   1      42.818  24.892  24.542  1.00  0.00    -0.200 F 
ENDBRANCH  56  80
BRANCH  68  91
ATOM     91  C   UNL A   1      44.243  27.303  34.461  1.00  0.00     0.064 A 
ATOM     92  C   UNL A   1      43.924  26.120  35.147  1.00  0.00     0.173 A 
ATOM     93  C   UNL A   1      45.560  27.776  34.550  1.00  0.00     0.173 A 
ATOM     94  F   UNL A   1      42.677  25.629  35.107  1.00  0.00    -0.203 F 
ATOM     95  C   UNL A   1      44.879  25.452  35.908  1.00  0.00     0.198 A 
ATOM     96  C   UNL A   1      46.521  27.086  35.283  1.00  0.00     0.198 A 
ATOM     97  F   UNL A   1      45.918  28.898  33.907  1.00  0.00    -0.203 F 
ATOM     98  F   UNL A   1      44.540  24.349  36.589  1.00  0.00    -0.200 F 
ATOM     99  C   UNL A   1      46.178  25.931  35.970  1.00  0.00     0.200 A 
ATOM    100  F   UNL A   1      47.782  27.537  35.322  1.00  0.00    -0.200 F 
ATOM    101  F   UNL A   1      47.101  25.280  36.692  1.00  0.00    -0.200 F 
ENDBRANCH  68  91
ENDBRANCH  42  43
ENDBRANCH  35  37
ENDBRANCH  34  35
ENDBRANCH  33  34
ENDBRANCH  32  33
ENDBRANCH  31  32
ENDBRANCH  30  31
ENDBRANCH  29  30
ENDBRANCH  28  29
ENDBRANCH   1  28
TORSDOF 23
ENDMDL
MODEL 2
REMARK VINA RESULT:     -10.5      1.330      2.209
REMARK SMILES COc1ccc(NC(=O)N2CC[C@@H](C(=O)OCCOCCOCCOCCOC(=O)c3ccc(-c4c5nc(c(-c6c(F)c(F)c(F)c(F)c6F)c6ccc([nH]6)c(-c6c(F)c(F)c(F)c(F)c6F)c6nc(c(-c7c(F)c(F)c(F)c(F)c7F)c7ccc4[nH]7)C=C6)C=C5)cc3)[C@H]2C)cc1F
REMARK SMILES IDX 21 1 20 2 19 3 18 4 17 5 16 6 14 7 15 8 13 9 10 10 11 11
REMARK SMILES IDX 94 12 12 13 95 14 8 15 7 16 9 18 6 19 3 20 4 21 97 22 5 23
REMARK SMILES IDX 96 24 98 25 2 26 1 27 22 28 23 29 24 30 25 31 26 32 27 33
REMARK SMILES IDX 28 34 29 35 30 36 31 37 32 38 93 39 33 40 92 41 34 42 35 43
REMARK SMILES IDX 36 44 86 45 37 46 91 47 85 48 87 49 38 50 90 51 84 52 83 53
REMARK SMILES IDX 39 55 71 56 51 57 70 58 52 59 55 60 69 61 88 62 53 63 54 64
REMARK SMILES IDX 68 66 89 67 56 68 40 69 41 70 49 71 42 72 43 73 47 74 50 75
REMARK SMILES IDX 44 76 45 77 48 78 46 79 72 80 73 81 81 82 74 83 75 84 79 85
REMARK SMILES IDX 82 86 76 87 77 88 80 89 78 90 57 91 58 92 66 93 59 94 60 95
REMARK SMILES IDX 64 96 67 97 61 98 62 99 65 100 63 101
REMARK H PARENT 7 17 87 54 55 65
REMARK Flexibility Score: inf
ROOT
ATOM      1  C   UNL A   1      32.529  27.413  26.564  1.00  0.00     0.188 C 
ENDROOT
BRANCH   1   2
ATOM      2  C   UNL A   1      31.192  27.580  25.814  1.00  0.00     0.188 C 
BRANCH   2   3
ATOM      3  O   UNL A   1      31.127  28.790  25.097  1.00  0.00    -0.376 OA
BRANCH   3   4
ATOM      4  C   UNL A   1      32.055  29.113  24.084  1.00  0.00     0.202 C 
BRANCH   4   5
ATOM      5  C   UNL A   1      32.162  28.315  22.773  1.00  0.00     0.261 C 
BRANCH   5   6
ATOM      6  O   UNL A   1      33.416  27.678  22.527  1.00  0.00    -0.463 OA
BRANCH   6   7
ATOM      7  C   UNL A   1      33.432  26.350  22.308  1.00  0.00     0.311 C 
ATOM      8  O   UNL A   1      33.494  25.846  21.190  1.00  0.00    -0.252 OA
BRANCH   7   9
ATOM      9  C   UNL A   1      33.390  25.500  23.568  1.00  0.00     0.123 C 
ATOM     10  N   UNL A   1      32.722  23.534  24.778  1.00  0.00    -0.321 N 
ATOM     11  C   UNL A   1      34.170  23.564  24.677  1.00  0.00     0.122 C 
ATOM     12  C   UNL A   1      32.145  24.721  24.077  1.00  0.00     0.098 C 
ATOM     13  C   UNL A   1      34.454  24.410  23.458  1.00  0.00     0.039 C 
ATOM     14  C   UNL A   1      31.120  24.357  23.021  1.00  0.00     0.032 C 
BRANCH  10  15
ATOM     15  C   UNL A   1      32.195  22.942  25.907  1.00  0.00     0.322 C 
ATOM     16  N   UNL A   1      31.834  21.631  25.901  1.00  0.00    -0.308 N 
ATOM     17  H   UNL A   1      31.086  21.412  26.501  1.00  0.00     0.171 HD
ATOM     18  O   UNL A   1      31.991  23.587  26.938  1.00  0.00    -0.248 OA
BRANCH  16  19
ATOM     19  C   UNL A   1      32.344  20.537  25.186  1.00  0.00     0.046 A 
ATOM     20  C   UNL A   1      32.837  18.123  23.883  1.00  0.00     0.154 A 
ATOM     21  C   UNL A   1      32.605  19.276  23.137  1.00  0.00     0.052 A 
ATOM     22  C   UNL A   1      33.002  18.226  25.265  1.00  0.00     0.167 A 
ATOM     23  C   UNL A   1      32.378  20.491  23.790  1.00  0.00     0.030 A 
ATOM     24  C   UNL A   1      32.771  19.431  25.921  1.00  0.00     0.069 A 
ATOM     25  F   UNL A   1      33.318  17.149  26.002  1.00  0.00    -0.203 F 
BRANCH  20  26
ATOM     26  O   UNL A   1      32.852  16.955  23.174  1.00  0.00    -0.494 OA
ATOM     27  C   UNL A   1      34.159  16.582  22.747  1.00  0.00     0.278 C 
ENDBRANCH  20  26
ENDBRANCH  16  19
ENDBRANCH  10  15
ENDBRANCH   7   9
ENDBRANCH   6   7
ENDBRANCH   5   6
ENDBRANCH   4   5
ENDBRANCH   3   4
ENDBRANCH   2   3
ENDBRANCH   1   2
BRANCH   1  28
ATOM     28  O   UNL A   1      32.887  28.306  27.617  1.00  0.00    -0.377 OA
BRANCH  28  29
ATOM     29  C   UNL A   1      33.902  29.285  27.407  1.00  0.00     0.188 C 
BRANCH  29  30
ATOM     30  C   UNL A   1      33.476  30.739  27.123  1.00  0.00     0.188 C 
BRANCH  30  31
ATOM     31  O   UNL A   1      32.077  30.926  26.998  1.00  0.00    -0.376 OA
BRANCH  31  32
ATOM     32  C   UNL A   1      31.614  32.265  26.855  1.00  0.00     0.202 C 
BRANCH  32  33
ATOM     33  C   UNL A   1      32.565  33.398  27.276  1.00  0.00     0.261 C 
BRANCH  33  34
ATOM     34  O   UNL A   1      32.230  34.075  28.503  1.00  0.00    -0.460 OA
BRANCH  34  35
ATOM     35  C   UNL A   1      32.973  35.137  28.862  1.00  0.00     0.338 C 
ATOM     36  O   UNL A   1      32.687  36.322  28.771  1.00  0.00    -0.246 OA
BRANCH  35  37
ATOM     37  C   UNL A   1      34.177  34.628  29.534  1.00  0.00     0.060 A 
ATOM     38  C   UNL A   1      35.424  34.731  28.904  1.00  0.00     0.016 A 
ATOM     39  C   UNL A   1      34.060  34.025  30.784  1.00  0.00     0.016 A 
ATOM     40  C   UNL A   1      36.560  34.202  29.516  1.00  0.00     0.010 A 
ATOM     41  C   UNL A   1      35.199  33.491  31.391  1.00  0.00     0.010 A 
ATOM     42  C   UNL A   1      36.452  33.547  30.750  1.00  0.00    -0.014 A 
BRANCH  42  43
ATOM     43  C   UNL A   1      37.598  32.754  31.275  1.00  0.00     0.031 A 
ATOM     44  C   UNL A   1      38.106  33.070  32.658  1.00  0.00     0.074 A 
ATOM     45  C   UNL A   1      38.162  31.757  30.567  1.00  0.00     0.049 A 
ATOM     46  N   UNL A   1      39.102  32.541  33.322  1.00  0.00    -0.248 NA
ATOM     47  C   UNL A   1      37.412  34.149  33.382  1.00  0.00     0.031 C 
ATOM     48  C   UNL A   1      37.776  31.348  29.218  1.00  0.00     0.029 A 
ATOM     49  N   UNL A   1      39.189  30.903  30.893  1.00  0.00    -0.354 N 
ATOM     50  C   UNL A   1      39.166  33.241  34.519  1.00  0.00     0.074 A 
ATOM     51  C   UNL A   1      38.159  34.275  34.466  1.00  0.00     0.031 C 
ATOM     52  C   UNL A   1      38.544  30.312  28.838  1.00  0.00     0.029 A 
ATOM     53  C   UNL A   1      39.491  29.994  29.907  1.00  0.00     0.049 A 
ATOM     54  H   UNL A   1      39.664  30.939  31.755  1.00  0.00     0.167 HD
ATOM     55  C   UNL A   1      39.963  33.020  35.589  1.00  0.00     0.037 A 
ATOM     56  C   UNL A   1      40.420  29.018  29.873  1.00  0.00     0.037 A 
ATOM     57  C   UNL A   1      40.926  31.959  35.671  1.00  0.00     0.049 A 
ATOM     58  C   UNL A   1      41.301  28.789  31.077  1.00  0.00     0.074 A 
ATOM     59  C   UNL A   1      41.742  31.619  36.735  1.00  0.00     0.029 A 
ATOM     60  N   UNL A   1      41.198  31.060  34.651  1.00  0.00    -0.354 N 
ATOM     61  N   UNL A   1      41.321  29.427  32.222  1.00  0.00    -0.248 NA
ATOM     62  C   UNL A   1      42.282  27.696  30.987  1.00  0.00     0.031 C 
ATOM     63  C   UNL A   1      42.545  30.546  36.342  1.00  0.00     0.029 A 
ATOM     64  C   UNL A   1      42.185  30.176  35.055  1.00  0.00     0.049 A 
ATOM     65  H   UNL A   1      40.755  31.050  33.773  1.00  0.00     0.167 HD
ATOM     66  C   UNL A   1      42.292  28.800  32.995  1.00  0.00     0.074 A 
ATOM     67  C   UNL A   1      42.827  27.719  32.196  1.00  0.00     0.031 C 
ATOM     68  C   UNL A   1      42.703  29.097  34.254  1.00  0.00     0.037 A 
BRANCH  55  69
ATOM     69  C   UNL A   1      39.820  33.946  36.762  1.00  0.00     0.064 A 
ATOM     70  C   UNL A   1      38.993  33.601  37.841  1.00  0.00     0.173 A 
ATOM     71  C   UNL A   1      40.475  35.186  36.809  1.00  0.00     0.173 A 
ATOM     72  F   UNL A   1      38.342  32.427  37.846  1.00  0.00    -0.203 F 
ATOM     73  C   UNL A   1      38.825  34.463  38.920  1.00  0.00     0.198 A 
ATOM     74  C   UNL A   1      40.334  36.031  37.907  1.00  0.00     0.198 A 
ATOM     75  F   UNL A   1      41.291  35.557  35.810  1.00  0.00    -0.203 F 
ATOM     76  F   UNL A   1      38.009  34.123  39.927  1.00  0.00    -0.200 F 
ATOM     77  C   UNL A   1      39.502  35.673  38.956  1.00  0.00     0.200 A 
ATOM     78  F   UNL A   1      41.017  37.183  37.955  1.00  0.00    -0.200 F 
ATOM     79  F   UNL A   1      39.358  36.492  40.007  1.00  0.00    -0.200 F 
ENDBRANCH  55  69
BRANCH  56  80
ATOM     80  C   UNL A   1      40.544  28.153  28.668  1.00  0.00     0.064 A 
ATOM     81  C   UNL A   1      41.340  28.530  27.576  1.00  0.00     0.173 A 
ATOM     82  C   UNL A   1      39.863  26.929  28.582  1.00  0.00     0.173 A 
ATOM     83  F   UNL A   1      42.015  29.688  27.607  1.00  0.00    -0.203 F 
ATOM     84  C   UNL A   1      41.436  27.726  26.441  1.00  0.00     0.198 A 
ATOM     85  C   UNL A   1      39.983  26.113  27.459  1.00  0.00     0.198 A 
ATOM     86  F   UNL A   1      39.110  26.510  29.610  1.00  0.00    -0.203 F 
ATOM     87  F   UNL A   1      42.181  28.125  25.400  1.00  0.00    -0.200 F 
ATOM     88  C   UNL A   1      40.762  26.516  26.385  1.00  0.00     0.200 A 
ATOM     89  F   UNL A   1      39.351  24.931  27.422  1.00  0.00    -0.200 F 
ATOM     90  F   UNL A   1      40.866  25.737  25.300  1.00  0.00    -0.200 F 
ENDBRANCH  56  80
BRANCH  68  91
ATOM     91  C   UNL A   1      43.768  28.232  34.869  1.00  0.00     0.064 A 
ATOM     92  C   UNL A   1      45.125  28.520  34.657  1.00  0.00     0.173 A 
ATOM     93  C   UNL A   1      43.450  27.074  35.593  1.00  0.00     0.173 A 
ATOM     94  F   UNL A   1      45.486  29.609  33.961  1.00  0.00    -0.203 F 
ATOM     95  C   UNL A   1      46.122  27.672  35.130  1.00  0.00     0.198 A 
ATOM     96  C   UNL A   1      44.451  26.246  36.096  1.00  0.00     0.198 A 
ATOM     97  F   UNL A   1      42.168  26.757  35.831  1.00  0.00    -0.203 F 
ATOM     98  F   UNL A   1      47.409  27.945  34.877  1.00  0.00    -0.200 F 
ATOM     99  C   UNL A   1      45.785  26.539  35.855  1.00  0.00     0.200 A 
ATOM    100  F   UNL A   1      44.124  25.166  36.817  1.00  0.00    -0.200 F 
ATOM    101  F   UNL A   1      46.745  25.730  36.321  1.00  0.00    -0.200 F 
ENDBRANCH  68  91
ENDBRANCH  42  43
ENDBRANCH  35  37
ENDBRANCH  34  35
ENDBRANCH  33  34
ENDBRANCH  32  33
ENDBRANCH  31  32
ENDBRANCH  30  31
ENDBRANCH  29  30
ENDBRANCH  28  29
ENDBRANCH   1  28
TORSDOF 23
ENDMDL
MODEL 3
REMARK VINA RESULT:     -10.5      5.488     11.270
REMARK SMILES COc1ccc(NC(=O)N2CC[C@@H](C(=O)OCCOCCOCCOCCOC(=O)c3ccc(-c4c5nc(c(-c6c(F)c(F)c(F)c(F)c6F)c6ccc([nH]6)c(-c6c(F)c(F)c(F)c(F)c6F)c6nc(c(-c7c(F)c(F)c(F)c(F)c7F)c7ccc4[nH]7)C=C6)C=C5)cc3)[C@H]2C)cc1F
REMARK SMILES IDX 21 1 20 2 19 3 18 4 17 5 16 6 14 7 15 8 13 9 10 10 11 11
REMARK SMILES IDX 94 12 12 13 95 14 8 15 7 16 9 18 6 19 3 20 4 21 97 22 5 23
REMARK SMILES IDX 96 24 98 25 2 26 1 27 22 28 23 29 24 30 25 31 26 32 27 33
REMARK SMILES IDX 28 34 29 35 30 36 31 37 32 38 93 39 33 40 92 41 34 42 35 43
REMARK SMILES IDX 36 44 86 45 37 46 91 47 85 48 87 49 38 50 90 51 84 52 83 53
REMARK SMILES IDX 39 55 71 56 51 57 70 58 52 59 55 60 69 61 88 62 53 63 54 64
REMARK SMILES IDX 68 66 89 67 56 68 40 69 41 70 49 71 42 72 43 73 47 74 50 75
REMARK SMILES IDX 44 76 45 77 48 78 46 79 72 80 73 81 81 82 74 83 75 84 79 85
REMARK SMILES IDX 82 86 76 87 77 88 80 89 78 90 57 91 58 92 66 93 59 94 60 95
REMARK SMILES IDX 64 96 67 97 61 98 62 99 65 100 63 101
REMARK H PARENT 7 17 87 54 55 65
REMARK Flexibility Score: inf
ROOT
ATOM      1  C   UNL A   1      39.555  23.629  26.564  1.00  0.00     0.188 C 
ENDROOT
BRANCH   1   2
ATOM      2  C   UNL A   1      38.191  24.307  26.807  1.00  0.00     0.188 C 
BRANCH   2   3
ATOM      3  O   UNL A   1      37.152  23.696  26.081  1.00  0.00    -0.376 OA
BRANCH   3   4
ATOM      4  C   UNL A   1      37.393  22.956  24.903  1.00  0.00     0.202 C 
BRANCH   4   5
ATOM      5  C   UNL A   1      36.664  21.640  24.586  1.00  0.00     0.261 C 
BRANCH   5   6
ATOM      6  O   UNL A   1      35.320  21.763  24.118  1.00  0.00    -0.463 OA
BRANCH   6   7
ATOM      7  C   UNL A   1      34.361  21.027  24.711  1.00  0.00     0.311 C 
ATOM      8  O   UNL A   1      34.495  19.843  25.001  1.00  0.00    -0.252 OA
BRANCH   7   9
ATOM      9  C   UNL A   1      33.081  21.788  25.021  1.00  0.00     0.123 C 
ATOM     10  N   UNL A   1      31.907  23.744  25.778  1.00  0.00    -0.321 N 
ATOM     11  C   UNL A   1      31.599  23.514  24.378  1.00  0.00     0.122 C 
ATOM     12  C   UNL A   1      32.864  22.701  26.260  1.00  0.00     0.098 C 
ATOM     13  C   UNL A   1      32.772  22.720  23.851  1.00  0.00     0.039 C 
ATOM     14  C   UNL A   1      34.121  23.277  26.880  1.00  0.00     0.032 C 
BRANCH  10  15
ATOM     15  C   UNL A   1      30.917  24.328  26.539  1.00  0.00     0.322 C 
ATOM     16  N   UNL A   1      30.934  25.663  26.797  1.00  0.00    -0.308 N 
ATOM     17  H   UNL A   1      30.533  25.916  27.659  1.00  0.00     0.171 HD
ATOM     18  O   UNL A   1      30.015  23.658  27.047  1.00  0.00    -0.248 OA
BRANCH  16  19
ATOM     19  C   UNL A   1      31.425  26.741  26.047  1.00  0.00     0.046 A 
ATOM     20  C   UNL A   1      32.787  28.492  24.359  1.00  0.00     0.154 A 
ATOM     21  C   UNL A   1      31.518  28.041  24.007  1.00  0.00     0.052 A 
ATOM     22  C   UNL A   1      33.284  28.210  25.633  1.00  0.00     0.167 A 
ATOM     23  C   UNL A   1      30.825  27.179  24.863  1.00  0.00     0.030 A 
ATOM     24  C   UNL A   1      32.602  27.348  26.486  1.00  0.00     0.069 A 
ATOM     25  F   UNL A   1      34.463  28.707  26.037  1.00  0.00    -0.203 F 
BRANCH  20  26
ATOM     26  O   UNL A   1      33.465  29.166  23.382  1.00  0.00    -0.494 OA
ATOM     27  C   UNL A   1      33.969  28.309  22.363  1.00  0.00     0.278 C 
ENDBRANCH  20  26
ENDBRANCH  16  19
ENDBRANCH  10  15
ENDBRANCH   7   9
ENDBRANCH   6   7
ENDBRANCH   5   6
ENDBRANCH   4   5
ENDBRANCH   3   4
ENDBRANCH   2   3
ENDBRANCH   1   2
BRANCH   1  28
ATOM     28  O   UNL A   1      40.095  22.721  27.522  1.00  0.00    -0.377 OA
BRANCH  28  29
ATOM     29  C   UNL A   1      40.525  21.425  27.112  1.00  0.00     0.188 C 
BRANCH  29  30
ATOM     30  C   UNL A   1      41.760  21.314  26.196  1.00  0.00     0.188 C 
BRANCH  30  31
ATOM     31  O   UNL A   1      41.846  20.098  25.472  1.00  0.00    -0.376 OA
BRANCH  31  32
ATOM     32  C   UNL A   1      42.573  19.035  26.077  1.00  0.00     0.202 C 
BRANCH  32  33
ATOM     33  C   UNL A   1      43.774  18.461  25.307  1.00  0.00     0.261 C 
BRANCH  33  34
ATOM     34  O   UNL A   1      44.181  19.201  24.139  1.00  0.00    -0.460 OA
BRANCH  34  35
ATOM     35  C   UNL A   1      45.385  19.800  24.160  1.00  0.00     0.338 C 
ATOM     36  O   UNL A   1      46.437  19.397  23.684  1.00  0.00    -0.246 OA
BRANCH  35  37
ATOM     37  C   UNL A   1      45.205  21.135  24.748  1.00  0.00     0.060 A 
ATOM     38  C   UNL A   1      44.767  22.197  23.946  1.00  0.00     0.016 A 
ATOM     39  C   UNL A   1      45.494  21.335  26.096  1.00  0.00     0.016 A 
ATOM     40  C   UNL A   1      44.645  23.476  24.490  1.00  0.00     0.010 A 
ATOM     41  C   UNL A   1      45.377  22.618  26.634  1.00  0.00     0.010 A 
ATOM     42  C   UNL A   1      44.982  23.705  25.831  1.00  0.00    -0.014 A 
BRANCH  42  43
ATOM     43  C   UNL A   1      45.111  25.098  26.340  1.00  0.00     0.031 A 
ATOM     44  C   UNL A   1      46.458  25.766  26.247  1.00  0.00     0.074 A 
ATOM     45  C   UNL A   1      44.062  25.774  26.845  1.00  0.00     0.049 A 
ATOM     46  N   UNL A   1      46.827  26.958  26.644  1.00  0.00    -0.248 NA
ATOM     47  C   UNL A   1      47.545  24.974  25.648  1.00  0.00     0.031 C 
ATOM     48  C   UNL A   1      42.706  25.250  26.999  1.00  0.00     0.029 A 
ATOM     49  N   UNL A   1      43.978  27.060  27.324  1.00  0.00    -0.354 N 
ATOM     50  C   UNL A   1      48.185  27.038  26.368  1.00  0.00     0.074 A 
ATOM     51  C   UNL A   1      48.591  25.759  25.836  1.00  0.00     0.031 C 
ATOM     52  C   UNL A   1      41.922  26.210  27.521  1.00  0.00     0.029 A 
ATOM     53  C   UNL A   1      42.722  27.412  27.756  1.00  0.00     0.049 A 
ATOM     54  H   UNL A   1      44.747  27.674  27.355  1.00  0.00     0.167 HD
ATOM     55  C   UNL A   1      49.017  28.097  26.505  1.00  0.00     0.037 A 
ATOM     56  C   UNL A   1      42.268  28.571  28.278  1.00  0.00     0.037 A 
ATOM     57  C   UNL A   1      48.606  29.389  26.978  1.00  0.00     0.049 A 
ATOM     58  C   UNL A   1      43.213  29.738  28.423  1.00  0.00     0.074 A 
ATOM     59  C   UNL A   1      49.363  30.540  27.099  1.00  0.00     0.029 A 
ATOM     60  N   UNL A   1      47.324  29.702  27.403  1.00  0.00    -0.354 N 
ATOM     61  N   UNL A   1      44.485  29.819  28.115  1.00  0.00    -0.248 NA
ATOM     62  C   UNL A   1      42.656  30.982  28.980  1.00  0.00     0.031 C 
ATOM     63  C   UNL A   1      48.553  31.538  27.646  1.00  0.00     0.029 A 
ATOM     64  C   UNL A   1      47.274  31.027  27.805  1.00  0.00     0.049 A 
ATOM     65  H   UNL A   1      46.563  29.078  27.415  1.00  0.00     0.167 HD
ATOM     66  C   UNL A   1      44.872  31.120  28.414  1.00  0.00     0.074 A 
ATOM     67  C   UNL A   1      43.696  31.801  28.911  1.00  0.00     0.031 C 
ATOM     68  C   UNL A   1      46.094  31.697  28.289  1.00  0.00     0.037 A 
BRANCH  55  69
ATOM     69  C   UNL A   1      50.456  27.898  26.129  1.00  0.00     0.064 A 
ATOM     70  C   UNL A   1      50.853  27.959  24.786  1.00  0.00     0.173 A 
ATOM     71  C   UNL A   1      51.439  27.621  27.092  1.00  0.00     0.173 A 
ATOM     72  F   UNL A   1      49.953  28.220  23.825  1.00  0.00    -0.203 F 
ATOM     73  C   UNL A   1      52.179  27.745  24.419  1.00  0.00     0.198 A 
ATOM     74  C   UNL A   1      52.771  27.444  26.726  1.00  0.00     0.198 A 
ATOM     75  F   UNL A   1      51.115  27.570  28.393  1.00  0.00    -0.203 F 
ATOM     76  F   UNL A   1      52.529  27.782  23.126  1.00  0.00    -0.200 F 
ATOM     77  C   UNL A   1      53.138  27.497  25.390  1.00  0.00     0.200 A 
ATOM     78  F   UNL A   1      53.701  27.239  27.669  1.00  0.00    -0.200 F 
ATOM     79  F   UNL A   1      54.417  27.315  25.038  1.00  0.00    -0.200 F 
ENDBRANCH  55  69
BRANCH  56  80
ATOM     80  C   UNL A   1      40.838  28.700  28.668  1.00  0.00     0.064 A 
ATOM     81  C   UNL A   1      40.410  28.427  29.976  1.00  0.00     0.173 A 
ATOM     82  C   UNL A   1      39.866  29.096  27.737  1.00  0.00     0.173 A 
ATOM     83  F   UNL A   1      41.298  28.047  30.907  1.00  0.00    -0.203 F 
ATOM     84  C   UNL A   1      39.066  28.529  30.332  1.00  0.00     0.198 A 
ATOM     85  C   UNL A   1      38.527  29.225  28.102  1.00  0.00     0.198 A 
ATOM     86  F   UNL A   1      40.226  29.394  26.480  1.00  0.00    -0.203 F 
ATOM     87  F   UNL A   1      38.681  28.234  31.582  1.00  0.00    -0.200 F 
ATOM     88  C   UNL A   1      38.126  28.933  29.397  1.00  0.00     0.200 A 
ATOM     89  F   UNL A   1      37.627  29.644  27.200  1.00  0.00    -0.200 F 
ATOM     90  F   UNL A   1      36.836  29.045  29.742  1.00  0.00    -0.200 F 
ENDBRANCH  56  80
BRANCH  68  91
ATOM     91  C   UNL A   1      46.232  33.145  28.669  1.00  0.00     0.064 A 
ATOM     92  C   UNL A   1      46.505  33.507  29.997  1.00  0.00     0.173 A 
ATOM     93  C   UNL A   1      46.009  34.174  27.743  1.00  0.00     0.173 A 
ATOM     94  F   UNL A   1      46.716  32.562  30.926  1.00  0.00    -0.203 F 
ATOM     95  C   UNL A   1      46.532  34.842  30.387  1.00  0.00     0.198 A 
ATOM     96  C   UNL A   1      46.071  35.511  28.129  1.00  0.00     0.198 A 
ATOM     97  F   UNL A   1      45.751  33.883  26.459  1.00  0.00    -0.203 F 
ATOM     98  F   UNL A   1      46.752  35.161  31.670  1.00  0.00    -0.200 F 
ATOM     99  C   UNL A   1      46.321  35.844  29.452  1.00  0.00     0.200 A 
ATOM    100  F   UNL A   1      45.891  36.478  27.219  1.00  0.00    -0.200 F 
ATOM    101  F   UNL A   1      46.359  37.130  29.825  1.00  0.00    -0.200 F 
ENDBRANCH  68  91
ENDBRANCH  42  43
ENDBRANCH  35  37
ENDBRANCH  34  35
ENDBRANCH  33  34
ENDBRANCH  32  33
ENDBRANCH  31  32
ENDBRANCH  30  31
ENDBRANCH  29  30
ENDBRANCH  28  29
ENDBRANCH   1  28
TORSDOF 23
ENDMDL
