MODEL 1
REMARK VINA RESULT:     -10.2      0.000      0.000
REMARK SMILES COC(=O)c1sc(SCC(=O)OCCOCCOCCOCCOC(=O)c2ccc(-c3c4nc(c(-c5c(F)c(F)c(F)c(F)c5F)c5ccc([nH]5)c(-c5c(F)c(F)c(F)c(F)c5F)c5nc(c(-c6c(F)c(F)c(F)c(F)c6F)c6ccc3[nH]6)C=C5)C=C4)cc2)c(NC(=O)c2ccccc2)c1O
REMARK SMILES IDX 17 1 16 2 15 3 14 4 13 5 12 6 10 7 11 8 9 9 8 10 7 11 5 12
REMARK SMILES IDX 6 13 100 14 90 15 3 16 4 17 2 18 1 19 101 20 91 22 92 23
REMARK SMILES IDX 93 25 94 26 95 27 99 28 96 29 98 30 97 31 18 32 19 33 20 34
REMARK SMILES IDX 21 35 22 36 23 37 24 38 25 39 26 40 27 41 28 42 89 43 29 44
REMARK SMILES IDX 88 45 30 46 31 47 32 48 82 49 33 50 87 51 81 52 83 53 34 54
REMARK SMILES IDX 86 55 80 56 79 57 35 59 67 60 47 61 66 62 48 63 51 64 65 65
REMARK SMILES IDX 84 66 49 67 50 68 64 70 85 71 52 72 36 73 37 74 45 75 38 76
REMARK SMILES IDX 39 77 43 78 46 79 40 80 41 81 44 82 42 83 68 84 69 85 77 86
REMARK SMILES IDX 70 87 71 88 75 89 78 90 72 91 73 92 76 93 74 94 53 95 54 96
REMARK SMILES IDX 62 97 55 98 56 99 60 100 63 101 57 102 58 103 61 104 59 105
REMARK H PARENT 101 21 91 24 83 58 51 69
REMARK Flexibility Score: inf
ROOT
ATOM      1  C   UNL A   1      44.015  18.530  25.875  1.00  0.00     0.188 C 
ENDROOT
BRANCH   1   2
ATOM      2  C   UNL A   1      42.851  19.450  25.506  1.00  0.00     0.188 C 
BRANCH   2   3
ATOM      3  O   UNL A   1      41.575  18.858  25.769  1.00  0.00    -0.376 OA
BRANCH   3   4
ATOM      4  C   UNL A   1      40.571  19.740  26.281  1.00  0.00     0.202 C 
BRANCH   4   5
ATOM      5  C   UNL A   1      40.982  21.214  26.270  1.00  0.00     0.261 C 
BRANCH   5   6
ATOM      6  O   UNL A   1      40.411  21.940  27.381  1.00  0.00    -0.463 OA
BRANCH   6   7
ATOM      7  C   UNL A   1      39.610  23.015  27.071  1.00  0.00     0.316 C 
ATOM      8  O   UNL A   1      39.591  24.065  27.705  1.00  0.00    -0.251 OA
BRANCH   7   9
ATOM      9  C   UNL A   1      38.460  22.554  25.929  1.00  0.00     0.198 C 
BRANCH   9  10
ATOM     10  S   UNL A   1      36.278  23.678  25.155  1.00  0.00    -0.101 SA
BRANCH  10  11
ATOM     11  C   UNL A   1      34.951  22.708  24.402  1.00  0.00     0.089 A 
ATOM     12  C   UNL A   1      33.185  20.972  24.106  1.00  0.00     0.157 A 
ATOM     13  S   UNL A   1      34.503  21.231  25.168  1.00  0.00    -0.116 S 
ATOM     14  C   UNL A   1      33.067  22.022  23.219  1.00  0.00     0.166 A 
ATOM     15  C   UNL A   1      34.102  23.002  23.342  1.00  0.00     0.109 A 
BRANCH  12  16
ATOM     16  C   UNL A   1      32.408  19.757  24.251  1.00  0.00     0.352 C 
ATOM     17  O   UNL A   1      32.088  19.213  25.301  1.00  0.00    -0.245 OA
BRANCH  16  18
ATOM     18  O   UNL A   1      32.094  19.263  23.011  1.00  0.00    -0.465 OA
ATOM     19  C   UNL A   1      32.688  17.996  22.713  1.00  0.00     0.282 C 
ENDBRANCH  16  18
ENDBRANCH  12  16
BRANCH  14  20
ATOM     20  O   UNL A   1      32.099  22.109  22.277  1.00  0.00    -0.504 OA
ATOM     21  H   UNL A   1      32.331  22.198  21.374  1.00  0.00     0.293 HD
ENDBRANCH  14  20
BRANCH  15  22
ATOM     22  N   UNL A   1      34.173  24.078  22.462  1.00  0.00    -0.317 N 
ATOM     23  C   UNL A   1      33.588  25.307  22.617  1.00  0.00     0.255 C 
ATOM     24  H   UNL A   1      34.701  23.943  21.642  1.00  0.00     0.170 HD
ATOM     25  O   UNL A   1      33.581  26.160  21.743  1.00  0.00    -0.269 OA
BRANCH  23  26
ATOM     26  C   UNL A   1      32.959  25.558  23.920  1.00  0.00     0.040 A 
ATOM     27  C   UNL A   1      33.834  26.624  25.085  1.00  0.00     0.014 A 
ATOM     28  C   UNL A   1      31.172  25.267  24.123  1.00  0.00     0.014 A 
ATOM     29  C   UNL A   1      32.919  27.494  26.367  1.00  0.00     0.001 A 
ATOM     30  C   UNL A   1      30.254  26.170  25.380  1.00  0.00     0.001 A 
ATOM     31  C   UNL A   1      31.141  27.246  26.520  1.00  0.00     0.000 A 
ENDBRANCH  23  26
ENDBRANCH  15  22
ENDBRANCH  10  11
ENDBRANCH   9  10
ENDBRANCH   7   9
ENDBRANCH   6   7
ENDBRANCH   5   6
ENDBRANCH   4   5
ENDBRANCH   3   4
ENDBRANCH   2   3
ENDBRANCH   1   2
BRANCH   1  32
ATOM     32  O   UNL A   1      44.803  18.256  24.716  1.00  0.00    -0.377 OA
BRANCH  32  33
ATOM     33  C   UNL A   1      45.658  19.293  24.243  1.00  0.00     0.188 C 
BRANCH  33  34
ATOM     34  C   UNL A   1      45.960  20.454  25.196  1.00  0.00     0.188 C 
BRANCH  34  35
ATOM     35  O   UNL A   1      46.594  21.580  24.583  1.00  0.00    -0.376 OA
BRANCH  35  36
ATOM     36  C   UNL A   1      45.844  22.794  24.518  1.00  0.00     0.202 C 
BRANCH  36  37
ATOM     37  C   UNL A   1      44.747  22.915  25.572  1.00  0.00     0.261 C 
BRANCH  37  38
ATOM     38  O   UNL A   1      45.137  23.830  26.616  1.00  0.00    -0.460 OA
BRANCH  38  39
ATOM     39  C   UNL A   1      44.128  24.447  27.278  1.00  0.00     0.338 C 
ATOM     40  O   UNL A   1      43.151  23.908  27.771  1.00  0.00    -0.246 OA
BRANCH  39  41
ATOM     41  C   UNL A   1      44.289  25.918  27.211  1.00  0.00     0.060 A 
ATOM     42  C   UNL A   1      44.803  26.542  28.352  1.00  0.00     0.016 A 
ATOM     43  C   UNL A   1      43.819  26.690  26.140  1.00  0.00     0.016 A 
ATOM     44  C   UNL A   1      44.690  27.919  28.493  1.00  0.00     0.010 A 
ATOM     45  C   UNL A   1      43.725  28.077  26.276  1.00  0.00     0.010 A 
ATOM     46  C   UNL A   1      44.071  28.680  27.491  1.00  0.00    -0.014 A 
BRANCH  46  47
ATOM     47  C   UNL A   1      43.582  30.003  27.898  1.00  0.00     0.031 A 
ATOM     48  C   UNL A   1      44.363  31.235  27.617  1.00  0.00     0.074 A 
ATOM     49  C   UNL A   1      42.491  30.149  28.678  1.00  0.00     0.049 A 
ATOM     50  N   UNL A   1      45.002  31.982  28.465  1.00  0.00    -0.248 NA
ATOM     51  C   UNL A   1      44.361  31.741  26.241  1.00  0.00     0.031 C 
ATOM     52  C   UNL A   1      41.402  29.200  28.907  1.00  0.00     0.029 A 
ATOM     53  N   UNL A   1      42.129  31.244  29.420  1.00  0.00    -0.354 N 
ATOM     54  C   UNL A   1      45.405  33.107  27.759  1.00  0.00     0.074 A 
ATOM     55  C   UNL A   1      45.002  32.903  26.385  1.00  0.00     0.031 C 
ATOM     56  C   UNL A   1      40.421  29.814  29.600  1.00  0.00     0.029 A 
ATOM     57  C   UNL A   1      40.875  31.142  29.985  1.00  0.00     0.049 A 
ATOM     58  H   UNL A   1      42.710  32.029  29.539  1.00  0.00     0.167 HD
ATOM     59  C   UNL A   1      45.958  34.208  28.331  1.00  0.00     0.037 A 
ATOM     60  C   UNL A   1      40.221  32.073  30.711  1.00  0.00     0.037 A 
ATOM     61  C   UNL A   1      46.311  34.058  29.709  1.00  0.00     0.049 A 
ATOM     62  C   UNL A   1      41.190  33.031  31.289  1.00  0.00     0.074 A 
ATOM     63  C   UNL A   1      47.280  33.369  30.405  1.00  0.00     0.029 A 
ATOM     64  N   UNL A   1      45.434  34.542  30.643  1.00  0.00    -0.354 N 
ATOM     65  N   UNL A   1      42.000  32.771  32.277  1.00  0.00    -0.248 NA
ATOM     66  C   UNL A   1      41.406  34.311  30.625  1.00  0.00     0.031 C 
ATOM     67  C   UNL A   1      46.764  33.179  31.720  1.00  0.00     0.029 A 
ATOM     68  C   UNL A   1      45.479  33.719  31.743  1.00  0.00     0.049 A 
ATOM     69  H   UNL A   1      44.868  35.342  30.545  1.00  0.00     0.167 HD
ATOM     70  C   UNL A   1      43.037  33.675  32.128  1.00  0.00     0.074 A 
ATOM     71  C   UNL A   1      42.538  34.691  31.220  1.00  0.00     0.031 C 
ATOM     72  C   UNL A   1      44.306  33.354  32.505  1.00  0.00     0.037 A 
BRANCH  59  73
ATOM     73  C   UNL A   1      46.007  35.530  27.647  1.00  0.00     0.064 A 
ATOM     74  C   UNL A   1      47.215  36.068  27.183  1.00  0.00     0.173 A 
ATOM     75  C   UNL A   1      44.870  36.357  27.583  1.00  0.00     0.173 A 
ATOM     76  F   UNL A   1      48.349  35.357  27.267  1.00  0.00    -0.203 F 
ATOM     77  C   UNL A   1      47.273  37.353  26.642  1.00  0.00     0.198 A 
ATOM     78  C   UNL A   1      44.924  37.631  27.022  1.00  0.00     0.198 A 
ATOM     79  F   UNL A   1      43.703  35.949  28.109  1.00  0.00    -0.203 F 
ATOM     80  F   UNL A   1      48.445  37.850  26.225  1.00  0.00    -0.200 F 
ATOM     81  C   UNL A   1      46.127  38.129  26.551  1.00  0.00     0.200 A 
ATOM     82  F   UNL A   1      43.815  38.379  26.963  1.00  0.00    -0.200 F 
ATOM     83  F   UNL A   1      46.183  39.361  26.031  1.00  0.00    -0.200 F 
ENDBRANCH  59  73
BRANCH  60  84
ATOM     84  C   UNL A   1      38.763  32.230  30.869  1.00  0.00     0.064 A 
ATOM     85  C   UNL A   1      37.986  32.883  29.902  1.00  0.00     0.173 A 
ATOM     86  C   UNL A   1      38.067  31.544  31.883  1.00  0.00     0.173 A 
ATOM     87  F   UNL A   1      38.571  33.513  28.873  1.00  0.00    -0.203 F 
ATOM     88  C   UNL A   1      36.590  32.853  29.949  1.00  0.00     0.198 A 
ATOM     89  C   UNL A   1      36.676  31.529  31.940  1.00  0.00     0.198 A 
ATOM     90  F   UNL A   1      38.727  30.809  32.792  1.00  0.00    -0.203 F 
ATOM     91  F   UNL A   1      35.878  33.445  28.980  1.00  0.00    -0.200 F 
ATOM     92  C   UNL A   1      35.937  32.176  30.966  1.00  0.00     0.200 A 
ATOM     93  F   UNL A   1      36.057  30.844  32.910  1.00  0.00    -0.200 F 
ATOM     94  F   UNL A   1      34.599  32.117  30.989  1.00  0.00    -0.200 F 
ENDBRANCH  60  84
BRANCH  72  95
ATOM     95  C   UNL A   1      44.448  32.289  33.543  1.00  0.00     0.064 A 
ATOM     96  C   UNL A   1      44.500  32.565  34.918  1.00  0.00     0.173 A 
ATOM     97  C   UNL A   1      44.449  30.947  33.140  1.00  0.00     0.173 A 
ATOM     98  F   UNL A   1      44.427  33.827  35.366  1.00  0.00    -0.203 F 
ATOM     99  C   UNL A   1      44.588  31.532  35.849  1.00  0.00     0.198 A 
ATOM    100  C   UNL A   1      44.514  29.918  34.075  1.00  0.00     0.198 A 
ATOM    101  F   UNL A   1      44.353  30.634  31.838  1.00  0.00    -0.203 F 
ATOM    102  F   UNL A   1      44.646  31.813  37.160  1.00  0.00    -0.200 F 
ATOM    103  C   UNL A   1      44.592  30.211  35.428  1.00  0.00     0.200 A 
ATOM    104  F   UNL A   1      44.480  28.640  33.668  1.00  0.00    -0.200 F 
ATOM    105  F   UNL A   1      44.649  29.218  36.327  1.00  0.00    -0.200 F 
ENDBRANCH  72  95
ENDBRANCH  46  47
ENDBRANCH  39  41
ENDBRANCH  38  39
ENDBRANCH  37  38
ENDBRANCH  36  37
ENDBRANCH  35  36
ENDBRANCH  34  35
ENDBRANCH  33  34
ENDBRANCH  32  33
ENDBRANCH   1  32
TORSDOF 27
ENDMDL
MODEL 2
REMARK VINA RESULT:      -8.8      6.364     12.616
REMARK SMILES COC(=O)c1sc(SCC(=O)OCCOCCOCCOCCOC(=O)c2ccc(-c3c4nc(c(-c5c(F)c(F)c(F)c(F)c5F)c5ccc([nH]5)c(-c5c(F)c(F)c(F)c(F)c5F)c5nc(c(-c6c(F)c(F)c(F)c(F)c6F)c6ccc3[nH]6)C=C5)C=C4)cc2)c(NC(=O)c2ccccc2)c1O
REMARK SMILES IDX 17 1 16 2 15 3 14 4 13 5 12 6 10 7 11 8 9 9 8 10 7 11 5 12
REMARK SMILES IDX 6 13 100 14 90 15 3 16 4 17 2 18 1 19 101 20 91 22 92 23
REMARK SMILES IDX 93 25 94 26 95 27 99 28 96 29 98 30 97 31 18 32 19 33 20 34
REMARK SMILES IDX 21 35 22 36 23 37 24 38 25 39 26 40 27 41 28 42 89 43 29 44
REMARK SMILES IDX 88 45 30 46 31 47 32 48 82 49 33 50 87 51 81 52 83 53 34 54
REMARK SMILES IDX 86 55 80 56 79 57 35 59 67 60 47 61 66 62 48 63 51 64 65 65
REMARK SMILES IDX 84 66 49 67 50 68 64 70 85 71 52 72 36 73 37 74 45 75 38 76
REMARK SMILES IDX 39 77 43 78 46 79 40 80 41 81 44 82 42 83 68 84 69 85 77 86
REMARK SMILES IDX 70 87 71 88 75 89 78 90 72 91 73 92 76 93 74 94 53 95 54 96
REMARK SMILES IDX 62 97 55 98 56 99 60 100 63 101 57 102 58 103 61 104 59 105
REMARK H PARENT 101 21 91 24 83 58 51 69
REMARK Flexibility Score: inf
ROOT
ATOM      1  C   UNL A   1      34.790  34.111  33.836  1.00  0.00     0.188 C 
ENDROOT
BRANCH   1   2
ATOM      2  C   UNL A   1      36.196  34.223  34.427  1.00  0.00     0.188 C 
BRANCH   2   3
ATOM      3  O   UNL A   1      36.522  33.125  35.286  1.00  0.00    -0.376 OA
BRANCH   3   4
ATOM      4  C   UNL A   1      37.422  32.155  34.742  1.00  0.00     0.202 C 
BRANCH   4   5
ATOM      5  C   UNL A   1      38.896  32.547  34.859  1.00  0.00     0.261 C 
BRANCH   5   6
ATOM      6  O   UNL A   1      39.316  32.657  36.237  1.00  0.00    -0.463 OA
BRANCH   6   7
ATOM      7  C   UNL A   1      40.033  33.782  36.578  1.00  0.00     0.316 C 
ATOM      8  O   UNL A   1      39.573  34.726  37.211  1.00  0.00    -0.251 OA
BRANCH   7   9
ATOM      9  C   UNL A   1      41.488  33.805  35.728  1.00  0.00     0.198 C 
BRANCH   9  10
ATOM     10  S   UNL A   1      42.639  32.024  34.270  1.00  0.00    -0.101 SA
BRANCH  10  11
ATOM     11  C   UNL A   1      44.367  32.210  33.769  1.00  0.00     0.089 A 
ATOM     12  C   UNL A   1      46.610  31.674  32.819  1.00  0.00     0.157 A 
ATOM     13  S   UNL A   1      45.221  30.792  33.292  1.00  0.00    -0.116 S 
ATOM     14  C   UNL A   1      46.399  33.028  32.980  1.00  0.00     0.166 A 
ATOM     15  C   UNL A   1      45.136  33.350  33.571  1.00  0.00     0.109 A 
BRANCH  12  16
ATOM     16  C   UNL A   1      47.768  30.942  32.346  1.00  0.00     0.352 C 
ATOM     17  O   UNL A   1      48.794  31.418  31.877  1.00  0.00    -0.245 OA
BRANCH  16  18
ATOM     18  O   UNL A   1      47.539  29.596  32.469  1.00  0.00    -0.465 OA
ATOM     19  C   UNL A   1      48.480  28.910  33.301  1.00  0.00     0.282 C 
ENDBRANCH  16  18
ENDBRANCH  12  16
BRANCH  14  20
ATOM     20  O   UNL A   1      47.309  33.977  32.662  1.00  0.00    -0.504 OA
ATOM     21  H   UNL A   1      47.455  34.206  31.766  1.00  0.00     0.293 HD
ENDBRANCH  14  20
BRANCH  15  22
ATOM     22  N   UNL A   1      44.807  34.667  33.879  1.00  0.00    -0.317 N 
ATOM     23  C   UNL A   1      44.274  35.601  33.031  1.00  0.00     0.255 C 
ATOM     24  H   UNL A   1      44.975  34.959  34.805  1.00  0.00     0.170 HD
ATOM     25  O   UNL A   1      44.135  36.777  33.332  1.00  0.00    -0.269 OA
BRANCH  23  26
ATOM     26  C   UNL A   1      43.861  35.108  31.711  1.00  0.00     0.040 A 
ATOM     27  C   UNL A   1      42.111  34.744  31.460  1.00  0.00     0.014 A 
ATOM     28  C   UNL A   1      44.948  35.377  30.274  1.00  0.00     0.014 A 
ATOM     29  C   UNL A   1      41.418  34.770  29.799  1.00  0.00     0.001 A 
ATOM     30  C   UNL A   1      44.244  35.444  28.618  1.00  0.00     0.001 A 
ATOM     31  C   UNL A   1      42.491  35.099  28.388  1.00  0.00     0.000 A 
ENDBRANCH  23  26
ENDBRANCH  15  22
ENDBRANCH  10  11
ENDBRANCH   9  10
ENDBRANCH   7   9
ENDBRANCH   6   7
ENDBRANCH   5   6
ENDBRANCH   4   5
ENDBRANCH   3   4
ENDBRANCH   2   3
ENDBRANCH   1   2
BRANCH   1  32
ATOM     32  O   UNL A   1      34.452  35.319  33.157  1.00  0.00    -0.377 OA
BRANCH  32  33
ATOM     33  C   UNL A   1      33.353  35.279  32.251  1.00  0.00     0.188 C 
BRANCH  33  34
ATOM     34  C   UNL A   1      33.666  35.325  30.752  1.00  0.00     0.188 C 
BRANCH  34  35
ATOM     35  O   UNL A   1      34.154  34.096  30.206  1.00  0.00    -0.376 OA
BRANCH  35  36
ATOM     36  C   UNL A   1      35.570  33.910  30.187  1.00  0.00     0.202 C 
BRANCH  36  37
ATOM     37  C   UNL A   1      36.050  32.822  29.231  1.00  0.00     0.261 C 
BRANCH  37  38
ATOM     38  O   UNL A   1      35.694  31.514  29.722  1.00  0.00    -0.460 OA
BRANCH  38  39
ATOM     39  C   UNL A   1      36.378  31.076  30.808  1.00  0.00     0.338 C 
ATOM     40  O   UNL A   1      35.903  30.788  31.894  1.00  0.00    -0.246 OA
BRANCH  39  41
ATOM     41  C   UNL A   1      37.837  31.122  30.551  1.00  0.00     0.060 A 
ATOM     42  C   UNL A   1      38.340  30.182  29.646  1.00  0.00     0.016 A 
ATOM     43  C   UNL A   1      38.714  31.942  31.273  1.00  0.00     0.016 A 
ATOM     44  C   UNL A   1      39.708  29.946  29.589  1.00  0.00     0.010 A 
ATOM     45  C   UNL A   1      40.091  31.716  31.200  1.00  0.00     0.010 A 
ATOM     46  C   UNL A   1      40.579  30.653  30.431  1.00  0.00    -0.014 A 
BRANCH  46  47
ATOM     47  C   UNL A   1      41.897  30.045  30.647  1.00  0.00     0.031 A 
ATOM     48  C   UNL A   1      43.069  30.427  29.818  1.00  0.00     0.074 A 
ATOM     49  C   UNL A   1      42.073  29.009  31.492  1.00  0.00     0.049 A 
ATOM     50  N   UNL A   1      43.666  29.716  28.909  1.00  0.00    -0.248 NA
ATOM     51  C   UNL A   1      43.703  31.720  30.093  1.00  0.00     0.031 C 
ATOM     52  C   UNL A   1      41.216  28.580  32.598  1.00  0.00     0.029 A 
ATOM     53  N   UNL A   1      43.120  28.125  31.532  1.00  0.00    -0.354 N 
ATOM     54  C   UNL A   1      44.809  30.422  28.559  1.00  0.00     0.074 A 
ATOM     55  C   UNL A   1      44.779  31.661  29.304  1.00  0.00     0.031 C 
ATOM     56  C   UNL A   1      41.853  27.621  33.302  1.00  0.00     0.029 A 
ATOM     57  C   UNL A   1      43.087  27.272  32.615  1.00  0.00     0.049 A 
ATOM     58  H   UNL A   1      43.830  28.102  30.851  1.00  0.00     0.167 HD
ATOM     59  C   UNL A   1      45.791  29.932  27.759  1.00  0.00     0.037 A 
ATOM     60  C   UNL A   1      44.002  26.342  32.960  1.00  0.00     0.037 A 
ATOM     61  C   UNL A   1      45.475  28.700  27.103  1.00  0.00     0.049 A 
ATOM     62  C   UNL A   1      44.802  25.960  31.774  1.00  0.00     0.074 A 
ATOM     63  C   UNL A   1      44.631  28.319  26.082  1.00  0.00     0.029 A 
ATOM     64  N   UNL A   1      45.949  27.544  27.665  1.00  0.00    -0.354 N 
ATOM     65  N   UNL A   1      44.370  25.228  30.785  1.00  0.00    -0.248 NA
ATOM     66  C   UNL A   1      46.112  26.567  31.576  1.00  0.00     0.031 C 
ATOM     67  C   UNL A   1      44.366  26.933  26.284  1.00  0.00     0.029 A 
ATOM     68  C   UNL A   1      45.024  26.551  27.453  1.00  0.00     0.049 A 
ATOM     69  H   UNL A   1      46.806  27.442  28.139  1.00  0.00     0.167 HD
ATOM     70  C   UNL A   1      45.179  25.570  29.716  1.00  0.00     0.074 A 
ATOM     71  C   UNL A   1      46.322  26.250  30.297  1.00  0.00     0.031 C 
ATOM     72  C   UNL A   1      44.702  25.546  28.441  1.00  0.00     0.037 A 
BRANCH  59  73
ATOM     73  C   UNL A   1      47.162  30.512  27.721  1.00  0.00     0.064 A 
ATOM     74  C   UNL A   1      48.177  30.042  28.563  1.00  0.00     0.173 A 
ATOM     75  C   UNL A   1      47.444  31.656  26.952  1.00  0.00     0.173 A 
ATOM     76  F   UNL A   1      47.958  28.991  29.368  1.00  0.00    -0.203 F 
ATOM     77  C   UNL A   1      49.428  30.661  28.603  1.00  0.00     0.198 A 
ATOM     78  C   UNL A   1      48.700  32.259  26.974  1.00  0.00     0.198 A 
ATOM     79  F   UNL A   1      46.485  32.227  26.205  1.00  0.00    -0.203 F 
ATOM     80  F   UNL A   1      50.375  30.202  29.433  1.00  0.00    -0.200 F 
ATOM     81  C   UNL A   1      49.693  31.761  27.800  1.00  0.00     0.200 A 
ATOM     82  F   UNL A   1      48.934  33.336  26.213  1.00  0.00    -0.200 F 
ATOM     83  F   UNL A   1      50.893  32.352  27.837  1.00  0.00    -0.200 F 
ENDBRANCH  59  73
BRANCH  60  84
ATOM     84  C   UNL A   1      44.284  25.813  34.308  1.00  0.00     0.064 A 
ATOM     85  C   UNL A   1      44.159  24.448  34.602  1.00  0.00     0.173 A 
ATOM     86  C   UNL A   1      44.894  26.620  35.287  1.00  0.00     0.173 A 
ATOM     87  F   UNL A   1      43.639  23.604  33.700  1.00  0.00    -0.203 F 
ATOM     88  C   UNL A   1      44.619  23.921  35.811  1.00  0.00     0.198 A 
ATOM     89  C   UNL A   1      45.336  26.096  36.500  1.00  0.00     0.198 A 
ATOM     90  F   UNL A   1      45.143  27.917  35.052  1.00  0.00    -0.203 F 
ATOM     91  F   UNL A   1      44.531  22.602  36.039  1.00  0.00    -0.200 F 
ATOM     92  C   UNL A   1      45.207  24.744  36.757  1.00  0.00     0.200 A 
ATOM     93  F   UNL A   1      45.931  26.898  37.394  1.00  0.00    -0.200 F 
ATOM     94  F   UNL A   1      45.680  24.230  37.900  1.00  0.00    -0.200 F 
ENDBRANCH  60  84
BRANCH  72  95
ATOM     95  C   UNL A   1      43.533  24.654  28.178  1.00  0.00     0.064 A 
ATOM     96  C   UNL A   1      43.669  23.315  27.778  1.00  0.00     0.173 A 
ATOM     97  C   UNL A   1      42.242  25.142  28.418  1.00  0.00     0.173 A 
ATOM     98  F   UNL A   1      44.883  22.772  27.606  1.00  0.00    -0.203 F 
ATOM     99  C   UNL A   1      42.547  22.511  27.589  1.00  0.00     0.198 A 
ATOM    100  C   UNL A   1      41.125  24.327  28.250  1.00  0.00     0.198 A 
ATOM    101  F   UNL A   1      42.066  26.401  28.848  1.00  0.00    -0.203 F 
ATOM    102  F   UNL A   1      42.693  21.236  27.197  1.00  0.00    -0.200 F 
ATOM    103  C   UNL A   1      41.278  23.016  27.828  1.00  0.00     0.200 A 
ATOM    104  F   UNL A   1      39.901  24.806  28.517  1.00  0.00    -0.200 F 
ATOM    105  F   UNL A   1      40.201  22.233  27.671  1.00  0.00    -0.200 F 
ENDBRANCH  72  95
ENDBRANCH  46  47
ENDBRANCH  39  41
ENDBRANCH  38  39
ENDBRANCH  37  38
ENDBRANCH  36  37
ENDBRANCH  35  36
ENDBRANCH  34  35
ENDBRANCH  33  34
ENDBRANCH  32  33
ENDBRANCH   1  32
TORSDOF 27
ENDMDL
MODEL 3
REMARK VINA RESULT:      -8.4      4.693      9.194
REMARK SMILES COC(=O)c1sc(SCC(=O)OCCOCCOCCOCCOC(=O)c2ccc(-c3c4nc(c(-c5c(F)c(F)c(F)c(F)c5F)c5ccc([nH]5)c(-c5c(F)c(F)c(F)c(F)c5F)c5nc(c(-c6c(F)c(F)c(F)c(F)c6F)c6ccc3[nH]6)C=C5)C=C4)cc2)c(NC(=O)c2ccccc2)c1O
REMARK SMILES IDX 17 1 16 2 15 3 14 4 13 5 12 6 10 7 11 8 9 9 8 10 7 11 5 12
REMARK SMILES IDX 6 13 100 14 90 15 3 16 4 17 2 18 1 19 101 20 91 22 92 23
REMARK SMILES IDX 93 25 94 26 95 27 99 28 96 29 98 30 97 31 18 32 19 33 20 34
REMARK SMILES IDX 21 35 22 36 23 37 24 38 25 39 26 40 27 41 28 42 89 43 29 44
REMARK SMILES IDX 88 45 30 46 31 47 32 48 82 49 33 50 87 51 81 52 83 53 34 54
REMARK SMILES IDX 86 55 80 56 79 57 35 59 67 60 47 61 66 62 48 63 51 64 65 65
REMARK SMILES IDX 84 66 49 67 50 68 64 70 85 71 52 72 36 73 37 74 45 75 38 76
REMARK SMILES IDX 39 77 43 78 46 79 40 80 41 81 44 82 42 83 68 84 69 85 77 86
REMARK SMILES IDX 70 87 71 88 75 89 78 90 72 91 73 92 76 93 74 94 53 95 54 96
REMARK SMILES IDX 62 97 55 98 56 99 60 100 63 101 57 102 58 103 61 104 59 105
REMARK H PARENT 101 21 91 24 83 58 51 69
REMARK Flexibility Score: inf
ROOT
ATOM      1  C   UNL A   1      35.791  33.614  31.975  1.00  0.00     0.188 C 
ENDROOT
BRANCH   1   2
ATOM      2  C   UNL A   1      34.404  34.127  31.586  1.00  0.00     0.188 C 
BRANCH   2   3
ATOM      3  O   UNL A   1      34.180  34.091  30.173  1.00  0.00    -0.376 OA
BRANCH   3   4
ATOM      4  C   UNL A   1      35.053  33.241  29.424  1.00  0.00     0.202 C 
BRANCH   4   5
ATOM      5  C   UNL A   1      34.482  32.805  28.073  1.00  0.00     0.261 C 
BRANCH   5   6
ATOM      6  O   UNL A   1      34.672  31.392  27.839  1.00  0.00    -0.463 OA
BRANCH   6   7
ATOM      7  C   UNL A   1      33.650  30.728  27.201  1.00  0.00     0.316 C 
ATOM      8  O   UNL A   1      32.472  31.066  27.251  1.00  0.00    -0.251 OA
BRANCH   7   9
ATOM      9  C   UNL A   1      34.207  29.239  26.639  1.00  0.00     0.198 C 
BRANCH   9  10
ATOM     10  S   UNL A   1      33.600  27.872  24.545  1.00  0.00    -0.101 SA
BRANCH  10  11
ATOM     11  C   UNL A   1      32.453  26.478  24.647  1.00  0.00     0.089 A 
ATOM     12  C   UNL A   1      30.797  24.859  25.574  1.00  0.00     0.157 A 
ATOM     13  S   UNL A   1      31.884  26.020  26.208  1.00  0.00    -0.116 S 
ATOM     14  C   UNL A   1      30.839  24.862  24.194  1.00  0.00     0.166 A 
ATOM     15  C   UNL A   1      31.819  25.749  23.648  1.00  0.00     0.109 A 
BRANCH  12  16
ATOM     16  C   UNL A   1      30.021  24.058  26.500  1.00  0.00     0.352 C 
ATOM     17  O   UNL A   1      29.132  24.455  27.243  1.00  0.00    -0.245 OA
BRANCH  16  18
ATOM     18  O   UNL A   1      30.451  22.758  26.452  1.00  0.00    -0.465 OA
ATOM     19  C   UNL A   1      31.645  22.503  27.201  1.00  0.00     0.282 C 
ENDBRANCH  16  18
ENDBRANCH  12  16
BRANCH  14  20
ATOM     20  O   UNL A   1      30.068  24.070  23.414  1.00  0.00    -0.504 OA
ATOM     21  H   UNL A   1      29.135  24.137  23.454  1.00  0.00     0.293 HD
ENDBRANCH  14  20
BRANCH  15  22
ATOM     22  N   UNL A   1      32.046  25.804  22.275  1.00  0.00    -0.317 N 
ATOM     23  C   UNL A   1      32.891  25.008  21.549  1.00  0.00     0.255 C 
ATOM     24  H   UNL A   1      31.546  26.488  21.773  1.00  0.00     0.170 HD
ATOM     25  O   UNL A   1      33.141  25.199  20.369  1.00  0.00    -0.269 OA
BRANCH  23  26
ATOM     26  C   UNL A   1      33.490  23.880  22.274  1.00  0.00     0.040 A 
ATOM     27  C   UNL A   1      34.812  24.243  23.449  1.00  0.00     0.014 A 
ATOM     28  C   UNL A   1      32.584  22.304  22.386  1.00  0.00     0.014 A 
ATOM     29  C   UNL A   1      35.147  23.105  24.802  1.00  0.00     0.001 A 
ATOM     30  C   UNL A   1      32.893  21.187  23.763  1.00  0.00     0.001 A 
ATOM     31  C   UNL A   1      34.201  21.577  24.940  1.00  0.00     0.000 A 
ENDBRANCH  23  26
ENDBRANCH  15  22
ENDBRANCH  10  11
ENDBRANCH   9  10
ENDBRANCH   7   9
ENDBRANCH   6   7
ENDBRANCH   5   6
ENDBRANCH   4   5
ENDBRANCH   3   4
ENDBRANCH   2   3
ENDBRANCH   1   2
BRANCH   1  32
ATOM     32  O   UNL A   1      35.667  32.531  32.896  1.00  0.00    -0.377 OA
BRANCH  32  33
ATOM     33  C   UNL A   1      36.175  31.263  32.491  1.00  0.00     0.188 C 
BRANCH  33  34
ATOM     34  C   UNL A   1      37.558  30.854  33.011  1.00  0.00     0.188 C 
BRANCH  34  35
ATOM     35  O   UNL A   1      38.334  31.927  33.551  1.00  0.00    -0.376 OA
BRANCH  35  36
ATOM     36  C   UNL A   1      38.405  32.027  34.974  1.00  0.00     0.202 C 
BRANCH  36  37
ATOM     37  C   UNL A   1      39.780  32.412  35.512  1.00  0.00     0.261 C 
BRANCH  37  38
ATOM     38  O   UNL A   1      39.838  33.822  35.809  1.00  0.00    -0.460 OA
BRANCH  38  39
ATOM     39  C   UNL A   1      39.776  34.659  34.744  1.00  0.00     0.338 C 
ATOM     40  O   UNL A   1      38.815  35.333  34.410  1.00  0.00    -0.246 OA
BRANCH  39  41
ATOM     41  C   UNL A   1      41.009  34.551  33.930  1.00  0.00     0.060 A 
ATOM     42  C   UNL A   1      40.845  34.164  32.597  1.00  0.00     0.016 A 
ATOM     43  C   UNL A   1      42.295  34.671  34.474  1.00  0.00     0.016 A 
ATOM     44  C   UNL A   1      41.944  33.735  31.864  1.00  0.00     0.010 A 
ATOM     45  C   UNL A   1      43.402  34.258  33.728  1.00  0.00     0.010 A 
ATOM     46  C   UNL A   1      43.214  33.699  32.459  1.00  0.00    -0.014 A 
BRANCH  46  47
ATOM     47  C   UNL A   1      44.202  32.828  31.811  1.00  0.00     0.031 A 
ATOM     48  C   UNL A   1      45.010  33.301  30.658  1.00  0.00     0.074 A 
ATOM     49  C   UNL A   1      44.311  31.521  32.123  1.00  0.00     0.049 A 
ATOM     50  N   UNL A   1      44.910  32.940  29.414  1.00  0.00    -0.248 NA
ATOM     51  C   UNL A   1      46.117  34.223  30.937  1.00  0.00     0.031 C 
ATOM     52  C   UNL A   1      43.861  30.833  33.334  1.00  0.00     0.029 A 
ATOM     53  N   UNL A   1      44.902  30.527  31.386  1.00  0.00    -0.354 N 
ATOM     54  C   UNL A   1      45.996  33.506  28.761  1.00  0.00     0.074 A 
ATOM     55  C   UNL A   1      46.702  34.305  29.739  1.00  0.00     0.031 C 
ATOM     56  C   UNL A   1      44.335  29.570  33.324  1.00  0.00     0.029 A 
ATOM     57  C   UNL A   1      44.992  29.321  32.050  1.00  0.00     0.049 A 
ATOM     58  H   UNL A   1      45.232  30.661  30.469  1.00  0.00     0.167 HD
ATOM     59  C   UNL A   1      46.345  33.226  27.479  1.00  0.00     0.037 A 
ATOM     60  C   UNL A   1      45.572  28.183  31.615  1.00  0.00     0.037 A 
ATOM     61  C   UNL A   1      45.383  32.460  26.747  1.00  0.00     0.049 A 
ATOM     62  C   UNL A   1      45.654  28.193  30.137  1.00  0.00     0.074 A 
ATOM     63  C   UNL A   1      44.133  32.701  26.219  1.00  0.00     0.029 A 
ATOM     64  N   UNL A   1      45.592  31.111  26.645  1.00  0.00    -0.354 N 
ATOM     65  N   UNL A   1      44.642  28.032  29.331  1.00  0.00    -0.248 NA
ATOM     66  C   UNL A   1      46.906  28.578  29.498  1.00  0.00     0.031 C 
ATOM     67  C   UNL A   1      43.492  31.430  26.122  1.00  0.00     0.029 A 
ATOM     68  C   UNL A   1      44.370  30.483  26.647  1.00  0.00     0.049 A 
ATOM     69  H   UNL A   1      46.469  30.665  26.581  1.00  0.00     0.167 HD
ATOM     70  C   UNL A   1      45.034  28.636  28.150  1.00  0.00     0.074 A 
ATOM     71  C   UNL A   1      46.474  28.791  28.254  1.00  0.00     0.031 C 
ATOM     72  C   UNL A   1      44.124  29.234  27.333  1.00  0.00     0.037 A 
BRANCH  59  73
ATOM     73  C   UNL A   1      47.701  33.509  26.933  1.00  0.00     0.064 A 
ATOM     74  C   UNL A   1      47.913  34.530  25.998  1.00  0.00     0.173 A 
ATOM     75  C   UNL A   1      48.789  32.663  27.218  1.00  0.00     0.173 A 
ATOM     76  F   UNL A   1      46.905  35.337  25.635  1.00  0.00    -0.203 F 
ATOM     77  C   UNL A   1      49.164  34.720  25.407  1.00  0.00     0.198 A 
ATOM     78  C   UNL A   1      50.043  32.869  26.647  1.00  0.00     0.198 A 
ATOM     79  F   UNL A   1      48.630  31.598  28.021  1.00  0.00    -0.203 F 
ATOM     80  F   UNL A   1      49.333  35.692  24.500  1.00  0.00    -0.200 F 
ATOM     81  C   UNL A   1      50.230  33.898  25.741  1.00  0.00     0.200 A 
ATOM     82  F   UNL A   1      51.058  32.052  26.958  1.00  0.00    -0.200 F 
ATOM     83  F   UNL A   1      51.429  34.083  25.176  1.00  0.00    -0.200 F 
ENDBRANCH  59  73
BRANCH  60  84
ATOM     84  C   UNL A   1      46.148  27.098  32.432  1.00  0.00     0.064 A 
ATOM     85  C   UNL A   1      45.432  25.923  32.703  1.00  0.00     0.173 A 
ATOM     86  C   UNL A   1      47.510  27.107  32.789  1.00  0.00     0.173 A 
ATOM     87  F   UNL A   1      44.146  25.815  32.345  1.00  0.00    -0.203 F 
ATOM     88  C   UNL A   1      46.047  24.819  33.298  1.00  0.00     0.198 A 
ATOM     89  C   UNL A   1      48.118  26.012  33.398  1.00  0.00     0.198 A 
ATOM     90  F   UNL A   1      48.295  28.151  32.478  1.00  0.00    -0.203 F 
ATOM     91  F   UNL A   1      45.347  23.693  33.495  1.00  0.00    -0.200 F 
ATOM     92  C   UNL A   1      47.388  24.864  33.644  1.00  0.00     0.200 A 
ATOM     93  F   UNL A   1      49.423  26.057  33.699  1.00  0.00    -0.200 F 
ATOM     94  F   UNL A   1      47.985  23.792  34.181  1.00  0.00    -0.200 F 
ENDBRANCH  60  84
BRANCH  72  95
ATOM     95  C   UNL A   1      42.711  28.761  27.443  1.00  0.00     0.064 A 
ATOM     96  C   UNL A   1      42.195  27.709  26.670  1.00  0.00     0.173 A 
ATOM     97  C   UNL A   1      41.880  29.334  28.414  1.00  0.00     0.173 A 
ATOM     98  F   UNL A   1      42.968  27.074  25.777  1.00  0.00    -0.203 F 
ATOM     99  C   UNL A   1      40.882  27.276  26.842  1.00  0.00     0.198 A 
ATOM    100  C   UNL A   1      40.576  28.882  28.598  1.00  0.00     0.198 A 
ATOM    101  F   UNL A   1      42.345  30.311  29.209  1.00  0.00    -0.203 F 
ATOM    102  F   UNL A   1      40.402  26.275  26.089  1.00  0.00    -0.200 F 
ATOM    103  C   UNL A   1      40.076  27.860  27.807  1.00  0.00     0.200 A 
ATOM    104  F   UNL A   1      39.809  29.423  29.557  1.00  0.00    -0.200 F 
ATOM    105  F   UNL A   1      38.821  27.424  27.989  1.00  0.00    -0.200 F 
ENDBRANCH  72  95
ENDBRANCH  46  47
ENDBRANCH  39  41
ENDBRANCH  38  39
ENDBRANCH  37  38
ENDBRANCH  36  37
ENDBRANCH  35  36
ENDBRANCH  34  35
ENDBRANCH  33  34
ENDBRANCH  32  33
ENDBRANCH   1  32
TORSDOF 27
ENDMDL
