MODEL 1
REMARK VINA RESULT:      -6.9      0.000      0.000
REMARK SMILES N#CCSCC(=O)N1Cc2ccccc2C[C@@H]1C(=O)OCCOCCOCCOCCOC(=O)c1ccc(-c2c3nc(c(-c4c(F)c(F)c(F)c(F)c4F)c4ccc([nH]4)c(-c4c(F)c(F)c(F)c(F)c4F)c4nc(c(-c5c(F)c(F)c(F)c(F)c5F)c5ccc2[nH]5)C=C4)C=C3)cc1
REMARK SMILES IDX 24 1 23 2 22 3 21 4 20 5 18 6 19 7 17 8 8 9 9 10 10 11 16 12
REMARK SMILES IDX 11 13 15 14 12 15 14 16 13 17 6 18 7 19 5 20 4 21 3 22 2 23
REMARK SMILES IDX 1 24 25 25 26 26 27 27 28 28 29 29 30 30 31 31 32 32 33 33
REMARK SMILES IDX 34 34 35 35 36 36 97 37 37 38 96 39 38 40 39 41 40 42 90 43
REMARK SMILES IDX 41 44 95 45 89 46 91 47 42 48 94 49 88 50 87 51 43 53 75 54
REMARK SMILES IDX 55 55 74 56 56 57 59 58 73 59 92 60 57 61 58 62 72 64 93 65
REMARK SMILES IDX 60 66 44 67 45 68 53 69 46 70 47 71 51 72 54 73 48 74 49 75
REMARK SMILES IDX 52 76 50 77 76 78 77 79 85 80 78 81 79 82 83 83 86 84 80 85
REMARK SMILES IDX 81 86 84 87 82 88 61 89 62 90 70 91 63 92 64 93 68 94 71 95
REMARK SMILES IDX 65 96 66 97 69 98 67 99
REMARK H PARENT 91 52 59 63
REMARK Flexibility Score: inf
ROOT
ATOM      1  C   UNL A   1      38.531  32.218  36.881  1.00  0.00     0.188 C 
ENDROOT
BRANCH   1   2
ATOM      2  O   UNL A   1      38.832  32.156  35.493  1.00  0.00    -0.376 OA
BRANCH   2   3
ATOM      3  C   UNL A   1      39.183  30.917  34.917  1.00  0.00     0.202 C 
BRANCH   3   4
ATOM      4  C   UNL A   1      39.118  30.796  33.400  1.00  0.00     0.261 C 
BRANCH   4   5
ATOM      5  O   UNL A   1      40.026  31.529  32.529  1.00  0.00    -0.462 OA
BRANCH   5   6
ATOM      6  C   UNL A   1      39.571  32.634  31.858  1.00  0.00     0.329 C 
ATOM      7  O   UNL A   1      39.393  33.720  32.399  1.00  0.00    -0.250 OA
BRANCH   6   8
ATOM      8  C   UNL A   1      39.263  32.387  30.339  1.00  0.00     0.199 C 
ATOM      9  N   UNL A   1      37.842  32.124  30.039  1.00  0.00    -0.323 N 
ATOM     10  C   UNL A   1      37.402  30.768  29.705  1.00  0.00     0.156 C 
ATOM     11  C   UNL A   1      38.431  29.677  29.805  1.00  0.00    -0.025 A 
ATOM     12  C   UNL A   1      40.254  31.396  29.714  1.00  0.00     0.073 C 
ATOM     13  C   UNL A   1      38.017  28.339  29.900  1.00  0.00     0.006 A 
ATOM     14  C   UNL A   1      39.801  29.967  29.770  1.00  0.00    -0.040 A 
ATOM     15  C   UNL A   1      38.954  27.309  29.978  1.00  0.00     0.000 A 
ATOM     16  C   UNL A   1      40.738  28.925  29.807  1.00  0.00     0.004 A 
ATOM     17  C   UNL A   1      40.315  27.601  29.922  1.00  0.00     0.000 A 
BRANCH   9  18
ATOM     18  C   UNL A   1      36.848  33.098  30.054  1.00  0.00     0.233 C 
ATOM     19  O   UNL A   1      37.021  34.176  29.473  1.00  0.00    -0.274 OA
BRANCH  18  20
ATOM     20  C   UNL A   1      35.600  32.938  30.921  1.00  0.00     0.170 C 
BRANCH  20  21
ATOM     21  S   UNL A   1      35.823  32.790  32.726  1.00  0.00    -0.137 SA
BRANCH  21  22
ATOM     22  C   UNL A   1      35.255  34.453  33.268  1.00  0.00     0.189 C 
BRANCH  22  23
ATOM     23  C   UNL A   1      34.086  34.768  32.349  1.00  0.00     0.073 C 
ATOM     24  N   UNL A   1      33.116  35.030  31.586  1.00  0.00    -0.197 NA
ENDBRANCH  22  23
ENDBRANCH  21  22
ENDBRANCH  20  21
ENDBRANCH  18  20
ENDBRANCH   9  18
ENDBRANCH   6   8
ENDBRANCH   5   6
ENDBRANCH   4   5
ENDBRANCH   3   4
ENDBRANCH   2   3
ENDBRANCH   1   2
BRANCH   1  25
ATOM     25  C   UNL A   1      37.716  31.096  37.547  1.00  0.00     0.188 C 
BRANCH  25  26
ATOM     26  O   UNL A   1      36.748  31.511  38.481  1.00  0.00    -0.377 OA
BRANCH  26  27
ATOM     27  C   UNL A   1      37.041  32.744  39.100  1.00  0.00     0.188 C 
BRANCH  27  28
ATOM     28  C   UNL A   1      37.232  32.733  40.629  1.00  0.00     0.188 C 
BRANCH  28  29
ATOM     29  O   UNL A   1      38.461  33.081  41.244  1.00  0.00    -0.376 OA
BRANCH  29  30
ATOM     30  C   UNL A   1      39.091  34.346  41.199  1.00  0.00     0.202 C 
BRANCH  30  31
ATOM     31  C   UNL A   1      40.128  34.734  40.147  1.00  0.00     0.261 C 
BRANCH  31  32
ATOM     32  O   UNL A   1      39.629  35.514  39.062  1.00  0.00    -0.460 OA
BRANCH  32  33
ATOM     33  C   UNL A   1      40.502  36.429  38.584  1.00  0.00     0.338 C 
ATOM     34  O   UNL A   1      40.886  37.447  39.138  1.00  0.00    -0.246 OA
BRANCH  33  35
ATOM     35  C   UNL A   1      41.112  35.927  37.344  1.00  0.00     0.060 A 
ATOM     36  C   UNL A   1      40.256  35.639  36.272  1.00  0.00     0.016 A 
ATOM     37  C   UNL A   1      42.487  35.708  37.245  1.00  0.00     0.016 A 
ATOM     38  C   UNL A   1      40.765  35.088  35.105  1.00  0.00     0.010 A 
ATOM     39  C   UNL A   1      42.993  35.115  36.088  1.00  0.00     0.010 A 
ATOM     40  C   UNL A   1      42.124  34.767  35.038  1.00  0.00    -0.014 A 
BRANCH  40  41
ATOM     41  C   UNL A   1      42.574  33.838  33.983  1.00  0.00     0.031 A 
ATOM     42  C   UNL A   1      42.866  34.412  32.627  1.00  0.00     0.074 A 
ATOM     43  C   UNL A   1      42.758  32.534  34.242  1.00  0.00     0.049 A 
ATOM     44  N   UNL A   1      43.219  33.805  31.524  1.00  0.00    -0.248 NA
ATOM     45  C   UNL A   1      42.743  35.874  32.497  1.00  0.00     0.031 C 
ATOM     46  C   UNL A   1      42.570  31.895  35.542  1.00  0.00     0.029 A 
ATOM     47  N   UNL A   1      43.139  31.512  33.412  1.00  0.00    -0.354 N 
ATOM     48  C   UNL A   1      43.351  34.808  30.573  1.00  0.00     0.074 A 
ATOM     49  C   UNL A   1      43.018  36.058  31.216  1.00  0.00     0.031 C 
ATOM     50  C   UNL A   1      42.815  30.580  35.418  1.00  0.00     0.029 A 
ATOM     51  C   UNL A   1      43.139  30.284  34.024  1.00  0.00     0.049 A 
ATOM     52  H   UNL A   1      43.388  31.646  32.469  1.00  0.00     0.167 HD
ATOM     53  C   UNL A   1      43.724  34.690  29.278  1.00  0.00     0.037 A 
ATOM     54  C   UNL A   1      43.345  29.061  33.497  1.00  0.00     0.037 A 
ATOM     55  C   UNL A   1      44.043  33.436  28.653  1.00  0.00     0.049 A 
ATOM     56  C   UNL A   1      43.657  28.946  32.026  1.00  0.00     0.074 A 
ATOM     57  C   UNL A   1      44.443  33.197  27.352  1.00  0.00     0.029 A 
ATOM     58  N   UNL A   1      43.986  32.204  29.290  1.00  0.00    -0.354 N 
ATOM     59  N   UNL A   1      43.802  29.895  31.131  1.00  0.00    -0.248 NA
ATOM     60  C   UNL A   1      43.831  27.589  31.489  1.00  0.00     0.031 C 
ATOM     61  C   UNL A   1      44.565  31.815  27.183  1.00  0.00     0.029 A 
ATOM     62  C   UNL A   1      44.306  31.197  28.396  1.00  0.00     0.049 A 
ATOM     63  H   UNL A   1      43.753  32.067  30.237  1.00  0.00     0.167 HD
ATOM     64  C   UNL A   1      44.107  29.255  29.937  1.00  0.00     0.074 A 
ATOM     65  C   UNL A   1      44.142  27.836  30.225  1.00  0.00     0.031 C 
ATOM     66  C   UNL A   1      44.338  29.791  28.712  1.00  0.00     0.037 A 
BRANCH  53  67
ATOM     67  C   UNL A   1      43.760  35.939  28.449  1.00  0.00     0.064 A 
ATOM     68  C   UNL A   1      42.600  36.483  27.874  1.00  0.00     0.173 A 
ATOM     69  C   UNL A   1      44.972  36.616  28.242  1.00  0.00     0.173 A 
ATOM     70  F   UNL A   1      41.419  35.864  28.024  1.00  0.00    -0.203 F 
ATOM     71  C   UNL A   1      42.658  37.641  27.104  1.00  0.00     0.198 A 
ATOM     72  C   UNL A   1      45.020  37.792  27.498  1.00  0.00     0.198 A 
ATOM     73  F   UNL A   1      46.110  36.138  28.767  1.00  0.00    -0.203 F 
ATOM     74  F   UNL A   1      41.546  38.113  26.522  1.00  0.00    -0.200 F 
ATOM     75  C   UNL A   1      43.865  38.299  26.924  1.00  0.00     0.200 A 
ATOM     76  F   UNL A   1      46.186  38.431  27.334  1.00  0.00    -0.200 F 
ATOM     77  F   UNL A   1      43.917  39.418  26.188  1.00  0.00    -0.200 F 
ENDBRANCH  53  67
BRANCH  54  78
ATOM     78  C   UNL A   1      43.229  27.853  34.354  1.00  0.00     0.064 A 
ATOM     79  C   UNL A   1      44.343  27.329  35.025  1.00  0.00     0.173 A 
ATOM     80  C   UNL A   1      42.004  27.184  34.506  1.00  0.00     0.173 A 
ATOM     81  F   UNL A   1      45.542  27.917  34.890  1.00  0.00    -0.203 F 
ATOM     82  C   UNL A   1      44.242  26.174  35.798  1.00  0.00     0.198 A 
ATOM     83  C   UNL A   1      41.897  26.047  35.304  1.00  0.00     0.198 A 
ATOM     84  F   UNL A   1      40.909  27.639  33.882  1.00  0.00    -0.203 F 
ATOM     85  F   UNL A   1      45.334  25.666  36.385  1.00  0.00    -0.200 F 
ATOM     86  C   UNL A   1      43.018  25.537  35.941  1.00  0.00     0.200 A 
ATOM     87  F   UNL A   1      40.711  25.440  35.447  1.00  0.00    -0.200 F 
ATOM     88  F   UNL A   1      42.922  24.425  36.684  1.00  0.00    -0.200 F 
ENDBRANCH  54  78
BRANCH  66  89
ATOM     89  C   UNL A   1      44.675  28.844  27.595  1.00  0.00     0.064 A 
ATOM     90  C   UNL A   1      45.977  28.360  27.411  1.00  0.00     0.173 A 
ATOM     91  C   UNL A   1      43.667  28.361  26.747  1.00  0.00     0.173 A 
ATOM     92  F   UNL A   1      46.979  28.801  28.188  1.00  0.00    -0.203 F 
ATOM     93  C   UNL A   1      46.262  27.440  26.406  1.00  0.00     0.198 A 
ATOM     94  C   UNL A   1      43.948  27.416  25.767  1.00  0.00     0.198 A 
ATOM     95  F   UNL A   1      42.402  28.786  26.891  1.00  0.00    -0.203 F 
ATOM     96  F   UNL A   1      47.521  27.019  26.222  1.00  0.00    -0.200 F 
ATOM     97  C   UNL A   1      45.245  26.960  25.593  1.00  0.00     0.200 A 
ATOM     98  F   UNL A   1      42.962  26.939  24.994  1.00  0.00    -0.200 F 
ATOM     99  F   UNL A   1      45.518  26.060  24.639  1.00  0.00    -0.200 F 
ENDBRANCH  66  89
ENDBRANCH  40  41
ENDBRANCH  33  35
ENDBRANCH  32  33
ENDBRANCH  31  32
ENDBRANCH  30  31
ENDBRANCH  29  30
ENDBRANCH  28  29
ENDBRANCH  27  28
ENDBRANCH  26  27
ENDBRANCH  25  26
ENDBRANCH   1  25
TORSDOF 25
ENDMDL
MODEL 2
REMARK VINA RESULT:      -6.7      7.944     13.174
REMARK SMILES N#CCSCC(=O)N1Cc2ccccc2C[C@@H]1C(=O)OCCOCCOCCOCCOC(=O)c1ccc(-c2c3nc(c(-c4c(F)c(F)c(F)c(F)c4F)c4ccc([nH]4)c(-c4c(F)c(F)c(F)c(F)c4F)c4nc(c(-c5c(F)c(F)c(F)c(F)c5F)c5ccc2[nH]5)C=C4)C=C3)cc1
REMARK SMILES IDX 24 1 23 2 22 3 21 4 20 5 18 6 19 7 17 8 8 9 9 10 10 11 16 12
REMARK SMILES IDX 11 13 15 14 12 15 14 16 13 17 6 18 7 19 5 20 4 21 3 22 2 23
REMARK SMILES IDX 1 24 25 25 26 26 27 27 28 28 29 29 30 30 31 31 32 32 33 33
REMARK SMILES IDX 34 34 35 35 36 36 97 37 37 38 96 39 38 40 39 41 40 42 90 43
REMARK SMILES IDX 41 44 95 45 89 46 91 47 42 48 94 49 88 50 87 51 43 53 75 54
REMARK SMILES IDX 55 55 74 56 56 57 59 58 73 59 92 60 57 61 58 62 72 64 93 65
REMARK SMILES IDX 60 66 44 67 45 68 53 69 46 70 47 71 51 72 54 73 48 74 49 75
REMARK SMILES IDX 52 76 50 77 76 78 77 79 85 80 78 81 79 82 83 83 86 84 80 85
REMARK SMILES IDX 81 86 84 87 82 88 61 89 62 90 70 91 63 92 64 93 68 94 71 95
REMARK SMILES IDX 65 96 66 97 69 98 67 99
REMARK H PARENT 91 52 59 63
REMARK Flexibility Score: inf
ROOT
ATOM      1  C   UNL A   1      39.792  22.404  26.192  1.00  0.00     0.188 C 
ENDROOT
BRANCH   1   2
ATOM      2  O   UNL A   1      38.395  22.480  25.938  1.00  0.00    -0.376 OA
BRANCH   2   3
ATOM      3  C   UNL A   1      37.729  23.712  26.104  1.00  0.00     0.202 C 
BRANCH   3   4
ATOM      4  C   UNL A   1      36.424  23.920  25.348  1.00  0.00     0.261 C 
BRANCH   4   5
ATOM      5  O   UNL A   1      35.341  22.948  25.398  1.00  0.00    -0.462 OA
BRANCH   5   6
ATOM      6  C   UNL A   1      34.355  23.085  26.341  1.00  0.00     0.329 C 
ATOM      7  O   UNL A   1      34.523  22.825  27.528  1.00  0.00    -0.250 OA
BRANCH   6   8
ATOM      8  C   UNL A   1      32.977  23.574  25.771  1.00  0.00     0.199 C 
ATOM      9  N   UNL A   1      32.855  23.479  24.304  1.00  0.00    -0.323 N 
ATOM     10  C   UNL A   1      32.915  24.690  23.482  1.00  0.00     0.156 C 
ATOM     11  C   UNL A   1      33.223  25.977  24.194  1.00  0.00    -0.025 A 
ATOM     12  C   UNL A   1      32.563  24.925  26.372  1.00  0.00     0.073 C 
ATOM     13  C   UNL A   1      33.689  27.080  23.463  1.00  0.00     0.006 A 
ATOM     14  C   UNL A   1      33.019  26.110  25.573  1.00  0.00    -0.040 A 
ATOM     15  C   UNL A   1      33.966  28.290  24.099  1.00  0.00     0.000 A 
ATOM     16  C   UNL A   1      33.259  27.340  26.202  1.00  0.00     0.004 A 
ATOM     17  C   UNL A   1      33.742  28.422  25.468  1.00  0.00     0.000 A 
BRANCH   9  18
ATOM     18  C   UNL A   1      32.686  22.283  23.611  1.00  0.00     0.233 C 
ATOM     19  O   UNL A   1      32.807  22.252  22.381  1.00  0.00    -0.274 OA
BRANCH  18  20
ATOM     20  C   UNL A   1      32.184  21.025  24.320  1.00  0.00     0.170 C 
BRANCH  20  21
ATOM     21  S   UNL A   1      33.381  19.685  24.637  1.00  0.00    -0.137 SA
BRANCH  21  22
ATOM     22  C   UNL A   1      32.410  18.231  24.067  1.00  0.00     0.189 C 
BRANCH  22  23
ATOM     23  C   UNL A   1      32.826  17.111  25.005  1.00  0.00     0.073 C 
ATOM     24  N   UNL A   1      33.172  16.181  25.784  1.00  0.00    -0.197 NA
ENDBRANCH  22  23
ENDBRANCH  21  22
ENDBRANCH  20  21
ENDBRANCH  18  20
ENDBRANCH   9  18
ENDBRANCH   6   8
ENDBRANCH   5   6
ENDBRANCH   4   5
ENDBRANCH   3   4
ENDBRANCH   2   3
ENDBRANCH   1   2
BRANCH   1  25
ATOM     25  C   UNL A   1      40.305  21.917  27.558  1.00  0.00     0.188 C 
BRANCH  25  26
ATOM     26  O   UNL A   1      41.444  21.091  27.528  1.00  0.00    -0.377 OA
BRANCH  26  27
ATOM     27  C   UNL A   1      41.359  20.032  26.600  1.00  0.00     0.188 C 
BRANCH  27  28
ATOM     28  C   UNL A   1      42.660  19.621  25.885  1.00  0.00     0.188 C 
BRANCH  28  29
ATOM     29  O   UNL A   1      43.392  20.515  25.062  1.00  0.00    -0.376 OA
BRANCH  29  30
ATOM     30  C   UNL A   1      44.790  20.728  25.095  1.00  0.00     0.202 C 
BRANCH  30  31
ATOM     31  C   UNL A   1      45.444  21.922  25.785  1.00  0.00     0.261 C 
BRANCH  31  32
ATOM     32  O   UNL A   1      44.698  22.483  26.864  1.00  0.00    -0.460 OA
BRANCH  32  33
ATOM     33  C   UNL A   1      44.123  23.675  26.584  1.00  0.00     0.338 C 
ATOM     34  O   UNL A   1      42.935  23.955  26.629  1.00  0.00    -0.246 OA
BRANCH  33  35
ATOM     35  C   UNL A   1      45.168  24.694  26.401  1.00  0.00     0.060 A 
ATOM     36  C   UNL A   1      45.823  25.162  27.549  1.00  0.00     0.016 A 
ATOM     37  C   UNL A   1      45.472  25.207  25.140  1.00  0.00     0.016 A 
ATOM     38  C   UNL A   1      46.761  26.179  27.447  1.00  0.00     0.010 A 
ATOM     39  C   UNL A   1      46.384  26.259  25.042  1.00  0.00     0.010 A 
ATOM     40  C   UNL A   1      46.994  26.771  26.201  1.00  0.00    -0.014 A 
BRANCH  40  41
ATOM     41  C   UNL A   1      47.669  28.083  26.163  1.00  0.00     0.031 A 
ATOM     42  C   UNL A   1      49.143  28.100  25.873  1.00  0.00     0.074 A 
ATOM     43  C   UNL A   1      46.981  29.222  26.337  1.00  0.00     0.049 A 
ATOM     44  N   UNL A   1      49.973  29.108  25.839  1.00  0.00    -0.248 NA
ATOM     45  C   UNL A   1      49.765  26.796  25.581  1.00  0.00     0.031 C 
ATOM     46  C   UNL A   1      45.540  29.313  26.554  1.00  0.00     0.029 A 
ATOM     47  N   UNL A   1      47.414  30.521  26.366  1.00  0.00    -0.354 N 
ATOM     48  C   UNL A   1      51.211  28.561  25.531  1.00  0.00     0.074 A 
ATOM     49  C   UNL A   1      51.034  27.132  25.411  1.00  0.00     0.031 C 
ATOM     50  C   UNL A   1      45.207  30.605  26.716  1.00  0.00     0.029 A 
ATOM     51  C   UNL A   1      46.418  31.422  26.653  1.00  0.00     0.049 A 
ATOM     52  H   UNL A   1      48.347  30.784  26.197  1.00  0.00     0.167 HD
ATOM     53  C   UNL A   1      52.391  29.201  25.358  1.00  0.00     0.037 A 
ATOM     54  C   UNL A   1      46.495  32.748  26.871  1.00  0.00     0.037 A 
ATOM     55  C   UNL A   1      52.551  30.623  25.489  1.00  0.00     0.049 A 
ATOM     56  C   UNL A   1      47.840  33.424  26.775  1.00  0.00     0.074 A 
ATOM     57  C   UNL A   1      53.694  31.381  25.326  1.00  0.00     0.029 A 
ATOM     58  N   UNL A   1      51.529  31.500  25.828  1.00  0.00    -0.354 N 
ATOM     59  N   UNL A   1      49.007  32.910  26.464  1.00  0.00    -0.248 NA
ATOM     60  C   UNL A   1      47.881  34.864  27.064  1.00  0.00     0.031 C 
ATOM     61  C   UNL A   1      53.380  32.709  25.630  1.00  0.00     0.029 A 
ATOM     62  C   UNL A   1      52.027  32.789  25.918  1.00  0.00     0.049 A 
ATOM     63  H   UNL A   1      50.591  31.244  25.981  1.00  0.00     0.167 HD
ATOM     64  C   UNL A   1      49.912  33.964  26.495  1.00  0.00     0.074 A 
ATOM     65  C   UNL A   1      49.156  35.150  26.841  1.00  0.00     0.031 C 
ATOM     66  C   UNL A   1      51.248  33.953  26.259  1.00  0.00     0.037 A 
BRANCH  53  67
ATOM     67  C   UNL A   1      53.598  28.364  25.055  1.00  0.00     0.064 A 
ATOM     68  C   UNL A   1      54.397  27.819  26.072  1.00  0.00     0.173 A 
ATOM     69  C   UNL A   1      53.949  28.085  23.726  1.00  0.00     0.173 A 
ATOM     70  F   UNL A   1      54.118  28.073  27.360  1.00  0.00    -0.203 F 
ATOM     71  C   UNL A   1      55.517  27.049  25.768  1.00  0.00     0.198 A 
ATOM     72  C   UNL A   1      55.051  27.287  23.426  1.00  0.00     0.198 A 
ATOM     73  F   UNL A   1      53.221  28.582  22.715  1.00  0.00    -0.203 F 
ATOM     74  F   UNL A   1      56.296  26.583  26.755  1.00  0.00    -0.200 F 
ATOM     75  C   UNL A   1      55.837  26.776  24.447  1.00  0.00     0.200 A 
ATOM     76  F   UNL A   1      55.352  27.017  22.149  1.00  0.00    -0.200 F 
ATOM     77  F   UNL A   1      56.911  26.029  24.157  1.00  0.00    -0.200 F 
ENDBRANCH  53  67
BRANCH  54  78
ATOM     78  C   UNL A   1      45.275  33.515  27.234  1.00  0.00     0.064 A 
ATOM     79  C   UNL A   1      44.466  34.100  26.251  1.00  0.00     0.173 A 
ATOM     80  C   UNL A   1      44.902  33.694  28.575  1.00  0.00     0.173 A 
ATOM     81  F   UNL A   1      44.795  33.979  24.956  1.00  0.00    -0.203 F 
ATOM     82  C   UNL A   1      43.343  34.850  26.594  1.00  0.00     0.198 A 
ATOM     83  C   UNL A   1      43.762  34.420  28.916  1.00  0.00     0.198 A 
ATOM     84  F   UNL A   1      45.644  33.161  29.556  1.00  0.00    -0.203 F 
ATOM     85  F   UNL A   1      42.618  35.442  25.635  1.00  0.00    -0.200 F 
ATOM     86  C   UNL A   1      42.989  35.005  27.925  1.00  0.00     0.200 A 
ATOM     87  F   UNL A   1      43.419  34.558  30.205  1.00  0.00    -0.200 F 
ATOM     88  F   UNL A   1      41.910  35.729  28.255  1.00  0.00    -0.200 F 
ENDBRANCH  54  78
BRANCH  66  89
ATOM     89  C   UNL A   1      51.976  35.265  26.340  1.00  0.00     0.064 A 
ATOM     90  C   UNL A   1      52.089  36.111  25.229  1.00  0.00     0.173 A 
ATOM     91  C   UNL A   1      52.500  35.709  27.563  1.00  0.00     0.173 A 
ATOM     92  F   UNL A   1      51.614  35.726  24.035  1.00  0.00    -0.203 F 
ATOM     93  C   UNL A   1      52.717  37.349  25.335  1.00  0.00     0.198 A 
ATOM     94  C   UNL A   1      53.097  36.961  27.674  1.00  0.00     0.198 A 
ATOM     95  F   UNL A   1      52.408  34.939  28.659  1.00  0.00    -0.203 F 
ATOM     96  F   UNL A   1      52.848  38.127  24.252  1.00  0.00    -0.200 F 
ATOM     97  C   UNL A   1      53.210  37.777  26.560  1.00  0.00     0.200 A 
ATOM     98  F   UNL A   1      53.555  37.381  28.861  1.00  0.00    -0.200 F 
ATOM     99  F   UNL A   1      53.797  38.978  26.663  1.00  0.00    -0.200 F 
ENDBRANCH  66  89
ENDBRANCH  40  41
ENDBRANCH  33  35
ENDBRANCH  32  33
ENDBRANCH  31  32
ENDBRANCH  30  31
ENDBRANCH  29  30
ENDBRANCH  28  29
ENDBRANCH  27  28
ENDBRANCH  26  27
ENDBRANCH  25  26
ENDBRANCH   1  25
TORSDOF 25
ENDMDL
MODEL 3
REMARK VINA RESULT:      -6.7      6.725     11.434
REMARK SMILES N#CCSCC(=O)N1Cc2ccccc2C[C@@H]1C(=O)OCCOCCOCCOCCOC(=O)c1ccc(-c2c3nc(c(-c4c(F)c(F)c(F)c(F)c4F)c4ccc([nH]4)c(-c4c(F)c(F)c(F)c(F)c4F)c4nc(c(-c5c(F)c(F)c(F)c(F)c5F)c5ccc2[nH]5)C=C4)C=C3)cc1
REMARK SMILES IDX 24 1 23 2 22 3 21 4 20 5 18 6 19 7 17 8 8 9 9 10 10 11 16 12
REMARK SMILES IDX 11 13 15 14 12 15 14 16 13 17 6 18 7 19 5 20 4 21 3 22 2 23
REMARK SMILES IDX 1 24 25 25 26 26 27 27 28 28 29 29 30 30 31 31 32 32 33 33
REMARK SMILES IDX 34 34 35 35 36 36 97 37 37 38 96 39 38 40 39 41 40 42 90 43
REMARK SMILES IDX 41 44 95 45 89 46 91 47 42 48 94 49 88 50 87 51 43 53 75 54
REMARK SMILES IDX 55 55 74 56 56 57 59 58 73 59 92 60 57 61 58 62 72 64 93 65
REMARK SMILES IDX 60 66 44 67 45 68 53 69 46 70 47 71 51 72 54 73 48 74 49 75
REMARK SMILES IDX 52 76 50 77 76 78 77 79 85 80 78 81 79 82 83 83 86 84 80 85
REMARK SMILES IDX 81 86 84 87 82 88 61 89 62 90 70 91 63 92 64 93 68 94 71 95
REMARK SMILES IDX 65 96 66 97 69 98 67 99
REMARK H PARENT 91 52 59 63
REMARK Flexibility Score: inf
ROOT
ATOM      1  C   UNL A   1      39.761  22.387  26.222  1.00  0.00     0.188 C 
ENDROOT
BRANCH   1   2
ATOM      2  O   UNL A   1      38.351  22.298  26.063  1.00  0.00    -0.376 OA
BRANCH   2   3
ATOM      3  C   UNL A   1      37.595  23.482  25.939  1.00  0.00     0.202 C 
BRANCH   3   4
ATOM      4  C   UNL A   1      36.491  23.512  24.889  1.00  0.00     0.261 C 
BRANCH   4   5
ATOM      5  O   UNL A   1      35.509  22.443  24.773  1.00  0.00    -0.462 OA
BRANCH   5   6
ATOM      6  C   UNL A   1      34.605  22.246  25.784  1.00  0.00     0.329 C 
ATOM      7  O   UNL A   1      34.910  21.770  26.872  1.00  0.00    -0.250 OA
BRANCH   6   8
ATOM      8  C   UNL A   1      33.132  22.651  25.423  1.00  0.00     0.199 C 
ATOM      9  N   UNL A   1      32.727  22.315  24.045  1.00  0.00    -0.323 N 
ATOM     10  C   UNL A   1      32.600  23.372  23.039  1.00  0.00     0.156 C 
ATOM     11  C   UNL A   1      33.015  24.755  23.454  1.00  0.00    -0.025 A 
ATOM     12  C   UNL A   1      32.816  24.088  25.862  1.00  0.00     0.073 C 
ATOM     13  C   UNL A   1      33.307  25.716  22.473  1.00  0.00     0.006 A 
ATOM     14  C   UNL A   1      33.083  25.118  24.805  1.00  0.00    -0.040 A 
ATOM     15  C   UNL A   1      33.678  27.011  22.834  1.00  0.00     0.000 A 
ATOM     16  C   UNL A   1      33.416  26.432  25.161  1.00  0.00     0.004 A 
ATOM     17  C   UNL A   1      33.724  27.371  24.178  1.00  0.00     0.000 A 
BRANCH   9  18
ATOM     18  C   UNL A   1      32.450  21.023  23.606  1.00  0.00     0.233 C 
ATOM     19  O   UNL A   1      32.065  20.826  22.448  1.00  0.00    -0.274 OA
BRANCH  18  20
ATOM     20  C   UNL A   1      32.448  19.843  24.578  1.00  0.00     0.170 C 
BRANCH  20  21
ATOM     21  S   UNL A   1      33.868  18.700  24.541  1.00  0.00    -0.137 SA
BRANCH  21  22
ATOM     22  C   UNL A   1      33.062  17.191  23.863  1.00  0.00     0.189 C 
BRANCH  22  23
ATOM     23  C   UNL A   1      33.755  16.043  24.578  1.00  0.00     0.073 C 
ATOM     24  N   UNL A   1      34.330  15.090  25.171  1.00  0.00    -0.197 NA
ENDBRANCH  22  23
ENDBRANCH  21  22
ENDBRANCH  20  21
ENDBRANCH  18  20
ENDBRANCH   9  18
ENDBRANCH   6   8
ENDBRANCH   5   6
ENDBRANCH   4   5
ENDBRANCH   3   4
ENDBRANCH   2   3
ENDBRANCH   1   2
BRANCH   1  25
ATOM     25  C   UNL A   1      40.402  22.128  27.596  1.00  0.00     0.188 C 
BRANCH  25  26
ATOM     26  O   UNL A   1      41.783  21.855  27.589  1.00  0.00    -0.377 OA
BRANCH  26  27
ATOM     27  C   UNL A   1      42.183  20.959  26.576  1.00  0.00     0.188 C 
BRANCH  27  28
ATOM     28  C   UNL A   1      43.346  21.402  25.667  1.00  0.00     0.188 C 
BRANCH  28  29
ATOM     29  O   UNL A   1      43.202  22.414  24.684  1.00  0.00    -0.376 OA
BRANCH  29  30
ATOM     30  C   UNL A   1      44.077  23.504  24.471  1.00  0.00     0.202 C 
BRANCH  30  31
ATOM     31  C   UNL A   1      43.801  24.917  24.980  1.00  0.00     0.261 C 
BRANCH  31  32
ATOM     32  O   UNL A   1      43.147  24.990  26.245  1.00  0.00    -0.460 OA
BRANCH  32  33
ATOM     33  C   UNL A   1      42.129  25.879  26.297  1.00  0.00     0.338 C 
ATOM     34  O   UNL A   1      40.934  25.643  26.211  1.00  0.00    -0.246 OA
BRANCH  33  35
ATOM     35  C   UNL A   1      42.647  27.199  26.686  1.00  0.00     0.060 A 
ATOM     36  C   UNL A   1      43.522  27.254  27.781  1.00  0.00     0.016 A 
ATOM     37  C   UNL A   1      42.256  28.360  26.019  1.00  0.00     0.016 A 
ATOM     38  C   UNL A   1      43.979  28.480  28.242  1.00  0.00     0.010 A 
ATOM     39  C   UNL A   1      42.682  29.595  26.509  1.00  0.00     0.010 A 
ATOM     40  C   UNL A   1      43.508  29.653  27.646  1.00  0.00    -0.014 A 
BRANCH  40  41
ATOM     41  C   UNL A   1      43.673  30.926  28.375  1.00  0.00     0.031 A 
ATOM     42  C   UNL A   1      44.838  31.797  28.002  1.00  0.00     0.074 A 
ATOM     43  C   UNL A   1      42.787  31.310  29.307  1.00  0.00     0.049 A 
ATOM     44  N   UNL A   1      45.233  32.928  28.525  1.00  0.00    -0.248 NA
ATOM     45  C   UNL A   1      45.672  31.326  26.882  1.00  0.00     0.031 C 
ATOM     46  C   UNL A   1      41.589  30.569  29.690  1.00  0.00     0.029 A 
ATOM     47  N   UNL A   1      42.771  32.422  30.107  1.00  0.00    -0.354 N 
ATOM     48  C   UNL A   1      46.362  33.296  27.804  1.00  0.00     0.074 A 
ATOM     49  C   UNL A   1      46.606  32.262  26.825  1.00  0.00     0.031 C 
ATOM     50  C   UNL A   1      40.960  31.238  30.671  1.00  0.00     0.029 A 
ATOM     51  C   UNL A   1      41.735  32.431  31.008  1.00  0.00     0.049 A 
ATOM     52  H   UNL A   1      43.436  33.145  30.042  1.00  0.00     0.167 HD
ATOM     53  C   UNL A   1      47.122  34.407  27.949  1.00  0.00     0.037 A 
ATOM     54  C   UNL A   1      41.474  33.293  32.008  1.00  0.00     0.037 A 
ATOM     55  C   UNL A   1      46.869  35.421  28.934  1.00  0.00     0.049 A 
ATOM     56  C   UNL A   1      42.396  34.468  32.216  1.00  0.00     0.074 A 
ATOM     57  C   UNL A   1      47.566  36.592  29.165  1.00  0.00     0.029 A 
ATOM     58  N   UNL A   1      45.839  35.374  29.864  1.00  0.00    -0.354 N 
ATOM     59  N   UNL A   1      43.451  34.828  31.523  1.00  0.00    -0.248 NA
ATOM     60  C   UNL A   1      42.095  35.357  33.347  1.00  0.00     0.031 C 
ATOM     61  C   UNL A   1      46.996  37.223  30.276  1.00  0.00     0.029 A 
ATOM     62  C   UNL A   1      45.905  36.478  30.696  1.00  0.00     0.049 A 
ATOM     63  H   UNL A   1      45.162  34.662  29.921  1.00  0.00     0.167 HD
ATOM     64  C   UNL A   1      43.923  35.992  32.116  1.00  0.00     0.074 A 
ATOM     65  C   UNL A   1      43.029  36.288  33.217  1.00  0.00     0.031 C 
ATOM     66  C   UNL A   1      44.997  36.750  31.782  1.00  0.00     0.037 A 
BRANCH  53  67
ATOM     67  C   UNL A   1      48.316  34.552  27.053  1.00  0.00     0.064 A 
ATOM     68  C   UNL A   1      48.292  35.365  25.909  1.00  0.00     0.173 A 
ATOM     69  C   UNL A   1      49.511  33.882  27.354  1.00  0.00     0.173 A 
ATOM     70  F   UNL A   1      47.168  36.011  25.564  1.00  0.00    -0.203 F 
ATOM     71  C   UNL A   1      49.411  35.481  25.089  1.00  0.00     0.198 A 
ATOM     72  C   UNL A   1      50.639  34.026  26.550  1.00  0.00     0.198 A 
ATOM     73  F   UNL A   1      49.588  33.089  28.434  1.00  0.00    -0.203 F 
ATOM     74  F   UNL A   1      49.349  36.222  23.973  1.00  0.00    -0.200 F 
ATOM     75  C   UNL A   1      50.585  34.819  25.414  1.00  0.00     0.200 A 
ATOM     76  F   UNL A   1      51.774  33.392  26.871  1.00  0.00    -0.200 F 
ATOM     77  F   UNL A   1      51.663  34.937  24.627  1.00  0.00    -0.200 F 
ENDBRANCH  53  67
BRANCH  54  78
ATOM     78  C   UNL A   1      40.314  33.060  32.908  1.00  0.00     0.064 A 
ATOM     79  C   UNL A   1      39.080  33.683  32.677  1.00  0.00     0.173 A 
ATOM     80  C   UNL A   1      40.420  32.222  34.029  1.00  0.00     0.173 A 
ATOM     81  F   UNL A   1      38.935  34.514  31.634  1.00  0.00    -0.203 F 
ATOM     82  C   UNL A   1      38.004  33.494  33.541  1.00  0.00     0.198 A 
ATOM     83  C   UNL A   1      39.334  32.009  34.876  1.00  0.00     0.198 A 
ATOM     84  F   UNL A   1      41.579  31.606  34.299  1.00  0.00    -0.203 F 
ATOM     85  F   UNL A   1      36.852  34.144  33.326  1.00  0.00    -0.200 F 
ATOM     86  C   UNL A   1      38.130  32.653  34.637  1.00  0.00     0.200 A 
ATOM     87  F   UNL A   1      39.459  31.188  35.928  1.00  0.00    -0.200 F 
ATOM     88  F   UNL A   1      37.095  32.473  35.469  1.00  0.00    -0.200 F 
ENDBRANCH  54  78
BRANCH  66  89
ATOM     89  C   UNL A   1      45.253  37.986  32.596  1.00  0.00     0.064 A 
ATOM     90  C   UNL A   1      46.112  37.971  33.703  1.00  0.00     0.173 A 
ATOM     91  C   UNL A   1      44.688  39.213  32.218  1.00  0.00     0.173 A 
ATOM     92  F   UNL A   1      46.667  36.820  34.113  1.00  0.00    -0.203 F 
ATOM     93  C   UNL A   1      46.383  39.137  34.413  1.00  0.00     0.198 A 
ATOM     94  C   UNL A   1      44.987  40.383  32.908  1.00  0.00     0.198 A 
ATOM     95  F   UNL A   1      43.867  39.281  31.158  1.00  0.00    -0.203 F 
ATOM     96  F   UNL A   1      47.177  39.094  35.492  1.00  0.00    -0.200 F 
ATOM     97  C   UNL A   1      45.829  40.344  34.008  1.00  0.00     0.200 A 
ATOM     98  F   UNL A   1      44.467  41.550  32.504  1.00  0.00    -0.200 F 
ATOM     99  F   UNL A   1      46.107  41.468  34.682  1.00  0.00    -0.200 F 
ENDBRANCH  66  89
ENDBRANCH  40  41
ENDBRANCH  33  35
ENDBRANCH  32  33
ENDBRANCH  31  32
ENDBRANCH  30  31
ENDBRANCH  29  30
ENDBRANCH  28  29
ENDBRANCH  27  28
ENDBRANCH  26  27
ENDBRANCH  25  26
ENDBRANCH   1  25
TORSDOF 25
ENDMDL
