MODEL 1
REMARK VINA RESULT:      -9.7      0.000      0.000
REMARK SMILES C[N@@H+]1CCC[C@@H](C[NH2+]CC(=O)OCCOCCOCCOCCOC(=O)c2ccc(-c3c4nc(c(-c5c(F)c(F)c(F)c(F)c5F)c5ccc([nH]5)c(-c5c(F)c(F)c(F)c(F)c5F)c5nc(c(-c6c(F)c(F)c(F)c(F)c6F)c6ccc3[nH]6)C=C5)C=C4)cc2)C1
REMARK SMILES IDX 17 1 16 2 15 3 14 4 13 5 12 6 10 7 11 8 9 9 8 10 7 13 6 14
REMARK SMILES IDX 1 15 2 16 3 17 90 18 4 20 5 21 18 22 19 23 20 24 21 25 22 26
REMARK SMILES IDX 23 27 24 28 25 29 26 30 27 31 28 32 89 33 29 34 88 35 30 36
REMARK SMILES IDX 31 37 32 38 82 39 33 40 87 41 81 42 83 43 34 44 86 45 80 46
REMARK SMILES IDX 79 47 35 49 67 50 47 51 66 52 48 53 51 54 65 55 84 56 49 57
REMARK SMILES IDX 50 58 64 60 85 61 52 62 36 63 37 64 45 65 38 66 39 67 43 68
REMARK SMILES IDX 46 69 40 70 41 71 44 72 42 73 68 74 69 75 77 76 70 77 71 78
REMARK SMILES IDX 75 79 78 80 72 81 73 82 76 83 74 84 53 85 54 86 62 87 55 88
REMARK SMILES IDX 56 89 60 90 63 91 57 92 58 93 61 94 59 95
REMARK H PARENT 8 11 8 12 2 19 83 48 51 59
REMARK Flexibility Score: inf
ROOT
ATOM      1  C   UNL A   1      39.630  21.430  26.112  1.00  0.00     0.188 C 
ENDROOT
BRANCH   1   2
ATOM      2  C   UNL A   1      39.202  22.807  26.631  1.00  0.00     0.188 C 
BRANCH   2   3
ATOM      3  O   UNL A   1      38.307  23.488  25.778  1.00  0.00    -0.376 OA
BRANCH   3   4
ATOM      4  C   UNL A   1      37.108  24.039  26.307  1.00  0.00     0.202 C 
BRANCH   4   5
ATOM      5  C   UNL A   1      35.729  24.051  25.604  1.00  0.00     0.261 C 
BRANCH   5   6
ATOM      6  O   UNL A   1      34.598  23.468  26.264  1.00  0.00    -0.459 OA
BRANCH   6   7
ATOM      7  C   UNL A   1      33.367  23.798  25.817  1.00  0.00     0.361 C 
ATOM      8  O   UNL A   1      33.174  24.600  24.906  1.00  0.00    -0.245 OA
BRANCH   7   9
ATOM      9  C   UNL A   1      32.206  23.119  26.549  1.00  0.00     0.384 C 
BRANCH   9  10
ATOM     10  N   UNL A   1      31.516  21.957  25.944  1.00  0.00    -0.337 N 
ATOM     11  H   UNL A   1      30.687  21.759  26.504  1.00  0.00     0.346 HD
ATOM     12  H   UNL A   1      31.309  22.225  24.982  1.00  0.00     0.346 HD
BRANCH  10  13
ATOM     13  C   UNL A   1      32.306  20.729  25.857  1.00  0.00     0.270 C 
BRANCH  13  14
ATOM     14  C   UNL A   1      32.997  20.563  24.478  1.00  0.00     0.099 C 
ATOM     15  C   UNL A   1      36.646  19.505  24.880  1.00  0.00     0.332 C 
ATOM     16  N   UNL A   1      35.194  19.407  25.028  1.00  0.00    -0.337 N 
ATOM     17  C   UNL A   1      34.709  18.158  24.438  1.00  0.00     0.262 C 
ATOM     18  C   UNL A   1      34.542  20.603  24.476  1.00  0.00     0.271 C 
ATOM     19  H   UNL A   1      34.949  19.377  26.018  1.00  0.00     0.347 HD
ATOM     20  C   UNL A   1      33.187  18.042  24.463  1.00  0.00     0.062 C 
ATOM     21  C   UNL A   1      32.539  19.256  23.807  1.00  0.00     0.021 C 
ENDBRANCH  13  14
ENDBRANCH  10  13
ENDBRANCH   9  10
ENDBRANCH   7   9
ENDBRANCH   6   7
ENDBRANCH   5   6
ENDBRANCH   4   5
ENDBRANCH   3   4
ENDBRANCH   2   3
ENDBRANCH   1   2
BRANCH   1  22
ATOM     22  O   UNL A   1      41.024  21.152  26.121  1.00  0.00    -0.377 OA
BRANCH  22  23
ATOM     23  C   UNL A   1      41.455  19.944  26.737  1.00  0.00     0.188 C 
BRANCH  23  24
ATOM     24  C   UNL A   1      42.727  19.337  26.178  1.00  0.00     0.188 C 
BRANCH  24  25
ATOM     25  O   UNL A   1      43.187  19.930  24.972  1.00  0.00    -0.376 OA
BRANCH  25  26
ATOM     26  C   UNL A   1      44.533  20.408  24.990  1.00  0.00     0.202 C 
BRANCH  26  27
ATOM     27  C   UNL A   1      44.782  21.779  25.658  1.00  0.00     0.261 C 
BRANCH  27  28
ATOM     28  O   UNL A   1      43.949  22.886  25.233  1.00  0.00    -0.460 OA
BRANCH  28  29
ATOM     29  C   UNL A   1      44.480  24.136  25.188  1.00  0.00     0.338 C 
ATOM     30  O   UNL A   1      45.338  24.531  24.440  1.00  0.00    -0.246 OA
BRANCH  29  31
ATOM     31  C   UNL A   1      43.636  25.030  26.044  1.00  0.00     0.060 A 
ATOM     32  C   UNL A   1      43.980  26.390  26.127  1.00  0.00     0.016 A 
ATOM     33  C   UNL A   1      42.493  24.574  26.705  1.00  0.00     0.016 A 
ATOM     34  C   UNL A   1      43.225  27.271  26.910  1.00  0.00     0.010 A 
ATOM     35  C   UNL A   1      41.734  25.456  27.487  1.00  0.00     0.010 A 
ATOM     36  C   UNL A   1      42.126  26.800  27.640  1.00  0.00    -0.014 A 
BRANCH  36  37
ATOM     37  C   UNL A   1      41.601  27.599  28.784  1.00  0.00     0.031 A 
ATOM     38  C   UNL A   1      42.344  27.495  30.093  1.00  0.00     0.074 A 
ATOM     39  C   UNL A   1      40.543  28.427  28.696  1.00  0.00     0.049 A 
ATOM     40  N   UNL A   1      42.086  28.045  31.253  1.00  0.00    -0.248 NA
ATOM     41  C   UNL A   1      43.541  26.636  30.093  1.00  0.00     0.031 C 
ATOM     42  C   UNL A   1      39.745  28.674  27.498  1.00  0.00     0.029 A 
ATOM     43  N   UNL A   1      39.959  29.222  29.658  1.00  0.00    -0.354 N 
ATOM     44  C   UNL A   1      43.075  27.587  32.113  1.00  0.00     0.074 A 
ATOM     45  C   UNL A   1      43.908  26.676  31.362  1.00  0.00     0.031 C 
ATOM     46  C   UNL A   1      38.776  29.561  27.795  1.00  0.00     0.029 A 
ATOM     47  C   UNL A   1      38.867  29.928  29.210  1.00  0.00     0.049 A 
ATOM     48  H   UNL A   1      40.293  29.279  30.582  1.00  0.00     0.167 HD
ATOM     49  C   UNL A   1      43.296  27.908  33.409  1.00  0.00     0.037 A 
ATOM     50  C   UNL A   1      38.036  30.763  29.871  1.00  0.00     0.037 A 
ATOM     51  C   UNL A   1      42.503  28.832  34.168  1.00  0.00     0.049 A 
ATOM     52  C   UNL A   1      38.262  31.057  31.339  1.00  0.00     0.074 A 
ATOM     53  C   UNL A   1      42.668  29.228  35.483  1.00  0.00     0.029 A 
ATOM     54  N   UNL A   1      41.396  29.506  33.679  1.00  0.00    -0.354 N 
ATOM     55  N   UNL A   1      39.218  30.641  32.133  1.00  0.00    -0.248 NA
ATOM     56  C   UNL A   1      37.290  31.946  32.000  1.00  0.00     0.031 C 
ATOM     57  C   UNL A   1      41.633  30.109  35.806  1.00  0.00     0.029 A 
ATOM     58  C   UNL A   1      40.857  30.303  34.674  1.00  0.00     0.049 A 
ATOM     59  H   UNL A   1      41.045  29.429  32.762  1.00  0.00     0.167 HD
ATOM     60  C   UNL A   1      38.989  31.251  33.363  1.00  0.00     0.074 A 
ATOM     61  C   UNL A   1      37.804  32.066  33.216  1.00  0.00     0.031 C 
ATOM     62  C   UNL A   1      39.703  31.147  34.510  1.00  0.00     0.037 A 
BRANCH  49  63
ATOM     63  C   UNL A   1      44.447  27.235  34.092  1.00  0.00     0.064 A 
ATOM     64  C   UNL A   1      45.731  27.800  34.098  1.00  0.00     0.173 A 
ATOM     65  C   UNL A   1      44.258  26.016  34.760  1.00  0.00     0.173 A 
ATOM     66  F   UNL A   1      45.965  28.953  33.455  1.00  0.00    -0.203 F 
ATOM     67  C   UNL A   1      46.793  27.152  34.723  1.00  0.00     0.198 A 
ATOM     68  C   UNL A   1      45.314  25.388  35.410  1.00  0.00     0.198 A 
ATOM     69  F   UNL A   1      43.048  25.438  34.781  1.00  0.00    -0.203 F 
ATOM     70  F   UNL A   1      48.023  27.679  34.668  1.00  0.00    -0.200 F 
ATOM     71  C   UNL A   1      46.582  25.950  35.385  1.00  0.00     0.200 A 
ATOM     72  F   UNL A   1      45.107  24.232  36.058  1.00  0.00    -0.200 F 
ATOM     73  F   UNL A   1      47.603  25.330  35.988  1.00  0.00    -0.200 F 
ENDBRANCH  49  63
BRANCH  50  74
ATOM     74  C   UNL A   1      36.889  31.400  29.166  1.00  0.00     0.064 A 
ATOM     75  C   UNL A   1      36.882  32.776  28.893  1.00  0.00     0.173 A 
ATOM     76  C   UNL A   1      35.750  30.662  28.816  1.00  0.00     0.173 A 
ATOM     77  F   UNL A   1      37.933  33.533  29.241  1.00  0.00    -0.203 F 
ATOM     78  C   UNL A   1      35.768  33.394  28.325  1.00  0.00     0.198 A 
ATOM     79  C   UNL A   1      34.648  31.275  28.221  1.00  0.00     0.198 A 
ATOM     80  F   UNL A   1      35.700  29.345  29.064  1.00  0.00    -0.203 F 
ATOM     81  F   UNL A   1      35.763  34.721  28.135  1.00  0.00    -0.200 F 
ATOM     82  C   UNL A   1      34.653  32.642  27.986  1.00  0.00     0.200 A 
ATOM     83  F   UNL A   1      33.574  30.544  27.893  1.00  0.00    -0.200 F 
ATOM     84  F   UNL A   1      33.579  33.236  27.450  1.00  0.00    -0.200 F 
ENDBRANCH  50  74
BRANCH  62  85
ATOM     85  C   UNL A   1      39.289  31.980  35.691  1.00  0.00     0.064 A 
ATOM     86  C   UNL A   1      39.691  33.315  35.834  1.00  0.00     0.173 A 
ATOM     87  C   UNL A   1      38.393  31.459  36.637  1.00  0.00     0.173 A 
ATOM     88  F   UNL A   1      40.553  33.857  34.962  1.00  0.00    -0.203 F 
ATOM     89  C   UNL A   1      39.218  34.094  36.888  1.00  0.00     0.198 A 
ATOM     90  C   UNL A   1      37.900  32.249  37.672  1.00  0.00     0.198 A 
ATOM     91  F   UNL A   1      37.967  30.190  36.539  1.00  0.00    -0.203 F 
ATOM     92  F   UNL A   1      39.635  35.362  37.020  1.00  0.00    -0.200 F 
ATOM     93  C   UNL A   1      38.315  33.565  37.799  1.00  0.00     0.200 A 
ATOM     94  F   UNL A   1      37.014  31.740  38.539  1.00  0.00    -0.200 F 
ATOM     95  F   UNL A   1      37.843  34.325  38.797  1.00  0.00    -0.200 F 
ENDBRANCH  62  85
ENDBRANCH  36  37
ENDBRANCH  29  31
ENDBRANCH  28  29
ENDBRANCH  27  28
ENDBRANCH  26  27
ENDBRANCH  25  26
ENDBRANCH  24  25
ENDBRANCH  23  24
ENDBRANCH  22  23
ENDBRANCH   1  22
TORSDOF 23
ENDMDL
MODEL 2
REMARK VINA RESULT:      -9.7      5.583     11.246
REMARK SMILES C[N@@H+]1CCC[C@@H](C[NH2+]CC(=O)OCCOCCOCCOCCOC(=O)c2ccc(-c3c4nc(c(-c5c(F)c(F)c(F)c(F)c5F)c5ccc([nH]5)c(-c5c(F)c(F)c(F)c(F)c5F)c5nc(c(-c6c(F)c(F)c(F)c(F)c6F)c6ccc3[nH]6)C=C5)C=C4)cc2)C1
REMARK SMILES IDX 17 1 16 2 15 3 14 4 13 5 12 6 10 7 11 8 9 9 8 10 7 13 6 14
REMARK SMILES IDX 1 15 2 16 3 17 90 18 4 20 5 21 18 22 19 23 20 24 21 25 22 26
REMARK SMILES IDX 23 27 24 28 25 29 26 30 27 31 28 32 89 33 29 34 88 35 30 36
REMARK SMILES IDX 31 37 32 38 82 39 33 40 87 41 81 42 83 43 34 44 86 45 80 46
REMARK SMILES IDX 79 47 35 49 67 50 47 51 66 52 48 53 51 54 65 55 84 56 49 57
REMARK SMILES IDX 50 58 64 60 85 61 52 62 36 63 37 64 45 65 38 66 39 67 43 68
REMARK SMILES IDX 46 69 40 70 41 71 44 72 42 73 68 74 69 75 77 76 70 77 71 78
REMARK SMILES IDX 75 79 78 80 72 81 73 82 76 83 74 84 53 85 54 86 62 87 55 88
REMARK SMILES IDX 56 89 60 90 63 91 57 92 58 93 61 94 59 95
REMARK H PARENT 8 11 8 12 2 19 83 48 51 59
REMARK Flexibility Score: inf
ROOT
ATOM      1  C   UNL A   1      33.366  34.842  28.398  1.00  0.00     0.188 C 
ENDROOT
BRANCH   1   2
ATOM      2  C   UNL A   1      34.631  33.978  28.358  1.00  0.00     0.188 C 
BRANCH   2   3
ATOM      3  O   UNL A   1      34.598  32.872  29.235  1.00  0.00    -0.376 OA
BRANCH   3   4
ATOM      4  C   UNL A   1      34.570  31.552  28.707  1.00  0.00     0.202 C 
BRANCH   4   5
ATOM      5  C   UNL A   1      33.913  31.123  27.373  1.00  0.00     0.261 C 
BRANCH   5   6
ATOM      6  O   UNL A   1      33.621  29.737  27.147  1.00  0.00    -0.459 OA
BRANCH   6   7
ATOM      7  C   UNL A   1      32.348  29.402  26.847  1.00  0.00     0.361 C 
ATOM      8  O   UNL A   1      31.683  29.979  25.990  1.00  0.00    -0.245 OA
BRANCH   7   9
ATOM      9  C   UNL A   1      31.766  28.253  27.675  1.00  0.00     0.384 C 
BRANCH   9  10
ATOM     10  N   UNL A   1      31.170  27.075  27.007  1.00  0.00    -0.337 N 
ATOM     11  H   UNL A   1      30.894  26.410  27.731  1.00  0.00     0.346 HD
ATOM     12  H   UNL A   1      30.389  27.431  26.457  1.00  0.00     0.346 HD
BRANCH  10  13
ATOM     13  C   UNL A   1      32.041  26.376  26.062  1.00  0.00     0.270 C 
BRANCH  13  14
ATOM     14  C   UNL A   1      31.335  25.173  25.382  1.00  0.00     0.099 C 
ATOM     15  C   UNL A   1      33.861  22.900  23.636  1.00  0.00     0.332 C 
ATOM     16  N   UNL A   1      33.246  23.619  24.752  1.00  0.00    -0.337 N 
ATOM     17  C   UNL A   1      32.859  22.680  25.807  1.00  0.00     0.262 C 
ATOM     18  C   UNL A   1      32.132  24.449  24.274  1.00  0.00     0.271 C 
ATOM     19  H   UNL A   1      33.925  24.258  25.165  1.00  0.00     0.347 HD
ATOM     20  C   UNL A   1      32.114  23.353  26.956  1.00  0.00     0.062 C 
ATOM     21  C   UNL A   1      30.912  24.137  26.439  1.00  0.00     0.021 C 
ENDBRANCH  13  14
ENDBRANCH  10  13
ENDBRANCH   9  10
ENDBRANCH   7   9
ENDBRANCH   6   7
ENDBRANCH   5   6
ENDBRANCH   4   5
ENDBRANCH   3   4
ENDBRANCH   2   3
ENDBRANCH   1   2
BRANCH   1  22
ATOM     22  O   UNL A   1      32.706  34.945  29.651  1.00  0.00    -0.377 OA
BRANCH  22  23
ATOM     23  C   UNL A   1      32.816  36.174  30.359  1.00  0.00     0.188 C 
BRANCH  23  24
ATOM     24  C   UNL A   1      32.703  36.077  31.869  1.00  0.00     0.188 C 
BRANCH  24  25
ATOM     25  O   UNL A   1      33.809  36.608  32.582  1.00  0.00    -0.376 OA
BRANCH  25  26
ATOM     26  C   UNL A   1      34.591  35.661  33.312  1.00  0.00     0.202 C 
BRANCH  26  27
ATOM     27  C   UNL A   1      34.862  34.301  32.630  1.00  0.00     0.261 C 
BRANCH  27  28
ATOM     28  O   UNL A   1      36.244  33.877  32.521  1.00  0.00    -0.460 OA
BRANCH  28  29
ATOM     29  C   UNL A   1      36.675  32.824  33.265  1.00  0.00     0.338 C 
ATOM     30  O   UNL A   1      36.288  32.506  34.360  1.00  0.00    -0.246 OA
BRANCH  29  31
ATOM     31  C   UNL A   1      37.529  31.957  32.390  1.00  0.00     0.060 A 
ATOM     32  C   UNL A   1      38.467  31.112  33.007  1.00  0.00     0.016 A 
ATOM     33  C   UNL A   1      37.381  31.917  31.002  1.00  0.00     0.016 A 
ATOM     34  C   UNL A   1      39.288  30.278  32.238  1.00  0.00     0.010 A 
ATOM     35  C   UNL A   1      38.202  31.080  30.232  1.00  0.00     0.010 A 
ATOM     36  C   UNL A   1      39.199  30.295  30.841  1.00  0.00    -0.014 A 
BRANCH  36  37
ATOM     37  C   UNL A   1      40.328  29.767  30.021  1.00  0.00     0.031 A 
ATOM     38  C   UNL A   1      41.475  30.708  29.744  1.00  0.00     0.074 A 
ATOM     39  C   UNL A   1      40.394  28.502  29.563  1.00  0.00     0.049 A 
ATOM     40  N   UNL A   1      42.559  30.527  29.032  1.00  0.00    -0.248 NA
ATOM     41  C   UNL A   1      41.375  32.049  30.347  1.00  0.00     0.031 C 
ATOM     42  C   UNL A   1      39.394  27.460  29.778  1.00  0.00     0.029 A 
ATOM     43  N   UNL A   1      41.367  27.884  28.809  1.00  0.00    -0.354 N 
ATOM     44  C   UNL A   1      43.252  31.728  29.093  1.00  0.00     0.074 A 
ATOM     45  C   UNL A   1      42.449  32.648  29.865  1.00  0.00     0.031 C 
ATOM     46  C   UNL A   1      39.806  26.330  29.172  1.00  0.00     0.029 A 
ATOM     47  C   UNL A   1      41.086  26.573  28.504  1.00  0.00     0.049 A 
ATOM     48  H   UNL A   1      42.189  28.339  28.516  1.00  0.00     0.167 HD
ATOM     49  C   UNL A   1      44.462  32.042  28.576  1.00  0.00     0.037 A 
ATOM     50  C   UNL A   1      41.779  25.681  27.763  1.00  0.00     0.037 A 
ATOM     51  C   UNL A   1      45.293  31.140  27.832  1.00  0.00     0.049 A 
ATOM     52  C   UNL A   1      43.101  26.074  27.138  1.00  0.00     0.074 A 
ATOM     53  C   UNL A   1      46.542  31.372  27.288  1.00  0.00     0.029 A 
ATOM     54  N   UNL A   1      44.958  29.830  27.531  1.00  0.00    -0.354 N 
ATOM     55  N   UNL A   1      43.759  27.203  27.228  1.00  0.00    -0.248 NA
ATOM     56  C   UNL A   1      43.778  25.059  26.311  1.00  0.00     0.031 C 
ATOM     57  C   UNL A   1      46.947  30.216  26.616  1.00  0.00     0.029 A 
ATOM     58  C   UNL A   1      45.972  29.247  26.791  1.00  0.00     0.049 A 
ATOM     59  H   UNL A   1      44.124  29.381  27.801  1.00  0.00     0.167 HD
ATOM     60  C   UNL A   1      44.940  27.018  26.514  1.00  0.00     0.074 A 
ATOM     61  C   UNL A   1      44.911  25.670  25.993  1.00  0.00     0.031 C 
ATOM     62  C   UNL A   1      45.959  27.889  26.313  1.00  0.00     0.037 A 
BRANCH  49  63
ATOM     63  C   UNL A   1      44.954  33.441  28.793  1.00  0.00     0.064 A 
ATOM     64  C   UNL A   1      44.684  34.467  27.874  1.00  0.00     0.173 A 
ATOM     65  C   UNL A   1      45.694  33.760  29.941  1.00  0.00     0.173 A 
ATOM     66  F   UNL A   1      43.999  34.205  26.751  1.00  0.00    -0.203 F 
ATOM     67  C   UNL A   1      45.164  35.756  28.083  1.00  0.00     0.198 A 
ATOM     68  C   UNL A   1      46.144  35.057  30.161  1.00  0.00     0.198 A 
ATOM     69  F   UNL A   1      45.977  32.813  30.847  1.00  0.00    -0.203 F 
ATOM     70  F   UNL A   1      44.945  36.707  27.166  1.00  0.00    -0.200 F 
ATOM     71  C   UNL A   1      45.887  36.052  29.229  1.00  0.00     0.200 A 
ATOM     72  F   UNL A   1      46.834  35.344  31.274  1.00  0.00    -0.200 F 
ATOM     73  F   UNL A   1      46.346  37.294  29.431  1.00  0.00    -0.200 F 
ENDBRANCH  49  63
BRANCH  50  74
ATOM     74  C   UNL A   1      41.251  24.304  27.551  1.00  0.00     0.064 A 
ATOM     75  C   UNL A   1      41.877  23.192  28.133  1.00  0.00     0.173 A 
ATOM     76  C   UNL A   1      40.158  24.068  26.706  1.00  0.00     0.173 A 
ATOM     77  F   UNL A   1      42.948  23.362  28.920  1.00  0.00    -0.203 F 
ATOM     78  C   UNL A   1      41.447  21.895  27.855  1.00  0.00     0.198 A 
ATOM     79  C   UNL A   1      39.710  22.772  26.451  1.00  0.00     0.198 A 
ATOM     80  F   UNL A   1      39.530  25.095  26.115  1.00  0.00    -0.203 F 
ATOM     81  F   UNL A   1      42.103  20.847  28.373  1.00  0.00    -0.200 F 
ATOM     82  C   UNL A   1      40.362  21.686  27.017  1.00  0.00     0.200 A 
ATOM     83  F   UNL A   1      38.660  22.575  25.643  1.00  0.00    -0.200 F 
ATOM     84  F   UNL A   1      39.955  20.439  26.741  1.00  0.00    -0.200 F 
ENDBRANCH  50  74
BRANCH  62  85
ATOM     85  C   UNL A   1      47.172  27.414  25.564  1.00  0.00     0.064 A 
ATOM     86  C   UNL A   1      47.323  27.626  24.187  1.00  0.00     0.173 A 
ATOM     87  C   UNL A   1      48.241  26.828  26.260  1.00  0.00     0.173 A 
ATOM     88  F   UNL A   1      46.328  28.174  23.475  1.00  0.00    -0.203 F 
ATOM     89  C   UNL A   1      48.498  27.260  23.532  1.00  0.00     0.198 A 
ATOM     90  C   UNL A   1      49.424  26.491  25.608  1.00  0.00     0.198 A 
ATOM     91  F   UNL A   1      48.152  26.614  27.581  1.00  0.00    -0.203 F 
ATOM     92  F   UNL A   1      48.612  27.450  22.210  1.00  0.00    -0.200 F 
ATOM     93  C   UNL A   1      49.551  26.704  24.244  1.00  0.00     0.200 A 
ATOM     94  F   UNL A   1      50.446  25.971  26.301  1.00  0.00    -0.200 F 
ATOM     95  F   UNL A   1      50.688  26.376  23.616  1.00  0.00    -0.200 F 
ENDBRANCH  62  85
ENDBRANCH  36  37
ENDBRANCH  29  31
ENDBRANCH  28  29
ENDBRANCH  27  28
ENDBRANCH  26  27
ENDBRANCH  25  26
ENDBRANCH  24  25
ENDBRANCH  23  24
ENDBRANCH  22  23
ENDBRANCH   1  22
TORSDOF 23
ENDMDL
MODEL 3
REMARK VINA RESULT:      -9.3      5.095      7.597
REMARK SMILES C[N@@H+]1CCC[C@@H](C[NH2+]CC(=O)OCCOCCOCCOCCOC(=O)c2ccc(-c3c4nc(c(-c5c(F)c(F)c(F)c(F)c5F)c5ccc([nH]5)c(-c5c(F)c(F)c(F)c(F)c5F)c5nc(c(-c6c(F)c(F)c(F)c(F)c6F)c6ccc3[nH]6)C=C5)C=C4)cc2)C1
REMARK SMILES IDX 17 1 16 2 15 3 14 4 13 5 12 6 10 7 11 8 9 9 8 10 7 13 6 14
REMARK SMILES IDX 1 15 2 16 3 17 90 18 4 20 5 21 18 22 19 23 20 24 21 25 22 26
REMARK SMILES IDX 23 27 24 28 25 29 26 30 27 31 28 32 89 33 29 34 88 35 30 36
REMARK SMILES IDX 31 37 32 38 82 39 33 40 87 41 81 42 83 43 34 44 86 45 80 46
REMARK SMILES IDX 79 47 35 49 67 50 47 51 66 52 48 53 51 54 65 55 84 56 49 57
REMARK SMILES IDX 50 58 64 60 85 61 52 62 36 63 37 64 45 65 38 66 39 67 43 68
REMARK SMILES IDX 46 69 40 70 41 71 44 72 42 73 68 74 69 75 77 76 70 77 71 78
REMARK SMILES IDX 75 79 78 80 72 81 73 82 76 83 74 84 53 85 54 86 62 87 55 88
REMARK SMILES IDX 56 89 60 90 63 91 57 92 58 93 61 94 59 95
REMARK H PARENT 8 11 8 12 2 19 83 48 51 59
REMARK Flexibility Score: inf
ROOT
ATOM      1  C   UNL A   1      37.509  21.217  25.209  1.00  0.00     0.188 C 
ENDROOT
BRANCH   1   2
ATOM      2  C   UNL A   1      36.286  21.955  24.654  1.00  0.00     0.188 C 
BRANCH   2   3
ATOM      3  O   UNL A   1      36.330  23.354  24.832  1.00  0.00    -0.376 OA
BRANCH   3   4
ATOM      4  C   UNL A   1      35.121  24.085  24.992  1.00  0.00     0.202 C 
BRANCH   4   5
ATOM      5  C   UNL A   1      34.264  24.680  23.848  1.00  0.00     0.261 C 
BRANCH   5   6
ATOM      6  O   UNL A   1      32.926  24.202  23.650  1.00  0.00    -0.459 OA
BRANCH   6   7
ATOM      7  C   UNL A   1      32.760  23.085  22.910  1.00  0.00     0.361 C 
ATOM      8  O   UNL A   1      33.219  22.950  21.779  1.00  0.00    -0.245 OA
BRANCH   7   9
ATOM      9  C   UNL A   1      31.923  21.986  23.572  1.00  0.00     0.384 C 
BRANCH   9  10
ATOM     10  N   UNL A   1      32.534  21.076  24.566  1.00  0.00    -0.337 N 
ATOM     11  H   UNL A   1      33.512  21.345  24.680  1.00  0.00     0.346 HD
ATOM     12  H   UNL A   1      31.979  21.176  25.416  1.00  0.00     0.346 HD
BRANCH  10  13
ATOM     13  C   UNL A   1      32.496  19.653  24.228  1.00  0.00     0.270 C 
BRANCH  13  14
ATOM     14  C   UNL A   1      33.414  18.799  25.142  1.00  0.00     0.099 C 
ATOM     15  C   UNL A   1      31.925  15.333  25.745  1.00  0.00     0.332 C 
ATOM     16  N   UNL A   1      32.447  16.454  24.964  1.00  0.00    -0.337 N 
ATOM     17  C   UNL A   1      33.592  16.021  24.159  1.00  0.00     0.262 C 
ATOM     18  C   UNL A   1      32.751  17.592  25.843  1.00  0.00     0.271 C 
ATOM     19  H   UNL A   1      31.736  16.780  24.308  1.00  0.00     0.347 HD
ATOM     20  C   UNL A   1      34.252  17.168  23.401  1.00  0.00     0.062 C 
ATOM     21  C   UNL A   1      34.635  18.298  24.351  1.00  0.00     0.021 C 
ENDBRANCH  13  14
ENDBRANCH  10  13
ENDBRANCH   9  10
ENDBRANCH   7   9
ENDBRANCH   6   7
ENDBRANCH   5   6
ENDBRANCH   4   5
ENDBRANCH   3   4
ENDBRANCH   2   3
ENDBRANCH   1   2
BRANCH   1  22
ATOM     22  O   UNL A   1      38.697  21.981  25.362  1.00  0.00    -0.377 OA
BRANCH  22  23
ATOM     23  C   UNL A   1      39.544  21.676  26.463  1.00  0.00     0.188 C 
BRANCH  23  24
ATOM     24  C   UNL A   1      40.425  20.452  26.297  1.00  0.00     0.188 C 
BRANCH  24  25
ATOM     25  O   UNL A   1      41.643  20.495  27.025  1.00  0.00    -0.376 OA
BRANCH  25  26
ATOM     26  C   UNL A   1      42.290  19.237  27.227  1.00  0.00     0.202 C 
BRANCH  26  27
ATOM     27  C   UNL A   1      42.892  18.550  25.981  1.00  0.00     0.261 C 
BRANCH  27  28
ATOM     28  O   UNL A   1      43.106  19.372  24.807  1.00  0.00    -0.460 OA
BRANCH  28  29
ATOM     29  C   UNL A   1      44.373  19.571  24.358  1.00  0.00     0.338 C 
ATOM     30  O   UNL A   1      45.003  18.849  23.628  1.00  0.00    -0.246 OA
BRANCH  29  31
ATOM     31  C   UNL A   1      44.774  20.973  24.704  1.00  0.00     0.060 A 
ATOM     32  C   UNL A   1      45.354  21.207  25.962  1.00  0.00     0.016 A 
ATOM     33  C   UNL A   1      44.649  22.032  23.801  1.00  0.00     0.016 A 
ATOM     34  C   UNL A   1      45.750  22.497  26.336  1.00  0.00     0.010 A 
ATOM     35  C   UNL A   1      45.047  23.323  24.174  1.00  0.00     0.010 A 
ATOM     36  C   UNL A   1      45.550  23.575  25.465  1.00  0.00    -0.014 A 
BRANCH  36  37
ATOM     37  C   UNL A   1      45.554  24.967  25.999  1.00  0.00     0.031 A 
ATOM     38  C   UNL A   1      46.860  25.721  25.944  1.00  0.00     0.074 A 
ATOM     39  C   UNL A   1      44.460  25.589  26.479  1.00  0.00     0.049 A 
ATOM     40  N   UNL A   1      47.157  26.923  26.370  1.00  0.00    -0.248 NA
ATOM     41  C   UNL A   1      47.994  25.009  25.329  1.00  0.00     0.031 C 
ATOM     42  C   UNL A   1      43.118  25.019  26.563  1.00  0.00     0.029 A 
ATOM     43  N   UNL A   1      44.317  26.860  26.993  1.00  0.00    -0.354 N 
ATOM     44  C   UNL A   1      48.505  27.097  26.090  1.00  0.00     0.074 A 
ATOM     45  C   UNL A   1      48.984  25.867  25.504  1.00  0.00     0.031 C 
ATOM     46  C   UNL A   1      42.287  25.937  27.094  1.00  0.00     0.029 A 
ATOM     47  C   UNL A   1      43.041  27.152  27.412  1.00  0.00     0.049 A 
ATOM     48  H   UNL A   1      45.062  27.500  27.053  1.00  0.00     0.167 HD
ATOM     49  C   UNL A   1      49.282  28.190  26.276  1.00  0.00     0.037 A 
ATOM     50  C   UNL A   1      42.546  28.266  27.993  1.00  0.00     0.037 A 
ATOM     51  C   UNL A   1      48.825  29.433  26.827  1.00  0.00     0.049 A 
ATOM     52  C   UNL A   1      43.448  29.454  28.253  1.00  0.00     0.074 A 
ATOM     53  C   UNL A   1      49.542  30.597  27.033  1.00  0.00     0.029 A 
ATOM     54  N   UNL A   1      47.531  29.674  27.256  1.00  0.00    -0.354 N 
ATOM     55  N   UNL A   1      44.714  29.617  27.956  1.00  0.00    -0.248 NA
ATOM     56  C   UNL A   1      42.845  30.617  28.927  1.00  0.00     0.031 C 
ATOM     57  C   UNL A   1      48.693  31.532  27.630  1.00  0.00     0.029 A 
ATOM     58  C   UNL A   1      47.433  30.966  27.744  1.00  0.00     0.049 A 
ATOM     59  H   UNL A   1      46.791  29.026  27.220  1.00  0.00     0.167 HD
ATOM     60  C   UNL A   1      45.041  30.908  28.361  1.00  0.00     0.074 A 
ATOM     61  C   UNL A   1      43.844  31.488  28.928  1.00  0.00     0.031 C 
ATOM     62  C   UNL A   1      46.228  31.555  28.266  1.00  0.00     0.037 A 
BRANCH  49  63
ATOM     63  C   UNL A   1      50.724  28.076  25.885  1.00  0.00     0.064 A 
ATOM     64  C   UNL A   1      51.137  28.200  24.550  1.00  0.00     0.173 A 
ATOM     65  C   UNL A   1      51.706  27.854  26.862  1.00  0.00     0.173 A 
ATOM     66  F   UNL A   1      50.232  28.391  23.578  1.00  0.00    -0.203 F 
ATOM     67  C   UNL A   1      52.478  28.074  24.203  1.00  0.00     0.198 A 
ATOM     68  C   UNL A   1      53.049  27.761  26.515  1.00  0.00     0.198 A 
ATOM     69  F   UNL A   1      51.359  27.729  28.152  1.00  0.00    -0.203 F 
ATOM     70  F   UNL A   1      52.844  28.137  22.916  1.00  0.00    -0.200 F 
ATOM     71  C   UNL A   1      53.434  27.862  25.186  1.00  0.00     0.200 A 
ATOM     72  F   UNL A   1      53.973  27.567  27.467  1.00  0.00    -0.200 F 
ATOM     73  F   UNL A   1      54.725  27.745  24.851  1.00  0.00    -0.200 F 
ENDBRANCH  49  63
BRANCH  50  74
ATOM     74  C   UNL A   1      41.111  28.338  28.387  1.00  0.00     0.064 A 
ATOM     75  C   UNL A   1      40.150  28.884  27.523  1.00  0.00     0.173 A 
ATOM     76  C   UNL A   1      40.686  27.931  29.659  1.00  0.00     0.173 A 
ATOM     77  F   UNL A   1      40.514  29.322  26.309  1.00  0.00    -0.203 F 
ATOM     78  C   UNL A   1      38.825  29.045  27.927  1.00  0.00     0.198 A 
ATOM     79  C   UNL A   1      39.354  28.066  30.052  1.00  0.00     0.198 A 
ATOM     80  F   UNL A   1      41.565  27.412  30.528  1.00  0.00    -0.203 F 
ATOM     81  F   UNL A   1      37.942  29.630  27.105  1.00  0.00    -0.200 F 
ATOM     82  C   UNL A   1      38.428  28.633  29.190  1.00  0.00     0.200 A 
ATOM     83  F   UNL A   1      38.974  27.663  31.272  1.00  0.00    -0.200 F 
ATOM     84  F   UNL A   1      37.158  28.799  29.582  1.00  0.00    -0.200 F 
ENDBRANCH  50  74
BRANCH  62  85
ATOM     85  C   UNL A   1      46.301  32.989  28.709  1.00  0.00     0.064 A 
ATOM     86  C   UNL A   1      46.691  33.345  30.007  1.00  0.00     0.173 A 
ATOM     87  C   UNL A   1      46.076  34.021  27.785  1.00  0.00     0.173 A 
ATOM     88  F   UNL A   1      46.910  32.397  30.930  1.00  0.00    -0.203 F 
ATOM     89  C   UNL A   1      46.842  34.683  30.366  1.00  0.00     0.198 A 
ATOM     90  C   UNL A   1      46.256  35.355  28.139  1.00  0.00     0.198 A 
ATOM     91  F   UNL A   1      45.713  33.734  26.525  1.00  0.00    -0.203 F 
ATOM     92  F   UNL A   1      47.192  35.002  31.621  1.00  0.00    -0.200 F 
ATOM     93  C   UNL A   1      46.636  35.686  29.430  1.00  0.00     0.200 A 
ATOM     94  F   UNL A   1      46.074  36.321  27.227  1.00  0.00    -0.200 F 
ATOM     95  F   UNL A   1      46.806  36.971  29.772  1.00  0.00    -0.200 F 
ENDBRANCH  62  85
ENDBRANCH  36  37
ENDBRANCH  29  31
ENDBRANCH  28  29
ENDBRANCH  27  28
ENDBRANCH  26  27
ENDBRANCH  25  26
ENDBRANCH  24  25
ENDBRANCH  23  24
ENDBRANCH  22  23
ENDBRANCH   1  22
TORSDOF 23
ENDMDL
