MODEL 1
REMARK VINA RESULT:     -10.9      0.000      0.000
REMARK SMILES Cc1c(Cl)cc2c(c1C)O[C@@H](C(F)(F)F)C(C(=O)OCCOCCOCCOCCOC(=O)c1ccc(-c3c4nc(c(-c5c(F)c(F)c(F)c(F)c5F)c5ccc([nH]5)c(-c5c(F)c(F)c(F)c(F)c5F)c5nc(c(-c6c(F)c(F)c(F)c(F)c6F)c6ccc3[nH]6)C=C5)C=C4)cc1)=C2
REMARK SMILES IDX 26 1 25 2 24 3 23 4 22 5 21 6 20 7 19 8 17 9 18 10 16 11
REMARK SMILES IDX 1 12 2 13 3 14 8 15 4 16 5 17 7 18 9 19 6 20 10 21 97 22
REMARK SMILES IDX 11 23 12 24 13 25 14 26 15 27 27 28 28 29 29 30 30 31 31 32
REMARK SMILES IDX 32 33 33 34 34 35 35 36 96 37 36 38 95 39 37 40 38 41 39 42
REMARK SMILES IDX 89 43 40 44 94 45 88 46 90 47 41 48 93 49 87 50 86 51 42 53
REMARK SMILES IDX 74 54 54 55 73 56 55 57 58 58 72 59 91 60 56 61 57 62 71 64
REMARK SMILES IDX 92 65 59 66 43 67 44 68 52 69 45 70 46 71 50 72 53 73 47 74
REMARK SMILES IDX 48 75 51 76 49 77 75 78 76 79 84 80 77 81 78 82 82 83 85 84
REMARK SMILES IDX 79 85 80 86 83 87 81 88 60 89 61 90 69 91 62 92 63 93 67 94
REMARK SMILES IDX 70 95 64 96 65 97 68 98 66 99
REMARK H PARENT 90 52 58 63
REMARK Flexibility Score: inf
ROOT
ATOM      1  C   UNL A   1      41.704  19.440  25.774  1.00  0.00     0.188 C 
ENDROOT
BRANCH   1   2
ATOM      2  O   UNL A   1      40.972  19.600  26.982  1.00  0.00    -0.377 OA
BRANCH   2   3
ATOM      3  C   UNL A   1      40.918  20.908  27.509  1.00  0.00     0.188 C 
BRANCH   3   4
ATOM      4  C   UNL A   1      40.533  21.988  26.484  1.00  0.00     0.188 C 
BRANCH   4   5
ATOM      5  O   UNL A   1      39.180  22.188  26.089  1.00  0.00    -0.376 OA
BRANCH   5   6
ATOM      6  C   UNL A   1      38.384  21.113  25.603  1.00  0.00     0.202 C 
BRANCH   6   7
ATOM      7  C   UNL A   1      37.046  21.406  24.909  1.00  0.00     0.261 C 
BRANCH   7   8
ATOM      8  O   UNL A   1      36.405  22.616  25.350  1.00  0.00    -0.460 OA
BRANCH   8   9
ATOM      9  C   UNL A   1      35.167  22.466  25.859  1.00  0.00     0.338 C 
ATOM     10  O   UNL A   1      34.852  21.749  26.796  1.00  0.00    -0.246 OA
BRANCH   9  11
ATOM     11  C   UNL A   1      34.225  23.412  25.236  1.00  0.00     0.087 C 
ATOM     12  C   UNL A   1      30.542  28.731  24.449  1.00  0.00     0.046 C 
ATOM     13  C   UNL A   1      31.588  27.651  24.568  1.00  0.00    -0.026 A 
ATOM     14  C   UNL A   1      32.929  28.016  24.815  1.00  0.00     0.045 A 
ATOM     15  C   UNL A   1      31.273  26.275  24.434  1.00  0.00    -0.004 A 
ATOM     16  Cl  UNL A   1      33.431  29.672  24.898  1.00  0.00    -0.084 Cl
ATOM     17  C   UNL A   1      33.914  27.052  25.022  1.00  0.00     0.032 A 
ATOM     18  C   UNL A   1      32.276  25.311  24.679  1.00  0.00     0.131 A 
ATOM     19  C   UNL A   1      29.905  25.772  24.047  1.00  0.00     0.049 C 
ATOM     20  C   UNL A   1      33.581  25.700  24.992  1.00  0.00     0.019 A 
ATOM     21  O   UNL A   1      31.890  23.992  24.692  1.00  0.00    -0.475 OA
ATOM     22  C   UNL A   1      34.550  24.702  25.397  1.00  0.00     0.027 C 
ATOM     23  C   UNL A   1      32.928  22.966  24.622  1.00  0.00     0.316 C 
BRANCH  23  24
ATOM     24  C   UNL A   1      32.993  22.442  23.175  1.00  0.00     0.430 C 
ATOM     25  F   UNL A   1      34.256  22.389  22.693  1.00  0.00    -0.167 F 
ATOM     26  F   UNL A   1      32.436  21.219  23.047  1.00  0.00    -0.167 F 
ATOM     27  F   UNL A   1      32.294  23.258  22.341  1.00  0.00    -0.167 F 
ENDBRANCH  23  24
ENDBRANCH   9  11
ENDBRANCH   8   9
ENDBRANCH   7   8
ENDBRANCH   6   7
ENDBRANCH   5   6
ENDBRANCH   4   5
ENDBRANCH   3   4
ENDBRANCH   2   3
ENDBRANCH   1   2
BRANCH   1  28
ATOM     28  C   UNL A   1      43.226  19.270  25.906  1.00  0.00     0.188 C 
BRANCH  28  29
ATOM     29  O   UNL A   1      43.938  20.007  24.911  1.00  0.00    -0.376 OA
BRANCH  29  30
ATOM     30  C   UNL A   1      44.320  21.336  25.259  1.00  0.00     0.202 C 
BRANCH  30  31
ATOM     31  C   UNL A   1      43.964  22.422  24.229  1.00  0.00     0.261 C 
BRANCH  31  32
ATOM     32  O   UNL A   1      43.325  23.608  24.740  1.00  0.00    -0.460 OA
BRANCH  32  33
ATOM     33  C   UNL A   1      44.076  24.698  24.997  1.00  0.00     0.338 C 
ATOM     34  O   UNL A   1      45.096  25.044  24.429  1.00  0.00    -0.246 OA
BRANCH  33  35
ATOM     35  C   UNL A   1      43.329  25.537  25.960  1.00  0.00     0.060 A 
ATOM     36  C   UNL A   1      43.772  26.844  26.199  1.00  0.00     0.016 A 
ATOM     37  C   UNL A   1      42.193  25.048  26.611  1.00  0.00     0.016 A 
ATOM     38  C   UNL A   1      43.097  27.655  27.112  1.00  0.00     0.010 A 
ATOM     39  C   UNL A   1      41.532  25.853  27.545  1.00  0.00     0.010 A 
ATOM     40  C   UNL A   1      42.001  27.148  27.823  1.00  0.00    -0.014 A 
BRANCH  40  41
ATOM     41  C   UNL A   1      41.505  27.886  29.010  1.00  0.00     0.031 A 
ATOM     42  C   UNL A   1      42.266  27.735  30.300  1.00  0.00     0.074 A 
ATOM     43  C   UNL A   1      40.442  28.708  28.948  1.00  0.00     0.049 A 
ATOM     44  N   UNL A   1      42.060  28.301  31.461  1.00  0.00    -0.248 NA
ATOM     45  C   UNL A   1      43.421  26.822  30.273  1.00  0.00     0.031 C 
ATOM     46  C   UNL A   1      39.644  28.969  27.754  1.00  0.00     0.029 A 
ATOM     47  N   UNL A   1      39.857  29.480  29.923  1.00  0.00    -0.354 N 
ATOM     48  C   UNL A   1      43.066  27.830  32.291  1.00  0.00     0.074 A 
ATOM     49  C   UNL A   1      43.856  26.895  31.521  1.00  0.00     0.031 C 
ATOM     50  C   UNL A   1      38.672  29.846  28.065  1.00  0.00     0.029 A 
ATOM     51  C   UNL A   1      38.767  30.192  29.484  1.00  0.00     0.049 A 
ATOM     52  H   UNL A   1      40.188  29.520  30.849  1.00  0.00     0.167 HD
ATOM     53  C   UNL A   1      43.327  28.164  33.576  1.00  0.00     0.037 A 
ATOM     54  C   UNL A   1      37.942  31.020  30.156  1.00  0.00     0.037 A 
ATOM     55  C   UNL A   1      42.541  29.083  34.348  1.00  0.00     0.049 A 
ATOM     56  C   UNL A   1      38.184  31.286  31.622  1.00  0.00     0.074 A 
ATOM     57  C   UNL A   1      42.739  29.500  35.653  1.00  0.00     0.029 A 
ATOM     58  N   UNL A   1      41.399  29.721  33.891  1.00  0.00    -0.354 N 
ATOM     59  N   UNL A   1      39.168  30.877  32.386  1.00  0.00    -0.248 NA
ATOM     60  C   UNL A   1      37.198  32.127  32.320  1.00  0.00     0.031 C 
ATOM     61  C   UNL A   1      41.686  30.348  36.002  1.00  0.00     0.029 A 
ATOM     62  C   UNL A   1      40.857  30.496  34.901  1.00  0.00     0.049 A 
ATOM     63  H   UNL A   1      41.028  29.634  32.982  1.00  0.00     0.167 HD
ATOM     64  C   UNL A   1      38.929  31.417  33.644  1.00  0.00     0.074 A 
ATOM     65  C   UNL A   1      37.718  32.202  33.539  1.00  0.00     0.031 C 
ATOM     66  C   UNL A   1      39.649  31.273  34.783  1.00  0.00     0.037 A 
BRANCH  53  67
ATOM     67  C   UNL A   1      44.515  27.525  34.229  1.00  0.00     0.064 A 
ATOM     68  C   UNL A   1      45.791  28.102  34.147  1.00  0.00     0.173 A 
ATOM     69  C   UNL A   1      44.369  26.353  34.985  1.00  0.00     0.173 A 
ATOM     70  F   UNL A   1      45.982  29.216  33.423  1.00  0.00    -0.203 F 
ATOM     71  C   UNL A   1      46.881  27.519  34.784  1.00  0.00     0.198 A 
ATOM     72  C   UNL A   1      45.458  25.786  35.642  1.00  0.00     0.198 A 
ATOM     73  F   UNL A   1      43.169  25.763  35.094  1.00  0.00    -0.203 F 
ATOM     74  F   UNL A   1      48.098  28.068  34.663  1.00  0.00    -0.200 F 
ATOM     75  C   UNL A   1      46.713  26.367  35.538  1.00  0.00     0.200 A 
ATOM     76  F   UNL A   1      45.292  24.679  36.378  1.00  0.00    -0.200 F 
ATOM     77  F   UNL A   1      47.762  25.814  36.161  1.00  0.00    -0.200 F 
ENDBRANCH  53  67
BRANCH  54  78
ATOM     78  C   UNL A   1      36.802  31.666  29.453  1.00  0.00     0.064 A 
ATOM     79  C   UNL A   1      36.790  33.047  29.214  1.00  0.00     0.173 A 
ATOM     80  C   UNL A   1      35.695  30.921  29.018  1.00  0.00     0.173 A 
ATOM     81  F   UNL A   1      37.811  33.808  29.637  1.00  0.00    -0.203 F 
ATOM     82  C   UNL A   1      35.714  33.660  28.574  1.00  0.00     0.198 A 
ATOM     83  C   UNL A   1      34.630  31.532  28.357  1.00  0.00     0.198 A 
ATOM     84  F   UNL A   1      35.650  29.598  29.232  1.00  0.00    -0.203 F 
ATOM     85  F   UNL A   1      35.713  34.988  28.393  1.00  0.00    -0.200 F 
ATOM     86  C   UNL A   1      34.638  32.900  28.140  1.00  0.00     0.200 A 
ATOM     87  F   UNL A   1      33.595  30.792  27.933  1.00  0.00    -0.200 F 
ATOM     88  F   UNL A   1      33.606  33.488  27.520  1.00  0.00    -0.200 F 
ENDBRANCH  54  78
BRANCH  66  89
ATOM     89  C   UNL A   1      39.159  31.961  36.023  1.00  0.00     0.064 A 
ATOM     90  C   UNL A   1      39.499  33.295  36.294  1.00  0.00     0.173 A 
ATOM     91  C   UNL A   1      38.245  31.328  36.880  1.00  0.00     0.173 A 
ATOM     92  F   UNL A   1      40.376  33.940  35.511  1.00  0.00    -0.203 F 
ATOM     93  C   UNL A   1      38.940  33.969  37.376  1.00  0.00     0.198 A 
ATOM     94  C   UNL A   1      37.668  32.013  37.945  1.00  0.00     0.198 A 
ATOM     95  F   UNL A   1      37.881  30.056  36.657  1.00  0.00    -0.203 F 
ATOM     96  F   UNL A   1      39.289  35.239  37.626  1.00  0.00    -0.200 F 
ATOM     97  C   UNL A   1      38.015  33.333  38.192  1.00  0.00     0.200 A 
ATOM     98  F   UNL A   1      36.761  31.403  38.721  1.00  0.00    -0.200 F 
ATOM     99  F   UNL A   1      37.455  33.993  39.215  1.00  0.00    -0.200 F 
ENDBRANCH  66  89
ENDBRANCH  40  41
ENDBRANCH  33  35
ENDBRANCH  32  33
ENDBRANCH  31  32
ENDBRANCH  30  31
ENDBRANCH  29  30
ENDBRANCH  28  29
ENDBRANCH   1  28
TORSDOF 21
ENDMDL
MODEL 2
REMARK VINA RESULT:     -10.0      3.854      4.903
REMARK SMILES Cc1c(Cl)cc2c(c1C)O[C@@H](C(F)(F)F)C(C(=O)OCCOCCOCCOCCOC(=O)c1ccc(-c3c4nc(c(-c5c(F)c(F)c(F)c(F)c5F)c5ccc([nH]5)c(-c5c(F)c(F)c(F)c(F)c5F)c5nc(c(-c6c(F)c(F)c(F)c(F)c6F)c6ccc3[nH]6)C=C5)C=C4)cc1)=C2
REMARK SMILES IDX 26 1 25 2 24 3 23 4 22 5 21 6 20 7 19 8 17 9 18 10 16 11
REMARK SMILES IDX 1 12 2 13 3 14 8 15 4 16 5 17 7 18 9 19 6 20 10 21 97 22
REMARK SMILES IDX 11 23 12 24 13 25 14 26 15 27 27 28 28 29 29 30 30 31 31 32
REMARK SMILES IDX 32 33 33 34 34 35 35 36 96 37 36 38 95 39 37 40 38 41 39 42
REMARK SMILES IDX 89 43 40 44 94 45 88 46 90 47 41 48 93 49 87 50 86 51 42 53
REMARK SMILES IDX 74 54 54 55 73 56 55 57 58 58 72 59 91 60 56 61 57 62 71 64
REMARK SMILES IDX 92 65 59 66 43 67 44 68 52 69 45 70 46 71 50 72 53 73 47 74
REMARK SMILES IDX 48 75 51 76 49 77 75 78 76 79 84 80 77 81 78 82 82 83 85 84
REMARK SMILES IDX 79 85 80 86 83 87 81 88 60 89 61 90 69 91 62 92 63 93 67 94
REMARK SMILES IDX 70 95 64 96 65 97 68 98 66 99
REMARK H PARENT 90 52 58 63
REMARK Flexibility Score: inf
ROOT
ATOM      1  C   UNL A   1      40.630  20.365  26.398  1.00  0.00     0.188 C 
ENDROOT
BRANCH   1   2
ATOM      2  O   UNL A   1      39.944  21.498  26.912  1.00  0.00    -0.377 OA
BRANCH   2   3
ATOM      3  C   UNL A   1      38.980  22.082  26.060  1.00  0.00     0.188 C 
BRANCH   3   4
ATOM      4  C   UNL A   1      38.089  21.067  25.325  1.00  0.00     0.188 C 
BRANCH   4   5
ATOM      5  O   UNL A   1      36.835  21.446  24.767  1.00  0.00    -0.376 OA
BRANCH   5   6
ATOM      6  C   UNL A   1      35.608  20.982  25.318  1.00  0.00     0.202 C 
BRANCH   6   7
ATOM      7  C   UNL A   1      34.281  21.328  24.629  1.00  0.00     0.261 C 
BRANCH   7   8
ATOM      8  O   UNL A   1      34.392  22.337  23.609  1.00  0.00    -0.460 OA
BRANCH   8   9
ATOM      9  C   UNL A   1      33.232  22.717  23.038  1.00  0.00     0.338 C 
ATOM     10  O   UNL A   1      32.499  22.020  22.355  1.00  0.00    -0.246 OA
BRANCH   9  11
ATOM     11  C   UNL A   1      32.856  24.074  23.470  1.00  0.00     0.087 C 
ATOM     12  C   UNL A   1      29.838  29.851  23.500  1.00  0.00     0.046 C 
ATOM     13  C   UNL A   1      30.318  28.424  23.586  1.00  0.00    -0.026 A 
ATOM     14  C   UNL A   1      29.371  27.377  23.570  1.00  0.00     0.045 A 
ATOM     15  C   UNL A   1      31.693  28.094  23.689  1.00  0.00    -0.004 A 
ATOM     16  Cl  UNL A   1      27.666  27.679  23.544  1.00  0.00    -0.084 Cl
ATOM     17  C   UNL A   1      29.771  26.042  23.556  1.00  0.00     0.032 A 
ATOM     18  C   UNL A   1      32.083  26.737  23.642  1.00  0.00     0.131 A 
ATOM     19  C   UNL A   1      32.784  29.124  23.841  1.00  0.00     0.049 C 
ATOM     20  C   UNL A   1      31.126  25.722  23.554  1.00  0.00     0.019 A 
ATOM     21  O   UNL A   1      33.430  26.471  23.587  1.00  0.00    -0.475 OA
ATOM     22  C   UNL A   1      31.551  24.352  23.343  1.00  0.00     0.027 C 
ATOM     23  C   UNL A   1      33.877  25.107  23.856  1.00  0.00     0.316 C 
BRANCH  23  24
ATOM     24  C   UNL A   1      34.405  25.048  25.302  1.00  0.00     0.430 C 
ATOM     25  F   UNL A   1      35.653  24.534  25.384  1.00  0.00    -0.167 F 
ATOM     26  F   UNL A   1      34.403  26.260  25.898  1.00  0.00    -0.167 F 
ATOM     27  F   UNL A   1      33.608  24.255  26.068  1.00  0.00    -0.167 F 
ENDBRANCH  23  24
ENDBRANCH   9  11
ENDBRANCH   8   9
ENDBRANCH   7   8
ENDBRANCH   6   7
ENDBRANCH   5   6
ENDBRANCH   4   5
ENDBRANCH   3   4
ENDBRANCH   2   3
ENDBRANCH   1   2
BRANCH   1  28
ATOM     28  C   UNL A   1      42.166  20.404  26.448  1.00  0.00     0.188 C 
BRANCH  28  29
ATOM     29  O   UNL A   1      42.719  21.191  25.392  1.00  0.00    -0.376 OA
BRANCH  29  30
ATOM     30  C   UNL A   1      43.060  22.537  25.716  1.00  0.00     0.202 C 
BRANCH  30  31
ATOM     31  C   UNL A   1      43.760  23.333  24.601  1.00  0.00     0.261 C 
BRANCH  31  32
ATOM     32  O   UNL A   1      43.803  24.764  24.763  1.00  0.00    -0.460 OA
BRANCH  32  33
ATOM     33  C   UNL A   1      44.984  25.357  25.029  1.00  0.00     0.338 C 
ATOM     34  O   UNL A   1      46.067  25.106  24.531  1.00  0.00    -0.246 OA
BRANCH  33  35
ATOM     35  C   UNL A   1      44.710  26.532  25.886  1.00  0.00     0.060 A 
ATOM     36  C   UNL A   1      45.783  27.162  26.528  1.00  0.00     0.016 A 
ATOM     37  C   UNL A   1      43.409  27.018  26.045  1.00  0.00     0.016 A 
ATOM     38  C   UNL A   1      45.554  28.263  27.354  1.00  0.00     0.010 A 
ATOM     39  C   UNL A   1      43.177  28.107  26.893  1.00  0.00     0.010 A 
ATOM     40  C   UNL A   1      44.246  28.713  27.576  1.00  0.00    -0.014 A 
BRANCH  40  41
ATOM     41  C   UNL A   1      43.984  29.652  28.694  1.00  0.00     0.031 A 
ATOM     42  C   UNL A   1      43.764  29.069  30.065  1.00  0.00     0.074 A 
ATOM     43  C   UNL A   1      43.986  30.986  28.522  1.00  0.00     0.049 A 
ATOM     44  N   UNL A   1      43.556  29.676  31.205  1.00  0.00    -0.248 NA
ATOM     45  C   UNL A   1      43.787  27.600  30.160  1.00  0.00     0.031 C 
ATOM     46  C   UNL A   1      44.222  31.675  27.257  1.00  0.00     0.029 A 
ATOM     47  N   UNL A   1      43.788  32.000  29.429  1.00  0.00    -0.354 N 
ATOM     48  C   UNL A   1      43.444  28.667  32.150  1.00  0.00     0.074 A 
ATOM     49  C   UNL A   1      43.558  27.407  31.450  1.00  0.00     0.031 C 
ATOM     50  C   UNL A   1      44.159  33.003  27.468  1.00  0.00     0.029 A 
ATOM     51  C   UNL A   1      43.858  33.256  28.878  1.00  0.00     0.049 A 
ATOM     52  H   UNL A   1      43.613  31.841  30.384  1.00  0.00     0.167 HD
ATOM     53  C   UNL A   1      43.285  28.777  33.489  1.00  0.00     0.037 A 
ATOM     54  C   UNL A   1      43.690  34.466  29.448  1.00  0.00     0.037 A 
ATOM     55  C   UNL A   1      43.162  30.024  34.189  1.00  0.00     0.049 A 
ATOM     56  C   UNL A   1      43.396  34.560  30.926  1.00  0.00     0.074 A 
ATOM     57  C   UNL A   1      43.017  30.238  35.548  1.00  0.00     0.029 A 
ATOM     58  N   UNL A   1      43.157  31.271  33.582  1.00  0.00    -0.354 N 
ATOM     59  N   UNL A   1      43.342  33.603  31.821  1.00  0.00    -0.248 NA
ATOM     60  C   UNL A   1      43.135  35.902  31.472  1.00  0.00     0.031 C 
ATOM     61  C   UNL A   1      42.871  31.611  35.758  1.00  0.00     0.029 A 
ATOM     62  C   UNL A   1      42.970  32.257  34.536  1.00  0.00     0.049 A 
ATOM     63  H   UNL A   1      43.269  31.431  32.617  1.00  0.00     0.167 HD
ATOM     64  C   UNL A   1      43.057  34.224  33.032  1.00  0.00     0.074 A 
ATOM     65  C   UNL A   1      42.967  35.643  32.763  1.00  0.00     0.031 C 
ATOM     66  C   UNL A   1      42.882  33.666  34.254  1.00  0.00     0.037 A 
BRANCH  53  67
ATOM     67  C   UNL A   1      43.233  27.509  34.287  1.00  0.00     0.064 A 
ATOM     68  C   UNL A   1      44.396  26.930  34.813  1.00  0.00     0.173 A 
ATOM     69  C   UNL A   1      42.004  26.895  34.569  1.00  0.00     0.173 A 
ATOM     70  F   UNL A   1      45.596  27.475  34.557  1.00  0.00    -0.203 F 
ATOM     71  C   UNL A   1      44.334  25.771  35.580  1.00  0.00     0.198 A 
ATOM     72  C   UNL A   1      41.944  25.749  35.358  1.00  0.00     0.198 A 
ATOM     73  F   UNL A   1      40.863  27.411  34.088  1.00  0.00    -0.203 F 
ATOM     74  F   UNL A   1      45.462  25.215  36.043  1.00  0.00    -0.200 F 
ATOM     75  C   UNL A   1      43.108  25.186  35.859  1.00  0.00     0.200 A 
ATOM     76  F   UNL A   1      40.757  25.191  35.634  1.00  0.00    -0.200 F 
ATOM     77  F   UNL A   1      43.048  24.077  36.607  1.00  0.00    -0.200 F 
ENDBRANCH  53  67
BRANCH  54  78
ATOM     78  C   UNL A   1      43.795  35.699  28.623  1.00  0.00     0.064 A 
ATOM     79  C   UNL A   1      42.659  36.281  28.045  1.00  0.00     0.173 A 
ATOM     80  C   UNL A   1      45.034  36.313  28.383  1.00  0.00     0.173 A 
ATOM     81  F   UNL A   1      41.456  35.714  28.219  1.00  0.00    -0.203 F 
ATOM     82  C   UNL A   1      42.757  37.424  27.253  1.00  0.00     0.198 A 
ATOM     83  C   UNL A   1      45.128  37.470  27.612  1.00  0.00     0.198 A 
ATOM     84  F   UNL A   1      46.155  35.791  28.903  1.00  0.00    -0.203 F 
ATOM     85  F   UNL A   1      41.658  37.937  26.683  1.00  0.00    -0.200 F 
ATOM     86  C   UNL A   1      43.990  38.022  27.044  1.00  0.00     0.200 A 
ATOM     87  F   UNL A   1      46.322  38.049  27.417  1.00  0.00    -0.200 F 
ATOM     88  F   UNL A   1      44.083  39.124  26.288  1.00  0.00    -0.200 F 
ENDBRANCH  54  78
BRANCH  66  89
ATOM     89  C   UNL A   1      42.566  34.572  35.407  1.00  0.00     0.064 A 
ATOM     90  C   UNL A   1      43.586  35.118  36.201  1.00  0.00     0.173 A 
ATOM     91  C   UNL A   1      41.250  34.998  35.644  1.00  0.00     0.173 A 
ATOM     92  F   UNL A   1      44.859  34.736  36.021  1.00  0.00    -0.203 F 
ATOM     93  C   UNL A   1      43.299  36.057  37.188  1.00  0.00     0.198 A 
ATOM     94  C   UNL A   1      40.970  35.956  36.613  1.00  0.00     0.198 A 
ATOM     95  F   UNL A   1      40.240  34.513  34.905  1.00  0.00    -0.203 F 
ATOM     96  F   UNL A   1      44.286  36.556  37.944  1.00  0.00    -0.200 F 
ATOM     97  C   UNL A   1      41.993  36.486  37.383  1.00  0.00     0.200 A 
ATOM     98  F   UNL A   1      39.711  36.384  36.788  1.00  0.00    -0.200 F 
ATOM     99  F   UNL A   1      41.723  37.413  38.313  1.00  0.00    -0.200 F 
ENDBRANCH  66  89
ENDBRANCH  40  41
ENDBRANCH  33  35
ENDBRANCH  32  33
ENDBRANCH  31  32
ENDBRANCH  30  31
ENDBRANCH  29  30
ENDBRANCH  28  29
ENDBRANCH   1  28
TORSDOF 21
ENDMDL
MODEL 3
REMARK VINA RESULT:      -9.9      1.014      2.167
REMARK SMILES Cc1c(Cl)cc2c(c1C)O[C@@H](C(F)(F)F)C(C(=O)OCCOCCOCCOCCOC(=O)c1ccc(-c3c4nc(c(-c5c(F)c(F)c(F)c(F)c5F)c5ccc([nH]5)c(-c5c(F)c(F)c(F)c(F)c5F)c5nc(c(-c6c(F)c(F)c(F)c(F)c6F)c6ccc3[nH]6)C=C5)C=C4)cc1)=C2
REMARK SMILES IDX 26 1 25 2 24 3 23 4 22 5 21 6 20 7 19 8 17 9 18 10 16 11
REMARK SMILES IDX 1 12 2 13 3 14 8 15 4 16 5 17 7 18 9 19 6 20 10 21 97 22
REMARK SMILES IDX 11 23 12 24 13 25 14 26 15 27 27 28 28 29 29 30 30 31 31 32
REMARK SMILES IDX 32 33 33 34 34 35 35 36 96 37 36 38 95 39 37 40 38 41 39 42
REMARK SMILES IDX 89 43 40 44 94 45 88 46 90 47 41 48 93 49 87 50 86 51 42 53
REMARK SMILES IDX 74 54 54 55 73 56 55 57 58 58 72 59 91 60 56 61 57 62 71 64
REMARK SMILES IDX 92 65 59 66 43 67 44 68 52 69 45 70 46 71 50 72 53 73 47 74
REMARK SMILES IDX 48 75 51 76 49 77 75 78 76 79 84 80 77 81 78 82 82 83 85 84
REMARK SMILES IDX 79 85 80 86 83 87 81 88 60 89 61 90 69 91 62 92 63 93 67 94
REMARK SMILES IDX 70 95 64 96 65 97 68 98 66 99
REMARK H PARENT 90 52 58 63
REMARK Flexibility Score: inf
ROOT
ATOM      1  C   UNL A   1      41.036  20.273  26.058  1.00  0.00     0.188 C 
ENDROOT
BRANCH   1   2
ATOM      2  O   UNL A   1      40.449  20.614  27.307  1.00  0.00    -0.377 OA
BRANCH   2   3
ATOM      3  C   UNL A   1      41.034  21.700  27.994  1.00  0.00     0.188 C 
BRANCH   3   4
ATOM      4  C   UNL A   1      41.315  22.929  27.112  1.00  0.00     0.188 C 
BRANCH   4   5
ATOM      5  O   UNL A   1      40.257  23.673  26.516  1.00  0.00    -0.376 OA
BRANCH   5   6
ATOM      6  C   UNL A   1      38.899  23.446  26.875  1.00  0.00     0.202 C 
BRANCH   6   7
ATOM      7  C   UNL A   1      37.957  22.739  25.890  1.00  0.00     0.261 C 
BRANCH   7   8
ATOM      8  O   UNL A   1      36.743  23.459  25.615  1.00  0.00    -0.460 OA
BRANCH   8   9
ATOM      9  C   UNL A   1      35.603  22.834  25.969  1.00  0.00     0.338 C 
ATOM     10  O   UNL A   1      35.510  21.841  26.674  1.00  0.00    -0.246 OA
BRANCH   9  11
ATOM     11  C   UNL A   1      34.426  23.596  25.517  1.00  0.00     0.087 C 
ATOM     12  C   UNL A   1      30.565  28.699  24.282  1.00  0.00     0.046 C 
ATOM     13  C   UNL A   1      31.585  27.592  24.361  1.00  0.00    -0.026 A 
ATOM     14  C   UNL A   1      32.846  27.773  23.752  1.00  0.00     0.045 A 
ATOM     15  C   UNL A   1      31.321  26.366  25.023  1.00  0.00    -0.004 A 
ATOM     16  Cl  UNL A   1      33.231  29.194  22.839  1.00  0.00    -0.084 Cl
ATOM     17  C   UNL A   1      33.852  26.816  23.876  1.00  0.00     0.032 A 
ATOM     18  C   UNL A   1      32.361  25.421  25.166  1.00  0.00     0.131 A 
ATOM     19  C   UNL A   1      29.974  26.009  25.599  1.00  0.00     0.049 C 
ATOM     20  C   UNL A   1      33.622  25.658  24.614  1.00  0.00     0.019 A 
ATOM     21  O   UNL A   1      32.107  24.319  25.947  1.00  0.00    -0.475 OA
ATOM     22  C   UNL A   1      34.717  24.754  24.910  1.00  0.00     0.027 C 
ATOM     23  C   UNL A   1      33.022  23.184  25.863  1.00  0.00     0.316 C 
BRANCH  23  24
ATOM     24  C   UNL A   1      32.377  22.110  24.966  1.00  0.00     0.430 C 
ATOM     25  F   UNL A   1      32.958  22.027  23.747  1.00  0.00    -0.167 F 
ATOM     26  F   UNL A   1      32.403  20.885  25.534  1.00  0.00    -0.167 F 
ATOM     27  F   UNL A   1      31.064  22.393  24.752  1.00  0.00    -0.167 F 
ENDBRANCH  23  24
ENDBRANCH   9  11
ENDBRANCH   8   9
ENDBRANCH   7   8
ENDBRANCH   6   7
ENDBRANCH   5   6
ENDBRANCH   4   5
ENDBRANCH   3   4
ENDBRANCH   2   3
ENDBRANCH   1   2
BRANCH   1  28
ATOM     28  C   UNL A   1      42.465  19.709  26.097  1.00  0.00     0.188 C 
BRANCH  28  29
ATOM     29  O   UNL A   1      43.283  20.241  25.055  1.00  0.00    -0.376 OA
BRANCH  29  30
ATOM     30  C   UNL A   1      43.998  21.437  25.358  1.00  0.00     0.202 C 
BRANCH  30  31
ATOM     31  C   UNL A   1      43.932  22.542  24.289  1.00  0.00     0.261 C 
BRANCH  31  32
ATOM     32  O   UNL A   1      43.540  23.852  24.742  1.00  0.00    -0.460 OA
BRANCH  32  33
ATOM     33  C   UNL A   1      44.495  24.750  25.056  1.00  0.00     0.338 C 
ATOM     34  O   UNL A   1      45.598  24.862  24.553  1.00  0.00    -0.246 OA
BRANCH  33  35
ATOM     35  C   UNL A   1      43.895  25.734  25.984  1.00  0.00     0.060 A 
ATOM     36  C   UNL A   1      44.698  26.289  26.987  1.00  0.00     0.016 A 
ATOM     37  C   UNL A   1      42.557  26.118  25.857  1.00  0.00     0.016 A 
ATOM     38  C   UNL A   1      44.157  27.209  27.886  1.00  0.00     0.010 A 
ATOM     39  C   UNL A   1      42.009  27.023  26.774  1.00  0.00     0.010 A 
ATOM     40  C   UNL A   1      42.799  27.546  27.812  1.00  0.00    -0.014 A 
BRANCH  40  41
ATOM     41  C   UNL A   1      42.165  28.252  28.952  1.00  0.00     0.031 A 
ATOM     42  C   UNL A   1      42.921  28.308  30.252  1.00  0.00     0.074 A 
ATOM     43  C   UNL A   1      40.976  28.872  28.837  1.00  0.00     0.049 A 
ATOM     44  N   UNL A   1      42.603  28.895  31.377  1.00  0.00    -0.248 NA
ATOM     45  C   UNL A   1      44.217  27.610  30.283  1.00  0.00     0.031 C 
ATOM     46  C   UNL A   1      40.162  28.923  27.626  1.00  0.00     0.029 A 
ATOM     47  N   UNL A   1      40.252  29.585  29.762  1.00  0.00    -0.354 N 
ATOM     48  C   UNL A   1      43.663  28.653  32.238  1.00  0.00     0.074 A 
ATOM     49  C   UNL A   1      44.614  27.828  31.528  1.00  0.00     0.031 C 
ATOM     50  C   UNL A   1      39.049  29.634  27.881  1.00  0.00     0.029 A 
ATOM     51  C   UNL A   1      39.062  30.071  29.278  1.00  0.00     0.049 A 
ATOM     52  H   UNL A   1      40.557  29.734  30.686  1.00  0.00     0.167 HD
ATOM     53  C   UNL A   1      43.843  29.099  33.502  1.00  0.00     0.037 A 
ATOM     54  C   UNL A   1      38.096  30.780  29.896  1.00  0.00     0.037 A 
ATOM     55  C   UNL A   1      42.899  29.911  34.216  1.00  0.00     0.049 A 
ATOM     56  C   UNL A   1      38.267  31.166  31.345  1.00  0.00     0.074 A 
ATOM     57  C   UNL A   1      43.002  30.428  35.495  1.00  0.00     0.029 A 
ATOM     58  N   UNL A   1      41.670  30.313  33.717  1.00  0.00    -0.354 N 
ATOM     59  N   UNL A   1      39.295  30.977  32.137  1.00  0.00    -0.248 NA
ATOM     60  C   UNL A   1      37.140  31.861  31.989  1.00  0.00     0.031 C 
ATOM     61  C   UNL A   1      41.813  31.099  35.789  1.00  0.00     0.029 A 
ATOM     62  C   UNL A   1      40.987  31.039  34.677  1.00  0.00     0.049 A 
ATOM     63  H   UNL A   1      41.333  30.112  32.813  1.00  0.00     0.167 HD
ATOM     64  C   UNL A   1      38.948  31.539  33.360  1.00  0.00     0.074 A 
ATOM     65  C   UNL A   1      37.621  32.094  33.204  1.00  0.00     0.031 C 
ATOM     66  C   UNL A   1      39.666  31.586  34.509  1.00  0.00     0.037 A 
BRANCH  53  67
ATOM     67  C   UNL A   1      45.114  28.714  34.197  1.00  0.00     0.064 A 
ATOM     68  C   UNL A   1      45.201  27.541  34.960  1.00  0.00     0.173 A 
ATOM     69  C   UNL A   1      46.268  29.498  34.059  1.00  0.00     0.173 A 
ATOM     70  F   UNL A   1      44.119  26.767  35.133  1.00  0.00    -0.203 F 
ATOM     71  C   UNL A   1      46.394  27.175  35.575  1.00  0.00     0.198 A 
ATOM     72  C   UNL A   1      47.467  29.115  34.655  1.00  0.00     0.198 A 
ATOM     73  F   UNL A   1      46.236  30.630  33.339  1.00  0.00    -0.203 F 
ATOM     74  F   UNL A   1      46.446  26.068  36.329  1.00  0.00    -0.200 F 
ATOM     75  C   UNL A   1      47.528  27.957  35.415  1.00  0.00     0.200 A 
ATOM     76  F   UNL A   1      48.564  29.867  34.490  1.00  0.00    -0.200 F 
ATOM     77  F   UNL A   1      48.680  27.597  35.997  1.00  0.00    -0.200 F 
ENDBRANCH  53  67
BRANCH  54  78
ATOM     78  C   UNL A   1      36.872  31.177  29.151  1.00  0.00     0.064 A 
ATOM     79  C   UNL A   1      35.868  30.243  28.861  1.00  0.00     0.173 A 
ATOM     80  C   UNL A   1      36.685  32.494  28.703  1.00  0.00     0.173 A 
ATOM     81  F   UNL A   1      36.014  28.965  29.241  1.00  0.00    -0.203 F 
ATOM     82  C   UNL A   1      34.729  30.607  28.144  1.00  0.00     0.198 A 
ATOM     83  C   UNL A   1      35.534  32.862  28.008  1.00  0.00     0.198 A 
ATOM     84  F   UNL A   1      37.620  33.425  28.944  1.00  0.00    -0.203 F 
ATOM     85  F   UNL A   1      33.804  29.684  27.848  1.00  0.00    -0.200 F 
ATOM     86  C   UNL A   1      34.560  31.918  27.725  1.00  0.00     0.200 A 
ATOM     87  F   UNL A   1      35.372  34.132  27.610  1.00  0.00    -0.200 F 
ATOM     88  F   UNL A   1      33.462  32.269  27.042  1.00  0.00    -0.200 F 
ENDBRANCH  54  78
BRANCH  66  89
ATOM     89  C   UNL A   1      39.045  32.248  35.704  1.00  0.00     0.064 A 
ATOM     90  C   UNL A   1      38.277  31.515  36.621  1.00  0.00     0.173 A 
ATOM     91  C   UNL A   1      39.321  33.591  36.002  1.00  0.00     0.173 A 
ATOM     92  F   UNL A   1      37.977  30.231  36.376  1.00  0.00    -0.203 F 
ATOM     93  C   UNL A   1      37.810  32.103  37.793  1.00  0.00     0.198 A 
ATOM     94  C   UNL A   1      38.876  34.168  37.188  1.00  0.00     0.198 A 
ATOM     95  F   UNL A   1      40.060  34.331  35.162  1.00  0.00    -0.203 F 
ATOM     96  F   UNL A   1      37.066  31.389  38.649  1.00  0.00    -0.200 F 
ATOM     97  C   UNL A   1      38.122  33.424  38.083  1.00  0.00     0.200 A 
ATOM     98  F   UNL A   1      39.193  35.439  37.475  1.00  0.00    -0.200 F 
ATOM     99  F   UNL A   1      37.697  33.979  39.226  1.00  0.00    -0.200 F 
ENDBRANCH  66  89
ENDBRANCH  40  41
ENDBRANCH  33  35
ENDBRANCH  32  33
ENDBRANCH  31  32
ENDBRANCH  30  31
ENDBRANCH  29  30
ENDBRANCH  28  29
ENDBRANCH   1  28
TORSDOF 21
ENDMDL
