MODEL 1
REMARK VINA RESULT:     -11.4      0.000      0.000
REMARK SMILES [NH3+][C@]1(C(=O)OCCOCCOCCOCCOC(=O)c2ccc(-c3c4nc(c(-c5c(F)c(F)c(F)c(F)c5F)c5ccc([nH]5)c(-c5c(F)c(F)c(F)c(F)c5F)c5nc(c(-c6c(F)c(F)c(F)c(F)c6F)c6ccc3[nH]6)C=C5)C=C4)cc2)CC[C@@H](Sc2cc3ccccc3[nH]2)C1
REMARK SMILES IDX 11 1 10 2 9 3 8 4 7 5 6 6 5 7 3 8 4 9 2 10 83 11 96 12 84 13
REMARK SMILES IDX 85 14 1 15 86 19 87 20 88 21 95 22 89 23 94 24 90 26 93 27
REMARK SMILES IDX 91 28 92 29 12 30 13 31 14 32 15 33 16 34 17 35 18 36 19 37
REMARK SMILES IDX 20 38 21 39 82 40 22 41 81 42 23 43 24 44 25 45 75 46 26 47
REMARK SMILES IDX 80 48 74 49 76 50 27 51 79 52 73 53 72 54 28 56 60 57 40 58
REMARK SMILES IDX 59 59 41 60 44 61 58 62 77 63 42 64 43 65 57 67 78 68 45 69
REMARK SMILES IDX 29 70 30 71 38 72 31 73 32 74 36 75 39 76 33 77 34 78 37 79
REMARK SMILES IDX 35 80 61 81 62 82 70 83 63 84 64 85 68 86 71 87 65 88 66 89
REMARK SMILES IDX 69 90 67 91 46 92 47 93 55 94 48 95 49 96 53 97 56 98 50 99
REMARK SMILES IDX 51 100 54 101 52 102
REMARK H PARENT 1 16 1 17 1 18 95 25 76 55 44 66
REMARK Flexibility Score: inf
ROOT
ATOM      1  O   UNL A   1      38.598  22.258  25.939  1.00  0.00    -0.377 OA
ENDROOT
BRANCH   1   2
ATOM      2  C   UNL A   1      37.411  22.887  25.500  1.00  0.00     0.188 C 
BRANCH   2   3
ATOM      3  C   UNL A   1      36.642  22.084  24.436  1.00  0.00     0.188 C 
BRANCH   3   4
ATOM      4  O   UNL A   1      35.248  22.291  24.332  1.00  0.00    -0.376 OA
BRANCH   4   5
ATOM      5  C   UNL A   1      34.507  22.915  25.371  1.00  0.00     0.202 C 
BRANCH   5   6
ATOM      6  C   UNL A   1      33.069  22.576  25.818  1.00  0.00     0.261 C 
BRANCH   6   7
ATOM      7  O   UNL A   1      31.982  23.253  25.190  1.00  0.00    -0.459 OA
BRANCH   7   8
ATOM      8  C   UNL A   1      32.253  24.471  24.643  1.00  0.00     0.368 C 
ATOM      9  O   UNL A   1      32.675  24.633  23.506  1.00  0.00    -0.245 OA
BRANCH   8  10
ATOM     10  C   UNL A   1      31.830  25.621  25.602  1.00  0.00     0.193 C 
ATOM     11  C   UNL A   1      33.083  26.335  26.122  1.00  0.00     0.082 C 
ATOM     12  C   UNL A   1      31.040  26.696  24.831  1.00  0.00     0.096 C 
ATOM     13  C   UNL A   1      32.714  27.806  26.209  1.00  0.00     0.022 C 
ATOM     14  C   UNL A   1      31.692  28.036  25.111  1.00  0.00     0.060 C 
BRANCH  10  15
ATOM     15  N   UNL A   1      31.032  25.120  26.752  1.00  0.00    -0.343 N 
ATOM     16  H   UNL A   1      30.610  25.909  27.241  1.00  0.00     0.345 HD
ATOM     17  H   UNL A   1      31.641  24.610  27.392  1.00  0.00     0.345 HD
ATOM     18  H   UNL A   1      30.299  24.498  26.413  1.00  0.00     0.345 HD
ENDBRANCH  10  15
BRANCH  14  19
ATOM     19  S   UNL A   1      32.178  28.782  23.551  1.00  0.00    -0.105 SA
BRANCH  19  20
ATOM     20  C   UNL A   1      30.817  28.703  22.471  1.00  0.00     0.073 A 
ATOM     21  C   UNL A   1      29.538  28.243  22.733  1.00  0.00     0.043 A 
ATOM     22  N   UNL A   1      30.651  29.791  21.650  1.00  0.00    -0.350 N 
ATOM     23  C   UNL A   1      28.757  29.451  22.747  1.00  0.00     0.001 A 
ATOM     24  C   UNL A   1      29.533  30.439  22.140  1.00  0.00     0.046 A 
ATOM     25  H   UNL A   1      31.207  30.054  20.881  1.00  0.00     0.167 HD
ATOM     26  C   UNL A   1      27.559  29.832  23.381  1.00  0.00     0.010 A 
ATOM     27  C   UNL A   1      29.240  31.800  22.194  1.00  0.00     0.027 A 
ATOM     28  C   UNL A   1      27.281  31.202  23.505  1.00  0.00     0.001 A 
ATOM     29  C   UNL A   1      28.120  32.166  22.942  1.00  0.00     0.002 A 
ENDBRANCH  19  20
ENDBRANCH  14  19
ENDBRANCH   8  10
ENDBRANCH   7   8
ENDBRANCH   6   7
ENDBRANCH   5   6
ENDBRANCH   4   5
ENDBRANCH   3   4
ENDBRANCH   2   3
ENDBRANCH   1   2
BRANCH   1  30
ATOM     30  C   UNL A   1      38.694  20.860  25.701  1.00  0.00     0.188 C 
BRANCH  30  31
ATOM     31  C   UNL A   1      39.999  20.110  26.054  1.00  0.00     0.188 C 
BRANCH  31  32
ATOM     32  O   UNL A   1      40.864  20.811  26.937  1.00  0.00    -0.376 OA
BRANCH  32  33
ATOM     33  C   UNL A   1      42.260  20.568  26.876  1.00  0.00     0.202 C 
BRANCH  33  34
ATOM     34  C   UNL A   1      43.053  21.269  25.763  1.00  0.00     0.261 C 
BRANCH  34  35
ATOM     35  O   UNL A   1      42.461  22.453  25.208  1.00  0.00    -0.460 OA
BRANCH  35  36
ATOM     36  C   UNL A   1      43.245  23.549  25.080  1.00  0.00     0.338 C 
ATOM     37  O   UNL A   1      44.142  23.727  24.289  1.00  0.00    -0.246 OA
BRANCH  36  38
ATOM     38  C   UNL A   1      42.672  24.595  25.959  1.00  0.00     0.060 A 
ATOM     39  C   UNL A   1      43.184  25.898  25.896  1.00  0.00     0.016 A 
ATOM     40  C   UNL A   1      41.615  24.290  26.819  1.00  0.00     0.016 A 
ATOM     41  C   UNL A   1      42.658  26.898  26.717  1.00  0.00     0.010 A 
ATOM     42  C   UNL A   1      41.110  25.283  27.661  1.00  0.00     0.010 A 
ATOM     43  C   UNL A   1      41.652  26.581  27.637  1.00  0.00    -0.014 A 
BRANCH  43  44
ATOM     44  C   UNL A   1      41.313  27.526  28.728  1.00  0.00     0.031 A 
ATOM     45  C   UNL A   1      42.123  27.451  29.993  1.00  0.00     0.074 A 
ATOM     46  C   UNL A   1      40.314  28.416  28.612  1.00  0.00     0.049 A 
ATOM     47  N   UNL A   1      41.946  28.064  31.135  1.00  0.00    -0.248 NA
ATOM     48  C   UNL A   1      43.290  26.553  29.963  1.00  0.00     0.031 C 
ATOM     49  C   UNL A   1      39.499  28.625  27.419  1.00  0.00     0.029 A 
ATOM     50  N   UNL A   1      39.804  29.301  29.531  1.00  0.00    -0.354 N 
ATOM     51  C   UNL A   1      42.970  27.618  31.960  1.00  0.00     0.074 A 
ATOM     52  C   UNL A   1      43.744  26.660  31.202  1.00  0.00     0.031 C 
ATOM     53  C   UNL A   1      38.571  29.563  27.686  1.00  0.00     0.029 A 
ATOM     54  C   UNL A   1      38.701  29.984  29.080  1.00  0.00     0.049 A 
ATOM     55  H   UNL A   1      40.192  29.433  30.426  1.00  0.00     0.167 HD
ATOM     56  C   UNL A   1      43.246  27.982  33.234  1.00  0.00     0.037 A 
ATOM     57  C   UNL A   1      37.872  30.821  29.737  1.00  0.00     0.037 A 
ATOM     58  C   UNL A   1      42.465  28.927  33.987  1.00  0.00     0.049 A 
ATOM     59  C   UNL A   1      38.135  31.129  31.192  1.00  0.00     0.074 A 
ATOM     60  C   UNL A   1      42.654  29.363  35.286  1.00  0.00     0.029 A 
ATOM     61  N   UNL A   1      41.338  29.577  33.506  1.00  0.00    -0.354 N 
ATOM     62  N   UNL A   1      39.110  30.715  31.967  1.00  0.00    -0.248 NA
ATOM     63  C   UNL A   1      37.179  32.021  31.866  1.00  0.00     0.031 C 
ATOM     64  C   UNL A   1      41.608  30.231  35.610  1.00  0.00     0.029 A 
ATOM     65  C   UNL A   1      40.807  30.392  34.492  1.00  0.00     0.049 A 
ATOM     66  H   UNL A   1      40.970  29.476  32.598  1.00  0.00     0.167 HD
ATOM     67  C   UNL A   1      38.907  31.327  33.200  1.00  0.00     0.074 A 
ATOM     68  C   UNL A   1      37.721  32.146  33.069  1.00  0.00     0.031 C 
ATOM     69  C   UNL A   1      39.639  31.221  34.337  1.00  0.00     0.037 A 
BRANCH  56  70
ATOM     70  C   UNL A   1      44.422  27.333  33.902  1.00  0.00     0.064 A 
ATOM     71  C   UNL A   1      45.702  27.906  33.863  1.00  0.00     0.173 A 
ATOM     72  C   UNL A   1      44.261  26.135  34.616  1.00  0.00     0.173 A 
ATOM     73  F   UNL A   1      45.913  29.042  33.180  1.00  0.00    -0.203 F 
ATOM     74  C   UNL A   1      46.782  27.289  34.490  1.00  0.00     0.198 A 
ATOM     75  C   UNL A   1      45.336  25.541  35.271  1.00  0.00     0.198 A 
ATOM     76  F   UNL A   1      43.058  25.546  34.687  1.00  0.00    -0.203 F 
ATOM     77  F   UNL A   1      48.006  27.827  34.394  1.00  0.00    -0.200 F 
ATOM     78  C   UNL A   1      46.597  26.114  35.200  1.00  0.00     0.200 A 
ATOM     79  F   UNL A   1      45.152  24.411  35.968  1.00  0.00    -0.200 F 
ATOM     80  F   UNL A   1      47.636  25.527  35.811  1.00  0.00    -0.200 F 
ENDBRANCH  56  70
BRANCH  57  81
ATOM     81  C   UNL A   1      36.693  31.410  29.043  1.00  0.00     0.064 A 
ATOM     82  C   UNL A   1      36.665  32.766  28.690  1.00  0.00     0.173 A 
ATOM     83  C   UNL A   1      35.553  30.642  28.764  1.00  0.00     0.173 A 
ATOM     84  F   UNL A   1      37.719  33.551  28.960  1.00  0.00    -0.203 F 
ATOM     85  C   UNL A   1      35.532  33.337  28.111  1.00  0.00     0.198 A 
ATOM     86  C   UNL A   1      34.434  31.207  28.153  1.00  0.00     0.198 A 
ATOM     87  F   UNL A   1      35.522  29.340  29.086  1.00  0.00    -0.203 F 
ATOM     88  F   UNL A   1      35.511  34.651  27.843  1.00  0.00    -0.200 F 
ATOM     89  C   UNL A   1      34.421  32.556  27.839  1.00  0.00     0.200 A 
ATOM     90  F   UNL A   1      33.365  30.444  27.882  1.00  0.00    -0.200 F 
ATOM     91  F   UNL A   1      33.331  33.107  27.286  1.00  0.00    -0.200 F 
ENDBRANCH  57  81
BRANCH  69  92
ATOM     92  C   UNL A   1      39.223  32.055  35.516  1.00  0.00     0.064 A 
ATOM     93  C   UNL A   1      38.346  31.572  36.496  1.00  0.00     0.173 A 
ATOM     94  C   UNL A   1      39.771  33.336  35.699  1.00  0.00     0.173 A 
ATOM     95  F   UNL A   1      37.786  30.360  36.363  1.00  0.00    -0.203 F 
ATOM     96  C   UNL A   1      38.015  32.346  37.606  1.00  0.00     0.198 A 
ATOM     97  C   UNL A   1      39.466  34.092  36.827  1.00  0.00     0.198 A 
ATOM     98  F   UNL A   1      40.623  33.843  34.797  1.00  0.00    -0.203 F 
ATOM     99  F   UNL A   1      37.141  31.880  38.509  1.00  0.00    -0.200 F 
ATOM    100  C   UNL A   1      38.583  33.599  37.776  1.00  0.00     0.200 A 
ATOM    101  F   UNL A   1      40.031  35.295  36.999  1.00  0.00    -0.200 F 
ATOM    102  F   UNL A   1      38.278  34.335  38.854  1.00  0.00    -0.200 F 
ENDBRANCH  69  92
ENDBRANCH  43  44
ENDBRANCH  36  38
ENDBRANCH  35  36
ENDBRANCH  34  35
ENDBRANCH  33  34
ENDBRANCH  32  33
ENDBRANCH  31  32
ENDBRANCH  30  31
ENDBRANCH   1  30
TORSDOF 23
ENDMDL
MODEL 2
REMARK VINA RESULT:     -11.0      4.364      8.332
REMARK SMILES [NH3+][C@]1(C(=O)OCCOCCOCCOCCOC(=O)c2ccc(-c3c4nc(c(-c5c(F)c(F)c(F)c(F)c5F)c5ccc([nH]5)c(-c5c(F)c(F)c(F)c(F)c5F)c5nc(c(-c6c(F)c(F)c(F)c(F)c6F)c6ccc3[nH]6)C=C5)C=C4)cc2)CC[C@@H](Sc2cc3ccccc3[nH]2)C1
REMARK SMILES IDX 11 1 10 2 9 3 8 4 7 5 6 6 5 7 3 8 4 9 2 10 83 11 96 12 84 13
REMARK SMILES IDX 85 14 1 15 86 19 87 20 88 21 95 22 89 23 94 24 90 26 93 27
REMARK SMILES IDX 91 28 92 29 12 30 13 31 14 32 15 33 16 34 17 35 18 36 19 37
REMARK SMILES IDX 20 38 21 39 82 40 22 41 81 42 23 43 24 44 25 45 75 46 26 47
REMARK SMILES IDX 80 48 74 49 76 50 27 51 79 52 73 53 72 54 28 56 60 57 40 58
REMARK SMILES IDX 59 59 41 60 44 61 58 62 77 63 42 64 43 65 57 67 78 68 45 69
REMARK SMILES IDX 29 70 30 71 38 72 31 73 32 74 36 75 39 76 33 77 34 78 37 79
REMARK SMILES IDX 35 80 61 81 62 82 70 83 63 84 64 85 68 86 71 87 65 88 66 89
REMARK SMILES IDX 69 90 67 91 46 92 47 93 55 94 48 95 49 96 53 97 56 98 50 99
REMARK SMILES IDX 51 100 54 101 52 102
REMARK H PARENT 1 16 1 17 1 18 95 25 76 55 44 66
REMARK Flexibility Score: inf
ROOT
ATOM      1  O   UNL A   1      32.321  22.928  27.704  1.00  0.00    -0.377 OA
ENDROOT
BRANCH   1   2
ATOM      2  C   UNL A   1      31.458  22.621  26.628  1.00  0.00     0.188 C 
BRANCH   2   3
ATOM      3  C   UNL A   1      30.645  23.826  26.125  1.00  0.00     0.188 C 
BRANCH   3   4
ATOM      4  O   UNL A   1      30.743  25.037  26.847  1.00  0.00    -0.376 OA
BRANCH   4   5
ATOM      5  C   UNL A   1      31.532  26.122  26.380  1.00  0.00     0.202 C 
BRANCH   5   6
ATOM      6  C   UNL A   1      31.595  27.546  26.974  1.00  0.00     0.261 C 
BRANCH   6   7
ATOM      7  O   UNL A   1      31.750  28.650  26.084  1.00  0.00    -0.459 OA
BRANCH   7   8
ATOM      8  C   UNL A   1      32.915  28.712  25.381  1.00  0.00     0.368 C 
ATOM      9  O   UNL A   1      34.026  28.698  25.894  1.00  0.00    -0.245 OA
BRANCH   8  10
ATOM     10  C   UNL A   1      32.648  28.668  23.850  1.00  0.00     0.193 C 
ATOM     11  C   UNL A   1      32.812  27.230  23.345  1.00  0.00     0.082 C 
ATOM     12  C   UNL A   1      31.181  29.037  23.553  1.00  0.00     0.096 C 
ATOM     13  C   UNL A   1      31.749  27.043  22.276  1.00  0.00     0.022 C 
ATOM     14  C   UNL A   1      30.596  27.941  22.685  1.00  0.00     0.060 C 
BRANCH  10  15
ATOM     15  N   UNL A   1      33.567  29.564  23.099  1.00  0.00    -0.343 N 
ATOM     16  H   UNL A   1      33.618  30.468  23.568  1.00  0.00     0.345 HD
ATOM     17  H   UNL A   1      33.215  29.693  22.149  1.00  0.00     0.345 HD
ATOM     18  H   UNL A   1      34.496  29.146  23.064  1.00  0.00     0.345 HD
ENDBRANCH  10  15
BRANCH  14  19
ATOM     19  S   UNL A   1      29.153  27.258  23.507  1.00  0.00    -0.105 SA
BRANCH  19  20
ATOM     20  C   UNL A   1      27.780  28.239  23.085  1.00  0.00     0.073 A 
ATOM     21  C   UNL A   1      27.106  29.157  23.872  1.00  0.00     0.043 A 
ATOM     22  N   UNL A   1      27.814  28.792  21.828  1.00  0.00    -0.350 N 
ATOM     23  C   UNL A   1      27.490  30.419  23.297  1.00  0.00     0.001 A 
ATOM     24  C   UNL A   1      28.027  30.141  22.040  1.00  0.00     0.046 A 
ATOM     25  H   UNL A   1      27.710  28.330  20.966  1.00  0.00     0.167 HD
ATOM     26  C   UNL A   1      27.603  31.728  23.802  1.00  0.00     0.010 A 
ATOM     27  C   UNL A   1      28.748  31.062  21.282  1.00  0.00     0.027 A 
ATOM     28  C   UNL A   1      28.383  32.650  23.087  1.00  0.00     0.001 A 
ATOM     29  C   UNL A   1      28.963  32.313  21.862  1.00  0.00     0.002 A 
ENDBRANCH  19  20
ENDBRANCH  14  19
ENDBRANCH   8  10
ENDBRANCH   7   8
ENDBRANCH   6   7
ENDBRANCH   5   6
ENDBRANCH   4   5
ENDBRANCH   3   4
ENDBRANCH   2   3
ENDBRANCH   1   2
BRANCH   1  30
ATOM     30  C   UNL A   1      33.568  22.247  27.724  1.00  0.00     0.188 C 
BRANCH  30  31
ATOM     31  C   UNL A   1      34.011  21.420  26.495  1.00  0.00     0.188 C 
BRANCH  31  32
ATOM     32  O   UNL A   1      34.718  22.159  25.508  1.00  0.00    -0.376 OA
BRANCH  32  33
ATOM     33  C   UNL A   1      35.620  21.481  24.649  1.00  0.00     0.202 C 
BRANCH  33  34
ATOM     34  C   UNL A   1      36.887  20.885  25.281  1.00  0.00     0.261 C 
BRANCH  34  35
ATOM     35  O   UNL A   1      38.049  21.727  25.292  1.00  0.00    -0.460 OA
BRANCH  35  36
ATOM     36  C   UNL A   1      39.090  21.356  26.074  1.00  0.00     0.338 C 
ATOM     37  O   UNL A   1      39.568  20.251  26.191  1.00  0.00    -0.246 OA
BRANCH  36  38
ATOM     38  C   UNL A   1      39.685  22.598  26.621  1.00  0.00     0.060 A 
ATOM     39  C   UNL A   1      39.184  23.838  26.202  1.00  0.00     0.016 A 
ATOM     40  C   UNL A   1      40.713  22.530  27.564  1.00  0.00     0.016 A 
ATOM     41  C   UNL A   1      39.731  25.020  26.706  1.00  0.00     0.010 A 
ATOM     42  C   UNL A   1      41.280  23.712  28.043  1.00  0.00     0.010 A 
ATOM     43  C   UNL A   1      40.814  24.961  27.591  1.00  0.00    -0.014 A 
BRANCH  43  44
ATOM     44  C   UNL A   1      41.612  26.177  27.878  1.00  0.00     0.031 A 
ATOM     45  C   UNL A   1      40.946  27.283  28.649  1.00  0.00     0.074 A 
ATOM     46  C   UNL A   1      42.881  26.308  27.461  1.00  0.00     0.049 A 
ATOM     47  N   UNL A   1      41.371  28.492  28.910  1.00  0.00    -0.248 NA
ATOM     48  C   UNL A   1      39.611  26.982  29.192  1.00  0.00     0.031 C 
ATOM     49  C   UNL A   1      43.653  25.286  26.759  1.00  0.00     0.029 A 
ATOM     50  N   UNL A   1      43.740  27.376  27.554  1.00  0.00    -0.354 N 
ATOM     51  C   UNL A   1      40.355  29.096  29.638  1.00  0.00     0.074 A 
ATOM     52  C   UNL A   1      39.279  28.137  29.748  1.00  0.00     0.031 C 
ATOM     53  C   UNL A   1      44.867  25.786  26.462  1.00  0.00     0.029 A 
ATOM     54  C   UNL A   1      44.937  27.175  26.913  1.00  0.00     0.049 A 
ATOM     55  H   UNL A   1      43.518  28.206  28.035  1.00  0.00     0.167 HD
ATOM     56  C   UNL A   1      40.325  30.339  30.173  1.00  0.00     0.037 A 
ATOM     57  C   UNL A   1      45.953  28.032  26.684  1.00  0.00     0.037 A 
ATOM     58  C   UNL A   1      41.395  31.293  30.051  1.00  0.00     0.049 A 
ATOM     59  C   UNL A   1      45.852  29.449  27.198  1.00  0.00     0.074 A 
ATOM     60  C   UNL A   1      41.464  32.581  30.550  1.00  0.00     0.029 A 
ATOM     61  N   UNL A   1      42.581  31.063  29.369  1.00  0.00    -0.354 N 
ATOM     62  N   UNL A   1      44.895  30.016  27.894  1.00  0.00    -0.248 NA
ATOM     63  C   UNL A   1      46.974  30.350  26.890  1.00  0.00     0.031 C 
ATOM     64  C   UNL A   1      42.667  33.150  30.122  1.00  0.00     0.029 A 
ATOM     65  C   UNL A   1      43.378  32.194  29.415  1.00  0.00     0.049 A 
ATOM     66  H   UNL A   1      42.821  30.220  28.920  1.00  0.00     0.167 HD
ATOM     67  C   UNL A   1      45.318  31.317  28.142  1.00  0.00     0.074 A 
ATOM     68  C   UNL A   1      46.620  31.456  27.527  1.00  0.00     0.031 C 
ATOM     69  C   UNL A   1      44.685  32.307  28.819  1.00  0.00     0.037 A 
BRANCH  56  70
ATOM     70  C   UNL A   1      39.085  30.746  30.914  1.00  0.00     0.064 A 
ATOM     71  C   UNL A   1      37.961  31.255  30.247  1.00  0.00     0.173 A 
ATOM     72  C   UNL A   1      39.009  30.599  32.307  1.00  0.00     0.173 A 
ATOM     73  F   UNL A   1      37.988  31.432  28.916  1.00  0.00    -0.203 F 
ATOM     74  C   UNL A   1      36.818  31.628  30.950  1.00  0.00     0.198 A 
ATOM     75  C   UNL A   1      37.852  30.939  33.003  1.00  0.00     0.198 A 
ATOM     76  F   UNL A   1      40.055  30.115  32.994  1.00  0.00    -0.203 F 
ATOM     77  F   UNL A   1      35.776  32.162  30.297  1.00  0.00    -0.200 F 
ATOM     78  C   UNL A   1      36.762  31.462  32.324  1.00  0.00     0.200 A 
ATOM     79  F   UNL A   1      37.795  30.765  34.330  1.00  0.00    -0.200 F 
ATOM     80  F   UNL A   1      35.657  31.812  32.998  1.00  0.00    -0.200 F 
ENDBRANCH  56  70
BRANCH  57  81
ATOM     81  C   UNL A   1      47.147  27.596  25.909  1.00  0.00     0.064 A 
ATOM     82  C   UNL A   1      48.300  27.131  26.556  1.00  0.00     0.173 A 
ATOM     83  C   UNL A   1      47.177  27.679  24.509  1.00  0.00     0.173 A 
ATOM     84  F   UNL A   1      48.333  27.059  27.895  1.00  0.00    -0.203 F 
ATOM     85  C   UNL A   1      49.446  26.795  25.836  1.00  0.00     0.198 A 
ATOM     86  C   UNL A   1      48.311  27.309  23.788  1.00  0.00     0.198 A 
ATOM     87  F   UNL A   1      46.103  28.122  23.837  1.00  0.00    -0.203 F 
ATOM     88  F   UNL A   1      50.555  26.416  26.487  1.00  0.00    -0.200 F 
ATOM     89  C   UNL A   1      49.448  26.880  24.453  1.00  0.00     0.200 A 
ATOM     90  F   UNL A   1      48.305  27.382  22.449  1.00  0.00    -0.200 F 
ATOM     91  F   UNL A   1      50.551  26.561  23.763  1.00  0.00    -0.200 F 
ENDBRANCH  57  81
BRANCH  69  92
ATOM     92  C   UNL A   1      45.411  33.612  28.991  1.00  0.00     0.064 A 
ATOM     93  C   UNL A   1      46.318  33.825  30.039  1.00  0.00     0.173 A 
ATOM     94  C   UNL A   1      45.245  34.640  28.048  1.00  0.00     0.173 A 
ATOM     95  F   UNL A   1      46.503  32.881  30.974  1.00  0.00    -0.203 F 
ATOM     96  C   UNL A   1      47.016  35.026  30.148  1.00  0.00     0.198 A 
ATOM     97  C   UNL A   1      45.971  35.824  28.140  1.00  0.00     0.198 A 
ATOM     98  F   UNL A   1      44.397  34.484  27.020  1.00  0.00    -0.203 F 
ATOM     99  F   UNL A   1      47.846  35.224  31.183  1.00  0.00    -0.200 F 
ATOM    100  C   UNL A   1      46.850  36.018  29.195  1.00  0.00     0.200 A 
ATOM    101  F   UNL A   1      45.824  36.773  27.206  1.00  0.00    -0.200 F 
ATOM    102  F   UNL A   1      47.537  37.165  29.292  1.00  0.00    -0.200 F 
ENDBRANCH  69  92
ENDBRANCH  43  44
ENDBRANCH  36  38
ENDBRANCH  35  36
ENDBRANCH  34  35
ENDBRANCH  33  34
ENDBRANCH  32  33
ENDBRANCH  31  32
ENDBRANCH  30  31
ENDBRANCH   1  30
TORSDOF 23
ENDMDL
MODEL 3
REMARK VINA RESULT:     -10.9      5.013      7.374
REMARK SMILES [NH3+][C@]1(C(=O)OCCOCCOCCOCCOC(=O)c2ccc(-c3c4nc(c(-c5c(F)c(F)c(F)c(F)c5F)c5ccc([nH]5)c(-c5c(F)c(F)c(F)c(F)c5F)c5nc(c(-c6c(F)c(F)c(F)c(F)c6F)c6ccc3[nH]6)C=C5)C=C4)cc2)CC[C@@H](Sc2cc3ccccc3[nH]2)C1
REMARK SMILES IDX 11 1 10 2 9 3 8 4 7 5 6 6 5 7 3 8 4 9 2 10 83 11 96 12 84 13
REMARK SMILES IDX 85 14 1 15 86 19 87 20 88 21 95 22 89 23 94 24 90 26 93 27
REMARK SMILES IDX 91 28 92 29 12 30 13 31 14 32 15 33 16 34 17 35 18 36 19 37
REMARK SMILES IDX 20 38 21 39 82 40 22 41 81 42 23 43 24 44 25 45 75 46 26 47
REMARK SMILES IDX 80 48 74 49 76 50 27 51 79 52 73 53 72 54 28 56 60 57 40 58
REMARK SMILES IDX 59 59 41 60 44 61 58 62 77 63 42 64 43 65 57 67 78 68 45 69
REMARK SMILES IDX 29 70 30 71 38 72 31 73 32 74 36 75 39 76 33 77 34 78 37 79
REMARK SMILES IDX 35 80 61 81 62 82 70 83 63 84 64 85 68 86 71 87 65 88 66 89
REMARK SMILES IDX 69 90 67 91 46 92 47 93 55 94 48 95 49 96 53 97 56 98 50 99
REMARK SMILES IDX 51 100 54 101 52 102
REMARK H PARENT 1 16 1 17 1 18 95 25 76 55 44 66
REMARK Flexibility Score: inf
ROOT
ATOM      1  O   UNL A   1      40.087  22.623  27.615  1.00  0.00    -0.377 OA
ENDROOT
BRANCH   1   2
ATOM      2  C   UNL A   1      39.431  22.504  26.368  1.00  0.00     0.188 C 
BRANCH   2   3
ATOM      3  C   UNL A   1      38.261  23.487  26.189  1.00  0.00     0.188 C 
BRANCH   3   4
ATOM      4  O   UNL A   1      37.050  22.983  25.662  1.00  0.00    -0.376 OA
BRANCH   4   5
ATOM      5  C   UNL A   1      37.000  22.329  24.402  1.00  0.00     0.202 C 
BRANCH   5   6
ATOM      6  C   UNL A   1      36.265  22.814  23.134  1.00  0.00     0.261 C 
BRANCH   6   7
ATOM      7  O   UNL A   1      34.840  22.880  23.156  1.00  0.00    -0.459 OA
BRANCH   7   8
ATOM      8  C   UNL A   1      34.286  24.086  23.464  1.00  0.00     0.368 C 
ATOM      9  O   UNL A   1      34.746  24.859  24.294  1.00  0.00    -0.245 OA
BRANCH   8  10
ATOM     10  C   UNL A   1      33.081  24.402  22.534  1.00  0.00     0.193 C 
ATOM     11  C   UNL A   1      31.792  24.435  23.364  1.00  0.00     0.082 C 
ATOM     12  C   UNL A   1      33.219  25.818  21.942  1.00  0.00     0.096 C 
ATOM     13  C   UNL A   1      30.944  25.543  22.766  1.00  0.00     0.022 C 
ATOM     14  C   UNL A   1      31.928  26.562  22.220  1.00  0.00     0.060 C 
BRANCH  10  15
ATOM     15  N   UNL A   1      32.942  23.400  21.444  1.00  0.00    -0.343 N 
ATOM     16  H   UNL A   1      33.653  23.570  20.733  1.00  0.00     0.345 HD
ATOM     17  H   UNL A   1      32.015  23.480  21.025  1.00  0.00     0.345 HD
ATOM     18  H   UNL A   1      33.062  22.462  21.826  1.00  0.00     0.345 HD
ENDBRANCH  10  15
BRANCH  14  19
ATOM     19  S   UNL A   1      32.305  28.055  23.144  1.00  0.00    -0.105 SA
BRANCH  19  20
ATOM     20  C   UNL A   1      32.191  27.680  24.839  1.00  0.00     0.073 A 
ATOM     21  C   UNL A   1      33.205  27.315  25.708  1.00  0.00     0.043 A 
ATOM     22  N   UNL A   1      31.362  28.496  25.569  1.00  0.00    -0.350 N 
ATOM     23  C   UNL A   1      33.355  28.480  26.538  1.00  0.00     0.001 A 
ATOM     24  C   UNL A   1      32.211  29.257  26.350  1.00  0.00     0.046 A 
ATOM     25  H   UNL A   1      30.379  28.532  25.542  1.00  0.00     0.167 HD
ATOM     26  C   UNL A   1      34.426  29.026  27.270  1.00  0.00     0.010 A 
ATOM     27  C   UNL A   1      32.093  30.580  26.772  1.00  0.00     0.027 A 
ATOM     28  C   UNL A   1      34.354  30.377  27.645  1.00  0.00     0.001 A 
ATOM     29  C   UNL A   1      33.216  31.143  27.377  1.00  0.00     0.002 A 
ENDBRANCH  19  20
ENDBRANCH  14  19
ENDBRANCH   8  10
ENDBRANCH   7   8
ENDBRANCH   6   7
ENDBRANCH   5   6
ENDBRANCH   4   5
ENDBRANCH   3   4
ENDBRANCH   2   3
ENDBRANCH   1   2
BRANCH   1  30
ATOM     30  C   UNL A   1      41.146  21.707  27.859  1.00  0.00     0.188 C 
BRANCH  30  31
ATOM     31  C   UNL A   1      41.516  20.658  26.784  1.00  0.00     0.188 C 
BRANCH  31  32
ATOM     32  O   UNL A   1      42.395  19.636  27.235  1.00  0.00    -0.376 OA
BRANCH  32  33
ATOM     33  C   UNL A   1      42.533  18.453  26.464  1.00  0.00     0.202 C 
BRANCH  33  34
ATOM     34  C   UNL A   1      43.897  18.190  25.808  1.00  0.00     0.261 C 
BRANCH  34  35
ATOM     35  O   UNL A   1      44.050  18.642  24.455  1.00  0.00    -0.460 OA
BRANCH  35  36
ATOM     36  C   UNL A   1      45.179  19.320  24.140  1.00  0.00     0.338 C 
ATOM     37  O   UNL A   1      46.102  18.940  23.458  1.00  0.00    -0.246 OA
BRANCH  36  38
ATOM     38  C   UNL A   1      44.995  20.710  24.618  1.00  0.00     0.060 A 
ATOM     39  C   UNL A   1      44.551  21.689  23.720  1.00  0.00     0.016 A 
ATOM     40  C   UNL A   1      45.235  21.032  25.955  1.00  0.00     0.016 A 
ATOM     41  C   UNL A   1      44.373  23.005  24.150  1.00  0.00     0.010 A 
ATOM     42  C   UNL A   1      45.086  22.355  26.378  1.00  0.00     0.010 A 
ATOM     43  C   UNL A   1      44.686  23.352  25.470  1.00  0.00    -0.014 A 
BRANCH  43  44
ATOM     44  C   UNL A   1      44.820  24.777  25.856  1.00  0.00     0.031 A 
ATOM     45  C   UNL A   1      46.184  25.402  25.759  1.00  0.00     0.074 A 
ATOM     46  C   UNL A   1      43.772  25.496  26.291  1.00  0.00     0.049 A 
ATOM     47  N   UNL A   1      46.595  26.577  26.160  1.00  0.00    -0.248 NA
ATOM     48  C   UNL A   1      47.230  24.580  25.127  1.00  0.00     0.031 C 
ATOM     49  C   UNL A   1      42.394  25.022  26.374  1.00  0.00     0.029 A 
ATOM     50  N   UNL A   1      43.717  26.783  26.768  1.00  0.00    -0.354 N 
ATOM     51  C   UNL A   1      47.944  26.631  25.839  1.00  0.00     0.074 A 
ATOM     52  C   UNL A   1      48.293  25.361  25.242  1.00  0.00     0.031 C 
ATOM     53  C   UNL A   1      41.629  25.998  26.896  1.00  0.00     0.029 A 
ATOM     54  C   UNL A   1      42.474  27.146  27.225  1.00  0.00     0.049 A 
ATOM     55  H   UNL A   1      44.494  27.387  26.781  1.00  0.00     0.167 HD
ATOM     56  C   UNL A   1      48.814  27.652  26.018  1.00  0.00     0.037 A 
ATOM     57  C   UNL A   1      42.078  28.262  27.870  1.00  0.00     0.037 A 
ATOM     58  C   UNL A   1      48.464  28.909  26.624  1.00  0.00     0.049 A 
ATOM     59  C   UNL A   1      43.091  29.345  28.157  1.00  0.00     0.074 A 
ATOM     60  C   UNL A   1      49.270  30.009  26.858  1.00  0.00     0.029 A 
ATOM     61  N   UNL A   1      47.201  29.229  27.100  1.00  0.00    -0.354 N 
ATOM     62  N   UNL A   1      44.365  29.399  27.844  1.00  0.00    -0.248 NA
ATOM     63  C   UNL A   1      42.612  30.526  28.894  1.00  0.00     0.031 C 
ATOM     64  C   UNL A   1      48.509  30.971  27.529  1.00  0.00     0.029 A 
ATOM     65  C   UNL A   1      47.212  30.500  27.649  1.00  0.00     0.049 A 
ATOM     66  H   UNL A   1      46.413  28.641  27.053  1.00  0.00     0.167 HD
ATOM     67  C   UNL A   1      44.823  30.628  28.305  1.00  0.00     0.074 A 
ATOM     68  C   UNL A   1      43.692  31.293  28.914  1.00  0.00     0.031 C 
ATOM     69  C   UNL A   1      46.069  31.158  28.229  1.00  0.00     0.037 A 
BRANCH  56  70
ATOM     70  C   UNL A   1      50.234  27.439  25.583  1.00  0.00     0.064 A 
ATOM     71  C   UNL A   1      50.627  27.594  24.245  1.00  0.00     0.173 A 
ATOM     72  C   UNL A   1      51.222  27.103  26.521  1.00  0.00     0.173 A 
ATOM     73  F   UNL A   1      49.718  27.899  23.305  1.00  0.00    -0.203 F 
ATOM     74  C   UNL A   1      51.949  27.393  23.858  1.00  0.00     0.198 A 
ATOM     75  C   UNL A   1      52.550  26.938  26.136  1.00  0.00     0.198 A 
ATOM     76  F   UNL A   1      50.901  26.945  27.814  1.00  0.00    -0.203 F 
ATOM     77  F   UNL A   1      52.290  27.494  22.565  1.00  0.00    -0.200 F 
ATOM     78  C   UNL A   1      52.910  27.074  24.804  1.00  0.00     0.200 A 
ATOM     79  F   UNL A   1      53.480  26.642  27.055  1.00  0.00    -0.200 F 
ATOM     80  F   UNL A   1      54.184  26.890  24.432  1.00  0.00    -0.200 F 
ENDBRANCH  56  70
BRANCH  57  81
ATOM     81  C   UNL A   1      40.667  28.412  28.320  1.00  0.00     0.064 A 
ATOM     82  C   UNL A   1      39.700  28.989  27.487  1.00  0.00     0.173 A 
ATOM     83  C   UNL A   1      40.269  28.027  29.608  1.00  0.00     0.173 A 
ATOM     84  F   UNL A   1      40.036  29.401  26.255  1.00  0.00    -0.203 F 
ATOM     85  C   UNL A   1      38.396  29.202  27.934  1.00  0.00     0.198 A 
ATOM     86  C   UNL A   1      38.956  28.208  30.042  1.00  0.00     0.198 A 
ATOM     87  F   UNL A   1      41.154  27.474  30.451  1.00  0.00    -0.203 F 
ATOM     88  F   UNL A   1      37.509  29.815  27.137  1.00  0.00    -0.200 F 
ATOM     89  C   UNL A   1      38.025  28.806  29.209  1.00  0.00     0.200 A 
ATOM     90  F   UNL A   1      38.598  27.813  31.273  1.00  0.00    -0.200 F 
ATOM     91  F   UNL A   1      36.773  29.014  29.639  1.00  0.00    -0.200 F 
ENDBRANCH  57  81
BRANCH  69  92
ATOM     92  C   UNL A   1      46.270  32.551  28.758  1.00  0.00     0.064 A 
ATOM     93  C   UNL A   1      46.093  33.685  27.953  1.00  0.00     0.173 A 
ATOM     94  C   UNL A   1      46.578  32.750  30.114  1.00  0.00     0.173 A 
ATOM     95  F   UNL A   1      45.810  33.549  26.649  1.00  0.00    -0.203 F 
ATOM     96  C   UNL A   1      46.236  34.967  28.480  1.00  0.00     0.198 A 
ATOM     97  C   UNL A   1      46.685  34.033  30.645  1.00  0.00     0.198 A 
ATOM     98  F   UNL A   1      46.748  31.700  30.931  1.00  0.00    -0.203 F 
ATOM     99  F   UNL A   1      46.104  36.035  27.682  1.00  0.00    -0.200 F 
ATOM    100  C   UNL A   1      46.521  35.139  29.826  1.00  0.00     0.200 A 
ATOM    101  F   UNL A   1      46.941  34.197  31.950  1.00  0.00    -0.200 F 
ATOM    102  F   UNL A   1      46.640  36.373  30.335  1.00  0.00    -0.200 F 
ENDBRANCH  69  92
ENDBRANCH  43  44
ENDBRANCH  36  38
ENDBRANCH  35  36
ENDBRANCH  34  35
ENDBRANCH  33  34
ENDBRANCH  32  33
ENDBRANCH  31  32
ENDBRANCH  30  31
ENDBRANCH   1  30
TORSDOF 23
ENDMDL
