MODEL 1
REMARK VINA RESULT:     -10.1      0.000      0.000
REMARK SMILES CC(C)CN(C)c1cc2c(cc1Cl)C=C(C(=O)OCCOCCOCCOCCOC(=O)c1ccc(-c3c4nc(c(-c5c(F)c(F)c(F)c(F)c5F)c5ccc([nH]5)c(-c5c(F)c(F)c(F)c(F)c5F)c5nc(c(-c6c(F)c(F)c(F)c(F)c6F)c6ccc3[nH]6)C=C5)C=C4)cc1)[C@@H](C(F)(F)F)O2
REMARK SMILES IDX 23 1 22 2 21 3 20 4 19 5 18 6 16 7 17 8 15 9 7 10 8 11 12 12
REMARK SMILES IDX 9 13 11 14 13 15 10 16 101 17 14 18 96 19 5 20 6 21 4 22
REMARK SMILES IDX 2 23 1 24 3 25 97 26 98 27 99 28 100 29 24 30 25 31 26 32
REMARK SMILES IDX 27 33 28 34 29 35 30 36 31 37 32 38 33 39 34 40 95 41 35 42
REMARK SMILES IDX 94 43 36 44 37 45 38 46 88 47 39 48 93 49 87 50 89 51 40 52
REMARK SMILES IDX 92 53 86 54 85 55 41 57 73 58 53 59 72 60 54 61 57 62 71 63
REMARK SMILES IDX 90 64 55 65 56 66 70 68 91 69 58 70 42 71 43 72 51 73 44 74
REMARK SMILES IDX 45 75 49 76 52 77 46 78 47 79 50 80 48 81 74 82 75 83 83 84
REMARK SMILES IDX 76 85 77 86 81 87 84 88 78 89 79 90 82 91 80 92 59 93 60 94
REMARK SMILES IDX 68 95 61 96 62 97 66 98 69 99 63 100 64 101 67 102 65 103
REMARK H PARENT 89 56 57 67
REMARK Flexibility Score: inf
ROOT
ATOM      1  C   UNL A   1      35.334  30.827  27.691  1.00  0.00     0.188 C 
ENDROOT
BRANCH   1   2
ATOM      2  C   UNL A   1      34.140  30.142  27.004  1.00  0.00     0.188 C 
BRANCH   2   3
ATOM      3  O   UNL A   1      32.885  30.730  27.343  1.00  0.00    -0.376 OA
BRANCH   3   4
ATOM      4  C   UNL A   1      31.859  30.681  26.359  1.00  0.00     0.202 C 
BRANCH   4   5
ATOM      5  C   UNL A   1      32.006  29.612  25.263  1.00  0.00     0.261 C 
BRANCH   5   6
ATOM      6  O   UNL A   1      31.416  28.340  25.576  1.00  0.00    -0.460 OA
BRANCH   6   7
ATOM      7  C   UNL A   1      30.711  27.758  24.589  1.00  0.00     0.338 C 
ATOM      8  O   UNL A   1      29.872  28.297  23.887  1.00  0.00    -0.246 OA
BRANCH   7   9
ATOM      9  C   UNL A   1      31.225  26.392  24.365  1.00  0.00     0.087 C 
ATOM     10  C   UNL A   1      33.322  21.884  25.111  1.00  0.00     0.059 A 
ATOM     11  C   UNL A   1      32.952  22.613  23.957  1.00  0.00     0.074 A 
ATOM     12  C   UNL A   1      32.946  22.430  26.359  1.00  0.00     0.065 A 
ATOM     13  C   UNL A   1      32.273  23.837  24.053  1.00  0.00     0.130 A 
ATOM     14  C   UNL A   1      32.162  23.580  26.444  1.00  0.00     0.034 A 
ATOM     15  Cl  UNL A   1      33.545  21.838  27.872  1.00  0.00    -0.082 Cl
ATOM     16  C   UNL A   1      31.854  24.300  25.297  1.00  0.00     0.019 A 
ATOM     17  O   UNL A   1      32.058  24.542  22.898  1.00  0.00    -0.475 OA
ATOM     18  C   UNL A   1      31.201  25.585  25.430  1.00  0.00     0.027 C 
ATOM     19  C   UNL A   1      31.757  25.972  23.019  1.00  0.00     0.316 C 
BRANCH  10  20
ATOM     20  N   UNL A   1      34.095  20.719  25.011  1.00  0.00    -0.373 N 
ATOM     21  C   UNL A   1      35.542  20.918  25.029  1.00  0.00     0.143 C 
BRANCH  20  22
ATOM     22  C   UNL A   1      33.592  19.575  24.219  1.00  0.00     0.119 C 
BRANCH  22  23
ATOM     23  C   UNL A   1      33.713  18.224  24.955  1.00  0.00     0.002 C 
ATOM     24  C   UNL A   1      32.373  17.484  25.000  1.00  0.00     0.009 C 
ATOM     25  C   UNL A   1      34.768  17.311  24.325  1.00  0.00     0.009 C 
ENDBRANCH  22  23
ENDBRANCH  20  22
ENDBRANCH  10  20
BRANCH  19  26
ATOM     26  C   UNL A   1      32.981  26.807  22.621  1.00  0.00     0.430 C 
ATOM     27  F   UNL A   1      33.653  26.246  21.588  1.00  0.00    -0.167 F 
ATOM     28  F   UNL A   1      32.623  28.052  22.221  1.00  0.00    -0.167 F 
ATOM     29  F   UNL A   1      33.853  26.950  23.645  1.00  0.00    -0.167 F 
ENDBRANCH  19  26
ENDBRANCH   7   9
ENDBRANCH   6   7
ENDBRANCH   5   6
ENDBRANCH   4   5
ENDBRANCH   3   4
ENDBRANCH   2   3
ENDBRANCH   1   2
BRANCH   1  30
ATOM     30  O   UNL A   1      35.317  32.241  27.580  1.00  0.00    -0.377 OA
BRANCH  30  31
ATOM     31  C   UNL A   1      35.345  33.010  28.782  1.00  0.00     0.188 C 
BRANCH  31  32
ATOM     32  C   UNL A   1      34.404  32.725  29.977  1.00  0.00     0.188 C 
BRANCH  32  33
ATOM     33  O   UNL A   1      35.018  32.868  31.254  1.00  0.00    -0.376 OA
BRANCH  33  34
ATOM     34  C   UNL A   1      34.803  34.095  31.934  1.00  0.00     0.202 C 
BRANCH  34  35
ATOM     35  C   UNL A   1      35.484  34.168  33.305  1.00  0.00     0.261 C 
BRANCH  35  36
ATOM     36  O   UNL A   1      36.905  33.962  33.290  1.00  0.00    -0.460 OA
BRANCH  36  37
ATOM     37  C   UNL A   1      37.386  32.832  33.854  1.00  0.00     0.338 C 
ATOM     38  O   UNL A   1      37.006  32.295  34.879  1.00  0.00    -0.246 OA
BRANCH  37  39
ATOM     39  C   UNL A   1      38.337  32.235  32.893  1.00  0.00     0.060 A 
ATOM     40  C   UNL A   1      38.221  32.505  31.528  1.00  0.00     0.016 A 
ATOM     41  C   UNL A   1      39.326  31.362  33.364  1.00  0.00     0.016 A 
ATOM     42  C   UNL A   1      39.120  31.924  30.633  1.00  0.00     0.010 A 
ATOM     43  C   UNL A   1      40.219  30.774  32.465  1.00  0.00     0.010 A 
ATOM     44  C   UNL A   1      40.137  31.073  31.096  1.00  0.00    -0.014 A 
BRANCH  44  45
ATOM     45  C   UNL A   1      41.220  30.665  30.172  1.00  0.00     0.031 A 
ATOM     46  C   UNL A   1      42.364  31.567  29.830  1.00  0.00     0.074 A 
ATOM     47  C   UNL A   1      41.149  29.429  29.642  1.00  0.00     0.049 A 
ATOM     48  N   UNL A   1      43.427  31.304  29.110  1.00  0.00    -0.248 NA
ATOM     49  C   UNL A   1      42.313  32.937  30.357  1.00  0.00     0.031 C 
ATOM     50  C   UNL A   1      40.063  28.478  29.886  1.00  0.00     0.029 A 
ATOM     51  N   UNL A   1      42.001  28.758  28.803  1.00  0.00    -0.354 N 
ATOM     52  C   UNL A   1      44.186  32.465  29.115  1.00  0.00     0.074 A 
ATOM     53  C   UNL A   1      43.438  33.450  29.872  1.00  0.00     0.031 C 
ATOM     54  C   UNL A   1      40.326  27.338  29.234  1.00  0.00     0.029 A 
ATOM     55  C   UNL A   1      41.585  27.484  28.511  1.00  0.00     0.049 A 
ATOM     56  H   UNL A   1      42.829  29.152  28.447  1.00  0.00     0.167 HD
ATOM     57  C   UNL A   1      45.402  32.673  28.554  1.00  0.00     0.037 A 
ATOM     58  C   UNL A   1      42.157  26.533  27.749  1.00  0.00     0.037 A 
ATOM     59  C   UNL A   1      46.128  31.689  27.787  1.00  0.00     0.049 A 
ATOM     60  C   UNL A   1      43.482  26.810  27.101  1.00  0.00     0.074 A 
ATOM     61  C   UNL A   1      47.385  31.799  27.215  1.00  0.00     0.029 A 
ATOM     62  N   UNL A   1      45.658  30.422  27.471  1.00  0.00    -0.354 N 
ATOM     63  N   UNL A   1      44.230  27.883  27.177  1.00  0.00    -0.248 NA
ATOM     64  C   UNL A   1      44.048  25.741  26.267  1.00  0.00     0.031 C 
ATOM     65  C   UNL A   1      47.652  30.620  26.511  1.00  0.00     0.029 A 
ATOM     66  C   UNL A   1      46.586  29.753  26.686  1.00  0.00     0.049 A 
ATOM     67  H   UNL A   1      44.793  30.052  27.762  1.00  0.00     0.167 HD
ATOM     68  C   UNL A   1      45.360  27.616  26.420  1.00  0.00     0.074 A 
ATOM     69  C   UNL A   1      45.209  26.270  25.906  1.00  0.00     0.031 C 
ATOM     70  C   UNL A   1      46.425  28.417  26.171  1.00  0.00     0.037 A 
BRANCH  57  71
ATOM     71  C   UNL A   1      46.048  34.014  28.753  1.00  0.00     0.064 A 
ATOM     72  C   UNL A   1      45.818  35.070  27.858  1.00  0.00     0.173 A 
ATOM     73  C   UNL A   1      46.815  34.279  29.898  1.00  0.00     0.173 A 
ATOM     74  F   UNL A   1      45.092  34.868  26.747  1.00  0.00    -0.203 F 
ATOM     75  C   UNL A   1      46.342  36.338  28.095  1.00  0.00     0.198 A 
ATOM     76  C   UNL A   1      47.317  35.555  30.144  1.00  0.00     0.198 A 
ATOM     77  F   UNL A   1      47.053  33.308  30.792  1.00  0.00    -0.203 F 
ATOM     78  F   UNL A   1      46.128  37.326  27.216  1.00  0.00    -0.200 F 
ATOM     79  C   UNL A   1      47.082  36.582  29.243  1.00  0.00     0.200 A 
ATOM     80  F   UNL A   1      48.016  35.793  31.263  1.00  0.00    -0.200 F 
ATOM     81  F   UNL A   1      47.567  37.809  29.481  1.00  0.00    -0.200 F 
ENDBRANCH  57  71
BRANCH  58  82
ATOM     82  C   UNL A   1      41.488  25.216  27.604  1.00  0.00     0.064 A 
ATOM     83  C   UNL A   1      40.375  25.066  26.767  1.00  0.00     0.173 A 
ATOM     84  C   UNL A   1      41.969  24.078  28.268  1.00  0.00     0.173 A 
ATOM     85  F   UNL A   1      39.872  26.130  26.125  1.00  0.00    -0.203 F 
ATOM     86  C   UNL A   1      39.762  23.826  26.605  1.00  0.00     0.198 A 
ATOM     87  C   UNL A   1      41.371  22.834  28.083  1.00  0.00     0.198 A 
ATOM     88  F   UNL A   1      43.037  24.171  29.074  1.00  0.00    -0.203 F 
ATOM     89  F   UNL A   1      38.681  23.714  25.821  1.00  0.00    -0.200 F 
ATOM     90  C   UNL A   1      40.265  22.710  27.255  1.00  0.00     0.200 A 
ATOM     91  F   UNL A   1      41.872  21.755  28.700  1.00  0.00    -0.200 F 
ATOM     92  F   UNL A   1      39.684  21.515  27.086  1.00  0.00    -0.200 F 
ENDBRANCH  58  82
BRANCH  70  93
ATOM     93  C   UNL A   1      47.519  27.862  25.305  1.00  0.00     0.064 A 
ATOM     94  C   UNL A   1      48.625  27.200  25.859  1.00  0.00     0.173 A 
ATOM     95  C   UNL A   1      47.436  27.946  23.907  1.00  0.00     0.173 A 
ATOM     96  F   UNL A   1      48.758  27.107  27.191  1.00  0.00    -0.203 F 
ATOM     97  C   UNL A   1      49.615  26.656  25.045  1.00  0.00     0.198 A 
ATOM     98  C   UNL A   1      48.414  27.376  23.096  1.00  0.00     0.198 A 
ATOM     99  F   UNL A   1      46.398  28.565  23.327  1.00  0.00    -0.203 F 
ATOM    100  F   UNL A   1      50.683  26.063  25.598  1.00  0.00    -0.200 F 
ATOM    101  C   UNL A   1      49.504  26.736  23.665  1.00  0.00     0.200 A 
ATOM    102  F   UNL A   1      48.299  27.442  21.762  1.00  0.00    -0.200 F 
ATOM    103  F   UNL A   1      50.453  26.201  22.884  1.00  0.00    -0.200 F 
ENDBRANCH  70  93
ENDBRANCH  44  45
ENDBRANCH  37  39
ENDBRANCH  36  37
ENDBRANCH  35  36
ENDBRANCH  34  35
ENDBRANCH  33  34
ENDBRANCH  32  33
ENDBRANCH  31  32
ENDBRANCH  30  31
ENDBRANCH   1  30
TORSDOF 24
ENDMDL
MODEL 2
REMARK VINA RESULT:      -9.0      2.880      4.938
REMARK SMILES CC(C)CN(C)c1cc2c(cc1Cl)C=C(C(=O)OCCOCCOCCOCCOC(=O)c1ccc(-c3c4nc(c(-c5c(F)c(F)c(F)c(F)c5F)c5ccc([nH]5)c(-c5c(F)c(F)c(F)c(F)c5F)c5nc(c(-c6c(F)c(F)c(F)c(F)c6F)c6ccc3[nH]6)C=C5)C=C4)cc1)[C@@H](C(F)(F)F)O2
REMARK SMILES IDX 23 1 22 2 21 3 20 4 19 5 18 6 16 7 17 8 15 9 7 10 8 11 12 12
REMARK SMILES IDX 9 13 11 14 13 15 10 16 101 17 14 18 96 19 5 20 6 21 4 22
REMARK SMILES IDX 2 23 1 24 3 25 97 26 98 27 99 28 100 29 24 30 25 31 26 32
REMARK SMILES IDX 27 33 28 34 29 35 30 36 31 37 32 38 33 39 34 40 95 41 35 42
REMARK SMILES IDX 94 43 36 44 37 45 38 46 88 47 39 48 93 49 87 50 89 51 40 52
REMARK SMILES IDX 92 53 86 54 85 55 41 57 73 58 53 59 72 60 54 61 57 62 71 63
REMARK SMILES IDX 90 64 55 65 56 66 70 68 91 69 58 70 42 71 43 72 51 73 44 74
REMARK SMILES IDX 45 75 49 76 52 77 46 78 47 79 50 80 48 81 74 82 75 83 83 84
REMARK SMILES IDX 76 85 77 86 81 87 84 88 78 89 79 90 82 91 80 92 59 93 60 94
REMARK SMILES IDX 68 95 61 96 62 97 66 98 69 99 63 100 64 101 67 102 65 103
REMARK H PARENT 89 56 57 67
REMARK Flexibility Score: inf
ROOT
ATOM      1  C   UNL A   1      34.307  33.638  29.119  1.00  0.00     0.188 C 
ENDROOT
BRANCH   1   2
ATOM      2  C   UNL A   1      35.174  33.084  27.974  1.00  0.00     0.188 C 
BRANCH   2   3
ATOM      3  O   UNL A   1      34.540  32.032  27.249  1.00  0.00    -0.376 OA
BRANCH   3   4
ATOM      4  C   UNL A   1      34.018  30.947  28.005  1.00  0.00     0.202 C 
BRANCH   4   5
ATOM      5  C   UNL A   1      32.852  30.165  27.375  1.00  0.00     0.261 C 
BRANCH   5   6
ATOM      6  O   UNL A   1      32.959  29.957  25.958  1.00  0.00    -0.460 OA
BRANCH   6   7
ATOM      7  C   UNL A   1      31.816  29.654  25.318  1.00  0.00     0.338 C 
ATOM      8  O   UNL A   1      30.929  30.436  25.017  1.00  0.00    -0.246 OA
BRANCH   7   9
ATOM      9  C   UNL A   1      31.862  28.246  24.878  1.00  0.00     0.087 C 
ATOM     10  C   UNL A   1      32.476  23.256  24.856  1.00  0.00     0.059 A 
ATOM     11  C   UNL A   1      32.291  24.224  23.842  1.00  0.00     0.074 A 
ATOM     12  C   UNL A   1      32.360  23.700  26.192  1.00  0.00     0.065 A 
ATOM     13  C   UNL A   1      32.037  25.568  24.154  1.00  0.00     0.130 A 
ATOM     14  C   UNL A   1      31.983  25.009  26.494  1.00  0.00     0.034 A 
ATOM     15  Cl  UNL A   1      32.825  22.739  27.555  1.00  0.00    -0.082 Cl
ATOM     16  C   UNL A   1      31.853  25.949  25.480  1.00  0.00     0.019 A 
ATOM     17  O   UNL A   1      31.990  26.468  23.121  1.00  0.00    -0.475 OA
ATOM     18  C   UNL A   1      31.644  27.337  25.833  1.00  0.00     0.027 C 
ATOM     19  C   UNL A   1      32.160  27.887  23.445  1.00  0.00     0.316 C 
BRANCH  10  20
ATOM     20  N   UNL A   1      32.838  21.940  24.539  1.00  0.00    -0.373 N 
ATOM     21  C   UNL A   1      32.159  20.896  25.303  1.00  0.00     0.143 C 
BRANCH  20  22
ATOM     22  C   UNL A   1      34.221  21.649  24.101  1.00  0.00     0.119 C 
BRANCH  22  23
ATOM     23  C   UNL A   1      35.183  21.363  25.274  1.00  0.00     0.002 C 
ATOM     24  C   UNL A   1      36.141  20.214  24.950  1.00  0.00     0.009 C 
ATOM     25  C   UNL A   1      35.998  22.596  25.672  1.00  0.00     0.009 C 
ENDBRANCH  22  23
ENDBRANCH  20  22
ENDBRANCH  10  20
BRANCH  19  26
ATOM     26  C   UNL A   1      33.561  28.361  23.035  1.00  0.00     0.430 C 
ATOM     27  F   UNL A   1      33.589  29.695  22.808  1.00  0.00    -0.167 F 
ATOM     28  F   UNL A   1      34.473  28.113  24.008  1.00  0.00    -0.167 F 
ATOM     29  F   UNL A   1      33.996  27.747  21.912  1.00  0.00    -0.167 F 
ENDBRANCH  19  26
ENDBRANCH   7   9
ENDBRANCH   6   7
ENDBRANCH   5   6
ENDBRANCH   4   5
ENDBRANCH   3   4
ENDBRANCH   2   3
ENDBRANCH   1   2
BRANCH   1  30
ATOM     30  O   UNL A   1      35.033  33.882  30.312  1.00  0.00    -0.377 OA
BRANCH  30  31
ATOM     31  C   UNL A   1      34.324  34.407  31.435  1.00  0.00     0.188 C 
BRANCH  31  32
ATOM     32  C   UNL A   1      34.973  35.375  32.452  1.00  0.00     0.188 C 
BRANCH  32  33
ATOM     33  O   UNL A   1      35.799  34.739  33.422  1.00  0.00    -0.376 OA
BRANCH  33  34
ATOM     34  C   UNL A   1      35.322  33.519  33.969  1.00  0.00     0.202 C 
BRANCH  34  35
ATOM     35  C   UNL A   1      36.304  32.352  33.823  1.00  0.00     0.261 C 
BRANCH  35  36
ATOM     36  O   UNL A   1      36.460  31.851  32.486  1.00  0.00    -0.460 OA
BRANCH  36  37
ATOM     37  C   UNL A   1      37.090  30.666  32.326  1.00  0.00     0.338 C 
ATOM     38  O   UNL A   1      36.632  29.552  32.510  1.00  0.00    -0.246 OA
BRANCH  37  39
ATOM     39  C   UNL A   1      38.392  30.947  31.686  1.00  0.00     0.060 A 
ATOM     40  C   UNL A   1      38.493  31.013  30.295  1.00  0.00     0.016 A 
ATOM     41  C   UNL A   1      39.529  31.101  32.489  1.00  0.00     0.016 A 
ATOM     42  C   UNL A   1      39.731  31.267  29.706  1.00  0.00     0.010 A 
ATOM     43  C   UNL A   1      40.770  31.346  31.897  1.00  0.00     0.010 A 
ATOM     44  C   UNL A   1      40.873  31.457  30.503  1.00  0.00    -0.014 A 
BRANCH  44  45
ATOM     45  C   UNL A   1      42.118  31.963  29.879  1.00  0.00     0.031 A 
ATOM     46  C   UNL A   1      42.381  33.424  29.687  1.00  0.00     0.074 A 
ATOM     47  C   UNL A   1      43.030  31.053  29.489  1.00  0.00     0.049 A 
ATOM     48  N   UNL A   1      43.466  34.008  29.241  1.00  0.00    -0.248 NA
ATOM     49  C   UNL A   1      41.294  34.348  30.032  1.00  0.00     0.031 C 
ATOM     50  C   UNL A   1      42.863  29.603  29.606  1.00  0.00     0.029 A 
ATOM     51  N   UNL A   1      44.273  31.204  28.931  1.00  0.00    -0.354 N 
ATOM     52  C   UNL A   1      43.205  35.370  29.274  1.00  0.00     0.074 A 
ATOM     53  C   UNL A   1      41.840  35.523  29.740  1.00  0.00     0.031 C 
ATOM     54  C   UNL A   1      43.971  28.998  29.157  1.00  0.00     0.029 A 
ATOM     55  C   UNL A   1      44.916  30.014  28.703  1.00  0.00     0.049 A 
ATOM     56  H   UNL A   1      44.665  32.080  28.715  1.00  0.00     0.167 HD
ATOM     57  C   UNL A   1      44.041  36.391  28.962  1.00  0.00     0.037 A 
ATOM     58  C   UNL A   1      46.136  29.766  28.191  1.00  0.00     0.037 A 
ATOM     59  C   UNL A   1      45.391  36.225  28.482  1.00  0.00     0.049 A 
ATOM     60  C   UNL A   1      47.020  30.917  27.810  1.00  0.00     0.074 A 
ATOM     61  C   UNL A   1      46.324  37.203  28.179  1.00  0.00     0.029 A 
ATOM     62  N   UNL A   1      45.997  35.004  28.219  1.00  0.00    -0.354 N 
ATOM     63  N   UNL A   1      46.795  32.203  27.920  1.00  0.00    -0.248 NA
ATOM     64  C   UNL A   1      48.333  30.584  27.240  1.00  0.00     0.031 C 
ATOM     65  C   UNL A   1      47.473  36.577  27.684  1.00  0.00     0.029 A 
ATOM     66  C   UNL A   1      47.279  35.206  27.728  1.00  0.00     0.049 A 
ATOM     67  H   UNL A   1      45.579  34.124  28.361  1.00  0.00     0.167 HD
ATOM     68  C   UNL A   1      47.939  32.833  27.453  1.00  0.00     0.074 A 
ATOM     69  C   UNL A   1      48.866  31.786  27.075  1.00  0.00     0.031 C 
ATOM     70  C   UNL A   1      48.193  34.160  27.345  1.00  0.00     0.037 A 
BRANCH  57  71
ATOM     71  C   UNL A   1      43.534  37.793  29.139  1.00  0.00     0.064 A 
ATOM     72  C   UNL A   1      42.718  38.398  28.172  1.00  0.00     0.173 A 
ATOM     73  C   UNL A   1      43.775  38.499  30.328  1.00  0.00     0.173 A 
ATOM     74  F   UNL A   1      42.458  37.765  27.017  1.00  0.00    -0.203 F 
ATOM     75  C   UNL A   1      42.172  39.662  28.381  1.00  0.00     0.198 A 
ATOM     76  C   UNL A   1      43.208  39.753  30.545  1.00  0.00     0.198 A 
ATOM     77  F   UNL A   1      44.537  37.961  31.292  1.00  0.00    -0.203 F 
ATOM     78  F   UNL A   1      41.414  40.229  27.433  1.00  0.00    -0.200 F 
ATOM     79  C   UNL A   1      42.409  40.334  29.571  1.00  0.00     0.200 A 
ATOM     80  F   UNL A   1      43.423  40.393  31.703  1.00  0.00    -0.200 F 
ATOM     81  F   UNL A   1      41.866  41.541  29.781  1.00  0.00    -0.200 F 
ENDBRANCH  57  71
BRANCH  58  82
ATOM     82  C   UNL A   1      46.598  28.361  28.059  1.00  0.00     0.064 A 
ATOM     83  C   UNL A   1      46.425  27.660  26.859  1.00  0.00     0.173 A 
ATOM     84  C   UNL A   1      47.253  27.708  29.113  1.00  0.00     0.173 A 
ATOM     85  F   UNL A   1      45.790  28.241  25.830  1.00  0.00    -0.203 F 
ATOM     86  C   UNL A   1      46.883  26.353  26.720  1.00  0.00     0.198 A 
ATOM     87  C   UNL A   1      47.735  26.410  28.963  1.00  0.00     0.198 A 
ATOM     88  F   UNL A   1      47.450  28.342  30.279  1.00  0.00    -0.203 F 
ATOM     89  F   UNL A   1      46.680  25.693  25.571  1.00  0.00    -0.200 F 
ATOM     90  C   UNL A   1      47.545  25.732  27.768  1.00  0.00     0.200 A 
ATOM     91  F   UNL A   1      48.389  25.821  29.973  1.00  0.00    -0.200 F 
ATOM     92  F   UNL A   1      47.999  24.479  27.628  1.00  0.00    -0.200 F 
ENDBRANCH  58  82
BRANCH  70  93
ATOM     93  C   UNL A   1      49.532  34.563  26.798  1.00  0.00     0.064 A 
ATOM     94  C   UNL A   1      50.690  34.512  27.587  1.00  0.00     0.173 A 
ATOM     95  C   UNL A   1      49.668  34.954  25.457  1.00  0.00     0.173 A 
ATOM     96  F   UNL A   1      50.611  34.161  28.880  1.00  0.00    -0.203 F 
ATOM     97  C   UNL A   1      51.932  34.854  27.059  1.00  0.00     0.198 A 
ATOM     98  C   UNL A   1      50.916  35.267  24.925  1.00  0.00     0.198 A 
ATOM     99  F   UNL A   1      48.592  35.015  24.658  1.00  0.00    -0.203 F 
ATOM    100  F   UNL A   1      53.019  34.836  27.843  1.00  0.00    -0.200 F 
ATOM    101  C   UNL A   1      52.046  35.221  25.727  1.00  0.00     0.200 A 
ATOM    102  F   UNL A   1      51.025  35.608  23.633  1.00  0.00    -0.200 F 
ATOM    103  F   UNL A   1      53.245  35.536  25.217  1.00  0.00    -0.200 F 
ENDBRANCH  70  93
ENDBRANCH  44  45
ENDBRANCH  37  39
ENDBRANCH  36  37
ENDBRANCH  35  36
ENDBRANCH  34  35
ENDBRANCH  33  34
ENDBRANCH  32  33
ENDBRANCH  31  32
ENDBRANCH  30  31
ENDBRANCH   1  30
TORSDOF 24
ENDMDL
MODEL 3
REMARK VINA RESULT:      -8.9      4.568      8.627
REMARK SMILES CC(C)CN(C)c1cc2c(cc1Cl)C=C(C(=O)OCCOCCOCCOCCOC(=O)c1ccc(-c3c4nc(c(-c5c(F)c(F)c(F)c(F)c5F)c5ccc([nH]5)c(-c5c(F)c(F)c(F)c(F)c5F)c5nc(c(-c6c(F)c(F)c(F)c(F)c6F)c6ccc3[nH]6)C=C5)C=C4)cc1)[C@@H](C(F)(F)F)O2
REMARK SMILES IDX 23 1 22 2 21 3 20 4 19 5 18 6 16 7 17 8 15 9 7 10 8 11 12 12
REMARK SMILES IDX 9 13 11 14 13 15 10 16 101 17 14 18 96 19 5 20 6 21 4 22
REMARK SMILES IDX 2 23 1 24 3 25 97 26 98 27 99 28 100 29 24 30 25 31 26 32
REMARK SMILES IDX 27 33 28 34 29 35 30 36 31 37 32 38 33 39 34 40 95 41 35 42
REMARK SMILES IDX 94 43 36 44 37 45 38 46 88 47 39 48 93 49 87 50 89 51 40 52
REMARK SMILES IDX 92 53 86 54 85 55 41 57 73 58 53 59 72 60 54 61 57 62 71 63
REMARK SMILES IDX 90 64 55 65 56 66 70 68 91 69 58 70 42 71 43 72 51 73 44 74
REMARK SMILES IDX 45 75 49 76 52 77 46 78 47 79 50 80 48 81 74 82 75 83 83 84
REMARK SMILES IDX 76 85 77 86 81 87 84 88 78 89 79 90 82 91 80 92 59 93 60 94
REMARK SMILES IDX 68 95 61 96 62 97 66 98 69 99 63 100 64 101 67 102 65 103
REMARK H PARENT 89 56 57 67
REMARK Flexibility Score: inf
ROOT
ATOM      1  C   UNL A   1      34.473  33.038  30.458  1.00  0.00     0.188 C 
ENDROOT
BRANCH   1   2
ATOM      2  C   UNL A   1      34.478  32.823  28.935  1.00  0.00     0.188 C 
BRANCH   2   3
ATOM      3  O   UNL A   1      34.340  31.452  28.562  1.00  0.00    -0.376 OA
BRANCH   3   4
ATOM      4  C   UNL A   1      35.363  30.897  27.745  1.00  0.00     0.202 C 
BRANCH   4   5
ATOM      5  C   UNL A   1      36.808  31.315  28.070  1.00  0.00     0.261 C 
BRANCH   5   6
ATOM      6  O   UNL A   1      37.649  30.258  28.558  1.00  0.00    -0.460 OA
BRANCH   6   7
ATOM      7  C   UNL A   1      38.626  30.624  29.406  1.00  0.00     0.338 C 
ATOM      8  O   UNL A   1      38.593  31.567  30.180  1.00  0.00    -0.246 OA
BRANCH   7   9
ATOM      9  C   UNL A   1      39.697  29.608  29.383  1.00  0.00     0.087 C 
ATOM     10  C   UNL A   1      42.900  26.064  27.815  1.00  0.00     0.059 A 
ATOM     11  C   UNL A   1      42.515  26.543  29.089  1.00  0.00     0.074 A 
ATOM     12  C   UNL A   1      42.401  26.764  26.694  1.00  0.00     0.065 A 
ATOM     13  C   UNL A   1      41.654  27.641  29.227  1.00  0.00     0.130 A 
ATOM     14  C   UNL A   1      41.649  27.930  26.838  1.00  0.00     0.034 A 
ATOM     15  Cl  UNL A   1      42.528  26.169  25.072  1.00  0.00    -0.082 Cl
ATOM     16  C   UNL A   1      41.248  28.349  28.099  1.00  0.00     0.019 A 
ATOM     17  O   UNL A   1      41.231  27.969  30.489  1.00  0.00    -0.475 OA
ATOM     18  C   UNL A   1      40.317  29.451  28.209  1.00  0.00     0.027 C 
ATOM     19  C   UNL A   1      40.031  28.801  30.610  1.00  0.00     0.316 C 
BRANCH  10  20
ATOM     20  N   UNL A   1      43.671  24.902  27.684  1.00  0.00    -0.373 N 
ATOM     21  C   UNL A   1      45.108  25.111  27.529  1.00  0.00     0.143 C 
BRANCH  20  22
ATOM     22  C   UNL A   1      43.096  23.717  27.008  1.00  0.00     0.119 C 
BRANCH  22  23
ATOM     23  C   UNL A   1      42.580  22.645  27.992  1.00  0.00     0.002 C 
ATOM     24  C   UNL A   1      43.030  22.933  29.427  1.00  0.00     0.009 C 
ATOM     25  C   UNL A   1      41.055  22.515  27.963  1.00  0.00     0.009 C 
ENDBRANCH  22  23
ENDBRANCH  20  22
ENDBRANCH  10  20
BRANCH  19  26
ATOM     26  C   UNL A   1      38.835  27.947  31.054  1.00  0.00     0.430 C 
ATOM     27  F   UNL A   1      39.072  27.335  32.238  1.00  0.00    -0.167 F 
ATOM     28  F   UNL A   1      37.722  28.702  31.223  1.00  0.00    -0.167 F 
ATOM     29  F   UNL A   1      38.535  26.986  30.152  1.00  0.00    -0.167 F 
ENDBRANCH  19  26
ENDBRANCH   7   9
ENDBRANCH   6   7
ENDBRANCH   5   6
ENDBRANCH   4   5
ENDBRANCH   3   4
ENDBRANCH   2   3
ENDBRANCH   1   2
BRANCH   1  30
ATOM     30  O   UNL A   1      35.081  31.981  31.182  1.00  0.00    -0.377 OA
BRANCH  30  31
ATOM     31  C   UNL A   1      36.072  32.314  32.154  1.00  0.00     0.188 C 
BRANCH  31  32
ATOM     32  C   UNL A   1      36.868  33.641  32.112  1.00  0.00     0.188 C 
BRANCH  32  33
ATOM     33  O   UNL A   1      38.025  33.656  32.942  1.00  0.00    -0.376 OA
BRANCH  33  34
ATOM     34  C   UNL A   1      37.935  34.394  34.152  1.00  0.00     0.202 C 
BRANCH  34  35
ATOM     35  C   UNL A   1      37.099  33.704  35.235  1.00  0.00     0.261 C 
BRANCH  35  36
ATOM     36  O   UNL A   1      37.271  32.281  35.323  1.00  0.00    -0.460 OA
BRANCH  36  37
ATOM     37  C   UNL A   1      38.175  31.809  36.210  1.00  0.00     0.338 C 
ATOM     38  O   UNL A   1      38.032  31.668  37.411  1.00  0.00    -0.246 OA
BRANCH  37  39
ATOM     39  C   UNL A   1      39.323  31.296  35.433  1.00  0.00     0.060 A 
ATOM     40  C   UNL A   1      39.109  30.525  34.288  1.00  0.00     0.016 A 
ATOM     41  C   UNL A   1      40.624  31.554  35.883  1.00  0.00     0.016 A 
ATOM     42  C   UNL A   1      40.202  30.038  33.572  1.00  0.00     0.010 A 
ATOM     43  C   UNL A   1      41.717  31.058  35.169  1.00  0.00     0.010 A 
ATOM     44  C   UNL A   1      41.512  30.319  33.995  1.00  0.00    -0.014 A 
BRANCH  44  45
ATOM     45  C   UNL A   1      42.648  30.005  33.097  1.00  0.00     0.031 A 
ATOM     46  C   UNL A   1      43.441  28.741  33.220  1.00  0.00     0.074 A 
ATOM     47  C   UNL A   1      42.949  30.904  32.141  1.00  0.00     0.049 A 
ATOM     48  N   UNL A   1      44.399  28.298  32.444  1.00  0.00    -0.248 NA
ATOM     49  C   UNL A   1      43.127  27.865  34.356  1.00  0.00     0.031 C 
ATOM     50  C   UNL A   1      42.258  32.180  31.950  1.00  0.00     0.029 A 
ATOM     51  N   UNL A   1      43.897  30.883  31.151  1.00  0.00    -0.354 N 
ATOM     52  C   UNL A   1      44.789  27.079  32.979  1.00  0.00     0.074 A 
ATOM     53  C   UNL A   1      43.994  26.875  34.175  1.00  0.00     0.031 C 
ATOM     54  C   UNL A   1      42.787  32.809  30.892  1.00  0.00     0.029 A 
ATOM     55  C   UNL A   1      43.865  31.993  30.344  1.00  0.00     0.049 A 
ATOM     56  H   UNL A   1      44.536  30.145  31.031  1.00  0.00     0.167 HD
ATOM     57  C   UNL A   1      45.710  26.208  32.499  1.00  0.00     0.037 A 
ATOM     58  C   UNL A   1      44.618  32.315  29.275  1.00  0.00     0.037 A 
ATOM     59  C   UNL A   1      46.507  26.432  31.317  1.00  0.00     0.049 A 
ATOM     60  C   UNL A   1      45.663  31.351  28.796  1.00  0.00     0.074 A 
ATOM     61  C   UNL A   1      47.437  25.587  30.733  1.00  0.00     0.029 A 
ATOM     62  N   UNL A   1      46.483  27.587  30.548  1.00  0.00    -0.354 N 
ATOM     63  N   UNL A   1      45.969  30.166  29.261  1.00  0.00    -0.248 NA
ATOM     64  C   UNL A   1      46.465  31.767  27.637  1.00  0.00     0.031 C 
ATOM     65  C   UNL A   1      48.012  26.250  29.644  1.00  0.00     0.029 A 
ATOM     66  C   UNL A   1      47.404  27.488  29.514  1.00  0.00     0.049 A 
ATOM     67  H   UNL A   1      45.898  28.361  30.711  1.00  0.00     0.167 HD
ATOM     68  C   UNL A   1      46.981  29.684  28.445  1.00  0.00     0.074 A 
ATOM     69  C   UNL A   1      47.227  30.700  27.442  1.00  0.00     0.031 C 
ATOM     70  C   UNL A   1      47.649  28.507  28.525  1.00  0.00     0.037 A 
BRANCH  57  71
ATOM     71  C   UNL A   1      45.908  24.916  33.237  1.00  0.00     0.064 A 
ATOM     72  C   UNL A   1      47.028  24.713  34.057  1.00  0.00     0.173 A 
ATOM     73  C   UNL A   1      44.925  23.916  33.211  1.00  0.00     0.173 A 
ATOM     74  F   UNL A   1      47.998  25.639  34.117  1.00  0.00    -0.203 F 
ATOM     75  C   UNL A   1      47.163  23.551  34.814  1.00  0.00     0.198 A 
ATOM     76  C   UNL A   1      45.050  22.766  33.988  1.00  0.00     0.198 A 
ATOM     77  F   UNL A   1      43.827  24.065  32.454  1.00  0.00    -0.203 F 
ATOM     78  F   UNL A   1      48.251  23.369  35.574  1.00  0.00    -0.200 F 
ATOM     79  C   UNL A   1      46.168  22.584  34.787  1.00  0.00     0.200 A 
ATOM     80  F   UNL A   1      44.080  21.840  33.974  1.00  0.00    -0.200 F 
ATOM     81  F   UNL A   1      46.289  21.476  35.532  1.00  0.00    -0.200 F 
ENDBRANCH  57  71
BRANCH  58  82
ATOM     82  C   UNL A   1      44.364  33.595  28.568  1.00  0.00     0.064 A 
ATOM     83  C   UNL A   1      44.772  34.814  29.124  1.00  0.00     0.173 A 
ATOM     84  C   UNL A   1      43.746  33.621  27.309  1.00  0.00     0.173 A 
ATOM     85  F   UNL A   1      45.353  34.837  30.332  1.00  0.00    -0.203 F 
ATOM     86  C   UNL A   1      44.564  36.015  28.450  1.00  0.00     0.198 A 
ATOM     87  C   UNL A   1      43.564  34.820  26.624  1.00  0.00     0.198 A 
ATOM     88  F   UNL A   1      43.346  32.478  26.732  1.00  0.00    -0.203 F 
ATOM     89  F   UNL A   1      44.938  37.171  29.016  1.00  0.00    -0.200 F 
ATOM     90  C   UNL A   1      43.969  36.017  27.197  1.00  0.00     0.200 A 
ATOM     91  F   UNL A   1      43.004  34.815  25.407  1.00  0.00    -0.200 F 
ATOM     92  F   UNL A   1      43.783  37.171  26.544  1.00  0.00    -0.200 F 
ENDBRANCH  58  82
BRANCH  70  93
ATOM     93  C   UNL A   1      48.711  28.245  27.496  1.00  0.00     0.064 A 
ATOM     94  C   UNL A   1      48.410  27.625  26.275  1.00  0.00     0.173 A 
ATOM     95  C   UNL A   1      50.033  28.665  27.711  1.00  0.00     0.173 A 
ATOM     96  F   UNL A   1      47.164  27.191  26.029  1.00  0.00    -0.203 F 
ATOM     97  C   UNL A   1      49.395  27.420  25.313  1.00  0.00     0.198 A 
ATOM     98  C   UNL A   1      51.010  28.484  26.735  1.00  0.00     0.198 A 
ATOM     99  F   UNL A   1      50.373  29.267  28.861  1.00  0.00    -0.203 F 
ATOM    100  F   UNL A   1      49.092  26.790  24.170  1.00  0.00    -0.200 F 
ATOM    101  C   UNL A   1      50.691  27.859  25.540  1.00  0.00     0.200 A 
ATOM    102  F   UNL A   1      52.259  28.921  26.951  1.00  0.00    -0.200 F 
ATOM    103  F   UNL A   1      51.636  27.672  24.607  1.00  0.00    -0.200 F 
ENDBRANCH  70  93
ENDBRANCH  44  45
ENDBRANCH  37  39
ENDBRANCH  36  37
ENDBRANCH  35  36
ENDBRANCH  34  35
ENDBRANCH  33  34
ENDBRANCH  32  33
ENDBRANCH  31  32
ENDBRANCH  30  31
ENDBRANCH   1  30
TORSDOF 24
ENDMDL
