MODEL 1
REMARK VINA RESULT:      -9.7      0.000      0.000
REMARK SMILES CC1=Nc2nc(NC(=O)CCC(=O)OCCOCCOCCOCCOC(=O)c3ccc(-c4c5nc(c(-c6c(F)c(F)c(F)c(F)c6F)c6ccc([nH]6)c(-c6c(F)c(F)c(F)c(F)c6F)c6nc(c(-c7c(F)c(F)c(F)c(F)c7F)c7ccc4[nH]7)C=C6)C=C5)cc3)nn2[C@@H](c2ccc(Cl)cc2)C1
REMARK SMILES IDX 19 1 18 2 17 3 16 4 15 5 14 6 12 7 13 8 11 9 10 10 8 11 7 12
REMARK SMILES IDX 9 14 6 15 1 16 2 17 3 18 102 19 4 20 94 21 5 22 93 23 92 24
REMARK SMILES IDX 95 25 96 26 101 27 97 28 100 29 98 30 99 31 20 32 21 33
REMARK SMILES IDX 22 34 23 35 24 36 25 37 26 38 27 39 28 40 29 41 30 42 91 43
REMARK SMILES IDX 31 44 90 45 32 46 33 47 34 48 84 49 35 50 89 51 83 52 85 53
REMARK SMILES IDX 36 54 88 55 82 56 81 57 37 59 69 60 49 61 68 62 50 63 53 64
REMARK SMILES IDX 67 65 86 66 51 67 52 68 66 70 87 71 54 72 38 73 39 74 47 75
REMARK SMILES IDX 40 76 41 77 45 78 48 79 42 80 43 81 46 82 44 83 70 84 71 85
REMARK SMILES IDX 79 86 72 87 73 88 77 89 80 90 74 91 75 92 78 93 76 94 55 95
REMARK SMILES IDX 56 96 64 97 57 98 58 99 62 100 65 101 59 102 60 103 63 104
REMARK SMILES IDX 61 105
REMARK H PARENT 7 13 85 58 53 69
REMARK Flexibility Score: inf
ROOT
ATOM      1  C   UNL A   1      45.793  30.273  26.463  1.00  0.00     0.188 C 
ENDROOT
BRANCH   1   2
ATOM      2  C   UNL A   1      44.417  31.028  26.880  1.00  0.00     0.188 C 
BRANCH   2   3
ATOM      3  O   UNL A   1      44.081  32.431  26.653  1.00  0.00    -0.376 OA
BRANCH   3   4
ATOM      4  C   UNL A   1      44.203  33.146  25.395  1.00  0.00     0.202 C 
BRANCH   4   5
ATOM      5  C   UNL A   1      44.213  34.673  25.440  1.00  0.00     0.261 C 
BRANCH   5   6
ATOM      6  O   UNL A   1      42.929  35.067  25.909  1.00  0.00    -0.463 OA
BRANCH   6   7
ATOM      7  C   UNL A   1      43.115  35.875  26.974  1.00  0.00     0.306 C 
ATOM      8  O   UNL A   1      43.790  35.544  27.944  1.00  0.00    -0.252 OA
BRANCH   7   9
ATOM      9  C   UNL A   1      42.425  37.214  26.823  1.00  0.00     0.132 C 
BRANCH   9  10
ATOM     10  C   UNL A   1      42.122  38.230  27.979  1.00  0.00     0.112 C 
BRANCH  10  11
ATOM     11  C   UNL A   1      42.997  39.376  28.557  1.00  0.00     0.227 C 
ATOM     12  N   UNL A   1      43.619  40.447  27.935  1.00  0.00    -0.293 N 
ATOM     13  H   UNL A   1      44.375  40.736  28.496  1.00  0.00     0.173 HD
ATOM     14  O   UNL A   1      43.292  39.253  29.762  1.00  0.00    -0.275 OA
BRANCH  12  15
ATOM     15  C   UNL A   1      43.568  41.274  26.801  1.00  0.00     0.250 A 
ATOM     16  C   UNL A   1      41.675  43.078  21.618  1.00  0.00     0.062 C 
ATOM     17  C   UNL A   1      42.400  42.973  22.935  1.00  0.00     0.021 C 
ATOM     18  N   UNL A   1      42.291  41.873  23.610  1.00  0.00    -0.221 NA
ATOM     19  C   UNL A   1      43.131  44.210  23.391  1.00  0.00     0.083 C 
ATOM     20  C   UNL A   1      42.923  41.783  24.798  1.00  0.00     0.250 A 
ATOM     21  C   UNL A   1      44.140  43.995  24.523  1.00  0.00     0.147 C 
ATOM     22  N   UNL A   1      42.735  40.905  25.775  1.00  0.00    -0.174 NA
ATOM     23  N   UNL A   1      43.904  42.671  25.187  1.00  0.00    -0.220 N 
ATOM     24  N   UNL A   1      44.237  42.388  26.473  1.00  0.00    -0.130 NA
BRANCH  21  25
ATOM     25  C   UNL A   1      45.568  44.505  24.164  1.00  0.00    -0.023 A 
ATOM     26  C   UNL A   1      46.579  44.718  25.095  1.00  0.00     0.007 A 
ATOM     27  C   UNL A   1      45.879  44.988  22.876  1.00  0.00     0.007 A 
ATOM     28  C   UNL A   1      47.834  45.274  24.819  1.00  0.00     0.021 A 
ATOM     29  C   UNL A   1      47.142  45.535  22.558  1.00  0.00     0.021 A 
ATOM     30  C   UNL A   1      48.124  45.660  23.532  1.00  0.00     0.041 A 
ATOM     31  Cl  UNL A   1      49.663  46.324  23.167  1.00  0.00    -0.084 Cl
ENDBRANCH  21  25
ENDBRANCH  12  15
ENDBRANCH  10  11
ENDBRANCH   9  10
ENDBRANCH   7   9
ENDBRANCH   6   7
ENDBRANCH   5   6
ENDBRANCH   4   5
ENDBRANCH   3   4
ENDBRANCH   2   3
ENDBRANCH   1   2
BRANCH   1  32
ATOM     32  O   UNL A   1      45.958  28.948  25.868  1.00  0.00    -0.377 OA
BRANCH  32  33
ATOM     33  C   UNL A   1      45.131  27.905  26.373  1.00  0.00     0.188 C 
BRANCH  33  34
ATOM     34  C   UNL A   1      44.959  27.513  27.841  1.00  0.00     0.188 C 
BRANCH  34  35
ATOM     35  O   UNL A   1      44.909  26.129  28.148  1.00  0.00    -0.376 OA
BRANCH  35  36
ATOM     36  C   UNL A   1      45.106  25.229  27.067  1.00  0.00     0.202 C 
BRANCH  36  37
ATOM     37  C   UNL A   1      43.913  24.370  26.667  1.00  0.00     0.261 C 
BRANCH  37  38
ATOM     38  O   UNL A   1      42.672  25.043  26.850  1.00  0.00    -0.460 OA
BRANCH  38  39
ATOM     39  C   UNL A   1      42.270  25.733  25.771  1.00  0.00     0.338 C 
ATOM     40  O   UNL A   1      42.711  25.636  24.615  1.00  0.00    -0.246 OA
BRANCH  39  41
ATOM     41  C   UNL A   1      41.207  26.675  26.124  1.00  0.00     0.060 A 
ATOM     42  C   UNL A   1      41.493  28.027  25.909  1.00  0.00     0.016 A 
ATOM     43  C   UNL A   1      40.192  26.252  26.989  1.00  0.00     0.016 A 
ATOM     44  C   UNL A   1      41.015  28.933  26.820  1.00  0.00     0.010 A 
ATOM     45  C   UNL A   1      39.721  27.158  27.909  1.00  0.00     0.010 A 
ATOM     46  C   UNL A   1      40.257  28.447  27.887  1.00  0.00    -0.014 A 
BRANCH  46  47
ATOM     47  C   UNL A   1      40.212  29.273  29.074  1.00  0.00     0.031 A 
ATOM     48  C   UNL A   1      39.097  30.230  29.145  1.00  0.00     0.074 A 
ATOM     49  C   UNL A   1      41.124  29.117  30.056  1.00  0.00     0.049 A 
ATOM     50  N   UNL A   1      39.161  31.511  29.287  1.00  0.00    -0.248 NA
ATOM     51  C   UNL A   1      37.741  29.696  28.962  1.00  0.00     0.031 C 
ATOM     52  C   UNL A   1      42.104  28.034  30.204  1.00  0.00     0.029 A 
ATOM     53  N   UNL A   1      41.282  29.838  31.200  1.00  0.00    -0.354 N 
ATOM     54  C   UNL A   1      37.844  31.937  29.379  1.00  0.00     0.074 A 
ATOM     55  C   UNL A   1      37.013  30.807  29.048  1.00  0.00     0.031 C 
ATOM     56  C   UNL A   1      42.582  28.044  31.467  1.00  0.00     0.029 A 
ATOM     57  C   UNL A   1      42.027  29.188  32.171  1.00  0.00     0.049 A 
ATOM     58  H   UNL A   1      40.903  30.737  31.325  1.00  0.00     0.167 HD
ATOM     59  C   UNL A   1      37.527  33.125  29.953  1.00  0.00     0.037 A 
ATOM     60  C   UNL A   1      42.090  29.515  33.485  1.00  0.00     0.037 A 
ATOM     61  C   UNL A   1      38.636  34.041  29.952  1.00  0.00     0.049 A 
ATOM     62  C   UNL A   1      41.635  30.921  33.627  1.00  0.00     0.074 A 
ATOM     63  C   UNL A   1      39.428  34.595  28.965  1.00  0.00     0.029 A 
ATOM     64  N   UNL A   1      39.295  34.285  31.130  1.00  0.00    -0.354 N 
ATOM     65  N   UNL A   1      42.312  31.962  33.229  1.00  0.00    -0.248 NA
ATOM     66  C   UNL A   1      40.220  31.159  33.877  1.00  0.00     0.031 C 
ATOM     67  C   UNL A   1      40.724  34.723  29.546  1.00  0.00     0.029 A 
ATOM     68  C   UNL A   1      40.639  34.259  30.858  1.00  0.00     0.049 A 
ATOM     69  H   UNL A   1      38.880  34.447  32.010  1.00  0.00     0.167 HD
ATOM     70  C   UNL A   1      41.351  32.849  32.768  1.00  0.00     0.074 A 
ATOM     71  C   UNL A   1      40.088  32.356  33.304  1.00  0.00     0.031 C 
ATOM     72  C   UNL A   1      41.631  33.727  31.762  1.00  0.00     0.037 A 
BRANCH  59  73
ATOM     73  C   UNL A   1      36.309  33.306  30.814  1.00  0.00     0.064 A 
ATOM     74  C   UNL A   1      35.256  34.120  30.362  1.00  0.00     0.173 A 
ATOM     75  C   UNL A   1      36.264  32.941  32.179  1.00  0.00     0.173 A 
ATOM     76  F   UNL A   1      35.227  34.557  29.095  1.00  0.00    -0.203 F 
ATOM     77  C   UNL A   1      34.260  34.578  31.228  1.00  0.00     0.198 A 
ATOM     78  C   UNL A   1      35.237  33.349  33.025  1.00  0.00     0.198 A 
ATOM     79  F   UNL A   1      37.263  32.275  32.771  1.00  0.00    -0.203 F 
ATOM     80  F   UNL A   1      33.344  35.450  30.786  1.00  0.00    -0.200 F 
ATOM     81  C   UNL A   1      34.252  34.192  32.558  1.00  0.00     0.200 A 
ATOM     82  F   UNL A   1      35.260  32.984  34.314  1.00  0.00    -0.200 F 
ATOM     83  F   UNL A   1      33.330  34.674  33.400  1.00  0.00    -0.200 F 
ENDBRANCH  59  73
BRANCH  60  84
ATOM     84  C   UNL A   1      42.227  28.604  34.646  1.00  0.00     0.064 A 
ATOM     85  C   UNL A   1      41.493  27.409  34.712  1.00  0.00     0.173 A 
ATOM     86  C   UNL A   1      43.267  28.749  35.586  1.00  0.00     0.173 A 
ATOM     87  F   UNL A   1      40.515  27.167  33.825  1.00  0.00    -0.203 F 
ATOM     88  C   UNL A   1      41.796  26.411  35.644  1.00  0.00     0.198 A 
ATOM     89  C   UNL A   1      43.557  27.761  36.527  1.00  0.00     0.198 A 
ATOM     90  F   UNL A   1      44.089  29.806  35.554  1.00  0.00    -0.203 F 
ATOM     91  F   UNL A   1      41.117  25.256  35.630  1.00  0.00    -0.200 F 
ATOM     92  C   UNL A   1      42.832  26.585  36.546  1.00  0.00     0.200 A 
ATOM     93  F   UNL A   1      44.584  27.931  37.373  1.00  0.00    -0.200 F 
ATOM     94  F   UNL A   1      43.159  25.608  37.403  1.00  0.00    -0.200 F 
ENDBRANCH  60  84
BRANCH  72  95
ATOM     95  C   UNL A   1      43.074  33.938  31.402  1.00  0.00     0.064 A 
ATOM     96  C   UNL A   1      43.800  33.092  30.546  1.00  0.00     0.173 A 
ATOM     97  C   UNL A   1      43.715  35.098  31.858  1.00  0.00     0.173 A 
ATOM     98  F   UNL A   1      43.222  32.025  29.976  1.00  0.00    -0.203 F 
ATOM     99  C   UNL A   1      45.128  33.362  30.220  1.00  0.00     0.198 A 
ATOM    100  C   UNL A   1      45.028  35.386  31.498  1.00  0.00     0.198 A 
ATOM    101  F   UNL A   1      43.051  35.975  32.628  1.00  0.00    -0.203 F 
ATOM    102  F   UNL A   1      45.809  32.524  29.426  1.00  0.00    -0.200 F 
ATOM    103  C   UNL A   1      45.740  34.511  30.694  1.00  0.00     0.200 A 
ATOM    104  F   UNL A   1      45.599  36.525  31.916  1.00  0.00    -0.200 F 
ATOM    105  F   UNL A   1      47.006  34.787  30.356  1.00  0.00    -0.200 F 
ENDBRANCH  72  95
ENDBRANCH  46  47
ENDBRANCH  39  41
ENDBRANCH  38  39
ENDBRANCH  37  38
ENDBRANCH  36  37
ENDBRANCH  35  36
ENDBRANCH  34  35
ENDBRANCH  33  34
ENDBRANCH  32  33
ENDBRANCH   1  32
TORSDOF 24
ENDMDL
MODEL 2
REMARK VINA RESULT:      -9.4      6.541     12.044
REMARK SMILES CC1=Nc2nc(NC(=O)CCC(=O)OCCOCCOCCOCCOC(=O)c3ccc(-c4c5nc(c(-c6c(F)c(F)c(F)c(F)c6F)c6ccc([nH]6)c(-c6c(F)c(F)c(F)c(F)c6F)c6nc(c(-c7c(F)c(F)c(F)c(F)c7F)c7ccc4[nH]7)C=C6)C=C5)cc3)nn2[C@@H](c2ccc(Cl)cc2)C1
REMARK SMILES IDX 19 1 18 2 17 3 16 4 15 5 14 6 12 7 13 8 11 9 10 10 8 11 7 12
REMARK SMILES IDX 9 14 6 15 1 16 2 17 3 18 102 19 4 20 94 21 5 22 93 23 92 24
REMARK SMILES IDX 95 25 96 26 101 27 97 28 100 29 98 30 99 31 20 32 21 33
REMARK SMILES IDX 22 34 23 35 24 36 25 37 26 38 27 39 28 40 29 41 30 42 91 43
REMARK SMILES IDX 31 44 90 45 32 46 33 47 34 48 84 49 35 50 89 51 83 52 85 53
REMARK SMILES IDX 36 54 88 55 82 56 81 57 37 59 69 60 49 61 68 62 50 63 53 64
REMARK SMILES IDX 67 65 86 66 51 67 52 68 66 70 87 71 54 72 38 73 39 74 47 75
REMARK SMILES IDX 40 76 41 77 45 78 48 79 42 80 43 81 46 82 44 83 70 84 71 85
REMARK SMILES IDX 79 86 72 87 73 88 77 89 80 90 74 91 75 92 78 93 76 94 55 95
REMARK SMILES IDX 56 96 64 97 57 98 58 99 62 100 65 101 59 102 60 103 63 104
REMARK SMILES IDX 61 105
REMARK H PARENT 7 13 85 58 53 69
REMARK Flexibility Score: inf
ROOT
ATOM      1  C   UNL A   1      38.503  33.780  34.670  1.00  0.00     0.188 C 
ENDROOT
BRANCH   1   2
ATOM      2  C   UNL A   1      38.566  33.032  33.230  1.00  0.00     0.188 C 
BRANCH   2   3
ATOM      3  O   UNL A   1      37.459  32.392  32.524  1.00  0.00    -0.376 OA
BRANCH   3   4
ATOM      4  C   UNL A   1      36.057  32.759  32.621  1.00  0.00     0.202 C 
BRANCH   4   5
ATOM      5  C   UNL A   1      35.609  34.052  31.943  1.00  0.00     0.261 C 
BRANCH   5   6
ATOM      6  O   UNL A   1      34.271  34.283  32.370  1.00  0.00    -0.463 OA
BRANCH   6   7
ATOM      7  C   UNL A   1      34.191  35.566  32.783  1.00  0.00     0.306 C 
ATOM      8  O   UNL A   1      34.788  35.980  33.772  1.00  0.00    -0.252 OA
BRANCH   7   9
ATOM      9  C   UNL A   1      33.314  36.418  31.890  1.00  0.00     0.132 C 
BRANCH   9  10
ATOM     10  C   UNL A   1      32.768  36.013  30.476  1.00  0.00     0.112 C 
BRANCH  10  11
ATOM     11  C   UNL A   1      33.430  36.135  29.077  1.00  0.00     0.227 C 
ATOM     12  N   UNL A   1      34.218  35.246  28.363  1.00  0.00    -0.293 N 
ATOM     13  H   UNL A   1      34.768  35.760  27.728  1.00  0.00     0.173 HD
ATOM     14  O   UNL A   1      33.341  37.262  28.552  1.00  0.00    -0.275 OA
BRANCH  12  15
ATOM     15  C   UNL A   1      34.522  33.883  28.210  1.00  0.00     0.250 A 
ATOM     16  C   UNL A   1      33.509  28.330  26.855  1.00  0.00     0.062 C 
ATOM     17  C   UNL A   1      34.171  29.618  27.270  1.00  0.00     0.021 C 
ATOM     18  N   UNL A   1      33.422  30.652  27.488  1.00  0.00    -0.221 NA
ATOM     19  C   UNL A   1      35.678  29.606  27.315  1.00  0.00     0.083 C 
ATOM     20  C   UNL A   1      34.014  31.812  27.842  1.00  0.00     0.250 A 
ATOM     21  C   UNL A   1      36.322  30.776  28.066  1.00  0.00     0.147 C 
ATOM     22  N   UNL A   1      33.508  33.038  27.835  1.00  0.00    -0.174 NA
ATOM     23  N   UNL A   1      35.325  31.878  28.266  1.00  0.00    -0.220 N 
ATOM     24  N   UNL A   1      35.650  33.189  28.413  1.00  0.00    -0.130 NA
BRANCH  21  25
ATOM     25  C   UNL A   1      37.287  30.310  29.196  1.00  0.00    -0.023 A 
ATOM     26  C   UNL A   1      38.666  30.489  29.170  1.00  0.00     0.007 A 
ATOM     27  C   UNL A   1      36.848  29.480  30.249  1.00  0.00     0.007 A 
ATOM     28  C   UNL A   1      39.569  29.990  30.116  1.00  0.00     0.021 A 
ATOM     29  C   UNL A   1      37.728  28.976  31.232  1.00  0.00     0.021 A 
ATOM     30  C   UNL A   1      39.089  29.249  31.171  1.00  0.00     0.041 A 
ATOM     31  Cl  UNL A   1      40.174  28.645  32.354  1.00  0.00    -0.084 Cl
ENDBRANCH  21  25
ENDBRANCH  12  15
ENDBRANCH  10  11
ENDBRANCH   9  10
ENDBRANCH   7   9
ENDBRANCH   6   7
ENDBRANCH   5   6
ENDBRANCH   4   5
ENDBRANCH   3   4
ENDBRANCH   2   3
ENDBRANCH   1   2
BRANCH   1  32
ATOM     32  O   UNL A   1      38.591  35.211  34.955  1.00  0.00    -0.377 OA
BRANCH  32  33
ATOM     33  C   UNL A   1      39.858  35.712  35.369  1.00  0.00     0.188 C 
BRANCH  33  34
ATOM     34  C   UNL A   1      41.161  34.916  35.465  1.00  0.00     0.188 C 
BRANCH  34  35
ATOM     35  O   UNL A   1      42.167  35.190  34.504  1.00  0.00    -0.376 OA
BRANCH  35  36
ATOM     36  C   UNL A   1      41.827  34.965  33.144  1.00  0.00     0.202 C 
BRANCH  36  37
ATOM     37  C   UNL A   1      42.870  34.260  32.285  1.00  0.00     0.261 C 
BRANCH  37  38
ATOM     38  O   UNL A   1      42.444  34.095  30.937  1.00  0.00    -0.460 OA
BRANCH  38  39
ATOM     39  C   UNL A   1      43.146  34.826  30.057  1.00  0.00     0.338 C 
ATOM     40  O   UNL A   1      43.056  36.048  29.861  1.00  0.00    -0.246 OA
BRANCH  39  41
ATOM     41  C   UNL A   1      44.071  33.981  29.301  1.00  0.00     0.060 A 
ATOM     42  C   UNL A   1      43.492  33.160  28.328  1.00  0.00     0.016 A 
ATOM     43  C   UNL A   1      45.344  33.735  29.830  1.00  0.00     0.016 A 
ATOM     44  C   UNL A   1      44.024  31.908  28.151  1.00  0.00     0.010 A 
ATOM     45  C   UNL A   1      45.870  32.477  29.660  1.00  0.00     0.010 A 
ATOM     46  C   UNL A   1      45.119  31.548  28.937  1.00  0.00    -0.014 A 
BRANCH  46  47
ATOM     47  C   UNL A   1      45.332  30.130  29.135  1.00  0.00     0.031 A 
ATOM     48  C   UNL A   1      46.305  29.498  28.232  1.00  0.00     0.074 A 
ATOM     49  C   UNL A   1      44.696  29.472  30.125  1.00  0.00     0.049 A 
ATOM     50  N   UNL A   1      46.116  28.496  27.441  1.00  0.00    -0.248 NA
ATOM     51  C   UNL A   1      47.638  30.107  28.148  1.00  0.00     0.031 C 
ATOM     52  C   UNL A   1      43.918  30.047  31.229  1.00  0.00     0.029 A 
ATOM     53  N   UNL A   1      44.714  28.142  30.418  1.00  0.00    -0.354 N 
ATOM     54  C   UNL A   1      47.356  28.235  26.876  1.00  0.00     0.074 A 
ATOM     55  C   UNL A   1      48.223  29.325  27.243  1.00  0.00     0.031 C 
ATOM     56  C   UNL A   1      43.744  29.105  32.182  1.00  0.00     0.029 A 
ATOM     57  C   UNL A   1      44.298  27.848  31.708  1.00  0.00     0.049 A 
ATOM     58  H   UNL A   1      44.997  27.454  29.775  1.00  0.00     0.167 HD
ATOM     59  C   UNL A   1      47.645  27.021  26.342  1.00  0.00     0.037 A 
ATOM     60  C   UNL A   1      44.497  26.681  32.368  1.00  0.00     0.037 A 
ATOM     61  C   UNL A   1      46.460  26.294  25.973  1.00  0.00     0.049 A 
ATOM     62  C   UNL A   1      44.794  25.632  31.360  1.00  0.00     0.074 A 
ATOM     63  C   UNL A   1      45.400  26.546  25.123  1.00  0.00     0.029 A 
ATOM     64  N   UNL A   1      46.063  25.235  26.749  1.00  0.00    -0.354 N 
ATOM     65  N   UNL A   1      43.920  25.134  30.531  1.00  0.00    -0.248 NA
ATOM     66  C   UNL A   1      46.187  25.399  31.007  1.00  0.00     0.031 C 
ATOM     67  C   UNL A   1      44.266  25.943  25.741  1.00  0.00     0.029 A 
ATOM     68  C   UNL A   1      44.706  25.342  26.920  1.00  0.00     0.049 A 
ATOM     69  H   UNL A   1      46.644  24.530  27.117  1.00  0.00     0.167 HD
ATOM     70  C   UNL A   1      44.632  24.916  29.361  1.00  0.00     0.074 A 
ATOM     71  C   UNL A   1      46.035  24.979  29.751  1.00  0.00     0.031 C 
ATOM     72  C   UNL A   1      44.022  24.995  28.143  1.00  0.00     0.037 A 
BRANCH  59  73
ATOM     73  C   UNL A   1      48.996  26.378  26.485  1.00  0.00     0.064 A 
ATOM     74  C   UNL A   1      49.488  26.080  27.767  1.00  0.00     0.173 A 
ATOM     75  C   UNL A   1      49.935  26.307  25.432  1.00  0.00     0.173 A 
ATOM     76  F   UNL A   1      48.689  26.159  28.841  1.00  0.00    -0.203 F 
ATOM     77  C   UNL A   1      50.836  25.786  27.984  1.00  0.00     0.198 A 
ATOM     78  C   UNL A   1      51.265  25.954  25.644  1.00  0.00     0.198 A 
ATOM     79  F   UNL A   1      49.634  26.685  24.183  1.00  0.00    -0.203 F 
ATOM     80  F   UNL A   1      51.290  25.629  29.235  1.00  0.00    -0.200 F 
ATOM     81  C   UNL A   1      51.723  25.723  26.922  1.00  0.00     0.200 A 
ATOM     82  F   UNL A   1      52.112  25.922  24.605  1.00  0.00    -0.200 F 
ATOM     83  F   UNL A   1      53.025  25.495  27.136  1.00  0.00    -0.200 F 
ENDBRANCH  59  73
BRANCH  60  84
ATOM     84  C   UNL A   1      44.745  26.484  33.816  1.00  0.00     0.064 A 
ATOM     85  C   UNL A   1      43.736  25.988  34.657  1.00  0.00     0.173 A 
ATOM     86  C   UNL A   1      46.045  26.525  34.360  1.00  0.00     0.173 A 
ATOM     87  F   UNL A   1      42.478  25.870  34.205  1.00  0.00    -0.203 F 
ATOM     88  C   UNL A   1      44.013  25.539  35.952  1.00  0.00     0.198 A 
ATOM     89  C   UNL A   1      46.318  26.094  35.658  1.00  0.00     0.198 A 
ATOM     90  F   UNL A   1      47.097  26.892  33.616  1.00  0.00    -0.203 F 
ATOM     91  F   UNL A   1      43.035  25.009  36.699  1.00  0.00    -0.200 F 
ATOM     92  C   UNL A   1      45.305  25.586  36.448  1.00  0.00     0.200 A 
ATOM     93  F   UNL A   1      47.579  26.116  36.113  1.00  0.00    -0.200 F 
ATOM     94  F   UNL A   1      45.582  25.105  37.668  1.00  0.00    -0.200 F 
ENDBRANCH  60  84
BRANCH  72  95
ATOM     95  C   UNL A   1      42.520  24.990  28.114  1.00  0.00     0.064 A 
ATOM     96  C   UNL A   1      41.729  26.144  28.256  1.00  0.00     0.173 A 
ATOM     97  C   UNL A   1      41.860  23.788  27.826  1.00  0.00     0.173 A 
ATOM     98  F   UNL A   1      42.291  27.350  28.417  1.00  0.00    -0.203 F 
ATOM     99  C   UNL A   1      40.339  26.080  28.182  1.00  0.00     0.198 A 
ATOM    100  C   UNL A   1      40.474  23.734  27.713  1.00  0.00     0.198 A 
ATOM    101  F   UNL A   1      42.566  22.665  27.619  1.00  0.00    -0.203 F 
ATOM    102  F   UNL A   1      39.605  27.189  28.351  1.00  0.00    -0.200 F 
ATOM    103  C   UNL A   1      39.713  24.875  27.907  1.00  0.00     0.200 A 
ATOM    104  F   UNL A   1      39.875  22.577  27.395  1.00  0.00    -0.200 F 
ATOM    105  F   UNL A   1      38.378  24.819  27.806  1.00  0.00    -0.200 F 
ENDBRANCH  72  95
ENDBRANCH  46  47
ENDBRANCH  39  41
ENDBRANCH  38  39
ENDBRANCH  37  38
ENDBRANCH  36  37
ENDBRANCH  35  36
ENDBRANCH  34  35
ENDBRANCH  33  34
ENDBRANCH  32  33
ENDBRANCH   1  32
TORSDOF 24
ENDMDL
MODEL 3
REMARK VINA RESULT:      -9.3      1.255      2.226
REMARK SMILES CC1=Nc2nc(NC(=O)CCC(=O)OCCOCCOCCOCCOC(=O)c3ccc(-c4c5nc(c(-c6c(F)c(F)c(F)c(F)c6F)c6ccc([nH]6)c(-c6c(F)c(F)c(F)c(F)c6F)c6nc(c(-c7c(F)c(F)c(F)c(F)c7F)c7ccc4[nH]7)C=C6)C=C5)cc3)nn2[C@@H](c2ccc(Cl)cc2)C1
REMARK SMILES IDX 19 1 18 2 17 3 16 4 15 5 14 6 12 7 13 8 11 9 10 10 8 11 7 12
REMARK SMILES IDX 9 14 6 15 1 16 2 17 3 18 102 19 4 20 94 21 5 22 93 23 92 24
REMARK SMILES IDX 95 25 96 26 101 27 97 28 100 29 98 30 99 31 20 32 21 33
REMARK SMILES IDX 22 34 23 35 24 36 25 37 26 38 27 39 28 40 29 41 30 42 91 43
REMARK SMILES IDX 31 44 90 45 32 46 33 47 34 48 84 49 35 50 89 51 83 52 85 53
REMARK SMILES IDX 36 54 88 55 82 56 81 57 37 59 69 60 49 61 68 62 50 63 53 64
REMARK SMILES IDX 67 65 86 66 51 67 52 68 66 70 87 71 54 72 38 73 39 74 47 75
REMARK SMILES IDX 40 76 41 77 45 78 48 79 42 80 43 81 46 82 44 83 70 84 71 85
REMARK SMILES IDX 79 86 72 87 73 88 77 89 80 90 74 91 75 92 78 93 76 94 55 95
REMARK SMILES IDX 56 96 64 97 57 98 58 99 62 100 65 101 59 102 60 103 63 104
REMARK SMILES IDX 61 105
REMARK H PARENT 7 13 85 58 53 69
REMARK Flexibility Score: inf
ROOT
ATOM      1  C   UNL A   1      46.116  30.154  26.522  1.00  0.00     0.188 C 
ENDROOT
BRANCH   1   2
ATOM      2  C   UNL A   1      44.734  31.007  26.537  1.00  0.00     0.188 C 
BRANCH   2   3
ATOM      3  O   UNL A   1      44.586  32.443  26.317  1.00  0.00    -0.376 OA
BRANCH   3   4
ATOM      4  C   UNL A   1      43.814  33.071  25.258  1.00  0.00     0.202 C 
BRANCH   4   5
ATOM      5  C   UNL A   1      43.867  34.593  25.143  1.00  0.00     0.261 C 
BRANCH   5   6
ATOM      6  O   UNL A   1      42.689  35.082  25.774  1.00  0.00    -0.463 OA
BRANCH   6   7
ATOM      7  C   UNL A   1      43.074  35.819  26.837  1.00  0.00     0.306 C 
ATOM      8  O   UNL A   1      43.883  35.413  27.665  1.00  0.00    -0.252 OA
BRANCH   7   9
ATOM      9  C   UNL A   1      42.418  37.184  26.875  1.00  0.00     0.132 C 
BRANCH   9  10
ATOM     10  C   UNL A   1      42.283  38.107  28.136  1.00  0.00     0.112 C 
BRANCH  10  11
ATOM     11  C   UNL A   1      43.375  38.660  29.092  1.00  0.00     0.227 C 
ATOM     12  N   UNL A   1      44.313  39.665  28.916  1.00  0.00    -0.293 N 
ATOM     13  H   UNL A   1      45.065  39.499  29.529  1.00  0.00     0.173 HD
ATOM     14  O   UNL A   1      43.517  38.019  30.151  1.00  0.00    -0.275 OA
BRANCH  12  15
ATOM     15  C   UNL A   1      44.586  40.834  28.186  1.00  0.00     0.250 A 
ATOM     16  C   UNL A   1      45.892  46.438  27.418  1.00  0.00     0.062 C 
ATOM     17  C   UNL A   1      45.590  44.980  27.186  1.00  0.00     0.021 C 
ATOM     18  N   UNL A   1      45.164  44.274  28.185  1.00  0.00    -0.221 NA
ATOM     19  C   UNL A   1      45.896  44.449  25.809  1.00  0.00     0.083 C 
ATOM     20  C   UNL A   1      44.910  42.965  27.985  1.00  0.00     0.250 A 
ATOM     21  C   UNL A   1      45.268  43.092  25.474  1.00  0.00     0.147 C 
ATOM     22  N   UNL A   1      44.750  42.003  28.886  1.00  0.00    -0.174 NA
ATOM     23  N   UNL A   1      44.799  42.413  26.726  1.00  0.00    -0.220 N 
ATOM     24  N   UNL A   1      44.678  41.067  26.870  1.00  0.00    -0.130 NA
BRANCH  21  25
ATOM     25  C   UNL A   1      44.412  43.127  24.174  1.00  0.00    -0.023 A 
ATOM     26  C   UNL A   1      43.025  43.017  24.147  1.00  0.00     0.007 A 
ATOM     27  C   UNL A   1      45.005  43.069  22.895  1.00  0.00     0.007 A 
ATOM     28  C   UNL A   1      42.238  42.938  22.993  1.00  0.00     0.021 A 
ATOM     29  C   UNL A   1      44.239  43.011  21.709  1.00  0.00     0.021 A 
ATOM     30  C   UNL A   1      42.853  42.963  21.763  1.00  0.00     0.041 A 
ATOM     31  Cl  UNL A   1      41.906  42.890  20.334  1.00  0.00    -0.084 Cl
ENDBRANCH  21  25
ENDBRANCH  12  15
ENDBRANCH  10  11
ENDBRANCH   9  10
ENDBRANCH   7   9
ENDBRANCH   6   7
ENDBRANCH   5   6
ENDBRANCH   4   5
ENDBRANCH   3   4
ENDBRANCH   2   3
ENDBRANCH   1   2
BRANCH   1  32
ATOM     32  O   UNL A   1      46.313  28.753  26.157  1.00  0.00    -0.377 OA
BRANCH  32  33
ATOM     33  C   UNL A   1      45.273  27.842  26.498  1.00  0.00     0.188 C 
BRANCH  33  34
ATOM     34  C   UNL A   1      44.762  27.534  27.905  1.00  0.00     0.188 C 
BRANCH  34  35
ATOM     35  O   UNL A   1      44.598  26.170  28.259  1.00  0.00    -0.376 OA
BRANCH  35  36
ATOM     36  C   UNL A   1      44.954  25.210  27.276  1.00  0.00     0.202 C 
BRANCH  36  37
ATOM     37  C   UNL A   1      43.819  24.384  26.683  1.00  0.00     0.261 C 
BRANCH  37  38
ATOM     38  O   UNL A   1      42.553  25.019  26.824  1.00  0.00    -0.460 OA
BRANCH  38  39
ATOM     39  C   UNL A   1      42.208  25.773  25.768  1.00  0.00     0.338 C 
ATOM     40  O   UNL A   1      42.713  25.745  24.635  1.00  0.00    -0.246 OA
BRANCH  39  41
ATOM     41  C   UNL A   1      41.123  26.690  26.116  1.00  0.00     0.060 A 
ATOM     42  C   UNL A   1      41.374  28.047  25.890  1.00  0.00     0.016 A 
ATOM     43  C   UNL A   1      40.121  26.248  26.988  1.00  0.00     0.016 A 
ATOM     44  C   UNL A   1      40.875  28.948  26.795  1.00  0.00     0.010 A 
ATOM     45  C   UNL A   1      39.630  27.150  27.902  1.00  0.00     0.010 A 
ATOM     46  C   UNL A   1      40.133  28.451  27.869  1.00  0.00    -0.014 A 
BRANCH  46  47
ATOM     47  C   UNL A   1      40.070  29.286  29.049  1.00  0.00     0.031 A 
ATOM     48  C   UNL A   1      38.950  30.236  29.101  1.00  0.00     0.074 A 
ATOM     49  C   UNL A   1      40.972  29.141  30.042  1.00  0.00     0.049 A 
ATOM     50  N   UNL A   1      39.005  31.519  29.235  1.00  0.00    -0.248 NA
ATOM     51  C   UNL A   1      37.599  29.694  28.908  1.00  0.00     0.031 C 
ATOM     52  C   UNL A   1      41.957  28.065  30.208  1.00  0.00     0.029 A 
ATOM     53  N   UNL A   1      41.115  29.871  31.182  1.00  0.00    -0.354 N 
ATOM     54  C   UNL A   1      37.685  31.937  29.310  1.00  0.00     0.074 A 
ATOM     55  C   UNL A   1      36.863  30.801  28.978  1.00  0.00     0.031 C 
ATOM     56  C   UNL A   1      42.421  28.087  31.476  1.00  0.00     0.029 A 
ATOM     57  C   UNL A   1      41.853  29.232  32.166  1.00  0.00     0.049 A 
ATOM     58  H   UNL A   1      40.729  30.769  31.297  1.00  0.00     0.167 HD
ATOM     59  C   UNL A   1      37.354  33.128  29.873  1.00  0.00     0.037 A 
ATOM     60  C   UNL A   1      41.900  29.569  33.478  1.00  0.00     0.037 A 
ATOM     61  C   UNL A   1      38.458  34.050  29.877  1.00  0.00     0.049 A 
ATOM     62  C   UNL A   1      41.436  30.973  33.605  1.00  0.00     0.074 A 
ATOM     63  C   UNL A   1      39.259  34.602  28.894  1.00  0.00     0.029 A 
ATOM     64  N   UNL A   1      39.103  34.306  31.060  1.00  0.00    -0.354 N 
ATOM     65  N   UNL A   1      42.110  32.015  33.208  1.00  0.00    -0.248 NA
ATOM     66  C   UNL A   1      40.017  31.205  33.839  1.00  0.00     0.031 C 
ATOM     67  C   UNL A   1      40.547  34.741  29.488  1.00  0.00     0.029 A 
ATOM     68  C   UNL A   1      40.450  34.286  30.803  1.00  0.00     0.049 A 
ATOM     69  H   UNL A   1      38.679  34.472  31.934  1.00  0.00     0.167 HD
ATOM     70  C   UNL A   1      41.150  32.893  32.730  1.00  0.00     0.074 A 
ATOM     71  C   UNL A   1      39.884  32.397  33.256  1.00  0.00     0.031 C 
ATOM     72  C   UNL A   1      41.436  33.766  31.721  1.00  0.00     0.037 A 
BRANCH  59  73
ATOM     73  C   UNL A   1      36.126  33.308  30.719  1.00  0.00     0.064 A 
ATOM     74  C   UNL A   1      35.058  34.081  30.233  1.00  0.00     0.173 A 
ATOM     75  C   UNL A   1      36.080  32.987  32.095  1.00  0.00     0.173 A 
ATOM     76  F   UNL A   1      35.028  34.475  28.952  1.00  0.00    -0.203 F 
ATOM     77  C   UNL A   1      34.045  34.543  31.077  1.00  0.00     0.198 A 
ATOM     78  C   UNL A   1      35.037  33.399  32.920  1.00  0.00     0.198 A 
ATOM     79  F   UNL A   1      37.091  32.365  32.715  1.00  0.00    -0.203 F 
ATOM     80  F   UNL A   1      33.112  35.378  30.600  1.00  0.00    -0.200 F 
ATOM     81  C   UNL A   1      34.036  34.202  32.419  1.00  0.00     0.200 A 
ATOM     82  F   UNL A   1      35.060  33.077  34.221  1.00  0.00    -0.200 F 
ATOM     83  F   UNL A   1      33.097  34.690  33.239  1.00  0.00    -0.200 F 
ENDBRANCH  59  73
BRANCH  60  84
ATOM     84  C   UNL A   1      42.029  28.666  34.647  1.00  0.00     0.064 A 
ATOM     85  C   UNL A   1      41.320  27.456  34.703  1.00  0.00     0.173 A 
ATOM     86  C   UNL A   1      43.044  28.838  35.610  1.00  0.00     0.173 A 
ATOM     87  F   UNL A   1      40.369  27.188  33.795  1.00  0.00    -0.203 F 
ATOM     88  C   UNL A   1      41.622  26.470  35.647  1.00  0.00     0.198 A 
ATOM     89  C   UNL A   1      43.333  27.862  36.563  1.00  0.00     0.198 A 
ATOM     90  F   UNL A   1      43.843  29.914  35.591  1.00  0.00    -0.203 F 
ATOM     91  F   UNL A   1      40.969  25.300  35.623  1.00  0.00    -0.200 F 
ATOM     92  C   UNL A   1      42.633  26.671  36.571  1.00  0.00     0.200 A 
ATOM     93  F   UNL A   1      44.335  28.058  37.432  1.00  0.00    -0.200 F 
ATOM     94  F   UNL A   1      42.962  25.705  37.441  1.00  0.00    -0.200 F 
ENDBRANCH  60  84
BRANCH  72  95
ATOM     95  C   UNL A   1      42.881  33.982  31.375  1.00  0.00     0.064 A 
ATOM     96  C   UNL A   1      43.686  34.977  31.958  1.00  0.00     0.173 A 
ATOM     97  C   UNL A   1      43.503  33.080  30.501  1.00  0.00     0.173 A 
ATOM     98  F   UNL A   1      43.194  35.805  32.890  1.00  0.00    -0.203 F 
ATOM     99  C   UNL A   1      45.033  35.103  31.623  1.00  0.00     0.198 A 
ATOM    100  C   UNL A   1      44.857  33.184  30.199  1.00  0.00     0.198 A 
ATOM    101  F   UNL A   1      42.799  32.071  29.962  1.00  0.00    -0.203 F 
ATOM    102  F   UNL A   1      45.773  36.080  32.168  1.00  0.00    -0.200 F 
ATOM    103  C   UNL A   1      45.618  34.204  30.746  1.00  0.00     0.200 A 
ATOM    104  F   UNL A   1      45.432  32.280  29.392  1.00  0.00    -0.200 F 
ATOM    105  F   UNL A   1      46.920  34.306  30.448  1.00  0.00    -0.200 F 
ENDBRANCH  72  95
ENDBRANCH  46  47
ENDBRANCH  39  41
ENDBRANCH  38  39
ENDBRANCH  37  38
ENDBRANCH  36  37
ENDBRANCH  35  36
ENDBRANCH  34  35
ENDBRANCH  33  34
ENDBRANCH  32  33
ENDBRANCH   1  32
TORSDOF 24
ENDMDL
