MODEL 1
REMARK VINA RESULT:     -10.6      0.000      0.000
REMARK SMILES O=C(OCCOCCOCCOCCOC(=O)c1cnc([C@H]2CSCCS2)[nH]c1=O)c1ccc(-c2c3nc(c(-c4c(F)c(F)c(F)c(F)c4F)c4ccc([nH]4)c(-c4c(F)c(F)c(F)c(F)c4F)c4nc(c(-c5c(F)c(F)c(F)c(F)c5F)c5ccc2[nH]5)C=C4)C=C3)cc1
REMARK SMILES IDX 8 1 7 2 6 3 5 4 4 5 3 6 2 7 1 8 31 9 32 10 93 11 33 12 92 13
REMARK SMILES IDX 34 14 35 15 36 16 86 17 37 18 91 19 85 20 87 21 38 22 90 23
REMARK SMILES IDX 84 24 83 25 39 27 71 28 51 29 70 30 52 31 55 32 69 33 88 34
REMARK SMILES IDX 53 35 54 36 68 38 89 39 56 40 40 41 41 42 49 43 42 44 43 45
REMARK SMILES IDX 47 46 50 47 44 48 45 49 48 50 46 51 72 52 73 53 81 54 74 55
REMARK SMILES IDX 75 56 79 57 82 58 76 59 77 60 80 61 78 62 57 63 58 64 66 65
REMARK SMILES IDX 59 66 60 67 64 68 67 69 61 70 62 71 65 72 63 73 9 74 10 75
REMARK SMILES IDX 11 76 12 77 13 78 14 79 15 80 16 81 17 82 18 83 19 84 29 85
REMARK SMILES IDX 20 86 28 87 30 88 21 89 22 91 23 92 27 93 24 94 26 95 25 96
REMARK H PARENT 87 26 55 37 28 90
REMARK Flexibility Score: inf
ROOT
ATOM      1  C   UNL A   1      40.812  21.195  27.357  1.00  0.00     0.188 C 
ENDROOT
BRANCH   1   2
ATOM      2  C   UNL A   1      40.886  20.176  26.219  1.00  0.00     0.188 C 
BRANCH   2   3
ATOM      3  O   UNL A   1      42.203  20.162  25.675  1.00  0.00    -0.376 OA
BRANCH   3   4
ATOM      4  C   UNL A   1      43.077  21.213  26.059  1.00  0.00     0.202 C 
BRANCH   4   5
ATOM      5  C   UNL A   1      43.695  22.038  24.928  1.00  0.00     0.261 C 
BRANCH   5   6
ATOM      6  O   UNL A   1      43.136  23.354  24.755  1.00  0.00    -0.460 OA
BRANCH   6   7
ATOM      7  C   UNL A   1      43.651  24.554  25.109  1.00  0.00     0.338 C 
ATOM      8  O   UNL A   1      44.693  24.943  24.589  1.00  0.00    -0.246 OA
BRANCH   7   9
ATOM      9  C   UNL A   1      42.975  25.458  26.074  1.00  0.00     0.060 A 
ATOM     10  C   UNL A   1      43.109  26.843  26.064  1.00  0.00     0.016 A 
ATOM     11  C   UNL A   1      42.062  24.890  26.971  1.00  0.00     0.016 A 
ATOM     12  C   UNL A   1      42.526  27.634  27.042  1.00  0.00     0.010 A 
ATOM     13  C   UNL A   1      41.385  25.692  27.895  1.00  0.00     0.010 A 
ATOM     14  C   UNL A   1      41.674  27.062  27.982  1.00  0.00    -0.014 A 
BRANCH  14  15
ATOM     15  C   UNL A   1      41.241  27.871  29.144  1.00  0.00     0.031 A 
ATOM     16  C   UNL A   1      42.109  27.854  30.370  1.00  0.00     0.074 A 
ATOM     17  C   UNL A   1      40.174  28.687  29.064  1.00  0.00     0.049 A 
ATOM     18  N   UNL A   1      41.897  28.369  31.551  1.00  0.00    -0.248 NA
ATOM     19  C   UNL A   1      43.397  27.149  30.249  1.00  0.00     0.031 C 
ATOM     20  C   UNL A   1      39.333  28.870  27.880  1.00  0.00     0.029 A 
ATOM     21  N   UNL A   1      39.638  29.546  29.988  1.00  0.00    -0.354 N 
ATOM     22  C   UNL A   1      42.984  27.985  32.326  1.00  0.00     0.074 A 
ATOM     23  C   UNL A   1      43.857  27.198  31.488  1.00  0.00     0.031 C 
ATOM     24  C   UNL A   1      38.421  29.824  28.132  1.00  0.00     0.029 A 
ATOM     25  C   UNL A   1      38.557  30.254  29.518  1.00  0.00     0.049 A 
ATOM     26  H   UNL A   1      39.993  29.647  30.900  1.00  0.00     0.167 HD
ATOM     27  C   UNL A   1      43.222  28.264  33.629  1.00  0.00     0.037 A 
ATOM     28  C   UNL A   1      37.755  31.127  30.156  1.00  0.00     0.037 A 
ATOM     29  C   UNL A   1      42.367  29.100  34.424  1.00  0.00     0.049 A 
ATOM     30  C   UNL A   1      38.021  31.396  31.614  1.00  0.00     0.074 A 
ATOM     31  C   UNL A   1      42.471  29.429  35.762  1.00  0.00     0.029 A 
ATOM     32  N   UNL A   1      41.249  29.762  33.929  1.00  0.00    -0.354 N 
ATOM     33  N   UNL A   1      38.993  30.951  32.376  1.00  0.00    -0.248 NA
ATOM     34  C   UNL A   1      37.065  32.269  32.309  1.00  0.00     0.031 C 
ATOM     35  C   UNL A   1      41.397  30.267  36.085  1.00  0.00     0.029 A 
ATOM     36  C   UNL A   1      40.651  30.495  34.938  1.00  0.00     0.049 A 
ATOM     37  H   UNL A   1      40.931  29.716  32.999  1.00  0.00     0.167 HD
ATOM     38  C   UNL A   1      38.777  31.496  33.633  1.00  0.00     0.074 A 
ATOM     39  C   UNL A   1      37.592  32.326  33.524  1.00  0.00     0.031 C 
ATOM     40  C   UNL A   1      39.481  31.321  34.778  1.00  0.00     0.037 A 
BRANCH  27  41
ATOM     41  C   UNL A   1      44.406  27.597  34.264  1.00  0.00     0.064 A 
ATOM     42  C   UNL A   1      45.695  28.149  34.214  1.00  0.00     0.173 A 
ATOM     43  C   UNL A   1      44.253  26.349  34.887  1.00  0.00     0.173 A 
ATOM     44  F   UNL A   1      45.903  29.324  33.601  1.00  0.00    -0.203 F 
ATOM     45  C   UNL A   1      46.790  27.459  34.729  1.00  0.00     0.198 A 
ATOM     46  C   UNL A   1      45.345  25.675  35.428  1.00  0.00     0.198 A 
ATOM     47  F   UNL A   1      43.043  25.771  34.955  1.00  0.00    -0.203 F 
ATOM     48  F   UNL A   1      48.022  27.973  34.606  1.00  0.00    -0.200 F 
ATOM     49  C   UNL A   1      46.614  26.225  35.338  1.00  0.00     0.200 A 
ATOM     50  F   UNL A   1      45.171  24.484  36.016  1.00  0.00    -0.200 F 
ATOM     51  F   UNL A   1      47.671  25.557  35.821  1.00  0.00    -0.200 F 
ENDBRANCH  27  41
BRANCH  28  52
ATOM     52  C   UNL A   1      36.621  31.773  29.442  1.00  0.00     0.064 A 
ATOM     53  C   UNL A   1      35.505  31.030  29.033  1.00  0.00     0.173 A 
ATOM     54  C   UNL A   1      36.627  33.145  29.145  1.00  0.00     0.173 A 
ATOM     55  F   UNL A   1      35.457  29.711  29.267  1.00  0.00    -0.203 F 
ATOM     56  C   UNL A   1      34.448  31.629  28.347  1.00  0.00     0.198 A 
ATOM     57  C   UNL A   1      35.557  33.750  28.489  1.00  0.00     0.198 A 
ATOM     58  F   UNL A   1      37.671  33.906  29.508  1.00  0.00    -0.203 F 
ATOM     59  F   UNL A   1      33.415  30.885  27.929  1.00  0.00    -0.200 F 
ATOM     60  C   UNL A   1      34.471  32.990  28.083  1.00  0.00     0.200 A 
ATOM     61  F   UNL A   1      35.579  35.068  28.250  1.00  0.00    -0.200 F 
ATOM     62  F   UNL A   1      33.453  33.567  27.430  1.00  0.00    -0.200 F 
ENDBRANCH  28  52
BRANCH  40  63
ATOM     63  C   UNL A   1      39.007  32.074  35.984  1.00  0.00     0.064 A 
ATOM     64  C   UNL A   1      38.150  31.487  36.924  1.00  0.00     0.173 A 
ATOM     65  C   UNL A   1      39.452  33.383  36.218  1.00  0.00     0.173 A 
ATOM     66  F   UNL A   1      37.688  30.242  36.732  1.00  0.00    -0.203 F 
ATOM     67  C   UNL A   1      37.734  32.194  38.048  1.00  0.00     0.198 A 
ATOM     68  C   UNL A   1      39.058  34.077  37.355  1.00  0.00     0.198 A 
ATOM     69  F   UNL A   1      40.281  33.982  35.347  1.00  0.00    -0.203 F 
ATOM     70  F   UNL A   1      36.879  31.633  38.913  1.00  0.00    -0.200 F 
ATOM     71  C   UNL A   1      38.194  33.486  38.265  1.00  0.00     0.200 A 
ATOM     72  F   UNL A   1      39.511  35.320  37.572  1.00  0.00    -0.200 F 
ATOM     73  F   UNL A   1      37.798  34.164  39.351  1.00  0.00    -0.200 F 
ENDBRANCH  40  63
ENDBRANCH  14  15
ENDBRANCH   7   9
ENDBRANCH   6   7
ENDBRANCH   5   6
ENDBRANCH   4   5
ENDBRANCH   3   4
ENDBRANCH   2   3
ENDBRANCH   1   2
BRANCH   1  74
ATOM     74  O   UNL A   1      39.744  22.139  27.256  1.00  0.00    -0.377 OA
BRANCH  74  75
ATOM     75  C   UNL A   1      38.994  22.127  26.048  1.00  0.00     0.188 C 
BRANCH  75  76
ATOM     76  C   UNL A   1      37.898  23.195  25.835  1.00  0.00     0.188 C 
BRANCH  76  77
ATOM     77  O   UNL A   1      36.557  22.773  26.058  1.00  0.00    -0.376 OA
BRANCH  77  78
ATOM     78  C   UNL A   1      36.292  21.407  25.729  1.00  0.00     0.202 C 
BRANCH  78  79
ATOM     79  C   UNL A   1      34.892  21.173  25.150  1.00  0.00     0.261 C 
BRANCH  79  80
ATOM     80  O   UNL A   1      33.828  21.498  26.057  1.00  0.00    -0.459 OA
BRANCH  80  81
ATOM     81  C   UNL A   1      32.570  21.515  25.558  1.00  0.00     0.345 C 
ATOM     82  O   UNL A   1      31.866  20.543  25.365  1.00  0.00    -0.246 OA
BRANCH  81  83
ATOM     83  C   UNL A   1      32.102  22.908  25.495  1.00  0.00     0.143 A 
ATOM     84  C   UNL A   1      32.344  23.611  24.378  1.00  0.00     0.134 A 
ATOM     85  C   UNL A   1      31.284  23.560  26.528  1.00  0.00     0.265 A 
ATOM     86  N   UNL A   1      31.921  24.895  24.136  1.00  0.00    -0.241 NA
ATOM     87  N   UNL A   1      30.824  24.806  26.196  1.00  0.00    -0.309 N 
ATOM     88  O   UNL A   1      31.079  23.077  27.636  1.00  0.00    -0.269 OA
ATOM     89  C   UNL A   1      31.206  25.463  25.056  1.00  0.00     0.122 A 
ATOM     90  H   UNL A   1      30.190  25.251  26.805  1.00  0.00     0.171 HD
BRANCH  89  91
ATOM     91  C   UNL A   1      30.770  26.919  24.890  1.00  0.00     0.123 C 
ATOM     92  C   UNL A   1      31.961  27.872  24.972  1.00  0.00     0.092 C 
ATOM     93  S   UNL A   1      29.858  27.090  23.300  1.00  0.00    -0.149 SA
ATOM     94  S   UNL A   1      31.454  29.629  25.114  1.00  0.00    -0.160 SA
ATOM     95  C   UNL A   1      29.304  28.809  23.493  1.00  0.00     0.081 C 
ATOM     96  C   UNL A   1      30.460  29.797  23.592  1.00  0.00     0.080 C 
ENDBRANCH  89  91
ENDBRANCH  81  83
ENDBRANCH  80  81
ENDBRANCH  79  80
ENDBRANCH  78  79
ENDBRANCH  77  78
ENDBRANCH  76  77
ENDBRANCH  75  76
ENDBRANCH  74  75
ENDBRANCH   1  74
TORSDOF 21
ENDMDL
MODEL 2
REMARK VINA RESULT:     -10.6      3.294      8.451
REMARK SMILES O=C(OCCOCCOCCOCCOC(=O)c1cnc([C@H]2CSCCS2)[nH]c1=O)c1ccc(-c2c3nc(c(-c4c(F)c(F)c(F)c(F)c4F)c4ccc([nH]4)c(-c4c(F)c(F)c(F)c(F)c4F)c4nc(c(-c5c(F)c(F)c(F)c(F)c5F)c5ccc2[nH]5)C=C4)C=C3)cc1
REMARK SMILES IDX 8 1 7 2 6 3 5 4 4 5 3 6 2 7 1 8 31 9 32 10 93 11 33 12 92 13
REMARK SMILES IDX 34 14 35 15 36 16 86 17 37 18 91 19 85 20 87 21 38 22 90 23
REMARK SMILES IDX 84 24 83 25 39 27 71 28 51 29 70 30 52 31 55 32 69 33 88 34
REMARK SMILES IDX 53 35 54 36 68 38 89 39 56 40 40 41 41 42 49 43 42 44 43 45
REMARK SMILES IDX 47 46 50 47 44 48 45 49 48 50 46 51 72 52 73 53 81 54 74 55
REMARK SMILES IDX 75 56 79 57 82 58 76 59 77 60 80 61 78 62 57 63 58 64 66 65
REMARK SMILES IDX 59 66 60 67 64 68 67 69 61 70 62 71 65 72 63 73 9 74 10 75
REMARK SMILES IDX 11 76 12 77 13 78 14 79 15 80 16 81 17 82 18 83 19 84 29 85
REMARK SMILES IDX 20 86 28 87 30 88 21 89 22 91 23 92 27 93 24 94 26 95 25 96
REMARK H PARENT 87 26 55 37 28 90
REMARK Flexibility Score: inf
ROOT
ATOM      1  C   UNL A   1      32.123  28.819  27.268  1.00  0.00     0.188 C 
ENDROOT
BRANCH   1   2
ATOM      2  C   UNL A   1      32.618  30.207  26.860  1.00  0.00     0.188 C 
BRANCH   2   3
ATOM      3  O   UNL A   1      31.577  30.907  26.185  1.00  0.00    -0.376 OA
BRANCH   3   4
ATOM      4  C   UNL A   1      31.388  32.274  26.523  1.00  0.00     0.202 C 
BRANCH   4   5
ATOM      5  C   UNL A   1      32.535  32.960  27.268  1.00  0.00     0.261 C 
BRANCH   5   6
ATOM      6  O   UNL A   1      32.216  34.247  27.831  1.00  0.00    -0.460 OA
BRANCH   6   7
ATOM      7  C   UNL A   1      32.922  34.993  28.712  1.00  0.00     0.338 C 
ATOM      8  O   UNL A   1      32.523  36.116  29.011  1.00  0.00    -0.246 OA
BRANCH   7   9
ATOM      9  C   UNL A   1      34.146  34.487  29.383  1.00  0.00     0.060 A 
ATOM     10  C   UNL A   1      35.424  34.585  28.841  1.00  0.00     0.016 A 
ATOM     11  C   UNL A   1      34.018  33.989  30.686  1.00  0.00     0.016 A 
ATOM     12  C   UNL A   1      36.522  34.018  29.469  1.00  0.00     0.010 A 
ATOM     13  C   UNL A   1      35.138  33.511  31.374  1.00  0.00     0.010 A 
ATOM     14  C   UNL A   1      36.385  33.455  30.734  1.00  0.00    -0.014 A 
BRANCH  14  15
ATOM     15  C   UNL A   1      37.504  32.662  31.292  1.00  0.00     0.031 A 
ATOM     16  C   UNL A   1      37.900  32.917  32.718  1.00  0.00     0.074 A 
ATOM     17  C   UNL A   1      38.068  31.663  30.587  1.00  0.00     0.049 A 
ATOM     18  N   UNL A   1      38.913  32.453  33.400  1.00  0.00    -0.248 NA
ATOM     19  C   UNL A   1      37.035  33.833  33.482  1.00  0.00     0.031 C 
ATOM     20  C   UNL A   1      37.676  31.253  29.237  1.00  0.00     0.029 A 
ATOM     21  N   UNL A   1      39.065  30.786  30.924  1.00  0.00    -0.354 N 
ATOM     22  C   UNL A   1      38.846  33.078  34.639  1.00  0.00     0.074 A 
ATOM     23  C   UNL A   1      37.696  33.951  34.622  1.00  0.00     0.031 C 
ATOM     24  C   UNL A   1      38.388  30.169  28.884  1.00  0.00     0.029 A 
ATOM     25  C   UNL A   1      39.343  29.866  29.942  1.00  0.00     0.049 A 
ATOM     26  H   UNL A   1      39.537  30.812  31.788  1.00  0.00     0.167 HD
ATOM     27  C   UNL A   1      39.681  32.935  35.694  1.00  0.00     0.037 A 
ATOM     28  C   UNL A   1      40.288  28.907  29.901  1.00  0.00     0.037 A 
ATOM     29  C   UNL A   1      40.783  32.014  35.706  1.00  0.00     0.049 A 
ATOM     30  C   UNL A   1      41.226  28.789  31.074  1.00  0.00     0.074 A 
ATOM     31  C   UNL A   1      41.728  31.800  36.692  1.00  0.00     0.029 A 
ATOM     32  N   UNL A   1      41.068  31.130  34.672  1.00  0.00    -0.354 N 
ATOM     33  N   UNL A   1      41.225  29.452  32.207  1.00  0.00    -0.248 NA
ATOM     34  C   UNL A   1      42.313  27.808  30.953  1.00  0.00     0.031 C 
ATOM     35  C   UNL A   1      42.604  30.806  36.240  1.00  0.00     0.029 A 
ATOM     36  C   UNL A   1      42.179  30.371  34.994  1.00  0.00     0.049 A 
ATOM     37  H   UNL A   1      40.556  31.055  33.835  1.00  0.00     0.167 HD
ATOM     38  C   UNL A   1      42.297  28.963  32.939  1.00  0.00     0.074 A 
ATOM     39  C   UNL A   1      42.912  27.928  32.130  1.00  0.00     0.031 C 
ATOM     40  C   UNL A   1      42.745  29.338  34.163  1.00  0.00     0.037 A 
BRANCH  27  41
ATOM     41  C   UNL A   1      39.462  33.845  36.866  1.00  0.00     0.064 A 
ATOM     42  C   UNL A   1      39.984  35.147  36.912  1.00  0.00     0.173 A 
ATOM     43  C   UNL A   1      38.762  33.381  37.990  1.00  0.00     0.173 A 
ATOM     44  F   UNL A   1      40.691  35.628  35.878  1.00  0.00    -0.203 F 
ATOM     45  C   UNL A   1      39.847  35.934  38.053  1.00  0.00     0.198 A 
ATOM     46  C   UNL A   1      38.600  34.181  39.118  1.00  0.00     0.198 A 
ATOM     47  F   UNL A   1      38.249  32.141  38.002  1.00  0.00    -0.203 F 
ATOM     48  F   UNL A   1      40.416  37.146  38.102  1.00  0.00    -0.200 F 
ATOM     49  C   UNL A   1      39.153  35.451  39.154  1.00  0.00     0.200 A 
ATOM     50  F   UNL A   1      37.928  33.713  40.178  1.00  0.00    -0.200 F 
ATOM     51  F   UNL A   1      39.034  36.205  40.256  1.00  0.00    -0.200 F 
ENDBRANCH  27  41
BRANCH  28  52
ATOM     52  C   UNL A   1      40.416  28.021  28.713  1.00  0.00     0.064 A 
ATOM     53  C   UNL A   1      41.178  28.405  27.601  1.00  0.00     0.173 A 
ATOM     54  C   UNL A   1      39.774  26.774  28.656  1.00  0.00     0.173 A 
ATOM     55  F   UNL A   1      41.792  29.597  27.590  1.00  0.00    -0.203 F 
ATOM     56  C   UNL A   1      41.285  27.585  26.478  1.00  0.00     0.198 A 
ATOM     57  C   UNL A   1      39.908  25.940  27.548  1.00  0.00     0.198 A 
ATOM     58  F   UNL A   1      39.026  26.355  29.688  1.00  0.00    -0.203 F 
ATOM     59  F   UNL A   1      41.985  27.998  25.413  1.00  0.00    -0.200 F 
ATOM     60  C   UNL A   1      40.656  26.349  26.456  1.00  0.00     0.200 A 
ATOM     61  F   UNL A   1      39.309  24.741  27.538  1.00  0.00    -0.200 F 
ATOM     62  F   UNL A   1      40.764  25.558  25.380  1.00  0.00    -0.200 F 
ENDBRANCH  28  52
BRANCH  40  63
ATOM     63  C   UNL A   1      43.926  28.596  34.706  1.00  0.00     0.064 A 
ATOM     64  C   UNL A   1      43.772  27.429  35.467  1.00  0.00     0.173 A 
ATOM     65  C   UNL A   1      45.227  29.038  34.426  1.00  0.00     0.173 A 
ATOM     66  F   UNL A   1      42.546  26.979  35.772  1.00  0.00    -0.203 F 
ATOM     67  C   UNL A   1      44.882  26.741  35.949  1.00  0.00     0.198 A 
ATOM     68  C   UNL A   1      46.334  28.333  34.885  1.00  0.00     0.198 A 
ATOM     69  F   UNL A   1      45.422  30.147  33.694  1.00  0.00    -0.203 F 
ATOM     70  F   UNL A   1      44.714  25.653  36.712  1.00  0.00    -0.200 F 
ATOM     71  C   UNL A   1      46.161  27.191  35.652  1.00  0.00     0.200 A 
ATOM     72  F   UNL A   1      47.569  28.760  34.588  1.00  0.00    -0.200 F 
ATOM     73  F   UNL A   1      47.228  26.524  36.112  1.00  0.00    -0.200 F 
ENDBRANCH  40  63
ENDBRANCH  14  15
ENDBRANCH   7   9
ENDBRANCH   6   7
ENDBRANCH   5   6
ENDBRANCH   4   5
ENDBRANCH   3   4
ENDBRANCH   2   3
ENDBRANCH   1   2
BRANCH   1  74
ATOM     74  O   UNL A   1      31.927  27.905  26.188  1.00  0.00    -0.377 OA
BRANCH  74  75
ATOM     75  C   UNL A   1      32.428  26.587  26.368  1.00  0.00     0.188 C 
BRANCH  75  76
ATOM     76  C   UNL A   1      33.681  26.145  25.578  1.00  0.00     0.188 C 
BRANCH  76  77
ATOM     77  O   UNL A   1      34.030  24.769  25.671  1.00  0.00    -0.376 OA
BRANCH  77  78
ATOM     78  C   UNL A   1      35.240  24.408  25.000  1.00  0.00     0.202 C 
BRANCH  78  79
ATOM     79  C   UNL A   1      35.052  23.332  23.924  1.00  0.00     0.261 C 
BRANCH  79  80
ATOM     80  O   UNL A   1      34.491  23.828  22.700  1.00  0.00    -0.459 OA
BRANCH  80  81
ATOM     81  C   UNL A   1      33.238  23.426  22.383  1.00  0.00     0.345 C 
ATOM     82  O   UNL A   1      32.840  22.278  22.364  1.00  0.00    -0.246 OA
BRANCH  81  83
ATOM     83  C   UNL A   1      32.370  24.610  22.283  1.00  0.00     0.143 A 
ATOM     84  C   UNL A   1      31.454  24.810  23.242  1.00  0.00     0.134 A 
ATOM     85  C   UNL A   1      32.505  25.659  21.262  1.00  0.00     0.265 A 
ATOM     86  N   UNL A   1      30.613  25.893  23.330  1.00  0.00    -0.241 NA
ATOM     87  N   UNL A   1      31.699  26.750  21.447  1.00  0.00    -0.309 N 
ATOM     88  O   UNL A   1      33.222  25.554  20.273  1.00  0.00    -0.269 OA
ATOM     89  C   UNL A   1      30.736  26.809  22.421  1.00  0.00     0.122 A 
ATOM     90  H   UNL A   1      31.815  27.527  20.854  1.00  0.00     0.171 HD
BRANCH  89  91
ATOM     91  C   UNL A   1      29.779  28.001  22.408  1.00  0.00     0.123 C 
ATOM     92  C   UNL A   1      28.592  27.775  23.342  1.00  0.00     0.092 C 
ATOM     93  S   UNL A   1      30.718  29.524  22.844  1.00  0.00    -0.149 SA
ATOM     94  S   UNL A   1      27.261  29.014  23.109  1.00  0.00    -0.160 SA
ATOM     95  C   UNL A   1      29.407  30.743  22.538  1.00  0.00     0.081 C 
ATOM     96  C   UNL A   1      28.194  30.549  23.439  1.00  0.00     0.080 C 
ENDBRANCH  89  91
ENDBRANCH  81  83
ENDBRANCH  80  81
ENDBRANCH  79  80
ENDBRANCH  78  79
ENDBRANCH  77  78
ENDBRANCH  76  77
ENDBRANCH  75  76
ENDBRANCH  74  75
ENDBRANCH   1  74
TORSDOF 21
ENDMDL
MODEL 3
REMARK VINA RESULT:     -10.5      5.548     11.056
REMARK SMILES O=C(OCCOCCOCCOCCOC(=O)c1cnc([C@H]2CSCCS2)[nH]c1=O)c1ccc(-c2c3nc(c(-c4c(F)c(F)c(F)c(F)c4F)c4ccc([nH]4)c(-c4c(F)c(F)c(F)c(F)c4F)c4nc(c(-c5c(F)c(F)c(F)c(F)c5F)c5ccc2[nH]5)C=C4)C=C3)cc1
REMARK SMILES IDX 8 1 7 2 6 3 5 4 4 5 3 6 2 7 1 8 31 9 32 10 93 11 33 12 92 13
REMARK SMILES IDX 34 14 35 15 36 16 86 17 37 18 91 19 85 20 87 21 38 22 90 23
REMARK SMILES IDX 84 24 83 25 39 27 71 28 51 29 70 30 52 31 55 32 69 33 88 34
REMARK SMILES IDX 53 35 54 36 68 38 89 39 56 40 40 41 41 42 49 43 42 44 43 45
REMARK SMILES IDX 47 46 50 47 44 48 45 49 48 50 46 51 72 52 73 53 81 54 74 55
REMARK SMILES IDX 75 56 79 57 82 58 76 59 77 60 80 61 78 62 57 63 58 64 66 65
REMARK SMILES IDX 59 66 60 67 64 68 67 69 61 70 62 71 65 72 63 73 9 74 10 75
REMARK SMILES IDX 11 76 12 77 13 78 14 79 15 80 16 81 17 82 18 83 19 84 29 85
REMARK SMILES IDX 20 86 28 87 30 88 21 89 22 91 23 92 27 93 24 94 26 95 25 96
REMARK H PARENT 87 26 55 37 28 90
REMARK Flexibility Score: inf
ROOT
ATOM      1  C   UNL A   1      33.262  36.710  30.838  1.00  0.00     0.188 C 
ENDROOT
BRANCH   1   2
ATOM      2  C   UNL A   1      32.609  36.269  32.148  1.00  0.00     0.188 C 
BRANCH   2   3
ATOM      3  O   UNL A   1      33.262  35.103  32.640  1.00  0.00    -0.376 OA
BRANCH   3   4
ATOM      4  C   UNL A   1      34.682  35.112  32.659  1.00  0.00     0.202 C 
BRANCH   4   5
ATOM      5  C   UNL A   1      35.360  34.225  33.706  1.00  0.00     0.261 C 
BRANCH   5   6
ATOM      6  O   UNL A   1      35.466  32.834  33.352  1.00  0.00    -0.460 OA
BRANCH   6   7
ATOM      7  C   UNL A   1      35.373  32.252  32.133  1.00  0.00     0.338 C 
ATOM      8  O   UNL A   1      34.342  32.383  31.478  1.00  0.00    -0.246 OA
BRANCH   7   9
ATOM      9  C   UNL A   1      36.496  31.497  31.523  1.00  0.00     0.060 A 
ATOM     10  C   UNL A   1      37.372  30.692  32.245  1.00  0.00     0.016 A 
ATOM     11  C   UNL A   1      36.606  31.505  30.127  1.00  0.00     0.016 A 
ATOM     12  C   UNL A   1      38.457  30.078  31.639  1.00  0.00     0.010 A 
ATOM     13  C   UNL A   1      37.635  30.802  29.494  1.00  0.00     0.010 A 
ATOM     14  C   UNL A   1      38.612  30.145  30.258  1.00  0.00    -0.014 A 
BRANCH  14  15
ATOM     15  C   UNL A   1      39.882  29.681  29.654  1.00  0.00     0.031 A 
ATOM     16  C   UNL A   1      41.057  30.616  29.692  1.00  0.00     0.074 A 
ATOM     17  C   UNL A   1      40.016  28.423  29.198  1.00  0.00     0.049 A 
ATOM     18  N   UNL A   1      42.231  30.505  29.133  1.00  0.00    -0.248 NA
ATOM     19  C   UNL A   1      40.878  31.859  30.464  1.00  0.00     0.031 C 
ATOM     20  C   UNL A   1      38.973  27.396  29.225  1.00  0.00     0.029 A 
ATOM     21  N   UNL A   1      41.099  27.781  28.655  1.00  0.00    -0.354 N 
ATOM     22  C   UNL A   1      42.896  31.691  29.422  1.00  0.00     0.074 A 
ATOM     23  C   UNL A   1      42.001  32.508  30.207  1.00  0.00     0.031 C 
ATOM     24  C   UNL A   1      39.484  26.238  28.773  1.00  0.00     0.029 A 
ATOM     25  C   UNL A   1      40.859  26.464  28.343  1.00  0.00     0.049 A 
ATOM     26  H   UNL A   1      41.966  28.221  28.505  1.00  0.00     0.167 HD
ATOM     27  C   UNL A   1      44.144  32.061  29.054  1.00  0.00     0.037 A 
ATOM     28  C   UNL A   1      41.659  25.560  27.748  1.00  0.00     0.037 A 
ATOM     29  C   UNL A   1      45.036  31.204  28.323  1.00  0.00     0.049 A 
ATOM     30  C   UNL A   1      43.033  26.005  27.318  1.00  0.00     0.074 A 
ATOM     31  C   UNL A   1      46.308  31.469  27.854  1.00  0.00     0.029 A 
ATOM     32  N   UNL A   1      44.742  29.890  27.978  1.00  0.00    -0.354 N 
ATOM     33  N   UNL A   1      43.624  27.162  27.503  1.00  0.00    -0.248 NA
ATOM     34  C   UNL A   1      43.840  25.029  26.576  1.00  0.00     0.031 C 
ATOM     35  C   UNL A   1      46.773  30.324  27.196  1.00  0.00     0.029 A 
ATOM     36  C   UNL A   1      45.808  29.333  27.295  1.00  0.00     0.049 A 
ATOM     37  H   UNL A   1      43.900  29.426  28.187  1.00  0.00     0.167 HD
ATOM     38  C   UNL A   1      44.875  27.051  26.913  1.00  0.00     0.074 A 
ATOM     39  C   UNL A   1      44.966  25.704  26.386  1.00  0.00     0.031 C 
ATOM     40  C   UNL A   1      45.859  27.979  26.804  1.00  0.00     0.037 A 
BRANCH  27  41
ATOM     41  C   UNL A   1      44.563  33.464  29.378  1.00  0.00     0.064 A 
ATOM     42  C   UNL A   1      45.173  33.804  30.594  1.00  0.00     0.173 A 
ATOM     43  C   UNL A   1      44.296  34.500  28.469  1.00  0.00     0.173 A 
ATOM     44  F   UNL A   1      45.421  32.857  31.513  1.00  0.00    -0.203 F 
ATOM     45  C   UNL A   1      45.463  35.130  30.905  1.00  0.00     0.198 A 
ATOM     46  C   UNL A   1      44.614  35.821  28.770  1.00  0.00     0.198 A 
ATOM     47  F   UNL A   1      43.706  34.231  27.293  1.00  0.00    -0.203 F 
ATOM     48  F   UNL A   1      45.978  35.440  32.103  1.00  0.00    -0.200 F 
ATOM     49  C   UNL A   1      45.186  36.137  29.992  1.00  0.00     0.200 A 
ATOM     50  F   UNL A   1      44.347  36.791  27.884  1.00  0.00    -0.200 F 
ATOM     51  F   UNL A   1      45.453  37.414  30.298  1.00  0.00    -0.200 F 
ENDBRANCH  27  41
BRANCH  28  52
ATOM     52  C   UNL A   1      41.178  24.175  27.494  1.00  0.00     0.064 A 
ATOM     53  C   UNL A   1      41.766  23.075  28.134  1.00  0.00     0.173 A 
ATOM     54  C   UNL A   1      40.126  23.916  26.602  1.00  0.00     0.173 A 
ATOM     55  F   UNL A   1      42.792  23.261  28.977  1.00  0.00    -0.203 F 
ATOM     56  C   UNL A   1      41.329  21.774  27.885  1.00  0.00     0.198 A 
ATOM     57  C   UNL A   1      39.668  22.619  26.377  1.00  0.00     0.198 A 
ATOM     58  F   UNL A   1      39.528  24.929  25.955  1.00  0.00    -0.203 F 
ATOM     59  F   UNL A   1      41.939  20.739  28.478  1.00  0.00    -0.200 F 
ATOM     60  C   UNL A   1      40.275  21.548  27.013  1.00  0.00     0.200 A 
ATOM     61  F   UNL A   1      38.640  22.409  25.544  1.00  0.00    -0.200 F 
ATOM     62  F   UNL A   1      39.851  20.299  26.778  1.00  0.00    -0.200 F 
ENDBRANCH  28  52
BRANCH  40  63
ATOM     63  C   UNL A   1      47.122  27.546  26.125  1.00  0.00     0.064 A 
ATOM     64  C   UNL A   1      47.296  27.685  24.742  1.00  0.00     0.173 A 
ATOM     65  C   UNL A   1      48.185  27.026  26.878  1.00  0.00     0.173 A 
ATOM     66  F   UNL A   1      46.300  28.164  23.981  1.00  0.00    -0.203 F 
ATOM     67  C   UNL A   1      48.483  27.295  24.130  1.00  0.00     0.198 A 
ATOM     68  C   UNL A   1      49.380  26.663  26.268  1.00  0.00     0.198 A 
ATOM     69  F   UNL A   1      48.065  26.882  28.208  1.00  0.00    -0.203 F 
ATOM     70  F   UNL A   1      48.614  27.394  22.801  1.00  0.00    -0.200 F 
ATOM     71  C   UNL A   1      49.526  26.791  24.895  1.00  0.00     0.200 A 
ATOM     72  F   UNL A   1      50.391  26.187  27.008  1.00  0.00    -0.200 F 
ATOM     73  F   UNL A   1      50.671  26.421  24.306  1.00  0.00    -0.200 F 
ENDBRANCH  40  63
ENDBRANCH  14  15
ENDBRANCH   7   9
ENDBRANCH   6   7
ENDBRANCH   5   6
ENDBRANCH   4   5
ENDBRANCH   3   4
ENDBRANCH   2   3
ENDBRANCH   1   2
BRANCH   1  74
ATOM     74  O   UNL A   1      32.561  36.327  29.653  1.00  0.00    -0.377 OA
BRANCH  74  75
ATOM     75  C   UNL A   1      32.934  35.088  29.063  1.00  0.00     0.188 C 
BRANCH  75  76
ATOM     76  C   UNL A   1      34.433  34.782  28.846  1.00  0.00     0.188 C 
BRANCH  76  77
ATOM     77  O   UNL A   1      34.735  33.572  28.160  1.00  0.00    -0.376 OA
BRANCH  77  78
ATOM     78  C   UNL A   1      33.596  32.814  27.746  1.00  0.00     0.202 C 
BRANCH  78  79
ATOM     79  C   UNL A   1      33.785  31.297  27.874  1.00  0.00     0.261 C 
BRANCH  79  80
ATOM     80  O   UNL A   1      33.716  30.597  26.623  1.00  0.00    -0.459 OA
BRANCH  80  81
ATOM     81  C   UNL A   1      32.506  30.126  26.242  1.00  0.00     0.345 C 
ATOM     82  O   UNL A   1      31.548  30.799  25.916  1.00  0.00    -0.246 OA
BRANCH  81  83
ATOM     83  C   UNL A   1      32.597  28.668  26.065  1.00  0.00     0.143 A 
ATOM     84  C   UNL A   1      33.375  28.194  25.081  1.00  0.00     0.134 A 
ATOM     85  C   UNL A   1      31.981  27.679  26.963  1.00  0.00     0.265 A 
ATOM     86  N   UNL A   1      33.616  26.866  24.824  1.00  0.00    -0.241 NA
ATOM     87  N   UNL A   1      32.323  26.379  26.707  1.00  0.00    -0.309 N 
ATOM     88  O   UNL A   1      31.165  27.967  27.832  1.00  0.00    -0.269 OA
ATOM     89  C   UNL A   1      33.064  26.002  25.618  1.00  0.00     0.122 A 
ATOM     90  H   UNL A   1      32.023  25.681  27.335  1.00  0.00     0.171 HD
BRANCH  89  91
ATOM     91  C   UNL A   1      33.222  24.507  25.342  1.00  0.00     0.123 C 
ATOM     92  C   UNL A   1      31.897  23.765  25.504  1.00  0.00     0.092 C 
ATOM     93  S   UNL A   1      33.937  24.283  23.660  1.00  0.00    -0.149 SA
ATOM     94  S   UNL A   1      32.102  21.943  25.515  1.00  0.00    -0.160 SA
ATOM     95  C   UNL A   1      34.199  22.486  23.719  1.00  0.00     0.081 C 
ATOM     96  C   UNL A   1      32.903  21.703  23.892  1.00  0.00     0.080 C 
ENDBRANCH  89  91
ENDBRANCH  81  83
ENDBRANCH  80  81
ENDBRANCH  79  80
ENDBRANCH  78  79
ENDBRANCH  77  78
ENDBRANCH  76  77
ENDBRANCH  75  76
ENDBRANCH  74  75
ENDBRANCH   1  74
TORSDOF 21
ENDMDL
