MODEL 1
REMARK VINA RESULT:      -9.9      0.000      0.000
REMARK SMILES O=C(OCCOCCOCCOCCOC(=O)c1ccc(C(F)(F)F)cc1NC(=O)c1ccon1)c1ccc(-c2c3nc(c(-c4c(F)c(F)c(F)c(F)c4F)c4ccc([nH]4)c(-c4c(F)c(F)c(F)c(F)c4F)c4nc(c(-c5c(F)c(F)c(F)c(F)c5F)c5ccc2[nH]5)C=C4)C=C3)cc1
REMARK SMILES IDX 9 1 8 2 7 3 6 4 5 5 4 6 3 7 2 8 1 9 36 10 37 11 98 12 38 13
REMARK SMILES IDX 97 14 39 15 40 16 41 17 91 18 42 19 96 20 90 21 92 22 43 23
REMARK SMILES IDX 95 24 89 25 88 26 44 28 76 29 56 30 75 31 57 32 60 33 74 34
REMARK SMILES IDX 93 35 58 36 59 37 73 39 94 40 61 41 45 42 46 43 54 44 47 45
REMARK SMILES IDX 48 46 52 47 55 48 49 49 50 50 53 51 51 52 77 53 78 54 86 55
REMARK SMILES IDX 79 56 80 57 84 58 87 59 81 60 82 61 85 62 83 63 62 64 63 65
REMARK SMILES IDX 71 66 64 67 65 68 69 69 72 70 66 71 67 72 70 73 68 74 10 75
REMARK SMILES IDX 11 76 12 77 13 78 14 79 15 80 16 81 17 82 18 83 19 84 27 85
REMARK SMILES IDX 20 86 26 87 21 88 28 89 29 90 30 92 31 93 32 94 35 95 33 96
REMARK SMILES IDX 34 97 22 98 23 99 24 100 25 101
REMARK H PARENT 92 27 60 38 28 91
REMARK Flexibility Score: inf
ROOT
ATOM      1  O   UNL A   1      37.472  22.180  24.736  1.00  0.00    -0.377 OA
ENDROOT
BRANCH   1   2
ATOM      2  C   UNL A   1      38.122  21.096  25.397  1.00  0.00     0.188 C 
BRANCH   2   3
ATOM      3  C   UNL A   1      39.524  21.400  25.922  1.00  0.00     0.188 C 
BRANCH   3   4
ATOM      4  O   UNL A   1      40.179  20.200  26.343  1.00  0.00    -0.376 OA
BRANCH   4   5
ATOM      5  C   UNL A   1      41.599  20.202  26.199  1.00  0.00     0.202 C 
BRANCH   5   6
ATOM      6  C   UNL A   1      42.188  18.833  25.851  1.00  0.00     0.261 C 
BRANCH   6   7
ATOM      7  O   UNL A   1      43.571  18.920  25.484  1.00  0.00    -0.460 OA
BRANCH   7   8
ATOM      8  C   UNL A   1      44.161  19.827  24.665  1.00  0.00     0.338 C 
ATOM      9  O   UNL A   1      44.326  19.518  23.485  1.00  0.00    -0.246 OA
BRANCH   8  10
ATOM     10  C   UNL A   1      44.605  21.195  25.088  1.00  0.00     0.060 A 
ATOM     11  C   UNL A   1      45.294  21.511  26.262  1.00  0.00     0.016 A 
ATOM     12  C   UNL A   1      44.342  22.246  24.189  1.00  0.00     0.016 A 
ATOM     13  C   UNL A   1      45.637  22.817  26.581  1.00  0.00     0.010 A 
ATOM     14  C   UNL A   1      44.700  23.564  24.488  1.00  0.00     0.010 A 
ATOM     15  C   UNL A   1      45.315  23.852  25.710  1.00  0.00    -0.014 A 
BRANCH  15  16
ATOM     16  C   UNL A   1      45.445  25.230  26.211  1.00  0.00     0.031 A 
ATOM     17  C   UNL A   1      46.771  25.907  26.034  1.00  0.00     0.074 A 
ATOM     18  C   UNL A   1      44.365  25.894  26.655  1.00  0.00     0.049 A 
ATOM     19  N   UNL A   1      47.157  27.094  26.413  1.00  0.00    -0.248 NA
ATOM     20  C   UNL A   1      47.802  25.140  25.311  1.00  0.00     0.031 C 
ATOM     21  C   UNL A   1      43.008  25.348  26.716  1.00  0.00     0.029 A 
ATOM     22  N   UNL A   1      44.232  27.177  27.109  1.00  0.00    -0.354 N 
ATOM     23  C   UNL A   1      48.480  27.202  26.003  1.00  0.00     0.074 A 
ATOM     24  C   UNL A   1      48.834  25.966  25.346  1.00  0.00     0.031 C 
ATOM     25  C   UNL A   1      42.176  26.298  27.173  1.00  0.00     0.029 A 
ATOM     26  C   UNL A   1      42.953  27.491  27.497  1.00  0.00     0.049 A 
ATOM     27  H   UNL A   1      44.982  27.815  27.154  1.00  0.00     0.167 HD
ATOM     28  C   UNL A   1      49.320  28.247  26.176  1.00  0.00     0.037 A 
ATOM     29  C   UNL A   1      42.486  28.608  28.084  1.00  0.00     0.037 A 
ATOM     30  C   UNL A   1      48.931  29.464  26.834  1.00  0.00     0.049 A 
ATOM     31  C   UNL A   1      43.466  29.721  28.354  1.00  0.00     0.074 A 
ATOM     32  C   UNL A   1      49.699  30.569  27.140  1.00  0.00     0.029 A 
ATOM     33  N   UNL A   1      47.644  29.724  27.287  1.00  0.00    -0.354 N 
ATOM     34  N   UNL A   1      44.740  29.796  28.043  1.00  0.00    -0.248 NA
ATOM     35  C   UNL A   1      42.954  30.897  29.070  1.00  0.00     0.031 C 
ATOM     36  C   UNL A   1      48.885  31.482  27.821  1.00  0.00     0.029 A 
ATOM     37  C   UNL A   1      47.597  30.968  27.889  1.00  0.00     0.049 A 
ATOM     38  H   UNL A   1      46.878  29.112  27.195  1.00  0.00     0.167 HD
ATOM     39  C   UNL A   1      45.179  31.026  28.509  1.00  0.00     0.074 A 
ATOM     40  C   UNL A   1      44.027  31.675  29.104  1.00  0.00     0.031 C 
ATOM     41  C   UNL A   1      46.419  31.573  28.459  1.00  0.00     0.037 A 
BRANCH  28  42
ATOM     42  C   UNL A   1      50.737  28.065  25.722  1.00  0.00     0.064 A 
ATOM     43  C   UNL A   1      51.793  27.861  26.625  1.00  0.00     0.173 A 
ATOM     44  C   UNL A   1      51.051  28.144  24.355  1.00  0.00     0.173 A 
ATOM     45  F   UNL A   1      51.552  27.813  27.943  1.00  0.00    -0.203 F 
ATOM     46  C   UNL A   1      53.110  27.777  26.179  1.00  0.00     0.198 A 
ATOM     47  C   UNL A   1      52.366  28.032  23.911  1.00  0.00     0.198 A 
ATOM     48  F   UNL A   1      50.083  28.349  23.451  1.00  0.00    -0.203 F 
ATOM     49  F   UNL A   1      54.108  27.648  27.065  1.00  0.00    -0.200 F 
ATOM     50  C   UNL A   1      53.395  27.858  24.824  1.00  0.00     0.200 A 
ATOM     51  F   UNL A   1      52.638  28.110  22.603  1.00  0.00    -0.200 F 
ATOM     52  F   UNL A   1      54.664  27.787  24.399  1.00  0.00    -0.200 F 
ENDBRANCH  28  42
BRANCH  29  53
ATOM     53  C   UNL A   1      41.061  28.702  28.501  1.00  0.00     0.064 A 
ATOM     54  C   UNL A   1      40.653  28.375  29.802  1.00  0.00     0.173 A 
ATOM     55  C   UNL A   1      40.067  29.113  27.597  1.00  0.00     0.173 A 
ATOM     56  F   UNL A   1      41.556  27.955  30.700  1.00  0.00    -0.203 F 
ATOM     57  C   UNL A   1      39.311  28.439  30.175  1.00  0.00     0.198 A 
ATOM     58  C   UNL A   1      38.731  29.208  27.980  1.00  0.00     0.198 A 
ATOM     59  F   UNL A   1      40.396  29.432  26.336  1.00  0.00    -0.203 F 
ATOM     60  F   UNL A   1      38.944  28.076  31.411  1.00  0.00    -0.200 F 
ATOM     61  C   UNL A   1      38.352  28.863  29.267  1.00  0.00     0.200 A 
ATOM     62  F   UNL A   1      37.812  29.631  27.101  1.00  0.00    -0.200 F 
ATOM     63  F   UNL A   1      37.063  28.928  29.629  1.00  0.00    -0.200 F 
ENDBRANCH  29  53
BRANCH  41  64
ATOM     64  C   UNL A   1      46.575  32.949  29.035  1.00  0.00     0.064 A 
ATOM     65  C   UNL A   1      46.946  33.146  30.371  1.00  0.00     0.173 A 
ATOM     66  C   UNL A   1      46.407  34.077  28.218  1.00  0.00     0.173 A 
ATOM     67  F   UNL A   1      47.105  32.096  31.191  1.00  0.00    -0.203 F 
ATOM     68  C   UNL A   1      47.122  34.430  30.878  1.00  0.00     0.198 A 
ATOM     69  C   UNL A   1      46.615  35.356  28.720  1.00  0.00     0.198 A 
ATOM     70  F   UNL A   1      46.061  33.934  26.930  1.00  0.00    -0.203 F 
ATOM     71  F   UNL A   1      47.434  34.601  32.170  1.00  0.00    -0.200 F 
ATOM     72  C   UNL A   1      46.965  35.532  30.050  1.00  0.00     0.200 A 
ATOM     73  F   UNL A   1      46.478  36.420  27.916  1.00  0.00    -0.200 F 
ATOM     74  F   UNL A   1      47.147  36.767  30.538  1.00  0.00    -0.200 F 
ENDBRANCH  41  64
ENDBRANCH  15  16
ENDBRANCH   8  10
ENDBRANCH   7   8
ENDBRANCH   6   7
ENDBRANCH   5   6
ENDBRANCH   4   5
ENDBRANCH   3   4
ENDBRANCH   2   3
ENDBRANCH   1   2
BRANCH   1  75
ATOM     75  C   UNL A   1      36.049  22.173  24.728  1.00  0.00     0.188 C 
BRANCH  75  76
ATOM     76  C   UNL A   1      35.301  21.154  25.618  1.00  0.00     0.188 C 
BRANCH  76  77
ATOM     77  O   UNL A   1      33.943  20.927  25.267  1.00  0.00    -0.376 OA
BRANCH  77  78
ATOM     78  C   UNL A   1      33.366  21.885  24.384  1.00  0.00     0.202 C 
BRANCH  78  79
ATOM     79  C   UNL A   1      31.993  22.410  24.822  1.00  0.00     0.261 C 
BRANCH  79  80
ATOM     80  O   UNL A   1      31.941  22.967  26.150  1.00  0.00    -0.460 OA
BRANCH  80  81
ATOM     81  C   UNL A   1      31.013  23.912  26.420  1.00  0.00     0.340 C 
ATOM     82  O   UNL A   1      29.935  23.744  26.963  1.00  0.00    -0.246 OA
BRANCH  81  83
ATOM     83  C   UNL A   1      31.623  25.241  26.155  1.00  0.00     0.083 A 
ATOM     84  C   UNL A   1      32.991  25.358  26.473  1.00  0.00     0.018 A 
ATOM     85  C   UNL A   1      30.938  26.297  25.514  1.00  0.00     0.056 A 
ATOM     86  C   UNL A   1      33.703  26.509  26.137  1.00  0.00     0.014 A 
ATOM     87  C   UNL A   1      31.657  27.476  25.290  1.00  0.00     0.040 A 
ATOM     88  C   UNL A   1      33.035  27.589  25.559  1.00  0.00     0.058 A 
BRANCH  85  89
ATOM     89  N   UNL A   1      29.613  26.090  25.060  1.00  0.00    -0.320 N 
ATOM     90  C   UNL A   1      28.850  26.593  24.025  1.00  0.00     0.277 C 
ATOM     91  H   UNL A   1      29.121  25.438  25.611  1.00  0.00     0.170 HD
ATOM     92  O   UNL A   1      27.766  26.056  23.791  1.00  0.00    -0.267 OA
BRANCH  90  93
ATOM     93  C   UNL A   1      29.322  27.712  23.231  1.00  0.00     0.171 A 
ATOM     94  C   UNL A   1      28.875  29.059  23.266  1.00  0.00     0.079 A 
ATOM     95  N   UNL A   1      30.269  27.545  22.293  1.00  0.00    -0.075 NA
ATOM     96  C   UNL A   1      29.577  29.672  22.261  1.00  0.00     0.232 A 
ATOM     97  O   UNL A   1      30.422  28.780  21.690  1.00  0.00    -0.364 OA
ENDBRANCH  90  93
ENDBRANCH  85  89
BRANCH  88  98
ATOM     98  C   UNL A   1      33.787  28.841  25.162  1.00  0.00     0.416 C 
ATOM     99  F   UNL A   1      34.868  29.082  25.949  1.00  0.00    -0.166 F 
ATOM    100  F   UNL A   1      34.259  28.765  23.886  1.00  0.00    -0.166 F 
ATOM    101  F   UNL A   1      33.027  29.970  25.206  1.00  0.00    -0.166 F 
ENDBRANCH  88  98
ENDBRANCH  81  83
ENDBRANCH  80  81
ENDBRANCH  79  80
ENDBRANCH  78  79
ENDBRANCH  77  78
ENDBRANCH  76  77
ENDBRANCH  75  76
ENDBRANCH   1  75
TORSDOF 23
ENDMDL
MODEL 2
REMARK VINA RESULT:      -9.7      5.091      9.523
REMARK SMILES O=C(OCCOCCOCCOCCOC(=O)c1ccc(C(F)(F)F)cc1NC(=O)c1ccon1)c1ccc(-c2c3nc(c(-c4c(F)c(F)c(F)c(F)c4F)c4ccc([nH]4)c(-c4c(F)c(F)c(F)c(F)c4F)c4nc(c(-c5c(F)c(F)c(F)c(F)c5F)c5ccc2[nH]5)C=C4)C=C3)cc1
REMARK SMILES IDX 9 1 8 2 7 3 6 4 5 5 4 6 3 7 2 8 1 9 36 10 37 11 98 12 38 13
REMARK SMILES IDX 97 14 39 15 40 16 41 17 91 18 42 19 96 20 90 21 92 22 43 23
REMARK SMILES IDX 95 24 89 25 88 26 44 28 76 29 56 30 75 31 57 32 60 33 74 34
REMARK SMILES IDX 93 35 58 36 59 37 73 39 94 40 61 41 45 42 46 43 54 44 47 45
REMARK SMILES IDX 48 46 52 47 55 48 49 49 50 50 53 51 51 52 77 53 78 54 86 55
REMARK SMILES IDX 79 56 80 57 84 58 87 59 81 60 82 61 85 62 83 63 62 64 63 65
REMARK SMILES IDX 71 66 64 67 65 68 69 69 72 70 66 71 67 72 70 73 68 74 10 75
REMARK SMILES IDX 11 76 12 77 13 78 14 79 15 80 16 81 17 82 18 83 19 84 27 85
REMARK SMILES IDX 20 86 26 87 21 88 28 89 29 90 30 92 31 93 32 94 35 95 33 96
REMARK SMILES IDX 34 97 22 98 23 99 24 100 25 101
REMARK H PARENT 92 27 60 38 28 91
REMARK Flexibility Score: inf
ROOT
ATOM      1  O   UNL A   1      39.645  21.638  27.146  1.00  0.00    -0.377 OA
ENDROOT
BRANCH   1   2
ATOM      2  C   UNL A   1      41.017  21.248  27.124  1.00  0.00     0.188 C 
BRANCH   2   3
ATOM      3  C   UNL A   1      41.883  21.967  26.092  1.00  0.00     0.188 C 
BRANCH   3   4
ATOM      4  O   UNL A   1      42.992  21.151  25.703  1.00  0.00    -0.376 OA
BRANCH   4   5
ATOM      5  C   UNL A   1      43.990  21.816  24.929  1.00  0.00     0.202 C 
BRANCH   5   6
ATOM      6  C   UNL A   1      43.597  23.231  24.499  1.00  0.00     0.261 C 
BRANCH   6   7
ATOM      7  O   UNL A   1      44.586  24.200  24.872  1.00  0.00    -0.460 OA
BRANCH   7   8
ATOM      8  C   UNL A   1      45.038  24.494  26.117  1.00  0.00     0.338 C 
ATOM      9  O   UNL A   1      46.087  23.969  26.490  1.00  0.00    -0.246 OA
BRANCH   8  10
ATOM     10  C   UNL A   1      44.363  25.440  27.067  1.00  0.00     0.060 A 
ATOM     11  C   UNL A   1      44.514  26.828  27.092  1.00  0.00     0.016 A 
ATOM     12  C   UNL A   1      43.458  24.868  27.982  1.00  0.00     0.016 A 
ATOM     13  C   UNL A   1      43.867  27.618  28.033  1.00  0.00     0.010 A 
ATOM     14  C   UNL A   1      42.784  25.654  28.922  1.00  0.00     0.010 A 
ATOM     15  C   UNL A   1      43.023  27.031  28.969  1.00  0.00    -0.014 A 
BRANCH  15  16
ATOM     16  C   UNL A   1      42.585  27.859  30.105  1.00  0.00     0.031 A 
ATOM     17  C   UNL A   1      41.270  28.566  29.977  1.00  0.00     0.074 A 
ATOM     18  C   UNL A   1      43.268  27.837  31.261  1.00  0.00     0.049 A 
ATOM     19  N   UNL A   1      40.676  29.377  30.810  1.00  0.00    -0.248 NA
ATOM     20  C   UNL A   1      40.509  28.308  28.741  1.00  0.00     0.031 C 
ATOM     21  C   UNL A   1      44.479  27.052  31.510  1.00  0.00     0.029 A 
ATOM     22  N   UNL A   1      43.027  28.468  32.451  1.00  0.00    -0.354 N 
ATOM     23  C   UNL A   1      39.492  29.747  30.185  1.00  0.00     0.074 A 
ATOM     24  C   UNL A   1      39.445  29.076  28.908  1.00  0.00     0.031 C 
ATOM     25  C   UNL A   1      44.869  27.242  32.781  1.00  0.00     0.029 A 
ATOM     26  C   UNL A   1      43.975  28.209  33.410  1.00  0.00     0.049 A 
ATOM     27  H   UNL A   1      42.248  29.051  32.606  1.00  0.00     0.167 HD
ATOM     28  C   UNL A   1      38.537  30.585  30.647  1.00  0.00     0.037 A 
ATOM     29  C   UNL A   1      44.114  28.735  34.641  1.00  0.00     0.037 A 
ATOM     30  C   UNL A   1      38.616  31.234  31.926  1.00  0.00     0.049 A 
ATOM     31  C   UNL A   1      43.087  29.742  35.093  1.00  0.00     0.074 A 
ATOM     32  C   UNL A   1      37.759  32.161  32.485  1.00  0.00     0.029 A 
ATOM     33  N   UNL A   1      39.632  31.012  32.848  1.00  0.00    -0.354 N 
ATOM     34  N   UNL A   1      42.008  30.160  34.473  1.00  0.00    -0.248 NA
ATOM     35  C   UNL A   1      43.302  30.365  36.406  1.00  0.00     0.031 C 
ATOM     36  C   UNL A   1      38.281  32.533  33.730  1.00  0.00     0.029 A 
ATOM     37  C   UNL A   1      39.434  31.797  33.968  1.00  0.00     0.049 A 
ATOM     38  H   UNL A   1      40.383  30.388  32.722  1.00  0.00     0.167 HD
ATOM     39  C   UNL A   1      41.407  31.080  35.319  1.00  0.00     0.074 A 
ATOM     40  C   UNL A   1      42.233  31.142  36.510  1.00  0.00     0.031 C 
ATOM     41  C   UNL A   1      40.282  31.814  35.134  1.00  0.00     0.037 A 
BRANCH  28  42
ATOM     42  C   UNL A   1      37.396  30.894  29.723  1.00  0.00     0.064 A 
ATOM     43  C   UNL A   1      36.377  29.966  29.456  1.00  0.00     0.173 A 
ATOM     44  C   UNL A   1      37.350  32.128  29.056  1.00  0.00     0.173 A 
ATOM     45  F   UNL A   1      36.394  28.759  30.040  1.00  0.00    -0.203 F 
ATOM     46  C   UNL A   1      35.375  30.251  28.531  1.00  0.00     0.198 A 
ATOM     47  C   UNL A   1      36.331  32.420  28.153  1.00  0.00     0.198 A 
ATOM     48  F   UNL A   1      38.304  33.046  29.266  1.00  0.00    -0.203 F 
ATOM     49  F   UNL A   1      34.450  29.324  28.242  1.00  0.00    -0.200 F 
ATOM     50  C   UNL A   1      35.350  31.477  27.884  1.00  0.00     0.200 A 
ATOM     51  F   UNL A   1      36.309  33.605  27.529  1.00  0.00    -0.200 F 
ATOM     52  F   UNL A   1      34.391  31.744  26.987  1.00  0.00    -0.200 F 
ENDBRANCH  28  42
BRANCH  29  53
ATOM     53  C   UNL A   1      45.278  28.369  35.491  1.00  0.00     0.064 A 
ATOM     54  C   UNL A   1      45.216  27.308  36.406  1.00  0.00     0.173 A 
ATOM     55  C   UNL A   1      46.484  29.086  35.415  1.00  0.00     0.173 A 
ATOM     56  F   UNL A   1      44.082  26.604  36.537  1.00  0.00    -0.203 F 
ATOM     57  C   UNL A   1      46.304  26.991  37.219  1.00  0.00     0.198 A 
ATOM     58  C   UNL A   1      47.582  28.748  36.204  1.00  0.00     0.198 A 
ATOM     59  F   UNL A   1      46.601  30.116  34.563  1.00  0.00    -0.203 F 
ATOM     60  F   UNL A   1      46.200  26.002  38.116  1.00  0.00    -0.200 F 
ATOM     61  C   UNL A   1      47.488  27.705  37.112  1.00  0.00     0.200 A 
ATOM     62  F   UNL A   1      48.727  29.433  36.086  1.00  0.00    -0.200 F 
ATOM     63  F   UNL A   1      48.535  27.396  37.891  1.00  0.00    -0.200 F 
ENDBRANCH  29  53
BRANCH  41  64
ATOM     64  C   UNL A   1      39.870  32.716  36.259  1.00  0.00     0.064 A 
ATOM     65  C   UNL A   1      40.464  33.971  36.446  1.00  0.00     0.173 A 
ATOM     66  C   UNL A   1      38.829  32.338  37.119  1.00  0.00     0.173 A 
ATOM     67  F   UNL A   1      41.472  34.368  35.655  1.00  0.00    -0.203 F 
ATOM     68  C   UNL A   1      40.043  34.810  37.474  1.00  0.00     0.198 A 
ATOM     69  C   UNL A   1      38.391  33.192  38.124  1.00  0.00     0.198 A 
ATOM     70  F   UNL A   1      38.227  31.148  36.970  1.00  0.00    -0.203 F 
ATOM     71  F   UNL A   1      40.652  35.989  37.665  1.00  0.00    -0.200 F 
ATOM     72  C   UNL A   1      39.002  34.424  38.305  1.00  0.00     0.200 A 
ATOM     73  F   UNL A   1      37.374  32.824  38.917  1.00  0.00    -0.200 F 
ATOM     74  F   UNL A   1      38.591  35.238  39.287  1.00  0.00    -0.200 F 
ENDBRANCH  41  64
ENDBRANCH  15  16
ENDBRANCH   8  10
ENDBRANCH   7   8
ENDBRANCH   6   7
ENDBRANCH   5   6
ENDBRANCH   4   5
ENDBRANCH   3   4
ENDBRANCH   2   3
ENDBRANCH   1   2
BRANCH   1  75
ATOM     75  C   UNL A   1      39.082  22.093  25.921  1.00  0.00     0.188 C 
BRANCH  75  76
ATOM     76  C   UNL A   1      38.431  23.494  25.871  1.00  0.00     0.188 C 
BRANCH  76  77
ATOM     77  O   UNL A   1      37.156  23.591  26.490  1.00  0.00    -0.376 OA
BRANCH  77  78
ATOM     78  C   UNL A   1      36.068  23.889  25.619  1.00  0.00     0.202 C 
BRANCH  78  79
ATOM     79  C   UNL A   1      36.165  23.241  24.232  1.00  0.00     0.261 C 
BRANCH  79  80
ATOM     80  O   UNL A   1      34.949  22.637  23.748  1.00  0.00    -0.460 OA
BRANCH  80  81
ATOM     81  C   UNL A   1      34.295  23.229  22.724  1.00  0.00     0.340 C 
ATOM     82  O   UNL A   1      34.471  23.035  21.534  1.00  0.00    -0.246 OA
BRANCH  81  83
ATOM     83  C   UNL A   1      33.154  23.994  23.292  1.00  0.00     0.083 A 
ATOM     84  C   UNL A   1      33.168  25.382  23.047  1.00  0.00     0.018 A 
ATOM     85  C   UNL A   1      32.052  23.385  23.932  1.00  0.00     0.056 A 
ATOM     86  C   UNL A   1      32.082  26.178  23.408  1.00  0.00     0.014 A 
ATOM     87  C   UNL A   1      31.029  24.230  24.376  1.00  0.00     0.040 A 
ATOM     88  C   UNL A   1      31.009  25.611  24.095  1.00  0.00     0.058 A 
BRANCH  85  89
ATOM     89  N   UNL A   1      31.991  21.973  24.017  1.00  0.00    -0.320 N 
ATOM     90  C   UNL A   1      32.284  21.043  24.996  1.00  0.00     0.277 C 
ATOM     91  H   UNL A   1      31.666  21.556  23.185  1.00  0.00     0.170 HD
ATOM     92  O   UNL A   1      31.938  19.876  24.808  1.00  0.00    -0.267 OA
BRANCH  90  93
ATOM     93  C   UNL A   1      32.967  21.439  26.213  1.00  0.00     0.171 A 
ATOM     94  C   UNL A   1      32.554  22.399  27.175  1.00  0.00     0.079 A 
ATOM     95  N   UNL A   1      34.163  20.920  26.537  1.00  0.00    -0.075 NA
ATOM     96  C   UNL A   1      33.596  22.454  28.063  1.00  0.00     0.232 A 
ATOM     97  O   UNL A   1      34.550  21.562  27.699  1.00  0.00    -0.364 OA
ENDBRANCH  90  93
ENDBRANCH  85  89
BRANCH  88  98
ATOM     98  C   UNL A   1      29.806  26.446  24.478  1.00  0.00     0.416 C 
ATOM     99  F   UNL A   1      28.723  26.207  23.691  1.00  0.00    -0.166 F 
ATOM    100  F   UNL A   1      29.404  26.199  25.756  1.00  0.00    -0.166 F 
ATOM    101  F   UNL A   1      30.031  27.787  24.415  1.00  0.00    -0.166 F 
ENDBRANCH  88  98
ENDBRANCH  81  83
ENDBRANCH  80  81
ENDBRANCH  79  80
ENDBRANCH  78  79
ENDBRANCH  77  78
ENDBRANCH  76  77
ENDBRANCH  75  76
ENDBRANCH   1  75
TORSDOF 23
ENDMDL
MODEL 3
REMARK VINA RESULT:      -9.6      6.000     10.636
REMARK SMILES O=C(OCCOCCOCCOCCOC(=O)c1ccc(C(F)(F)F)cc1NC(=O)c1ccon1)c1ccc(-c2c3nc(c(-c4c(F)c(F)c(F)c(F)c4F)c4ccc([nH]4)c(-c4c(F)c(F)c(F)c(F)c4F)c4nc(c(-c5c(F)c(F)c(F)c(F)c5F)c5ccc2[nH]5)C=C4)C=C3)cc1
REMARK SMILES IDX 9 1 8 2 7 3 6 4 5 5 4 6 3 7 2 8 1 9 36 10 37 11 98 12 38 13
REMARK SMILES IDX 97 14 39 15 40 16 41 17 91 18 42 19 96 20 90 21 92 22 43 23
REMARK SMILES IDX 95 24 89 25 88 26 44 28 76 29 56 30 75 31 57 32 60 33 74 34
REMARK SMILES IDX 93 35 58 36 59 37 73 39 94 40 61 41 45 42 46 43 54 44 47 45
REMARK SMILES IDX 48 46 52 47 55 48 49 49 50 50 53 51 51 52 77 53 78 54 86 55
REMARK SMILES IDX 79 56 80 57 84 58 87 59 81 60 82 61 85 62 83 63 62 64 63 65
REMARK SMILES IDX 71 66 64 67 65 68 69 69 72 70 66 71 67 72 70 73 68 74 10 75
REMARK SMILES IDX 11 76 12 77 13 78 14 79 15 80 16 81 17 82 18 83 19 84 27 85
REMARK SMILES IDX 20 86 26 87 21 88 28 89 29 90 30 92 31 93 32 94 35 95 33 96
REMARK SMILES IDX 34 97 22 98 23 99 24 100 25 101
REMARK H PARENT 92 27 60 38 28 91
REMARK Flexibility Score: inf
ROOT
ATOM      1  O   UNL A   1      49.917  27.869  21.304  1.00  0.00    -0.377 OA
ENDROOT
BRANCH   1   2
ATOM      2  C   UNL A   1      51.000  28.391  22.072  1.00  0.00     0.188 C 
BRANCH   2   3
ATOM      3  C   UNL A   1      52.375  28.282  21.416  1.00  0.00     0.188 C 
BRANCH   3   4
ATOM      4  O   UNL A   1      53.396  28.109  22.404  1.00  0.00    -0.376 OA
BRANCH   4   5
ATOM      5  C   UNL A   1      52.925  28.000  23.747  1.00  0.00     0.202 C 
BRANCH   5   6
ATOM      6  C   UNL A   1      53.440  26.761  24.483  1.00  0.00     0.261 C 
BRANCH   6   7
ATOM      7  O   UNL A   1      52.933  26.681  25.822  1.00  0.00    -0.460 OA
BRANCH   7   8
ATOM      8  C   UNL A   1      52.098  25.749  26.344  1.00  0.00     0.338 C 
ATOM      9  O   UNL A   1      52.377  24.563  26.173  1.00  0.00    -0.246 OA
BRANCH   8  10
ATOM     10  C   UNL A   1      50.868  26.061  27.144  1.00  0.00     0.060 A 
ATOM     11  C   UNL A   1      49.593  25.528  26.935  1.00  0.00     0.016 A 
ATOM     12  C   UNL A   1      51.035  26.935  28.235  1.00  0.00     0.016 A 
ATOM     13  C   UNL A   1      48.507  25.903  27.714  1.00  0.00     0.010 A 
ATOM     14  C   UNL A   1      49.953  27.305  29.040  1.00  0.00     0.010 A 
ATOM     15  C   UNL A   1      48.676  26.814  28.750  1.00  0.00    -0.014 A 
BRANCH  15  16
ATOM     16  C   UNL A   1      47.465  27.386  29.359  1.00  0.00     0.031 A 
ATOM     17  C   UNL A   1      46.922  26.712  30.583  1.00  0.00     0.074 A 
ATOM     18  C   UNL A   1      46.976  28.558  28.922  1.00  0.00     0.049 A 
ATOM     19  N   UNL A   1      45.859  26.991  31.286  1.00  0.00    -0.248 NA
ATOM     20  C   UNL A   1      47.702  25.570  31.096  1.00  0.00     0.031 C 
ATOM     21  C   UNL A   1      47.542  29.351  27.828  1.00  0.00     0.029 A 
ATOM     22  N   UNL A   1      45.913  29.301  29.360  1.00  0.00    -0.354 N 
ATOM     23  C   UNL A   1      45.826  26.043  32.301  1.00  0.00     0.074 A 
ATOM     24  C   UNL A   1      46.972  25.182  32.129  1.00  0.00     0.031 C 
ATOM     25  C   UNL A   1      46.823  30.478  27.689  1.00  0.00     0.029 A 
ATOM     26  C   UNL A   1      45.713  30.450  28.637  1.00  0.00     0.049 A 
ATOM     27  H   UNL A   1      45.347  29.036  30.121  1.00  0.00     0.167 HD
ATOM     28  C   UNL A   1      44.906  25.909  33.282  1.00  0.00     0.037 A 
ATOM     29  C   UNL A   1      44.715  31.350  28.717  1.00  0.00     0.037 A 
ATOM     30  C   UNL A   1      43.778  26.787  33.423  1.00  0.00     0.049 A 
ATOM     31  C   UNL A   1      43.648  31.122  29.757  1.00  0.00     0.074 A 
ATOM     32  C   UNL A   1      42.734  26.723  34.323  1.00  0.00     0.029 A 
ATOM     33  N   UNL A   1      43.558  27.903  32.624  1.00  0.00    -0.354 N 
ATOM     34  N   UNL A   1      43.567  30.179  30.668  1.00  0.00    -0.248 NA
ATOM     35  C   UNL A   1      42.526  32.069  29.774  1.00  0.00     0.031 C 
ATOM     36  C   UNL A   1      41.856  27.776  34.039  1.00  0.00     0.029 A 
ATOM     37  C   UNL A   1      42.383  28.528  32.998  1.00  0.00     0.049 A 
ATOM     38  H   UNL A   1      44.151  28.204  31.898  1.00  0.00     0.167 HD
ATOM     39  C   UNL A   1      42.399  30.424  31.374  1.00  0.00     0.074 A 
ATOM     40  C   UNL A   1      41.815  31.620  30.799  1.00  0.00     0.031 C 
ATOM     41  C   UNL A   1      41.849  29.726  32.398  1.00  0.00     0.037 A 
BRANCH  28  42
ATOM     42  C   UNL A   1      45.053  24.731  34.198  1.00  0.00     0.064 A 
ATOM     43  C   UNL A   1      44.580  23.453  33.857  1.00  0.00     0.173 A 
ATOM     44  C   UNL A   1      45.637  24.896  35.464  1.00  0.00     0.173 A 
ATOM     45  F   UNL A   1      43.983  23.249  32.673  1.00  0.00    -0.203 F 
ATOM     46  C   UNL A   1      44.658  22.397  34.761  1.00  0.00     0.198 A 
ATOM     47  C   UNL A   1      45.737  23.831  36.355  1.00  0.00     0.198 A 
ATOM     48  F   UNL A   1      46.094  26.098  35.845  1.00  0.00    -0.203 F 
ATOM     49  F   UNL A   1      44.141  21.202  34.438  1.00  0.00    -0.200 F 
ATOM     50  C   UNL A   1      45.239  22.585  36.006  1.00  0.00     0.200 A 
ATOM     51  F   UNL A   1      46.299  24.015  37.556  1.00  0.00    -0.200 F 
ATOM     52  F   UNL A   1      45.303  21.569  36.879  1.00  0.00    -0.200 F 
ENDBRANCH  28  42
BRANCH  29  53
ATOM     53  C   UNL A   1      44.650  32.492  27.766  1.00  0.00     0.064 A 
ATOM     54  C   UNL A   1      44.135  32.340  26.470  1.00  0.00     0.173 A 
ATOM     55  C   UNL A   1      45.116  33.766  28.131  1.00  0.00     0.173 A 
ATOM     56  F   UNL A   1      43.697  31.140  26.061  1.00  0.00    -0.203 F 
ATOM     57  C   UNL A   1      44.104  33.410  25.576  1.00  0.00     0.198 A 
ATOM     58  C   UNL A   1      45.055  34.842  27.247  1.00  0.00     0.198 A 
ATOM     59  F   UNL A   1      45.626  33.970  29.354  1.00  0.00    -0.203 F 
ATOM     60  F   UNL A   1      43.649  33.224  24.329  1.00  0.00    -0.200 F 
ATOM     61  C   UNL A   1      44.556  34.661  25.967  1.00  0.00     0.200 A 
ATOM     62  F   UNL A   1      45.481  36.051  27.636  1.00  0.00    -0.200 F 
ATOM     63  F   UNL A   1      44.521  35.689  25.108  1.00  0.00    -0.200 F 
ENDBRANCH  29  53
BRANCH  41  64
ATOM     64  C   UNL A   1      40.574  30.263  32.976  1.00  0.00     0.064 A 
ATOM     65  C   UNL A   1      39.326  29.753  32.596  1.00  0.00     0.173 A 
ATOM     66  C   UNL A   1      40.613  31.257  33.964  1.00  0.00     0.173 A 
ATOM     67  F   UNL A   1      39.241  28.809  31.645  1.00  0.00    -0.203 F 
ATOM     68  C   UNL A   1      38.155  30.239  33.170  1.00  0.00     0.198 A 
ATOM     69  C   UNL A   1      39.443  31.717  34.557  1.00  0.00     0.198 A 
ATOM     70  F   UNL A   1      41.788  31.767  34.365  1.00  0.00    -0.203 F 
ATOM     71  F   UNL A   1      36.967  29.770  32.762  1.00  0.00    -0.200 F 
ATOM     72  C   UNL A   1      38.216  31.213  34.156  1.00  0.00     0.200 A 
ATOM     73  F   UNL A   1      39.504  32.647  35.521  1.00  0.00    -0.200 F 
ATOM     74  F   UNL A   1      37.087  31.670  34.715  1.00  0.00    -0.200 F 
ENDBRANCH  41  64
ENDBRANCH  15  16
ENDBRANCH   8  10
ENDBRANCH   7   8
ENDBRANCH   6   7
ENDBRANCH   5   6
ENDBRANCH   4   5
ENDBRANCH   3   4
ENDBRANCH   2   3
ENDBRANCH   1   2
BRANCH   1  75
ATOM     75  C   UNL A   1      49.316  26.666  21.770  1.00  0.00     0.188 C 
BRANCH  75  76
ATOM     76  C   UNL A   1      49.177  26.439  23.292  1.00  0.00     0.188 C 
BRANCH  76  77
ATOM     77  O   UNL A   1      47.843  26.400  23.779  1.00  0.00    -0.376 OA
BRANCH  77  78
ATOM     78  C   UNL A   1      47.298  27.653  24.187  1.00  0.00     0.202 C 
BRANCH  78  79
ATOM     79  C   UNL A   1      45.829  27.598  24.624  1.00  0.00     0.261 C 
BRANCH  79  80
ATOM     80  O   UNL A   1      45.609  27.580  26.048  1.00  0.00    -0.460 OA
BRANCH  80  81
ATOM     81  C   UNL A   1      44.831  26.607  26.571  1.00  0.00     0.340 C 
ATOM     82  O   UNL A   1      45.142  25.444  26.761  1.00  0.00    -0.246 OA
BRANCH  81  83
ATOM     83  C   UNL A   1      43.596  27.244  27.099  1.00  0.00     0.083 A 
ATOM     84  C   UNL A   1      42.938  28.123  26.216  1.00  0.00     0.018 A 
ATOM     85  C   UNL A   1      43.026  26.918  28.350  1.00  0.00     0.056 A 
ATOM     86  C   UNL A   1      41.699  28.668  26.547  1.00  0.00     0.014 A 
ATOM     87  C   UNL A   1      41.835  27.566  28.694  1.00  0.00     0.040 A 
ATOM     88  C   UNL A   1      41.144  28.410  27.801  1.00  0.00     0.058 A 
BRANCH  85  89
ATOM     89  N   UNL A   1      43.625  25.909  29.143  1.00  0.00    -0.320 N 
ATOM     90  C   UNL A   1      43.573  24.529  29.164  1.00  0.00     0.277 C 
ATOM     91  H   UNL A   1      44.214  26.276  29.843  1.00  0.00     0.170 HD
ATOM     92  O   UNL A   1      44.377  23.930  29.881  1.00  0.00    -0.267 OA
BRANCH  90  93
ATOM     93  C   UNL A   1      42.609  23.810  28.352  1.00  0.00     0.171 A 
ATOM     94  C   UNL A   1      41.194  23.933  28.364  1.00  0.00     0.079 A 
ATOM     95  N   UNL A   1      43.001  22.865  27.483  1.00  0.00    -0.075 NA
ATOM     96  C   UNL A   1      40.767  22.971  27.485  1.00  0.00     0.232 A 
ATOM     97  O   UNL A   1      41.840  22.345  26.943  1.00  0.00    -0.364 OA
ENDBRANCH  90  93
ENDBRANCH  85  89
BRANCH  88  98
ATOM     98  C   UNL A   1      39.789  28.968  28.179  1.00  0.00     0.416 C 
ATOM     99  F   UNL A   1      39.872  30.093  28.936  1.00  0.00    -0.166 F 
ATOM    100  F   UNL A   1      39.057  29.306  27.080  1.00  0.00    -0.166 F 
ATOM    101  F   UNL A   1      39.016  28.094  28.881  1.00  0.00    -0.166 F 
ENDBRANCH  88  98
ENDBRANCH  81  83
ENDBRANCH  80  81
ENDBRANCH  79  80
ENDBRANCH  78  79
ENDBRANCH  77  78
ENDBRANCH  76  77
ENDBRANCH  75  76
ENDBRANCH   1  75
TORSDOF 23
ENDMDL
