MODEL 1
REMARK VINA RESULT:      -8.1      0.000      0.000
REMARK SMILES C[C@H]1c2ccc(O)cc2OC(=O)[C@@H]1CC(=O)N[C@@H](CC1=c2ccccc2=NC1)C(=O)OCCOCCOCCOCCOC(=O)c1ccc(-c2c3nc(c(-c4c(F)c(F)c(F)c(F)c4F)c4ccc([nH]4)c(-c4c(F)c(F)c(F)c(F)c4F)c4nc(c(-c5c(F)c(F)c(F)c(F)c5F)c5ccc2[nH]5)C=C4)C=C3)cc1
REMARK SMILES IDX 36 1 35 2 34 3 33 4 32 5 31 6 29 7 30 8 18 9 17 10 15 11
REMARK SMILES IDX 16 12 14 14 13 15 1 16 2 17 3 18 4 19 9 20 11 21 5 22 8 23
REMARK SMILES IDX 10 24 12 25 6 26 7 27 19 29 20 30 21 31 28 32 22 33 26 34
REMARK SMILES IDX 27 35 23 36 25 37 24 38 37 39 38 40 39 41 40 42 41 43 42 44
REMARK SMILES IDX 43 45 44 46 45 47 46 48 47 49 108 50 48 51 107 52 49 53
REMARK SMILES IDX 50 54 51 55 101 56 52 57 106 58 100 59 102 60 53 61 105 62
REMARK SMILES IDX 99 63 98 64 54 66 86 67 66 68 85 69 67 70 70 71 84 72 103 73
REMARK SMILES IDX 68 74 69 75 83 77 104 78 71 79 55 80 56 81 64 82 57 83 58 84
REMARK SMILES IDX 62 85 65 86 59 87 60 88 63 89 61 90 87 91 88 92 96 93 89 94
REMARK SMILES IDX 90 95 94 96 97 97 91 98 92 99 95 100 93 101 72 102 73 103
REMARK SMILES IDX 81 104 74 105 75 106 79 107 82 108 76 109 77 110 80 111
REMARK SMILES IDX 78 112
REMARK H PARENT 17 13 7 28 102 65 70 76
REMARK Flexibility Score: inf
ROOT
ATOM      1  C   UNL A   1      37.461  32.667  37.356  1.00  0.00     0.188 C 
ENDROOT
BRANCH   1   2
ATOM      2  C   UNL A   1      38.894  32.726  36.805  1.00  0.00     0.188 C 
BRANCH   2   3
ATOM      3  O   UNL A   1      39.719  31.570  36.787  1.00  0.00    -0.376 OA
BRANCH   3   4
ATOM      4  C   UNL A   1      39.644  30.611  35.740  1.00  0.00     0.202 C 
BRANCH   4   5
ATOM      5  C   UNL A   1      39.161  30.975  34.333  1.00  0.00     0.261 C 
BRANCH   5   6
ATOM      6  O   UNL A   1      40.209  31.223  33.385  1.00  0.00    -0.462 OA
BRANCH   6   7
ATOM      7  C   UNL A   1      40.082  32.378  32.706  1.00  0.00     0.329 C 
ATOM      8  O   UNL A   1      40.189  33.493  33.215  1.00  0.00    -0.250 OA
BRANCH   7   9
ATOM      9  C   UNL A   1      39.699  32.227  31.236  1.00  0.00     0.196 C 
BRANCH   9  10
ATOM     10  N   UNL A   1      39.388  33.292  30.268  1.00  0.00    -0.342 N 
ATOM     11  C   UNL A   1      38.345  34.184  30.255  1.00  0.00     0.221 C 
ATOM     12  O   UNL A   1      38.060  34.743  29.194  1.00  0.00    -0.275 OA
ATOM     13  H   UNL A   1      40.022  33.375  29.519  1.00  0.00     0.164 HD
BRANCH  11  14
ATOM     14  C   UNL A   1      37.659  34.615  31.552  1.00  0.00     0.116 C 
BRANCH  14  15
ATOM     15  C   UNL A   1      36.812  33.566  32.302  1.00  0.00     0.116 C 
ATOM     16  C   UNL A   1      35.300  31.505  32.141  1.00  0.00     0.014 C 
ATOM     17  C   UNL A   1      35.979  32.647  31.369  1.00  0.00     0.034 C 
ATOM     18  C   UNL A   1      34.948  33.483  30.644  1.00  0.00    -0.001 A 
ATOM     19  C   UNL A   1      34.453  33.132  29.384  1.00  0.00     0.011 A 
ATOM     20  C   UNL A   1      34.497  34.665  31.231  1.00  0.00     0.138 A 
ATOM     21  C   UNL A   1      35.806  34.225  33.211  1.00  0.00     0.315 C 
ATOM     22  C   UNL A   1      33.587  33.996  28.706  1.00  0.00     0.047 A 
ATOM     23  C   UNL A   1      33.686  35.563  30.548  1.00  0.00     0.093 A 
ATOM     24  O   UNL A   1      34.817  34.960  32.566  1.00  0.00    -0.426 OA
ATOM     25  O   UNL A   1      35.886  34.190  34.433  1.00  0.00    -0.251 OA
ATOM     26  C   UNL A   1      33.240  35.219  29.279  1.00  0.00     0.119 A 
BRANCH  26  27
ATOM     27  O   UNL A   1      32.438  36.107  28.626  1.00  0.00    -0.508 OA
ATOM     28  H   UNL A   1      31.581  35.849  28.349  1.00  0.00     0.293 HD
ENDBRANCH  26  27
ENDBRANCH  14  15
ENDBRANCH  11  14
ENDBRANCH   9  10
BRANCH   9  29
ATOM     29  C   UNL A   1      40.695  31.217  30.640  1.00  0.00     0.070 C 
BRANCH  29  30
ATOM     30  C   UNL A   1      40.189  29.987  29.860  1.00  0.00    -0.037 C 
ATOM     31  C   UNL A   1      38.961  29.976  29.327  1.00  0.00     0.001 A 
ATOM     32  C   UNL A   1      40.270  28.783  30.785  1.00  0.00     0.174 C 
ATOM     33  C   UNL A   1      38.472  29.828  27.982  1.00  0.00     0.010 A 
ATOM     34  C   UNL A   1      38.204  29.232  30.362  1.00  0.00     0.065 A 
ATOM     35  N   UNL A   1      38.880  28.571  31.248  1.00  0.00    -0.280 NA
ATOM     36  C   UNL A   1      37.155  29.582  27.828  1.00  0.00     0.001 A 
ATOM     37  C   UNL A   1      36.740  29.346  30.232  1.00  0.00     0.028 A 
ATOM     38  C   UNL A   1      36.268  29.538  28.987  1.00  0.00     0.002 A 
ENDBRANCH  29  30
ENDBRANCH   9  29
ENDBRANCH   7   9
ENDBRANCH   6   7
ENDBRANCH   5   6
ENDBRANCH   4   5
ENDBRANCH   3   4
ENDBRANCH   2   3
ENDBRANCH   1   2
BRANCH   1  39
ATOM     39  O   UNL A   1      37.363  32.210  38.688  1.00  0.00    -0.377 OA
BRANCH  39  40
ATOM     40  C   UNL A   1      38.233  32.808  39.638  1.00  0.00     0.188 C 
BRANCH  40  41
ATOM     41  C   UNL A   1      37.605  33.577  40.820  1.00  0.00     0.188 C 
BRANCH  41  42
ATOM     42  O   UNL A   1      38.510  34.435  41.500  1.00  0.00    -0.376 OA
BRANCH  42  43
ATOM     43  C   UNL A   1      39.825  34.580  40.985  1.00  0.00     0.202 C 
BRANCH  43  44
ATOM     44  C   UNL A   1      40.400  36.003  40.887  1.00  0.00     0.261 C 
BRANCH  44  45
ATOM     45  O   UNL A   1      41.666  36.147  40.222  1.00  0.00    -0.460 OA
BRANCH  45  46
ATOM     46  C   UNL A   1      41.812  37.105  39.284  1.00  0.00     0.338 C 
ATOM     47  O   UNL A   1      41.823  38.310  39.455  1.00  0.00    -0.246 OA
BRANCH  46  48
ATOM     48  C   UNL A   1      42.184  36.426  38.021  1.00  0.00     0.060 A 
ATOM     49  C   UNL A   1      43.521  36.137  37.736  1.00  0.00     0.016 A 
ATOM     50  C   UNL A   1      41.180  36.111  37.095  1.00  0.00     0.016 A 
ATOM     51  C   UNL A   1      43.847  35.490  36.544  1.00  0.00     0.010 A 
ATOM     52  C   UNL A   1      41.509  35.471  35.896  1.00  0.00     0.010 A 
ATOM     53  C   UNL A   1      42.841  35.126  35.629  1.00  0.00    -0.014 A 
BRANCH  53  54
ATOM     54  C   UNL A   1      43.169  34.200  34.518  1.00  0.00     0.031 A 
ATOM     55  C   UNL A   1      43.277  32.719  34.707  1.00  0.00     0.074 A 
ATOM     56  C   UNL A   1      43.370  34.742  33.301  1.00  0.00     0.049 A 
ATOM     57  N   UNL A   1      43.436  31.789  33.800  1.00  0.00    -0.248 NA
ATOM     58  C   UNL A   1      43.206  32.215  36.085  1.00  0.00     0.031 C 
ATOM     59  C   UNL A   1      43.337  36.178  33.014  1.00  0.00     0.029 A 
ATOM     60  N   UNL A   1      43.622  34.164  32.084  1.00  0.00    -0.354 N 
ATOM     61  C   UNL A   1      43.457  30.584  34.487  1.00  0.00     0.074 A 
ATOM     62  C   UNL A   1      43.348  30.906  35.897  1.00  0.00     0.031 C 
ATOM     63  C   UNL A   1      43.521  36.367  31.701  1.00  0.00     0.029 A 
ATOM     64  C   UNL A   1      43.707  35.070  31.056  1.00  0.00     0.049 A 
ATOM     65  H   UNL A   1      43.732  33.194  31.960  1.00  0.00     0.167 HD
ATOM     66  C   UNL A   1      43.537  29.331  33.979  1.00  0.00     0.037 A 
ATOM     67  C   UNL A   1      43.900  34.881  29.738  1.00  0.00     0.037 A 
ATOM     68  C   UNL A   1      43.664  29.026  32.574  1.00  0.00     0.049 A 
ATOM     69  C   UNL A   1      44.026  33.480  29.209  1.00  0.00     0.074 A 
ATOM     70  C   UNL A   1      43.701  27.783  31.963  1.00  0.00     0.029 A 
ATOM     71  N   UNL A   1      43.792  29.968  31.564  1.00  0.00    -0.354 N 
ATOM     72  N   UNL A   1      43.940  32.344  29.857  1.00  0.00    -0.248 NA
ATOM     73  C   UNL A   1      44.268  33.333  27.768  1.00  0.00     0.031 C 
ATOM     74  C   UNL A   1      43.909  27.973  30.593  1.00  0.00     0.029 A 
ATOM     75  C   UNL A   1      43.945  29.334  30.340  1.00  0.00     0.049 A 
ATOM     76  H   UNL A   1      43.777  30.943  31.696  1.00  0.00     0.167 HD
ATOM     77  C   UNL A   1      44.101  31.349  28.903  1.00  0.00     0.074 A 
ATOM     78  C   UNL A   1      44.265  32.015  27.628  1.00  0.00     0.031 C 
ATOM     79  C   UNL A   1      44.115  30.005  29.074  1.00  0.00     0.037 A 
BRANCH  66  80
ATOM     80  C   UNL A   1      43.467  28.174  34.936  1.00  0.00     0.064 A 
ATOM     81  C   UNL A   1      42.272  27.467  35.133  1.00  0.00     0.173 A 
ATOM     82  C   UNL A   1      44.622  27.699  35.577  1.00  0.00     0.173 A 
ATOM     83  F   UNL A   1      41.139  27.882  34.548  1.00  0.00    -0.203 F 
ATOM     84  C   UNL A   1      42.232  26.336  35.945  1.00  0.00     0.198 A 
ATOM     85  C   UNL A   1      44.584  26.552  36.366  1.00  0.00     0.198 A 
ATOM     86  F   UNL A   1      45.795  28.331  35.413  1.00  0.00    -0.203 F 
ATOM     87  F   UNL A   1      41.073  25.693  36.138  1.00  0.00    -0.200 F 
ATOM     88  C   UNL A   1      43.389  25.873  36.551  1.00  0.00     0.200 A 
ATOM     89  F   UNL A   1      45.708  26.097  36.938  1.00  0.00    -0.200 F 
ATOM     90  F   UNL A   1      43.354  24.772  37.315  1.00  0.00    -0.200 F 
ENDBRANCH  66  80
BRANCH  67  91
ATOM     91  C   UNL A   1      43.935  36.054  28.827  1.00  0.00     0.064 A 
ATOM     92  C   UNL A   1      45.139  36.716  28.557  1.00  0.00     0.173 A 
ATOM     93  C   UNL A   1      42.776  36.514  28.185  1.00  0.00     0.173 A 
ATOM     94  F   UNL A   1      46.271  36.320  29.159  1.00  0.00    -0.203 F 
ATOM     95  C   UNL A   1      45.182  37.804  27.688  1.00  0.00     0.198 A 
ATOM     96  C   UNL A   1      42.825  37.583  27.294  1.00  0.00     0.198 A 
ATOM     97  F   UNL A   1      41.601  35.908  28.405  1.00  0.00    -0.203 F 
ATOM     98  F   UNL A   1      46.341  38.441  27.472  1.00  0.00    -0.200 F 
ATOM     99  C   UNL A   1      44.027  38.230  27.050  1.00  0.00     0.200 A 
ATOM    100  F   UNL A   1      41.711  37.980  26.665  1.00  0.00    -0.200 F 
ATOM    101  F   UNL A   1      44.072  39.267  26.203  1.00  0.00    -0.200 F 
ENDBRANCH  67  91
BRANCH  79 102
ATOM    102  C   UNL A   1      44.318  29.152  27.856  1.00  0.00     0.064 A 
ATOM    103  C   UNL A   1      45.584  28.652  27.516  1.00  0.00     0.173 A 
ATOM    104  C   UNL A   1      43.227  28.765  27.062  1.00  0.00     0.173 A 
ATOM    105  F   UNL A   1      46.663  29.005  28.233  1.00  0.00    -0.203 F 
ATOM    106  C   UNL A   1      45.752  27.805  26.424  1.00  0.00     0.198 A 
ATOM    107  C   UNL A   1      43.394  27.894  25.988  1.00  0.00     0.198 A 
ATOM    108  F   UNL A   1      41.994  29.210  27.345  1.00  0.00    -0.203 F 
ATOM    109  F   UNL A   1      46.976  27.367  26.100  1.00  0.00    -0.200 F 
ATOM    110  C   UNL A   1      44.655  27.418  25.669  1.00  0.00     0.200 A 
ATOM    111  F   UNL A   1      42.330  27.508  25.269  1.00  0.00    -0.200 F 
ATOM    112  F   UNL A   1      44.815  26.586  24.631  1.00  0.00    -0.200 F 
ENDBRANCH  79 102
ENDBRANCH  53  54
ENDBRANCH  46  48
ENDBRANCH  45  46
ENDBRANCH  44  45
ENDBRANCH  43  44
ENDBRANCH  42  43
ENDBRANCH  41  42
ENDBRANCH  40  41
ENDBRANCH  39  40
ENDBRANCH   1  39
TORSDOF 26
ENDMDL
MODEL 2
REMARK VINA RESULT:      -7.1      7.505     13.467
REMARK SMILES C[C@H]1c2ccc(O)cc2OC(=O)[C@@H]1CC(=O)N[C@@H](CC1=c2ccccc2=NC1)C(=O)OCCOCCOCCOCCOC(=O)c1ccc(-c2c3nc(c(-c4c(F)c(F)c(F)c(F)c4F)c4ccc([nH]4)c(-c4c(F)c(F)c(F)c(F)c4F)c4nc(c(-c5c(F)c(F)c(F)c(F)c5F)c5ccc2[nH]5)C=C4)C=C3)cc1
REMARK SMILES IDX 36 1 35 2 34 3 33 4 32 5 31 6 29 7 30 8 18 9 17 10 15 11
REMARK SMILES IDX 16 12 14 14 13 15 1 16 2 17 3 18 4 19 9 20 11 21 5 22 8 23
REMARK SMILES IDX 10 24 12 25 6 26 7 27 19 29 20 30 21 31 28 32 22 33 26 34
REMARK SMILES IDX 27 35 23 36 25 37 24 38 37 39 38 40 39 41 40 42 41 43 42 44
REMARK SMILES IDX 43 45 44 46 45 47 46 48 47 49 108 50 48 51 107 52 49 53
REMARK SMILES IDX 50 54 51 55 101 56 52 57 106 58 100 59 102 60 53 61 105 62
REMARK SMILES IDX 99 63 98 64 54 66 86 67 66 68 85 69 67 70 70 71 84 72 103 73
REMARK SMILES IDX 68 74 69 75 83 77 104 78 71 79 55 80 56 81 64 82 57 83 58 84
REMARK SMILES IDX 62 85 65 86 59 87 60 88 63 89 61 90 87 91 88 92 96 93 89 94
REMARK SMILES IDX 90 95 94 96 97 97 91 98 92 99 95 100 93 101 72 102 73 103
REMARK SMILES IDX 81 104 74 105 75 106 79 107 82 108 76 109 77 110 80 111
REMARK SMILES IDX 78 112
REMARK H PARENT 17 13 7 28 102 65 70 76
REMARK Flexibility Score: inf
ROOT
ATOM      1  C   UNL A   1      51.335  20.473  33.605  1.00  0.00     0.188 C 
ENDROOT
BRANCH   1   2
ATOM      2  C   UNL A   1      51.818  19.271  34.430  1.00  0.00     0.188 C 
BRANCH   2   3
ATOM      3  O   UNL A   1      51.342  19.051  35.750  1.00  0.00    -0.376 OA
BRANCH   3   4
ATOM      4  C   UNL A   1      51.413  20.058  36.751  1.00  0.00     0.202 C 
BRANCH   4   5
ATOM      5  C   UNL A   1      50.347  20.202  37.841  1.00  0.00     0.261 C 
BRANCH   5   6
ATOM      6  O   UNL A   1      49.048  19.714  37.477  1.00  0.00    -0.462 OA
BRANCH   6   7
ATOM      7  C   UNL A   1      48.316  19.260  38.511  1.00  0.00     0.329 C 
ATOM      8  O   UNL A   1      48.794  18.858  39.571  1.00  0.00    -0.250 OA
BRANCH   7   9
ATOM      9  C   UNL A   1      46.812  19.186  38.257  1.00  0.00     0.196 C 
BRANCH   9  10
ATOM     10  N   UNL A   1      46.120  18.678  37.060  1.00  0.00    -0.342 N 
ATOM     11  C   UNL A   1      45.955  19.265  35.830  1.00  0.00     0.221 C 
ATOM     12  O   UNL A   1      45.056  18.853  35.095  1.00  0.00    -0.275 OA
ATOM     13  H   UNL A   1      45.717  17.785  37.156  1.00  0.00     0.164 HD
BRANCH  11  14
ATOM     14  C   UNL A   1      46.963  20.287  35.302  1.00  0.00     0.116 C 
BRANCH  14  15
ATOM     15  C   UNL A   1      46.423  21.647  34.812  1.00  0.00     0.116 C 
ATOM     16  C   UNL A   1      46.951  24.072  34.181  1.00  0.00     0.014 C 
ATOM     17  C   UNL A   1      47.473  22.790  34.847  1.00  0.00     0.034 C 
ATOM     18  C   UNL A   1      47.863  23.059  36.283  1.00  0.00    -0.001 A 
ATOM     19  C   UNL A   1      49.117  23.568  36.634  1.00  0.00     0.011 A 
ATOM     20  C   UNL A   1      46.957  22.759  37.300  1.00  0.00     0.138 A 
ATOM     21  C   UNL A   1      45.285  22.126  35.678  1.00  0.00     0.315 C 
ATOM     22  C   UNL A   1      49.471  23.693  37.982  1.00  0.00     0.047 A 
ATOM     23  C   UNL A   1      47.312  22.819  38.643  1.00  0.00     0.093 A 
ATOM     24  O   UNL A   1      45.628  22.429  36.991  1.00  0.00    -0.426 OA
ATOM     25  O   UNL A   1      44.125  22.176  35.288  1.00  0.00    -0.251 OA
ATOM     26  C   UNL A   1      48.578  23.284  38.973  1.00  0.00     0.119 A 
BRANCH  26  27
ATOM     27  O   UNL A   1      48.907  23.345  40.293  1.00  0.00    -0.508 OA
ATOM     28  H   UNL A   1      49.436  24.048  40.613  1.00  0.00     0.293 HD
ENDBRANCH  26  27
ENDBRANCH  14  15
ENDBRANCH  11  14
ENDBRANCH   9  10
BRANCH   9  29
ATOM     29  C   UNL A   1      46.194  18.599  39.537  1.00  0.00     0.070 C 
BRANCH  29  30
ATOM     30  C   UNL A   1      45.931  17.084  39.654  1.00  0.00    -0.037 C 
ATOM     31  C   UNL A   1      44.685  16.619  39.816  1.00  0.00     0.001 A 
ATOM     32  C   UNL A   1      46.743  16.558  40.827  1.00  0.00     0.174 C 
ATOM     33  C   UNL A   1      43.859  15.727  39.045  1.00  0.00     0.010 A 
ATOM     34  C   UNL A   1      44.641  16.415  41.283  1.00  0.00     0.065 A 
ATOM     35  N   UNL A   1      45.764  16.415  41.928  1.00  0.00    -0.280 NA
ATOM     36  C   UNL A   1      42.748  15.248  39.640  1.00  0.00     0.001 A 
ATOM     37  C   UNL A   1      43.281  16.230  41.822  1.00  0.00     0.028 A 
ATOM     38  C   UNL A   1      42.382  15.680  40.987  1.00  0.00     0.002 A 
ENDBRANCH  29  30
ENDBRANCH   9  29
ENDBRANCH   7   9
ENDBRANCH   6   7
ENDBRANCH   5   6
ENDBRANCH   4   5
ENDBRANCH   3   4
ENDBRANCH   2   3
ENDBRANCH   1   2
BRANCH   1  39
ATOM     39  O   UNL A   1      52.152  21.620  33.707  1.00  0.00    -0.377 OA
BRANCH  39  40
ATOM     40  C   UNL A   1      53.507  21.482  33.307  1.00  0.00     0.188 C 
BRANCH  40  41
ATOM     41  C   UNL A   1      54.171  22.659  32.560  1.00  0.00     0.188 C 
BRANCH  41  42
ATOM     42  O   UNL A   1      53.542  23.914  32.779  1.00  0.00    -0.376 OA
BRANCH  42  43
ATOM     43  C   UNL A   1      54.240  24.901  33.524  1.00  0.00     0.202 C 
BRANCH  43  44
ATOM     44  C   UNL A   1      54.518  26.249  32.837  1.00  0.00     0.261 C 
BRANCH  44  45
ATOM     45  O   UNL A   1      53.432  26.839  32.104  1.00  0.00    -0.460 OA
BRANCH  45  46
ATOM     46  C   UNL A   1      53.314  26.586  30.784  1.00  0.00     0.338 C 
ATOM     47  O   UNL A   1      54.187  26.212  30.023  1.00  0.00    -0.246 OA
BRANCH  46  48
ATOM     48  C   UNL A   1      51.870  26.626  30.458  1.00  0.00     0.060 A 
ATOM     49  C   UNL A   1      50.922  26.155  31.370  1.00  0.00     0.016 A 
ATOM     50  C   UNL A   1      51.466  27.110  29.206  1.00  0.00     0.016 A 
ATOM     51  C   UNL A   1      49.566  26.211  31.045  1.00  0.00     0.010 A 
ATOM     52  C   UNL A   1      50.108  27.157  28.878  1.00  0.00     0.010 A 
ATOM     53  C   UNL A   1      49.148  26.739  29.810  1.00  0.00    -0.014 A 
BRANCH  53  54
ATOM     54  C   UNL A   1      47.712  27.049  29.600  1.00  0.00     0.031 A 
ATOM     55  C   UNL A   1      46.770  26.095  28.935  1.00  0.00     0.074 A 
ATOM     56  C   UNL A   1      47.268  28.243  30.038  1.00  0.00     0.049 A 
ATOM     57  N   UNL A   1      45.472  26.191  28.798  1.00  0.00    -0.248 NA
ATOM     58  C   UNL A   1      47.353  24.886  28.340  1.00  0.00     0.031 C 
ATOM     59  C   UNL A   1      48.111  29.268  30.657  1.00  0.00     0.029 A 
ATOM     60  N   UNL A   1      46.011  28.791  30.050  1.00  0.00    -0.354 N 
ATOM     61  C   UNL A   1      45.072  25.044  28.128  1.00  0.00     0.074 A 
ATOM     62  C   UNL A   1      46.276  24.291  27.836  1.00  0.00     0.031 C 
ATOM     63  C   UNL A   1      47.344  30.304  31.023  1.00  0.00     0.029 A 
ATOM     64  C   UNL A   1      45.961  30.027  30.646  1.00  0.00     0.049 A 
ATOM     65  H   UNL A   1      45.223  28.343  29.667  1.00  0.00     0.167 HD
ATOM     66  C   UNL A   1      43.814  24.655  27.810  1.00  0.00     0.037 A 
ATOM     67  C   UNL A   1      44.916  30.843  30.878  1.00  0.00     0.037 A 
ATOM     68  C   UNL A   1      42.625  25.425  28.089  1.00  0.00     0.049 A 
ATOM     69  C   UNL A   1      43.537  30.401  30.477  1.00  0.00     0.074 A 
ATOM     70  C   UNL A   1      41.304  25.086  27.849  1.00  0.00     0.029 A 
ATOM     71  N   UNL A   1      42.614  26.692  28.655  1.00  0.00    -0.354 N 
ATOM     72  N   UNL A   1      43.160  29.268  29.936  1.00  0.00    -0.248 NA
ATOM     73  C   UNL A   1      42.439  31.345  30.723  1.00  0.00     0.031 C 
ATOM     74  C   UNL A   1      40.498  26.170  28.214  1.00  0.00     0.029 A 
ATOM     75  C   UNL A   1      41.311  27.162  28.736  1.00  0.00     0.049 A 
ATOM     76  H   UNL A   1      43.411  27.185  28.954  1.00  0.00     0.167 HD
ATOM     77  C   UNL A   1      41.782  29.355  29.793  1.00  0.00     0.074 A 
ATOM     78  C   UNL A   1      41.387  30.643  30.325  1.00  0.00     0.031 C 
ATOM     79  C   UNL A   1      40.926  28.449  29.262  1.00  0.00     0.037 A 
BRANCH  66  80
ATOM     80  C   UNL A   1      43.635  23.322  27.139  1.00  0.00     0.064 A 
ATOM     81  C   UNL A   1      43.006  22.256  27.801  1.00  0.00     0.173 A 
ATOM     82  C   UNL A   1      43.992  23.139  25.795  1.00  0.00     0.173 A 
ATOM     83  F   UNL A   1      42.648  22.379  29.087  1.00  0.00    -0.203 F 
ATOM     84  C   UNL A   1      42.753  21.054  27.145  1.00  0.00     0.198 A 
ATOM     85  C   UNL A   1      43.713  21.944  25.135  1.00  0.00     0.198 A 
ATOM     86  F   UNL A   1      44.586  24.129  25.111  1.00  0.00    -0.203 F 
ATOM     87  F   UNL A   1      42.174  20.042  27.806  1.00  0.00    -0.200 F 
ATOM     88  C   UNL A   1      43.096  20.902  25.811  1.00  0.00     0.200 A 
ATOM     89  F   UNL A   1      44.031  21.806  23.840  1.00  0.00    -0.200 F 
ATOM     90  F   UNL A   1      42.832  19.752  25.175  1.00  0.00    -0.200 F 
ENDBRANCH  66  80
BRANCH  67  91
ATOM     91  C   UNL A   1      45.139  32.139  31.568  1.00  0.00     0.064 A 
ATOM     92  C   UNL A   1      45.029  32.238  32.961  1.00  0.00     0.173 A 
ATOM     93  C   UNL A   1      45.499  33.293  30.856  1.00  0.00     0.173 A 
ATOM     94  F   UNL A   1      44.674  31.164  33.682  1.00  0.00    -0.203 F 
ATOM     95  C   UNL A   1      45.258  33.445  33.617  1.00  0.00     0.198 A 
ATOM     96  C   UNL A   1      45.756  34.492  31.515  1.00  0.00     0.198 A 
ATOM     97  F   UNL A   1      45.625  33.247  29.523  1.00  0.00    -0.203 F 
ATOM     98  F   UNL A   1      45.114  33.521  34.946  1.00  0.00    -0.200 F 
ATOM     99  C   UNL A   1      45.631  34.569  32.894  1.00  0.00     0.200 A 
ATOM    100  F   UNL A   1      46.134  35.571  30.816  1.00  0.00    -0.200 F 
ATOM    101  F   UNL A   1      45.865  35.727  33.527  1.00  0.00    -0.200 F 
ENDBRANCH  67  91
BRANCH  79 102
ATOM    102  C   UNL A   1      39.469  28.810  29.223  1.00  0.00     0.064 A 
ATOM    103  C   UNL A   1      38.674  28.764  30.378  1.00  0.00     0.173 A 
ATOM    104  C   UNL A   1      38.879  29.279  28.039  1.00  0.00     0.173 A 
ATOM    105  F   UNL A   1      39.187  28.307  31.532  1.00  0.00    -0.203 F 
ATOM    106  C   UNL A   1      37.341  29.166  30.348  1.00  0.00     0.198 A 
ATOM    107  C   UNL A   1      37.554  29.708  28.020  1.00  0.00     0.198 A 
ATOM    108  F   UNL A   1      39.595  29.347  26.908  1.00  0.00    -0.203 F 
ATOM    109  F   UNL A   1      36.593  29.083  31.457  1.00  0.00    -0.200 F 
ATOM    110  C   UNL A   1      36.787  29.649  29.172  1.00  0.00     0.200 A 
ATOM    111  F   UNL A   1      37.024  30.189  26.886  1.00  0.00    -0.200 F 
ATOM    112  F   UNL A   1      35.510  30.055  29.150  1.00  0.00    -0.200 F 
ENDBRANCH  79 102
ENDBRANCH  53  54
ENDBRANCH  46  48
ENDBRANCH  45  46
ENDBRANCH  44  45
ENDBRANCH  43  44
ENDBRANCH  42  43
ENDBRANCH  41  42
ENDBRANCH  40  41
ENDBRANCH  39  40
ENDBRANCH   1  39
TORSDOF 26
ENDMDL
MODEL 3
REMARK VINA RESULT:      -7.0      4.718     10.451
REMARK SMILES C[C@H]1c2ccc(O)cc2OC(=O)[C@@H]1CC(=O)N[C@@H](CC1=c2ccccc2=NC1)C(=O)OCCOCCOCCOCCOC(=O)c1ccc(-c2c3nc(c(-c4c(F)c(F)c(F)c(F)c4F)c4ccc([nH]4)c(-c4c(F)c(F)c(F)c(F)c4F)c4nc(c(-c5c(F)c(F)c(F)c(F)c5F)c5ccc2[nH]5)C=C4)C=C3)cc1
REMARK SMILES IDX 36 1 35 2 34 3 33 4 32 5 31 6 29 7 30 8 18 9 17 10 15 11
REMARK SMILES IDX 16 12 14 14 13 15 1 16 2 17 3 18 4 19 9 20 11 21 5 22 8 23
REMARK SMILES IDX 10 24 12 25 6 26 7 27 19 29 20 30 21 31 28 32 22 33 26 34
REMARK SMILES IDX 27 35 23 36 25 37 24 38 37 39 38 40 39 41 40 42 41 43 42 44
REMARK SMILES IDX 43 45 44 46 45 47 46 48 47 49 108 50 48 51 107 52 49 53
REMARK SMILES IDX 50 54 51 55 101 56 52 57 106 58 100 59 102 60 53 61 105 62
REMARK SMILES IDX 99 63 98 64 54 66 86 67 66 68 85 69 67 70 70 71 84 72 103 73
REMARK SMILES IDX 68 74 69 75 83 77 104 78 71 79 55 80 56 81 64 82 57 83 58 84
REMARK SMILES IDX 62 85 65 86 59 87 60 88 63 89 61 90 87 91 88 92 96 93 89 94
REMARK SMILES IDX 90 95 94 96 97 97 91 98 92 99 95 100 93 101 72 102 73 103
REMARK SMILES IDX 81 104 74 105 75 106 79 107 82 108 76 109 77 110 80 111
REMARK SMILES IDX 78 112
REMARK H PARENT 17 13 7 28 102 65 70 76
REMARK Flexibility Score: inf
ROOT
ATOM      1  C   UNL A   1      41.652  35.744  34.928  1.00  0.00     0.188 C 
ENDROOT
BRANCH   1   2
ATOM      2  C   UNL A   1      42.397  37.086  34.889  1.00  0.00     0.188 C 
BRANCH   2   3
ATOM      3  O   UNL A   1      42.916  37.600  33.671  1.00  0.00    -0.376 OA
BRANCH   3   4
ATOM      4  C   UNL A   1      43.515  38.887  33.593  1.00  0.00     0.202 C 
BRANCH   4   5
ATOM      5  C   UNL A   1      43.394  39.770  32.348  1.00  0.00     0.261 C 
BRANCH   5   6
ATOM      6  O   UNL A   1      42.325  40.725  32.393  1.00  0.00    -0.462 OA
BRANCH   6   7
ATOM      7  C   UNL A   1      42.243  41.520  31.309  1.00  0.00     0.329 C 
ATOM      8  O   UNL A   1      41.389  41.403  30.431  1.00  0.00    -0.250 OA
BRANCH   7   9
ATOM      9  C   UNL A   1      43.358  42.555  31.179  1.00  0.00     0.196 C 
BRANCH   9  10
ATOM     10  N   UNL A   1      44.243  42.791  30.026  1.00  0.00    -0.342 N 
ATOM     11  C   UNL A   1      44.748  41.897  29.115  1.00  0.00     0.221 C 
ATOM     12  O   UNL A   1      45.740  42.221  28.458  1.00  0.00    -0.275 OA
ATOM     13  H   UNL A   1      44.511  43.728  29.889  1.00  0.00     0.164 HD
BRANCH  11  14
ATOM     14  C   UNL A   1      44.008  40.600  28.787  1.00  0.00     0.116 C 
BRANCH  14  15
ATOM     15  C   UNL A   1      43.209  40.539  27.469  1.00  0.00     0.116 C 
ATOM     16  C   UNL A   1      41.180  39.593  26.223  1.00  0.00     0.014 C 
ATOM     17  C   UNL A   1      42.063  39.492  27.477  1.00  0.00     0.034 C 
ATOM     18  C   UNL A   1      42.659  38.107  27.594  1.00  0.00    -0.001 A 
ATOM     19  C   UNL A   1      41.968  37.043  28.183  1.00  0.00     0.011 A 
ATOM     20  C   UNL A   1      43.957  37.886  27.135  1.00  0.00     0.138 A 
ATOM     21  C   UNL A   1      44.093  40.150  26.312  1.00  0.00     0.315 C 
ATOM     22  C   UNL A   1      42.605  35.812  28.370  1.00  0.00     0.047 A 
ATOM     23  C   UNL A   1      44.626  36.689  27.367  1.00  0.00     0.093 A 
ATOM     24  O   UNL A   1      44.615  38.863  26.372  1.00  0.00    -0.426 OA
ATOM     25  O   UNL A   1      44.402  40.928  25.416  1.00  0.00    -0.251 OA
ATOM     26  C   UNL A   1      43.939  35.658  27.993  1.00  0.00     0.119 A 
BRANCH  26  27
ATOM     27  O   UNL A   1      44.606  34.488  28.205  1.00  0.00    -0.508 OA
ATOM     28  H   UNL A   1      45.539  34.487  28.280  1.00  0.00     0.293 HD
ENDBRANCH  26  27
ENDBRANCH  14  15
ENDBRANCH  11  14
ENDBRANCH   9  10
BRANCH   9  29
ATOM     29  C   UNL A   1      42.770  43.878  31.699  1.00  0.00     0.070 C 
BRANCH  29  30
ATOM     30  C   UNL A   1      43.203  44.442  33.066  1.00  0.00    -0.037 C 
ATOM     31  C   UNL A   1      44.121  43.807  33.805  1.00  0.00     0.001 A 
ATOM     32  C   UNL A   1      41.961  44.567  33.934  1.00  0.00     0.174 C 
ATOM     33  C   UNL A   1      45.410  44.190  34.320  1.00  0.00     0.010 A 
ATOM     34  C   UNL A   1      43.261  43.053  34.748  1.00  0.00     0.065 A 
ATOM     35  N   UNL A   1      42.017  43.398  34.840  1.00  0.00    -0.280 NA
ATOM     36  C   UNL A   1      45.955  43.401  35.267  1.00  0.00     0.001 A 
ATOM     37  C   UNL A   1      43.966  41.983  35.478  1.00  0.00     0.028 A 
ATOM     38  C   UNL A   1      45.280  42.177  35.693  1.00  0.00     0.002 A 
ENDBRANCH  29  30
ENDBRANCH   9  29
ENDBRANCH   7   9
ENDBRANCH   6   7
ENDBRANCH   5   6
ENDBRANCH   4   5
ENDBRANCH   3   4
ENDBRANCH   2   3
ENDBRANCH   1   2
BRANCH   1  39
ATOM     39  O   UNL A   1      41.209  35.282  33.669  1.00  0.00    -0.377 OA
BRANCH  39  40
ATOM     40  C   UNL A   1      40.135  34.352  33.667  1.00  0.00     0.188 C 
BRANCH  40  41
ATOM     41  C   UNL A   1      39.110  34.425  32.516  1.00  0.00     0.188 C 
BRANCH  41  42
ATOM     42  O   UNL A   1      38.349  33.239  32.340  1.00  0.00    -0.376 OA
BRANCH  42  43
ATOM     43  C   UNL A   1      36.943  33.300  32.533  1.00  0.00     0.202 C 
BRANCH  43  44
ATOM     44  C   UNL A   1      36.049  33.264  31.281  1.00  0.00     0.261 C 
BRANCH  44  45
ATOM     45  O   UNL A   1      35.342  32.040  31.025  1.00  0.00    -0.460 OA
BRANCH  45  46
ATOM     46  C   UNL A   1      35.461  31.451  29.817  1.00  0.00     0.338 C 
ATOM     47  O   UNL A   1      34.699  31.542  28.873  1.00  0.00    -0.246 OA
BRANCH  46  48
ATOM     48  C   UNL A   1      36.811  30.845  29.758  1.00  0.00     0.060 A 
ATOM     49  C   UNL A   1      37.665  31.114  28.686  1.00  0.00     0.016 A 
ATOM     50  C   UNL A   1      37.209  29.964  30.774  1.00  0.00     0.016 A 
ATOM     51  C   UNL A   1      38.936  30.538  28.656  1.00  0.00     0.010 A 
ATOM     52  C   UNL A   1      38.478  29.380  30.737  1.00  0.00     0.010 A 
ATOM     53  C   UNL A   1      39.362  29.691  29.695  1.00  0.00    -0.014 A 
BRANCH  53  54
ATOM     54  C   UNL A   1      40.796  29.320  29.790  1.00  0.00     0.031 A 
ATOM     55  C   UNL A   1      41.802  30.167  30.505  1.00  0.00     0.074 A 
ATOM     56  C   UNL A   1      41.176  28.169  29.202  1.00  0.00     0.049 A 
ATOM     57  N   UNL A   1      43.057  29.899  30.766  1.00  0.00    -0.248 NA
ATOM     58  C   UNL A   1      41.352  31.481  30.981  1.00  0.00     0.031 C 
ATOM     59  C   UNL A   1      40.287  27.292  28.438  1.00  0.00     0.029 A 
ATOM     60  N   UNL A   1      42.389  27.531  29.165  1.00  0.00    -0.354 N 
ATOM     61  C   UNL A   1      43.545  30.996  31.461  1.00  0.00     0.074 A 
ATOM     62  C   UNL A   1      42.462  31.958  31.535  1.00  0.00     0.031 C 
ATOM     63  C   UNL A   1      40.972  26.212  28.040  1.00  0.00     0.029 A 
ATOM     64  C   UNL A   1      42.352  26.329  28.501  1.00  0.00     0.049 A 
ATOM     65  H   UNL A   1      43.205  27.898  29.573  1.00  0.00     0.167 HD
ATOM     66  C   UNL A   1      44.775  31.165  32.004  1.00  0.00     0.037 A 
ATOM     67  C   UNL A   1      43.319  25.415  28.297  1.00  0.00     0.037 A 
ATOM     68  C   UNL A   1      45.849  30.205  31.906  1.00  0.00     0.049 A 
ATOM     69  C   UNL A   1      44.685  25.649  28.877  1.00  0.00     0.074 A 
ATOM     70  C   UNL A   1      47.114  30.269  32.467  1.00  0.00     0.029 A 
ATOM     71  N   UNL A   1      45.793  29.019  31.189  1.00  0.00    -0.354 N 
ATOM     72  N   UNL A   1      45.104  26.643  29.621  1.00  0.00    -0.248 NA
ATOM     73  C   UNL A   1      45.709  24.635  28.594  1.00  0.00     0.031 C 
ATOM     74  C   UNL A   1      47.840  29.152  32.044  1.00  0.00     0.029 A 
ATOM     75  C   UNL A   1      47.012  28.361  31.264  1.00  0.00     0.049 A 
ATOM     76  H   UNL A   1      45.004  28.691  30.700  1.00  0.00     0.167 HD
ATOM     77  C   UNL A   1      46.433  26.366  29.910  1.00  0.00     0.074 A 
ATOM     78  C   UNL A   1      46.743  25.100  29.280  1.00  0.00     0.031 C 
ATOM     79  C   UNL A   1      47.315  27.103  30.629  1.00  0.00     0.037 A 
BRANCH  66  80
ATOM     80  C   UNL A   1      45.038  32.425  32.779  1.00  0.00     0.064 A 
ATOM     81  C   UNL A   1      45.535  33.575  32.146  1.00  0.00     0.173 A 
ATOM     82  C   UNL A   1      44.692  32.522  34.135  1.00  0.00     0.173 A 
ATOM     83  F   UNL A   1      45.885  33.534  30.852  1.00  0.00    -0.203 F 
ATOM     84  C   UNL A   1      45.687  34.770  32.844  1.00  0.00     0.198 A 
ATOM     85  C   UNL A   1      44.819  33.726  34.823  1.00  0.00     0.198 A 
ATOM     86  F   UNL A   1      44.201  31.456  34.786  1.00  0.00    -0.203 F 
ATOM     87  F   UNL A   1      46.187  35.847  32.225  1.00  0.00    -0.200 F 
ATOM     88  C   UNL A   1      45.318  34.848  34.179  1.00  0.00     0.200 A 
ATOM     89  F   UNL A   1      44.447  33.803  36.109  1.00  0.00    -0.200 F 
ATOM     90  F   UNL A   1      45.444  36.005  34.844  1.00  0.00    -0.200 F 
ENDBRANCH  66  80
BRANCH  67  91
ATOM     91  C   UNL A   1      43.002  24.172  27.547  1.00  0.00     0.064 A 
ATOM     92  C   UNL A   1      43.245  24.084  26.170  1.00  0.00     0.173 A 
ATOM     93  C   UNL A   1      42.485  23.041  28.195  1.00  0.00     0.173 A 
ATOM     94  F   UNL A   1      43.726  25.145  25.506  1.00  0.00    -0.203 F 
ATOM     95  C   UNL A   1      42.971  22.914  25.465  1.00  0.00     0.198 A 
ATOM     96  C   UNL A   1      42.239  21.862  27.494  1.00  0.00     0.198 A 
ATOM     97  F   UNL A   1      42.244  23.073  29.513  1.00  0.00    -0.203 F 
ATOM     98  F   UNL A   1      43.181  22.867  24.143  1.00  0.00    -0.200 F 
ATOM     99  C   UNL A   1      42.477  21.802  26.130  1.00  0.00     0.200 A 
ATOM    100  F   UNL A   1      41.780  20.784  28.143  1.00  0.00    -0.200 F 
ATOM    101  F   UNL A   1      42.227  20.672  25.454  1.00  0.00    -0.200 F 
ENDBRANCH  67  91
BRANCH  79 102
ATOM    102  C   UNL A   1      48.709  26.565  30.778  1.00  0.00     0.064 A 
ATOM    103  C   UNL A   1      49.716  26.876  29.852  1.00  0.00     0.173 A 
ATOM    104  C   UNL A   1      49.063  25.795  31.897  1.00  0.00     0.173 A 
ATOM    105  F   UNL A   1      49.425  27.595  28.757  1.00  0.00    -0.203 F 
ATOM    106  C   UNL A   1      51.022  26.430  30.036  1.00  0.00     0.198 A 
ATOM    107  C   UNL A   1      50.377  25.376  32.093  1.00  0.00     0.198 A 
ATOM    108  F   UNL A   1      48.141  25.473  32.816  1.00  0.00    -0.203 F 
ATOM    109  F   UNL A   1      51.959  26.713  29.120  1.00  0.00    -0.200 F 
ATOM    110  C   UNL A   1      51.353  25.691  31.161  1.00  0.00     0.200 A 
ATOM    111  F   UNL A   1      50.699  24.675  33.190  1.00  0.00    -0.200 F 
ATOM    112  F   UNL A   1      52.616  25.281  31.347  1.00  0.00    -0.200 F 
ENDBRANCH  79 102
ENDBRANCH  53  54
ENDBRANCH  46  48
ENDBRANCH  45  46
ENDBRANCH  44  45
ENDBRANCH  43  44
ENDBRANCH  42  43
ENDBRANCH  41  42
ENDBRANCH  40  41
ENDBRANCH  39  40
ENDBRANCH   1  39
TORSDOF 26
ENDMDL
