MODEL 1
REMARK VINA RESULT:     -10.5      0.000      0.000
REMARK SMILES C[C@H](NC(=O)N1CC[C@H](C(=O)OCCOCCOCCOCCOC(=O)c2ccc(-c3c4nc(c(-c5c(F)c(F)c(F)c(F)c5F)c5ccc([nH]5)c(-c5c(F)c(F)c(F)c(F)c5F)c5nc(c(-c6c(F)c(F)c(F)c(F)c6F)c6ccc3[nH]6)C=C5)C=C4)cc2)[C@@H]1C)[C@@H]1CCCO1
REMARK SMILES IDX 17 1 16 2 15 3 14 4 13 5 12 6 10 7 11 8 9 9 6 10 7 11 90 12
REMARK SMILES IDX 8 13 91 14 4 15 3 16 5 18 2 19 1 20 92 21 93 22 96 23 94 24
REMARK SMILES IDX 95 25 18 26 19 27 20 28 21 29 22 30 23 31 24 32 25 33 26 34
REMARK SMILES IDX 27 35 28 36 89 37 29 38 88 39 30 40 31 41 32 42 82 43 33 44
REMARK SMILES IDX 87 45 81 46 83 47 34 48 86 49 80 50 79 51 35 53 67 54 47 55
REMARK SMILES IDX 66 56 48 57 51 58 65 59 84 60 49 61 50 62 64 64 85 65 52 66
REMARK SMILES IDX 36 67 37 68 45 69 38 70 39 71 43 72 46 73 40 74 41 75 44 76
REMARK SMILES IDX 42 77 68 78 69 79 77 80 70 81 71 82 75 83 78 84 72 85 73 86
REMARK SMILES IDX 76 87 74 88 53 89 54 90 62 91 55 92 56 93 60 94 63 95 57 96
REMARK SMILES IDX 58 97 61 98 59 99
REMARK H PARENT 3 17 83 52 51 63
REMARK Flexibility Score: inf
ROOT
ATOM      1  C   UNL A   1      33.610  28.018  24.951  1.00  0.00     0.188 C 
ENDROOT
BRANCH   1   2
ATOM      2  C   UNL A   1      33.217  26.723  24.215  1.00  0.00     0.188 C 
BRANCH   2   3
ATOM      3  O   UNL A   1      31.815  26.572  24.053  1.00  0.00    -0.376 OA
BRANCH   3   4
ATOM      4  C   UNL A   1      30.961  26.921  25.129  1.00  0.00     0.202 C 
BRANCH   4   5
ATOM      5  C   UNL A   1      30.409  25.817  26.047  1.00  0.00     0.261 C 
BRANCH   5   6
ATOM      6  O   UNL A   1      31.399  25.061  26.745  1.00  0.00    -0.463 OA
BRANCH   6   7
ATOM      7  C   UNL A   1      31.715  23.820  26.292  1.00  0.00     0.311 C 
ATOM      8  O   UNL A   1      30.935  23.048  25.762  1.00  0.00    -0.252 OA
BRANCH   7   9
ATOM      9  C   UNL A   1      33.192  23.589  26.544  1.00  0.00     0.123 C 
ATOM     10  N   UNL A   1      34.325  21.639  25.817  1.00  0.00    -0.321 N 
ATOM     11  C   UNL A   1      33.539  21.283  26.979  1.00  0.00     0.122 C 
ATOM     12  C   UNL A   1      34.041  23.009  25.390  1.00  0.00     0.098 C 
ATOM     13  C   UNL A   1      33.380  22.607  27.697  1.00  0.00     0.039 C 
ATOM     14  C   UNL A   1      33.504  23.049  23.959  1.00  0.00     0.032 C 
BRANCH  10  15
ATOM     15  C   UNL A   1      35.097  20.712  25.199  1.00  0.00     0.317 C 
ATOM     16  N   UNL A   1      34.587  19.490  24.919  1.00  0.00    -0.333 N 
ATOM     17  H   UNL A   1      35.252  18.764  24.892  1.00  0.00     0.165 HD
ATOM     18  O   UNL A   1      36.245  20.950  24.830  1.00  0.00    -0.249 OA
BRANCH  16  19
ATOM     19  C   UNL A   1      33.205  19.067  24.646  1.00  0.00     0.109 C 
ATOM     20  C   UNL A   1      32.528  19.911  23.550  1.00  0.00     0.034 C 
BRANCH  19  21
ATOM     21  C   UNL A   1      33.155  17.555  24.276  1.00  0.00     0.140 C 
ATOM     22  C   UNL A   1      32.552  16.666  25.367  1.00  0.00     0.036 C 
ATOM     23  O   UNL A   1      34.480  17.045  24.011  1.00  0.00    -0.376 OA
ATOM     24  C   UNL A   1      33.449  15.455  25.378  1.00  0.00     0.031 C 
ATOM     25  C   UNL A   1      34.781  16.054  25.005  1.00  0.00     0.160 C 
ENDBRANCH  19  21
ENDBRANCH  16  19
ENDBRANCH  10  15
ENDBRANCH   7   9
ENDBRANCH   6   7
ENDBRANCH   5   6
ENDBRANCH   4   5
ENDBRANCH   3   4
ENDBRANCH   2   3
ENDBRANCH   1   2
BRANCH   1  26
ATOM     26  O   UNL A   1      34.032  27.816  26.287  1.00  0.00    -0.377 OA
BRANCH  26  27
ATOM     27  C   UNL A   1      33.689  28.814  27.253  1.00  0.00     0.188 C 
BRANCH  27  28
ATOM     28  C   UNL A   1      34.607  30.026  27.578  1.00  0.00     0.188 C 
BRANCH  28  29
ATOM     29  O   UNL A   1      33.932  31.205  27.992  1.00  0.00    -0.376 OA
BRANCH  29  30
ATOM     30  C   UNL A   1      32.923  31.726  27.145  1.00  0.00     0.202 C 
BRANCH  30  31
ATOM     31  C   UNL A   1      32.235  33.012  27.624  1.00  0.00     0.261 C 
BRANCH  31  32
ATOM     32  O   UNL A   1      33.013  34.215  27.512  1.00  0.00    -0.460 OA
BRANCH  32  33
ATOM     33  C   UNL A   1      33.227  34.928  28.639  1.00  0.00     0.338 C 
ATOM     34  O   UNL A   1      32.530  35.816  29.096  1.00  0.00    -0.246 OA
BRANCH  33  35
ATOM     35  C   UNL A   1      34.358  34.298  29.353  1.00  0.00     0.060 A 
ATOM     36  C   UNL A   1      35.646  34.389  28.808  1.00  0.00     0.016 A 
ATOM     37  C   UNL A   1      34.148  33.651  30.572  1.00  0.00     0.016 A 
ATOM     38  C   UNL A   1      36.728  33.808  29.472  1.00  0.00     0.010 A 
ATOM     39  C   UNL A   1      35.227  33.047  31.221  1.00  0.00     0.010 A 
ATOM     40  C   UNL A   1      36.515  33.098  30.660  1.00  0.00    -0.014 A 
BRANCH  40  41
ATOM     41  C   UNL A   1      37.594  32.244  31.211  1.00  0.00     0.031 A 
ATOM     42  C   UNL A   1      38.078  32.524  32.607  1.00  0.00     0.074 A 
ATOM     43  C   UNL A   1      38.127  31.238  30.497  1.00  0.00     0.049 A 
ATOM     44  N   UNL A   1      39.050  31.966  33.281  1.00  0.00    -0.248 NA
ATOM     45  C   UNL A   1      37.368  33.585  33.339  1.00  0.00     0.031 C 
ATOM     46  C   UNL A   1      37.712  30.841  29.155  1.00  0.00     0.029 A 
ATOM     47  N   UNL A   1      39.148  30.373  30.807  1.00  0.00    -0.354 N 
ATOM     48  C   UNL A   1      39.072  32.610  34.510  1.00  0.00     0.074 A 
ATOM     49  C   UNL A   1      38.039  33.622  34.480  1.00  0.00     0.031 C 
ATOM     50  C   UNL A   1      38.484  29.817  28.747  1.00  0.00     0.029 A 
ATOM     51  C   UNL A   1      39.470  29.515  29.785  1.00  0.00     0.049 A 
ATOM     52  H   UNL A   1      39.606  30.370  31.679  1.00  0.00     0.167 HD
ATOM     53  C   UNL A   1      39.877  32.373  35.572  1.00  0.00     0.037 A 
ATOM     54  C   UNL A   1      40.466  28.612  29.692  1.00  0.00     0.037 A 
ATOM     55  C   UNL A   1      40.908  31.369  35.595  1.00  0.00     0.049 A 
ATOM     56  C   UNL A   1      41.409  28.429  30.856  1.00  0.00     0.074 A 
ATOM     57  C   UNL A   1      41.764  31.035  36.630  1.00  0.00     0.029 A 
ATOM     58  N   UNL A   1      41.231  30.544  34.527  1.00  0.00    -0.354 N 
ATOM     59  N   UNL A   1      41.406  29.018  32.028  1.00  0.00    -0.248 NA
ATOM     60  C   UNL A   1      42.494  27.452  30.683  1.00  0.00     0.031 C 
ATOM     61  C   UNL A   1      42.647  30.055  36.166  1.00  0.00     0.029 A 
ATOM     62  C   UNL A   1      42.298  29.728  34.866  1.00  0.00     0.049 A 
ATOM     63  H   UNL A   1      40.769  30.540  33.657  1.00  0.00     0.167 HD
ATOM     64  C   UNL A   1      42.467  28.466  32.737  1.00  0.00     0.074 A 
ATOM     65  C   UNL A   1      43.078  27.480  31.872  1.00  0.00     0.031 C 
ATOM     66  C   UNL A   1      42.895  28.749  33.993  1.00  0.00     0.037 A 
BRANCH  53  67
ATOM     67  C   UNL A   1      39.698  33.238  36.785  1.00  0.00     0.064 A 
ATOM     68  C   UNL A   1      38.761  32.932  37.783  1.00  0.00     0.173 A 
ATOM     69  C   UNL A   1      40.498  34.377  36.965  1.00  0.00     0.173 A 
ATOM     70  F   UNL A   1      37.960  31.864  37.651  1.00  0.00    -0.203 F 
ATOM     71  C   UNL A   1      38.613  33.746  38.902  1.00  0.00     0.198 A 
ATOM     72  C   UNL A   1      40.371  35.171  38.102  1.00  0.00     0.198 A 
ATOM     73  F   UNL A   1      41.411  34.716  36.043  1.00  0.00    -0.203 F 
ATOM     74  F   UNL A   1      37.676  33.462  39.818  1.00  0.00    -0.200 F 
ATOM     75  C   UNL A   1      39.423  34.860  39.065  1.00  0.00     0.200 A 
ATOM     76  F   UNL A   1      41.164  36.239  38.263  1.00  0.00    -0.200 F 
ATOM     77  F   UNL A   1      39.286  35.639  40.148  1.00  0.00    -0.200 F 
ENDBRANCH  53  67
BRANCH  54  78
ATOM     78  C   UNL A   1      40.645  27.824  28.442  1.00  0.00     0.064 A 
ATOM     79  C   UNL A   1      40.082  26.548  28.305  1.00  0.00     0.173 A 
ATOM     80  C   UNL A   1      41.406  28.318  27.373  1.00  0.00     0.173 A 
ATOM     81  F   UNL A   1      39.370  26.017  29.309  1.00  0.00    -0.203 F 
ATOM     82  C   UNL A   1      40.293  25.788  27.155  1.00  0.00     0.198 A 
ATOM     83  C   UNL A   1      41.589  27.571  26.211  1.00  0.00     0.198 A 
ATOM     84  F   UNL A   1      41.972  29.531  27.454  1.00  0.00    -0.203 F 
ATOM     85  F   UNL A   1      39.789  24.548  27.072  1.00  0.00    -0.200 F 
ATOM     86  C   UNL A   1      41.039  26.303  26.106  1.00  0.00     0.200 A 
ATOM     87  F   UNL A   1      42.302  28.078  25.195  1.00  0.00    -0.200 F 
ATOM     88  F   UNL A   1      41.240  25.573  25.001  1.00  0.00    -0.200 F 
ENDBRANCH  54  78
BRANCH  66  89
ATOM     89  C   UNL A   1      44.063  27.963  34.521  1.00  0.00     0.064 A 
ATOM     90  C   UNL A   1      43.893  26.722  35.154  1.00  0.00     0.173 A 
ATOM     91  C   UNL A   1      45.374  28.438  34.352  1.00  0.00     0.173 A 
ATOM     92  F   UNL A   1      42.661  26.228  35.352  1.00  0.00    -0.203 F 
ATOM     93  C   UNL A   1      44.988  26.000  35.621  1.00  0.00     0.198 A 
ATOM     94  C   UNL A   1      46.468  27.696  34.789  1.00  0.00     0.198 A 
ATOM     95  F   UNL A   1      45.595  29.613  33.746  1.00  0.00    -0.203 F 
ATOM     96  F   UNL A   1      44.799  24.843  36.269  1.00  0.00    -0.200 F 
ATOM     97  C   UNL A   1      46.275  26.483  35.431  1.00  0.00     0.200 A 
ATOM     98  F   UNL A   1      47.711  28.157  34.588  1.00  0.00    -0.200 F 
ATOM     99  F   UNL A   1      47.328  25.782  35.874  1.00  0.00    -0.200 F 
ENDBRANCH  66  89
ENDBRANCH  40  41
ENDBRANCH  33  35
ENDBRANCH  32  33
ENDBRANCH  31  32
ENDBRANCH  30  31
ENDBRANCH  29  30
ENDBRANCH  28  29
ENDBRANCH  27  28
ENDBRANCH  26  27
ENDBRANCH   1  26
TORSDOF 23
ENDMDL
MODEL 2
REMARK VINA RESULT:     -10.4      1.550      7.412
REMARK SMILES C[C@H](NC(=O)N1CC[C@H](C(=O)OCCOCCOCCOCCOC(=O)c2ccc(-c3c4nc(c(-c5c(F)c(F)c(F)c(F)c5F)c5ccc([nH]5)c(-c5c(F)c(F)c(F)c(F)c5F)c5nc(c(-c6c(F)c(F)c(F)c(F)c6F)c6ccc3[nH]6)C=C5)C=C4)cc2)[C@@H]1C)[C@@H]1CCCO1
REMARK SMILES IDX 17 1 16 2 15 3 14 4 13 5 12 6 10 7 11 8 9 9 6 10 7 11 90 12
REMARK SMILES IDX 8 13 91 14 4 15 3 16 5 18 2 19 1 20 92 21 93 22 96 23 94 24
REMARK SMILES IDX 95 25 18 26 19 27 20 28 21 29 22 30 23 31 24 32 25 33 26 34
REMARK SMILES IDX 27 35 28 36 89 37 29 38 88 39 30 40 31 41 32 42 82 43 33 44
REMARK SMILES IDX 87 45 81 46 83 47 34 48 86 49 80 50 79 51 35 53 67 54 47 55
REMARK SMILES IDX 66 56 48 57 51 58 65 59 84 60 49 61 50 62 64 64 85 65 52 66
REMARK SMILES IDX 36 67 37 68 45 69 38 70 39 71 43 72 46 73 40 74 41 75 44 76
REMARK SMILES IDX 42 77 68 78 69 79 77 80 70 81 71 82 75 83 78 84 72 85 73 86
REMARK SMILES IDX 76 87 74 88 53 89 54 90 62 91 55 92 56 93 60 94 63 95 57 96
REMARK SMILES IDX 58 97 61 98 59 99
REMARK H PARENT 3 17 83 52 51 63
REMARK Flexibility Score: inf
ROOT
ATOM      1  C   UNL A   1      32.844  29.009  24.795  1.00  0.00     0.188 C 
ENDROOT
BRANCH   1   2
ATOM      2  C   UNL A   1      32.837  28.495  23.343  1.00  0.00     0.188 C 
BRANCH   2   3
ATOM      3  O   UNL A   1      31.562  28.575  22.725  1.00  0.00    -0.376 OA
BRANCH   3   4
ATOM      4  C   UNL A   1      30.414  28.723  23.544  1.00  0.00     0.202 C 
BRANCH   4   5
ATOM      5  C   UNL A   1      29.474  27.524  23.753  1.00  0.00     0.261 C 
BRANCH   5   6
ATOM      6  O   UNL A   1      30.116  26.249  23.773  1.00  0.00    -0.463 OA
BRANCH   6   7
ATOM      7  C   UNL A   1      30.587  25.772  24.954  1.00  0.00     0.311 C 
ATOM      8  O   UNL A   1      30.342  26.247  26.050  1.00  0.00    -0.252 OA
BRANCH   7   9
ATOM      9  C   UNL A   1      31.440  24.553  24.663  1.00  0.00     0.123 C 
ATOM     10  N   UNL A   1      32.477  23.278  26.369  1.00  0.00    -0.321 N 
ATOM     11  C   UNL A   1      33.241  24.497  26.205  1.00  0.00     0.122 C 
ATOM     12  C   UNL A   1      31.258  23.310  25.562  1.00  0.00     0.098 C 
ATOM     13  C   UNL A   1      32.920  24.907  24.783  1.00  0.00     0.039 C 
ATOM     14  C   UNL A   1      30.007  23.181  26.434  1.00  0.00     0.032 C 
BRANCH  10  15
ATOM     15  C   UNL A   1      32.859  22.345  27.276  1.00  0.00     0.317 C 
ATOM     16  N   UNL A   1      33.395  21.176  26.855  1.00  0.00    -0.333 N 
ATOM     17  H   UNL A   1      33.245  20.414  27.461  1.00  0.00     0.165 HD
ATOM     18  O   UNL A   1      32.785  22.536  28.489  1.00  0.00    -0.249 OA
BRANCH  16  19
ATOM     19  C   UNL A   1      34.164  20.855  25.643  1.00  0.00     0.109 C 
ATOM     20  C   UNL A   1      33.293  20.828  24.373  1.00  0.00     0.034 C 
BRANCH  19  21
ATOM     21  C   UNL A   1      35.350  21.848  25.466  1.00  0.00     0.140 C 
ATOM     22  C   UNL A   1      35.468  22.434  24.056  1.00  0.00     0.036 C 
ATOM     23  O   UNL A   1      36.611  21.204  25.753  1.00  0.00    -0.376 OA
ATOM     24  C   UNL A   1      36.950  22.410  23.781  1.00  0.00     0.031 C 
ATOM     25  C   UNL A   1      37.385  21.186  24.545  1.00  0.00     0.160 C 
ENDBRANCH  19  21
ENDBRANCH  16  19
ENDBRANCH  10  15
ENDBRANCH   7   9
ENDBRANCH   6   7
ENDBRANCH   5   6
ENDBRANCH   4   5
ENDBRANCH   3   4
ENDBRANCH   2   3
ENDBRANCH   1   2
BRANCH   1  26
ATOM     26  O   UNL A   1      33.651  28.245  25.673  1.00  0.00    -0.377 OA
BRANCH  26  27
ATOM     27  C   UNL A   1      33.679  28.622  27.052  1.00  0.00     0.188 C 
BRANCH  27  28
ATOM     28  C   UNL A   1      34.923  29.266  27.727  1.00  0.00     0.188 C 
BRANCH  28  29
ATOM     29  O   UNL A   1      34.791  30.641  28.055  1.00  0.00    -0.376 OA
BRANCH  29  30
ATOM     30  C   UNL A   1      33.972  31.447  27.225  1.00  0.00     0.202 C 
BRANCH  30  31
ATOM     31  C   UNL A   1      33.017  32.408  27.946  1.00  0.00     0.261 C 
BRANCH  31  32
ATOM     32  O   UNL A   1      33.132  33.793  27.583  1.00  0.00    -0.460 OA
BRANCH  32  33
ATOM     33  C   UNL A   1      33.261  34.693  28.581  1.00  0.00     0.338 C 
ATOM     34  O   UNL A   1      32.479  35.576  28.888  1.00  0.00    -0.246 OA
BRANCH  33  35
ATOM     35  C   UNL A   1      34.430  34.291  29.391  1.00  0.00     0.060 A 
ATOM     36  C   UNL A   1      35.711  34.361  28.826  1.00  0.00     0.016 A 
ATOM     37  C   UNL A   1      34.262  33.878  30.714  1.00  0.00     0.016 A 
ATOM     38  C   UNL A   1      36.828  33.994  29.578  1.00  0.00     0.010 A 
ATOM     39  C   UNL A   1      35.377  33.484  31.457  1.00  0.00     0.010 A 
ATOM     40  C   UNL A   1      36.661  33.513  30.882  1.00  0.00    -0.014 A 
BRANCH  40  41
ATOM     41  C   UNL A   1      37.793  32.856  31.577  1.00  0.00     0.031 A 
ATOM     42  C   UNL A   1      38.418  31.649  30.933  1.00  0.00     0.074 A 
ATOM     43  C   UNL A   1      38.264  33.321  32.747  1.00  0.00     0.049 A 
ATOM     44  N   UNL A   1      39.369  30.866  31.373  1.00  0.00    -0.248 NA
ATOM     45  C   UNL A   1      37.893  31.275  29.609  1.00  0.00     0.031 C 
ATOM     46  C   UNL A   1      37.773  34.505  33.445  1.00  0.00     0.029 A 
ATOM     47  N   UNL A   1      39.262  32.837  33.558  1.00  0.00    -0.354 N 
ATOM     48  C   UNL A   1      39.549  29.906  30.387  1.00  0.00     0.074 A 
ATOM     49  C   UNL A   1      38.591  30.183  29.340  1.00  0.00     0.031 C 
ATOM     50  C   UNL A   1      38.461  34.648  34.593  1.00  0.00     0.029 A 
ATOM     51  C   UNL A   1      39.412  33.544  34.724  1.00  0.00     0.049 A 
ATOM     52  H   UNL A   1      39.815  32.056  33.324  1.00  0.00     0.167 HD
ATOM     53  C   UNL A   1      40.441  28.888  30.355  1.00  0.00     0.037 A 
ATOM     54  C   UNL A   1      40.207  33.306  35.787  1.00  0.00     0.037 A 
ATOM     55  C   UNL A   1      41.388  28.612  31.403  1.00  0.00     0.049 A 
ATOM     56  C   UNL A   1      41.129  32.111  35.767  1.00  0.00     0.074 A 
ATOM     57  C   UNL A   1      42.349  27.617  31.458  1.00  0.00     0.029 A 
ATOM     58  N   UNL A   1      41.486  29.327  32.588  1.00  0.00    -0.354 N 
ATOM     59  N   UNL A   1      41.319  31.224  34.820  1.00  0.00    -0.248 NA
ATOM     60  C   UNL A   1      41.949  31.887  36.966  1.00  0.00     0.031 C 
ATOM     61  C   UNL A   1      42.982  27.689  32.702  1.00  0.00     0.029 A 
ATOM     62  C   UNL A   1      42.465  28.772  33.396  1.00  0.00     0.049 A 
ATOM     63  H   UNL A   1      40.939  30.113  32.821  1.00  0.00     0.167 HD
ATOM     64  C   UNL A   1      42.294  30.356  35.297  1.00  0.00     0.074 A 
ATOM     65  C   UNL A   1      42.672  30.835  36.609  1.00  0.00     0.031 C 
ATOM     66  C   UNL A   1      42.831  29.261  34.701  1.00  0.00     0.037 A 
BRANCH  53  67
ATOM     67  C   UNL A   1      40.410  27.975  29.165  1.00  0.00     0.064 A 
ATOM     68  C   UNL A   1      39.607  26.824  29.134  1.00  0.00     0.173 A 
ATOM     69  C   UNL A   1      41.172  28.272  28.025  1.00  0.00     0.173 A 
ATOM     70  F   UNL A   1      38.872  26.486  30.204  1.00  0.00    -0.203 F 
ATOM     71  C   UNL A   1      39.589  25.992  28.018  1.00  0.00     0.198 A 
ATOM     72  C   UNL A   1      41.127  27.456  26.898  1.00  0.00     0.198 A 
ATOM     73  F   UNL A   1      41.956  29.361  28.000  1.00  0.00    -0.203 F 
ATOM     74  F   UNL A   1      38.854  24.871  28.031  1.00  0.00    -0.200 F 
ATOM     75  C   UNL A   1      40.342  26.313  26.898  1.00  0.00     0.200 A 
ATOM     76  F   UNL A   1      41.845  27.775  25.812  1.00  0.00    -0.200 F 
ATOM     77  F   UNL A   1      40.318  25.515  25.821  1.00  0.00    -0.200 F 
ENDBRANCH  53  67
BRANCH  54  78
ATOM     78  C   UNL A   1      40.154  34.202  36.973  1.00  0.00     0.064 A 
ATOM     79  C   UNL A   1      41.030  35.289  37.099  1.00  0.00     0.173 A 
ATOM     80  C   UNL A   1      39.249  33.971  38.020  1.00  0.00     0.173 A 
ATOM     81  F   UNL A   1      41.935  35.536  36.141  1.00  0.00    -0.203 F 
ATOM     82  C   UNL A   1      41.016  36.097  38.235  1.00  0.00     0.198 A 
ATOM     83  C   UNL A   1      39.213  34.799  39.139  1.00  0.00     0.198 A 
ATOM     84  F   UNL A   1      38.393  32.941  37.953  1.00  0.00    -0.203 F 
ATOM     85  F   UNL A   1      41.901  37.097  38.354  1.00  0.00    -0.200 F 
ATOM     86  C   UNL A   1      40.103  35.856  39.251  1.00  0.00     0.200 A 
ATOM     87  F   UNL A   1      38.322  34.569  40.113  1.00  0.00    -0.200 F 
ATOM     88  F   UNL A   1      40.089  36.634  40.341  1.00  0.00    -0.200 F 
ENDBRANCH  54  78
BRANCH  66  89
ATOM     89  C   UNL A   1      43.905  28.521  35.449  1.00  0.00     0.064 A 
ATOM     90  C   UNL A   1      45.264  28.834  35.292  1.00  0.00     0.173 A 
ATOM     91  C   UNL A   1      43.567  27.516  36.368  1.00  0.00     0.173 A 
ATOM     92  F   UNL A   1      45.643  29.778  34.417  1.00  0.00    -0.203 F 
ATOM     93  C   UNL A   1      46.244  28.150  36.006  1.00  0.00     0.198 A 
ATOM     94  C   UNL A   1      44.548  26.858  37.106  1.00  0.00     0.198 A 
ATOM     95  F   UNL A   1      42.283  27.183  36.565  1.00  0.00    -0.203 F 
ATOM     96  F   UNL A   1      47.538  28.429  35.800  1.00  0.00    -0.200 F 
ATOM     97  C   UNL A   1      45.886  27.168  36.918  1.00  0.00     0.200 A 
ATOM     98  F   UNL A   1      44.196  25.924  38.001  1.00  0.00    -0.200 F 
ATOM     99  F   UNL A   1      46.830  26.517  37.611  1.00  0.00    -0.200 F 
ENDBRANCH  66  89
ENDBRANCH  40  41
ENDBRANCH  33  35
ENDBRANCH  32  33
ENDBRANCH  31  32
ENDBRANCH  30  31
ENDBRANCH  29  30
ENDBRANCH  28  29
ENDBRANCH  27  28
ENDBRANCH  26  27
ENDBRANCH   1  26
TORSDOF 23
ENDMDL
MODEL 3
REMARK VINA RESULT:     -10.3      4.523      9.172
REMARK SMILES C[C@H](NC(=O)N1CC[C@H](C(=O)OCCOCCOCCOCCOC(=O)c2ccc(-c3c4nc(c(-c5c(F)c(F)c(F)c(F)c5F)c5ccc([nH]5)c(-c5c(F)c(F)c(F)c(F)c5F)c5nc(c(-c6c(F)c(F)c(F)c(F)c6F)c6ccc3[nH]6)C=C5)C=C4)cc2)[C@@H]1C)[C@@H]1CCCO1
REMARK SMILES IDX 17 1 16 2 15 3 14 4 13 5 12 6 10 7 11 8 9 9 6 10 7 11 90 12
REMARK SMILES IDX 8 13 91 14 4 15 3 16 5 18 2 19 1 20 92 21 93 22 96 23 94 24
REMARK SMILES IDX 95 25 18 26 19 27 20 28 21 29 22 30 23 31 24 32 25 33 26 34
REMARK SMILES IDX 27 35 28 36 89 37 29 38 88 39 30 40 31 41 32 42 82 43 33 44
REMARK SMILES IDX 87 45 81 46 83 47 34 48 86 49 80 50 79 51 35 53 67 54 47 55
REMARK SMILES IDX 66 56 48 57 51 58 65 59 84 60 49 61 50 62 64 64 85 65 52 66
REMARK SMILES IDX 36 67 37 68 45 69 38 70 39 71 43 72 46 73 40 74 41 75 44 76
REMARK SMILES IDX 42 77 68 78 69 79 77 80 70 81 71 82 75 83 78 84 72 85 73 86
REMARK SMILES IDX 76 87 74 88 53 89 54 90 62 91 55 92 56 93 60 94 63 95 57 96
REMARK SMILES IDX 58 97 61 98 59 99
REMARK H PARENT 3 17 83 52 51 63
REMARK Flexibility Score: inf
ROOT
ATOM      1  C   UNL A   1      33.780  31.504  27.741  1.00  0.00     0.188 C 
ENDROOT
BRANCH   1   2
ATOM      2  C   UNL A   1      34.354  30.144  27.302  1.00  0.00     0.188 C 
BRANCH   2   3
ATOM      3  O   UNL A   1      33.355  29.206  26.930  1.00  0.00    -0.376 OA
BRANCH   3   4
ATOM      4  C   UNL A   1      32.138  29.685  26.382  1.00  0.00     0.202 C 
BRANCH   4   5
ATOM      5  C   UNL A   1      31.916  29.622  24.862  1.00  0.00     0.261 C 
BRANCH   5   6
ATOM      6  O   UNL A   1      32.613  28.570  24.192  1.00  0.00    -0.463 OA
BRANCH   6   7
ATOM      7  C   UNL A   1      31.894  27.603  23.567  1.00  0.00     0.311 C 
ATOM      8  O   UNL A   1      30.880  27.793  22.918  1.00  0.00    -0.252 OA
BRANCH   7   9
ATOM      9  C   UNL A   1      32.584  26.275  23.805  1.00  0.00     0.123 C 
ATOM     10  N   UNL A   1      32.026  24.847  25.612  1.00  0.00    -0.321 N 
ATOM     11  C   UNL A   1      32.810  25.942  26.143  1.00  0.00     0.122 C 
ATOM     12  C   UNL A   1      31.708  25.065  24.201  1.00  0.00     0.098 C 
ATOM     13  C   UNL A   1      33.600  26.407  24.936  1.00  0.00     0.039 C 
ATOM     14  C   UNL A   1      30.197  25.113  23.969  1.00  0.00     0.032 C 
BRANCH  10  15
ATOM     15  C   UNL A   1      31.582  23.861  26.429  1.00  0.00     0.317 C 
ATOM     16  N   UNL A   1      32.150  22.634  26.375  1.00  0.00    -0.333 N 
ATOM     17  H   UNL A   1      31.552  21.893  26.629  1.00  0.00     0.165 HD
ATOM     18  O   UNL A   1      30.702  24.047  27.269  1.00  0.00    -0.249 OA
BRANCH  16  19
ATOM     19  C   UNL A   1      33.512  22.224  26.001  1.00  0.00     0.109 C 
ATOM     20  C   UNL A   1      34.216  21.414  27.107  1.00  0.00     0.034 C 
BRANCH  19  21
ATOM     21  C   UNL A   1      33.498  21.423  24.667  1.00  0.00     0.140 C 
ATOM     22  C   UNL A   1      32.159  20.744  24.360  1.00  0.00     0.036 C 
ATOM     23  O   UNL A   1      34.497  20.380  24.680  1.00  0.00    -0.376 OA
ATOM     24  C   UNL A   1      32.557  19.389  23.835  1.00  0.00     0.031 C 
ATOM     25  C   UNL A   1      33.820  19.116  24.611  1.00  0.00     0.160 C 
ENDBRANCH  19  21
ENDBRANCH  16  19
ENDBRANCH  10  15
ENDBRANCH   7   9
ENDBRANCH   6   7
ENDBRANCH   5   6
ENDBRANCH   4   5
ENDBRANCH   3   4
ENDBRANCH   2   3
ENDBRANCH   1   2
BRANCH   1  26
ATOM     26  O   UNL A   1      34.681  32.586  27.591  1.00  0.00    -0.377 OA
BRANCH  26  27
ATOM     27  C   UNL A   1      35.765  32.685  28.519  1.00  0.00     0.188 C 
BRANCH  27  28
ATOM     28  C   UNL A   1      35.998  33.935  29.414  1.00  0.00     0.188 C 
BRANCH  28  29
ATOM     29  O   UNL A   1      35.047  34.123  30.452  1.00  0.00    -0.376 OA
BRANCH  29  30
ATOM     30  C   UNL A   1      34.588  32.977  31.150  1.00  0.00     0.202 C 
BRANCH  30  31
ATOM     31  C   UNL A   1      35.121  32.798  32.578  1.00  0.00     0.261 C 
BRANCH  31  32
ATOM     32  O   UNL A   1      35.798  31.558  32.841  1.00  0.00    -0.460 OA
BRANCH  32  33
ATOM     33  C   UNL A   1      37.002  31.621  33.449  1.00  0.00     0.338 C 
ATOM     34  O   UNL A   1      37.229  31.901  34.613  1.00  0.00    -0.246 OA
BRANCH  33  35
ATOM     35  C   UNL A   1      38.002  31.078  32.507  1.00  0.00     0.060 A 
ATOM     36  C   UNL A   1      39.168  30.485  33.014  1.00  0.00     0.016 A 
ATOM     37  C   UNL A   1      37.773  31.124  31.131  1.00  0.00     0.016 A 
ATOM     38  C   UNL A   1      40.121  29.959  32.140  1.00  0.00     0.010 A 
ATOM     39  C   UNL A   1      38.740  30.623  30.257  1.00  0.00     0.010 A 
ATOM     40  C   UNL A   1      39.930  30.064  30.758  1.00  0.00    -0.014 A 
BRANCH  40  41
ATOM     41  C   UNL A   1      41.053  29.775  29.835  1.00  0.00     0.031 A 
ATOM     42  C   UNL A   1      41.116  28.414  29.197  1.00  0.00     0.074 A 
ATOM     43  C   UNL A   1      41.992  30.697  29.560  1.00  0.00     0.049 A 
ATOM     44  N   UNL A   1      42.028  27.901  28.414  1.00  0.00    -0.248 NA
ATOM     45  C   UNL A   1      39.992  27.509  29.488  1.00  0.00     0.031 C 
ATOM     46  C   UNL A   1      42.014  32.061  30.079  1.00  0.00     0.029 A 
ATOM     47  N   UNL A   1      43.118  30.612  28.778  1.00  0.00    -0.354 N 
ATOM     48  C   UNL A   1      41.595  26.614  28.126  1.00  0.00     0.074 A 
ATOM     49  C   UNL A   1      40.354  26.412  28.841  1.00  0.00     0.031 C 
ATOM     50  C   UNL A   1      43.112  32.684  29.614  1.00  0.00     0.029 A 
ATOM     51  C   UNL A   1      43.886  31.749  28.797  1.00  0.00     0.049 A 
ATOM     52  H   UNL A   1      43.351  29.811  28.255  1.00  0.00     0.167 HD
ATOM     53  C   UNL A   1      42.176  25.687  27.329  1.00  0.00     0.037 A 
ATOM     54  C   UNL A   1      45.090  31.992  28.241  1.00  0.00     0.037 A 
ATOM     55  C   UNL A   1      43.414  25.891  26.624  1.00  0.00     0.049 A 
ATOM     56  C   UNL A   1      45.761  30.910  27.430  1.00  0.00     0.074 A 
ATOM     57  C   UNL A   1      44.076  25.022  25.774  1.00  0.00     0.029 A 
ATOM     58  N   UNL A   1      44.185  27.042  26.698  1.00  0.00    -0.354 N 
ATOM     59  N   UNL A   1      45.333  29.707  27.135  1.00  0.00    -0.248 NA
ATOM     60  C   UNL A   1      47.086  31.224  26.876  1.00  0.00     0.031 C 
ATOM     61  C   UNL A   1      45.278  25.622  25.387  1.00  0.00     0.029 A 
ATOM     62  C   UNL A   1      45.333  26.892  25.938  1.00  0.00     0.049 A 
ATOM     63  H   UNL A   1      43.949  27.848  27.214  1.00  0.00     0.167 HD
ATOM     64  C   UNL A   1      46.319  29.132  26.341  1.00  0.00     0.074 A 
ATOM     65  C   UNL A   1      47.359  30.127  26.184  1.00  0.00     0.031 C 
ATOM     66  C   UNL A   1      46.360  27.892  25.791  1.00  0.00     0.037 A 
BRANCH  53  67
ATOM     67  C   UNL A   1      41.497  24.355  27.205  1.00  0.00     0.064 A 
ATOM     68  C   UNL A   1      42.006  23.202  27.823  1.00  0.00     0.173 A 
ATOM     69  C   UNL A   1      40.301  24.235  26.482  1.00  0.00     0.173 A 
ATOM     70  F   UNL A   1      43.156  23.260  28.513  1.00  0.00    -0.203 F 
ATOM     71  C   UNL A   1      41.359  21.977  27.700  1.00  0.00     0.198 A 
ATOM     72  C   UNL A   1      39.638  23.014  26.388  1.00  0.00     0.198 A 
ATOM     73  F   UNL A   1      39.768  25.304  25.872  1.00  0.00    -0.203 F 
ATOM     74  F   UNL A   1      41.892  20.879  28.256  1.00  0.00    -0.200 F 
ATOM     75  C   UNL A   1      40.172  21.884  26.990  1.00  0.00     0.200 A 
ATOM     76  F   UNL A   1      38.483  22.930  25.712  1.00  0.00    -0.200 F 
ATOM     77  F   UNL A   1      39.544  20.705  26.878  1.00  0.00    -0.200 F 
ENDBRANCH  53  67
BRANCH  54  78
ATOM     78  C   UNL A   1      45.755  33.306  28.447  1.00  0.00     0.064 A 
ATOM     79  C   UNL A   1      45.493  34.392  27.599  1.00  0.00     0.173 A 
ATOM     80  C   UNL A   1      46.689  33.496  29.477  1.00  0.00     0.173 A 
ATOM     81  F   UNL A   1      44.631  34.255  26.582  1.00  0.00    -0.203 F 
ATOM     82  C   UNL A   1      46.155  35.608  27.761  1.00  0.00     0.198 A 
ATOM     83  C   UNL A   1      47.326  34.722  29.657  1.00  0.00     0.198 A 
ATOM     84  F   UNL A   1      46.982  32.489  30.312  1.00  0.00    -0.203 F 
ATOM     85  F   UNL A   1      45.926  36.612  26.902  1.00  0.00    -0.200 F 
ATOM     86  C   UNL A   1      47.066  35.774  28.793  1.00  0.00     0.200 A 
ATOM     87  F   UNL A   1      48.197  34.881  30.664  1.00  0.00    -0.200 F 
ATOM     88  F   UNL A   1      47.701  36.944  28.949  1.00  0.00    -0.200 F 
ENDBRANCH  54  78
BRANCH  66  89
ATOM     89  C   UNL A   1      47.552  27.550  24.941  1.00  0.00     0.064 A 
ATOM     90  C   UNL A   1      48.682  26.911  25.476  1.00  0.00     0.173 A 
ATOM     91  C   UNL A   1      47.546  27.824  23.565  1.00  0.00     0.173 A 
ATOM     92  F   UNL A   1      48.744  26.637  26.788  1.00  0.00    -0.203 F 
ATOM     93  C   UNL A   1      49.770  26.586  24.671  1.00  0.00     0.198 A 
ATOM     94  C   UNL A   1      48.622  27.466  22.756  1.00  0.00     0.198 A 
ATOM     95  F   UNL A   1      46.489  28.424  22.999  1.00  0.00    -0.203 F 
ATOM     96  F   UNL A   1      50.859  26.025  25.213  1.00  0.00    -0.200 F 
ATOM     97  C   UNL A   1      49.736  26.856  23.310  1.00  0.00     0.200 A 
ATOM     98  F   UNL A   1      48.578  27.711  21.439  1.00  0.00    -0.200 F 
ATOM     99  F   UNL A   1      50.781  26.534  22.535  1.00  0.00    -0.200 F 
ENDBRANCH  66  89
ENDBRANCH  40  41
ENDBRANCH  33  35
ENDBRANCH  32  33
ENDBRANCH  31  32
ENDBRANCH  30  31
ENDBRANCH  29  30
ENDBRANCH  28  29
ENDBRANCH  27  28
ENDBRANCH  26  27
ENDBRANCH   1  26
TORSDOF 23
ENDMDL
