MODEL 1
REMARK VINA RESULT:      -8.0      0.000      0.000
REMARK SMILES CC1(C)CCCN(C(=O)c2csc(/C=C/C(=O)OCCOCCOCCOCCOC(=O)c3ccc(-c4c5nc(c(-c6c(F)c(F)c(F)c(F)c6F)c6ccc([nH]6)c(-c6c(F)c(F)c(F)c(F)c6F)c6nc(c(-c7c(F)c(F)c(F)c(F)c7F)c7ccc4[nH]7)C=C6)C=C5)cc3)c2)C1
REMARK SMILES IDX 23 1 22 2 21 3 20 4 19 5 18 6 16 7 17 8 15 9 14 10 13 11
REMARK SMILES IDX 10 12 11 13 96 14 12 15 8 16 9 17 7 18 1 19 2 20 3 21 4 22
REMARK SMILES IDX 97 23 5 24 6 25 24 26 25 27 26 28 27 29 28 30 29 31 30 32
REMARK SMILES IDX 31 33 32 34 33 35 34 36 95 37 35 38 94 39 36 40 37 41 38 42
REMARK SMILES IDX 88 43 39 44 93 45 87 46 89 47 40 48 92 49 86 50 85 51 41 53
REMARK SMILES IDX 73 54 53 55 72 56 54 57 57 58 71 59 90 60 55 61 56 62 70 64
REMARK SMILES IDX 91 65 58 66 42 67 43 68 51 69 44 70 45 71 49 72 52 73 46 74
REMARK SMILES IDX 47 75 50 76 48 77 74 78 75 79 83 80 76 81 77 82 81 83 84 84
REMARK SMILES IDX 78 85 79 86 82 87 80 88 59 89 60 90 68 91 61 92 62 93 66 94
REMARK SMILES IDX 69 95 63 96 64 97 67 98 65 99
REMARK H PARENT 89 52 57 63
REMARK Flexibility Score: inf
ROOT
ATOM      1  C   UNL A   1      33.520  36.002  32.004  1.00  0.00     0.188 C 
ENDROOT
BRANCH   1   2
ATOM      2  C   UNL A   1      34.240  34.666  32.278  1.00  0.00     0.188 C 
BRANCH   2   3
ATOM      3  O   UNL A   1      34.417  34.396  33.657  1.00  0.00    -0.376 OA
BRANCH   3   4
ATOM      4  C   UNL A   1      35.688  34.007  34.138  1.00  0.00     0.202 C 
BRANCH   4   5
ATOM      5  C   UNL A   1      36.912  34.063  33.210  1.00  0.00     0.261 C 
BRANCH   5   6
ATOM      6  O   UNL A   1      38.158  34.419  33.818  1.00  0.00    -0.460 OA
BRANCH   6   7
ATOM      7  C   UNL A   1      39.280  34.087  33.147  1.00  0.00     0.330 C 
ATOM      8  O   UNL A   1      39.705  34.636  32.143  1.00  0.00    -0.247 OA
BRANCH   7   9
ATOM      9  C   UNL A   1      40.041  33.045  33.870  1.00  0.00     0.095 C 
ATOM     10  C   UNL A   1      39.663  31.758  33.952  1.00  0.00     0.026 C 
BRANCH  10  11
ATOM     11  C   UNL A   1      40.424  30.765  34.640  1.00  0.00     0.028 A 
ATOM     12  C   UNL A   1      41.500  28.707  35.110  1.00  0.00     0.051 A 
ATOM     13  C   UNL A   1      41.937  29.500  36.151  1.00  0.00     0.079 A 
ATOM     14  C   UNL A   1      40.618  29.451  34.253  1.00  0.00     0.033 A 
ATOM     15  S   UNL A   1      41.230  31.054  36.135  1.00  0.00    -0.144 S 
BRANCH  12  16
ATOM     16  C   UNL A   1      41.965  27.350  34.819  1.00  0.00     0.254 C 
ATOM     17  O   UNL A   1      41.206  26.405  35.036  1.00  0.00    -0.269 OA
BRANCH  16  18
ATOM     18  N   UNL A   1      43.258  27.157  34.330  1.00  0.00    -0.338 N 
ATOM     19  C   UNL A   1      44.413  25.106  36.305  1.00  0.00     0.013 C 
ATOM     20  C   UNL A   1      44.861  25.319  34.846  1.00  0.00    -0.018 C 
ATOM     21  C   UNL A   1      45.376  23.975  34.302  1.00  0.00     0.013 C 
ATOM     22  C   UNL A   1      45.999  26.364  34.771  1.00  0.00     0.010 C 
ATOM     23  C   UNL A   1      43.672  25.797  33.981  1.00  0.00     0.126 C 
ATOM     24  C   UNL A   1      45.518  27.780  35.088  1.00  0.00     0.022 C 
ATOM     25  C   UNL A   1      44.311  28.168  34.239  1.00  0.00     0.120 C 
ENDBRANCH  16  18
ENDBRANCH  12  16
ENDBRANCH  10  11
ENDBRANCH   7   9
ENDBRANCH   6   7
ENDBRANCH   5   6
ENDBRANCH   4   5
ENDBRANCH   3   4
ENDBRANCH   2   3
ENDBRANCH   1   2
BRANCH   1  26
ATOM     26  O   UNL A   1      33.634  36.564  30.704  1.00  0.00    -0.377 OA
BRANCH  26  27
ATOM     27  C   UNL A   1      32.887  36.013  29.619  1.00  0.00     0.188 C 
BRANCH  27  28
ATOM     28  C   UNL A   1      33.409  34.844  28.746  1.00  0.00     0.188 C 
BRANCH  28  29
ATOM     29  O   UNL A   1      34.817  34.685  28.748  1.00  0.00    -0.376 OA
BRANCH  29  30
ATOM     30  C   UNL A   1      35.333  33.369  28.700  1.00  0.00     0.202 C 
BRANCH  30  31
ATOM     31  C   UNL A   1      34.497  32.329  27.940  1.00  0.00     0.261 C 
BRANCH  31  32
ATOM     32  O   UNL A   1      34.377  31.041  28.563  1.00  0.00    -0.460 OA
BRANCH  32  33
ATOM     33  C   UNL A   1      34.843  29.975  27.878  1.00  0.00     0.338 C 
ATOM     34  O   UNL A   1      34.268  29.351  26.999  1.00  0.00    -0.246 OA
BRANCH  33  35
ATOM     35  C   UNL A   1      36.259  29.789  28.250  1.00  0.00     0.060 A 
ATOM     36  C   UNL A   1      37.258  30.029  27.295  1.00  0.00     0.016 A 
ATOM     37  C   UNL A   1      36.599  29.390  29.544  1.00  0.00     0.016 A 
ATOM     38  C   UNL A   1      38.600  29.835  27.625  1.00  0.00     0.010 A 
ATOM     39  C   UNL A   1      37.941  29.177  29.867  1.00  0.00     0.010 A 
ATOM     40  C   UNL A   1      38.946  29.367  28.901  1.00  0.00    -0.014 A 
BRANCH  40  41
ATOM     41  C   UNL A   1      40.324  28.890  29.169  1.00  0.00     0.031 A 
ATOM     42  C   UNL A   1      41.256  29.794  29.928  1.00  0.00     0.074 A 
ATOM     43  C   UNL A   1      40.743  27.681  28.757  1.00  0.00     0.049 A 
ATOM     44  N   UNL A   1      42.520  29.633  30.224  1.00  0.00    -0.248 NA
ATOM     45  C   UNL A   1      40.680  31.059  30.417  1.00  0.00     0.031 C 
ATOM     46  C   UNL A   1      39.925  26.697  28.053  1.00  0.00     0.029 A 
ATOM     47  N   UNL A   1      41.974  27.081  28.865  1.00  0.00    -0.354 N 
ATOM     48  C   UNL A   1      42.893  30.777  30.918  1.00  0.00     0.074 A 
ATOM     49  C   UNL A   1      41.732  31.637  30.975  1.00  0.00     0.031 C 
ATOM     50  C   UNL A   1      40.680  25.619  27.780  1.00  0.00     0.029 A 
ATOM     51  C   UNL A   1      42.044  25.853  28.256  1.00  0.00     0.049 A 
ATOM     52  H   UNL A   1      42.734  27.493  29.336  1.00  0.00     0.167 HD
ATOM     53  C   UNL A   1      44.094  31.079  31.464  1.00  0.00     0.037 A 
ATOM     54  C   UNL A   1      43.096  25.029  28.080  1.00  0.00     0.037 A 
ATOM     55  C   UNL A   1      45.247  30.219  31.406  1.00  0.00     0.049 A 
ATOM     56  C   UNL A   1      44.445  25.426  28.628  1.00  0.00     0.074 A 
ATOM     57  C   UNL A   1      46.502  30.423  31.952  1.00  0.00     0.029 A 
ATOM     58  N   UNL A   1      45.287  28.997  30.751  1.00  0.00    -0.354 N 
ATOM     59  N   UNL A   1      44.784  26.493  29.313  1.00  0.00    -0.248 NA
ATOM     60  C   UNL A   1      45.561  24.500  28.379  1.00  0.00     0.031 C 
ATOM     61  C   UNL A   1      47.321  29.356  31.568  1.00  0.00     0.029 A 
ATOM     62  C   UNL A   1      46.557  28.452  30.849  1.00  0.00     0.049 A 
ATOM     63  H   UNL A   1      44.526  28.579  30.286  1.00  0.00     0.167 HD
ATOM     64  C   UNL A   1      46.134  26.348  29.606  1.00  0.00     0.074 A 
ATOM     65  C   UNL A   1      46.551  25.084  29.038  1.00  0.00     0.031 C 
ATOM     66  C   UNL A   1      46.956  27.185  30.289  1.00  0.00     0.037 A 
BRANCH  53  67
ATOM     67  C   UNL A   1      44.236  32.412  32.142  1.00  0.00     0.064 A 
ATOM     68  C   UNL A   1      44.524  33.584  31.425  1.00  0.00     0.173 A 
ATOM     69  C   UNL A   1      44.048  32.523  33.528  1.00  0.00     0.173 A 
ATOM     70  F   UNL A   1      44.727  33.532  30.101  1.00  0.00    -0.203 F 
ATOM     71  C   UNL A   1      44.644  34.810  32.075  1.00  0.00     0.198 A 
ATOM     72  C   UNL A   1      44.135  33.755  34.169  1.00  0.00     0.198 A 
ATOM     73  F   UNL A   1      43.769  31.435  34.262  1.00  0.00    -0.203 F 
ATOM     74  F   UNL A   1      44.969  35.906  31.377  1.00  0.00    -0.200 F 
ATOM     75  C   UNL A   1      44.441  34.896  33.444  1.00  0.00     0.200 A 
ATOM     76  F   UNL A   1      43.924  33.838  35.490  1.00  0.00    -0.200 F 
ATOM     77  F   UNL A   1      44.547  36.078  34.065  1.00  0.00    -0.200 F 
ENDBRANCH  53  67
BRANCH  54  78
ATOM     78  C   UNL A   1      42.929  23.747  27.342  1.00  0.00     0.064 A 
ATOM     79  C   UNL A   1      42.442  22.599  27.983  1.00  0.00     0.173 A 
ATOM     80  C   UNL A   1      43.291  23.633  25.991  1.00  0.00     0.173 A 
ATOM     81  F   UNL A   1      42.109  22.649  29.282  1.00  0.00    -0.203 F 
ATOM     82  C   UNL A   1      42.345  21.383  27.310  1.00  0.00     0.198 A 
ATOM     83  C   UNL A   1      43.162  22.424  25.309  1.00  0.00     0.198 A 
ATOM     84  F   UNL A   1      43.768  24.697  25.330  1.00  0.00    -0.203 F 
ATOM     85  F   UNL A   1      41.931  20.289  27.965  1.00  0.00    -0.200 F 
ATOM     86  C   UNL A   1      42.700  21.297  25.973  1.00  0.00     0.200 A 
ATOM     87  F   UNL A   1      43.495  22.348  24.014  1.00  0.00    -0.200 F 
ATOM     88  F   UNL A   1      42.607  20.127  25.326  1.00  0.00    -0.200 F 
ENDBRANCH  54  78
BRANCH  66  89
ATOM     89  C   UNL A   1      48.376  26.742  30.507  1.00  0.00     0.064 A 
ATOM     90  C   UNL A   1      48.734  25.880  31.554  1.00  0.00     0.173 A 
ATOM     91  C   UNL A   1      49.387  27.150  29.621  1.00  0.00     0.173 A 
ATOM     92  F   UNL A   1      47.811  25.468  32.436  1.00  0.00    -0.203 F 
ATOM     93  C   UNL A   1      50.054  25.470  31.725  1.00  0.00     0.198 A 
ATOM     94  C   UNL A   1      50.698  26.707  29.772  1.00  0.00     0.198 A 
ATOM     95  F   UNL A   1      49.100  27.965  28.595  1.00  0.00    -0.203 F 
ATOM     96  F   UNL A   1      50.382  24.690  32.765  1.00  0.00    -0.200 F 
ATOM     97  C   UNL A   1      51.033  25.876  30.829  1.00  0.00     0.200 A 
ATOM     98  F   UNL A   1      51.637  27.085  28.894  1.00  0.00    -0.200 F 
ATOM     99  F   UNL A   1      52.300  25.470  30.989  1.00  0.00    -0.200 F 
ENDBRANCH  66  89
ENDBRANCH  40  41
ENDBRANCH  33  35
ENDBRANCH  32  33
ENDBRANCH  31  32
ENDBRANCH  30  31
ENDBRANCH  29  30
ENDBRANCH  28  29
ENDBRANCH  27  28
ENDBRANCH  26  27
ENDBRANCH   1  26
TORSDOF 23
ENDMDL
MODEL 2
REMARK VINA RESULT:      -7.5      5.724     11.854
REMARK SMILES CC1(C)CCCN(C(=O)c2csc(/C=C/C(=O)OCCOCCOCCOCCOC(=O)c3ccc(-c4c5nc(c(-c6c(F)c(F)c(F)c(F)c6F)c6ccc([nH]6)c(-c6c(F)c(F)c(F)c(F)c6F)c6nc(c(-c7c(F)c(F)c(F)c(F)c7F)c7ccc4[nH]7)C=C6)C=C5)cc3)c2)C1
REMARK SMILES IDX 23 1 22 2 21 3 20 4 19 5 18 6 16 7 17 8 15 9 14 10 13 11
REMARK SMILES IDX 10 12 11 13 96 14 12 15 8 16 9 17 7 18 1 19 2 20 3 21 4 22
REMARK SMILES IDX 97 23 5 24 6 25 24 26 25 27 26 28 27 29 28 30 29 31 30 32
REMARK SMILES IDX 31 33 32 34 33 35 34 36 95 37 35 38 94 39 36 40 37 41 38 42
REMARK SMILES IDX 88 43 39 44 93 45 87 46 89 47 40 48 92 49 86 50 85 51 41 53
REMARK SMILES IDX 73 54 53 55 72 56 54 57 57 58 71 59 90 60 55 61 56 62 70 64
REMARK SMILES IDX 91 65 58 66 42 67 43 68 51 69 44 70 45 71 49 72 52 73 46 74
REMARK SMILES IDX 47 75 50 76 48 77 74 78 75 79 83 80 76 81 77 82 81 83 84 84
REMARK SMILES IDX 78 85 79 86 82 87 80 88 59 89 60 90 68 91 61 92 62 93 66 94
REMARK SMILES IDX 69 95 63 96 64 97 67 98 65 99
REMARK H PARENT 89 52 57 63
REMARK Flexibility Score: inf
ROOT
ATOM      1  C   UNL A   1      42.984  23.736  25.351  1.00  0.00     0.188 C 
ENDROOT
BRANCH   1   2
ATOM      2  C   UNL A   1      42.514  23.626  26.816  1.00  0.00     0.188 C 
BRANCH   2   3
ATOM      3  O   UNL A   1      41.123  23.389  26.943  1.00  0.00    -0.376 OA
BRANCH   3   4
ATOM      4  C   UNL A   1      40.656  22.079  27.198  1.00  0.00     0.202 C 
BRANCH   4   5
ATOM      5  C   UNL A   1      39.855  21.324  26.125  1.00  0.00     0.261 C 
BRANCH   5   6
ATOM      6  O   UNL A   1      38.556  21.838  25.819  1.00  0.00    -0.460 OA
BRANCH   6   7
ATOM      7  C   UNL A   1      37.781  21.092  25.005  1.00  0.00     0.330 C 
ATOM      8  O   UNL A   1      37.841  19.880  24.870  1.00  0.00    -0.247 OA
BRANCH   7   9
ATOM      9  C   UNL A   1      36.719  21.913  24.384  1.00  0.00     0.095 C 
ATOM     10  C   UNL A   1      35.432  21.893  24.770  1.00  0.00     0.026 C 
BRANCH  10  11
ATOM     11  C   UNL A   1      34.426  22.709  24.168  1.00  0.00     0.028 A 
ATOM     12  C   UNL A   1      33.393  24.561  23.109  1.00  0.00     0.051 A 
ATOM     13  C   UNL A   1      32.387  23.615  23.074  1.00  0.00     0.079 A 
ATOM     14  C   UNL A   1      34.560  24.023  23.754  1.00  0.00     0.033 A 
ATOM     15  S   UNL A   1      32.817  22.169  23.874  1.00  0.00    -0.144 S 
BRANCH  12  16
ATOM     16  C   UNL A   1      33.352  25.874  22.465  1.00  0.00     0.254 C 
ATOM     17  O   UNL A   1      33.530  25.942  21.249  1.00  0.00    -0.269 OA
BRANCH  16  18
ATOM     18  N   UNL A   1      33.139  27.014  23.242  1.00  0.00    -0.338 N 
ATOM     19  C   UNL A   1      30.405  26.442  24.523  1.00  0.00     0.013 C 
ATOM     20  C   UNL A   1      31.508  27.354  25.095  1.00  0.00    -0.018 C 
ATOM     21  C   UNL A   1      31.398  27.334  26.630  1.00  0.00     0.013 C 
ATOM     22  C   UNL A   1      31.327  28.807  24.597  1.00  0.00     0.010 C 
ATOM     23  C   UNL A   1      32.904  26.842  24.676  1.00  0.00     0.126 C 
ATOM     24  C   UNL A   1      31.633  28.960  23.107  1.00  0.00     0.022 C 
ATOM     25  C   UNL A   1      33.002  28.385  22.752  1.00  0.00     0.120 C 
ENDBRANCH  16  18
ENDBRANCH  12  16
ENDBRANCH  10  11
ENDBRANCH   7   9
ENDBRANCH   6   7
ENDBRANCH   5   6
ENDBRANCH   4   5
ENDBRANCH   3   4
ENDBRANCH   2   3
ENDBRANCH   1   2
BRANCH   1  26
ATOM     26  O   UNL A   1      43.207  22.532  24.632  1.00  0.00    -0.377 OA
BRANCH  26  27
ATOM     27  C   UNL A   1      44.078  21.533  25.164  1.00  0.00     0.188 C 
BRANCH  27  28
ATOM     28  C   UNL A   1      45.597  21.494  24.863  1.00  0.00     0.188 C 
BRANCH  28  29
ATOM     29  O   UNL A   1      46.367  22.450  25.569  1.00  0.00    -0.376 OA
BRANCH  29  30
ATOM     30  C   UNL A   1      46.572  23.712  24.962  1.00  0.00     0.202 C 
BRANCH  30  31
ATOM     31  C   UNL A   1      46.958  24.869  25.894  1.00  0.00     0.261 C 
BRANCH  31  32
ATOM     32  O   UNL A   1      47.836  25.860  25.338  1.00  0.00    -0.460 OA
BRANCH  32  33
ATOM     33  C   UNL A   1      47.268  26.908  24.707  1.00  0.00     0.338 C 
ATOM     34  O   UNL A   1      47.156  27.075  23.502  1.00  0.00    -0.246 OA
BRANCH  33  35
ATOM     35  C   UNL A   1      46.633  27.758  25.734  1.00  0.00     0.060 A 
ATOM     36  C   UNL A   1      47.436  28.419  26.673  1.00  0.00     0.016 A 
ATOM     37  C   UNL A   1      45.244  27.908  25.761  1.00  0.00     0.016 A 
ATOM     38  C   UNL A   1      46.848  29.207  27.664  1.00  0.00     0.010 A 
ATOM     39  C   UNL A   1      44.656  28.680  26.764  1.00  0.00     0.010 A 
ATOM     40  C   UNL A   1      45.452  29.307  27.740  1.00  0.00    -0.014 A 
BRANCH  40  41
ATOM     41  C   UNL A   1      44.814  29.899  28.941  1.00  0.00     0.031 A 
ATOM     42  C   UNL A   1      44.495  31.369  28.928  1.00  0.00     0.074 A 
ATOM     43  C   UNL A   1      44.515  29.153  30.019  1.00  0.00     0.049 A 
ATOM     44  N   UNL A   1      44.004  32.126  29.875  1.00  0.00    -0.248 NA
ATOM     45  C   UNL A   1      44.775  32.083  27.671  1.00  0.00     0.031 C 
ATOM     46  C   UNL A   1      44.733  27.713  30.138  1.00  0.00     0.029 A 
ATOM     47  N   UNL A   1      43.972  29.513  31.228  1.00  0.00    -0.354 N 
ATOM     48  C   UNL A   1      43.931  33.403  29.335  1.00  0.00     0.074 A 
ATOM     49  C   UNL A   1      44.452  33.327  27.989  1.00  0.00     0.031 C 
ATOM     50  C   UNL A   1      44.339  27.313  31.359  1.00  0.00     0.029 A 
ATOM     51  C   UNL A   1      43.877  28.475  32.121  1.00  0.00     0.049 A 
ATOM     52  H   UNL A   1      43.678  30.430  31.435  1.00  0.00     0.167 HD
ATOM     53  C   UNL A   1      43.462  34.537  29.909  1.00  0.00     0.037 A 
ATOM     54  C   UNL A   1      43.488  28.471  33.411  1.00  0.00     0.037 A 
ATOM     55  C   UNL A   1      42.942  34.608  31.250  1.00  0.00     0.049 A 
ATOM     56  C   UNL A   1      43.048  29.764  34.054  1.00  0.00     0.074 A 
ATOM     57  C   UNL A   1      42.419  35.703  31.915  1.00  0.00     0.029 A 
ATOM     58  N   UNL A   1      42.893  33.540  32.134  1.00  0.00    -0.354 N 
ATOM     59  N   UNL A   1      42.947  30.962  33.529  1.00  0.00    -0.248 NA
ATOM     60  C   UNL A   1      42.664  29.702  35.472  1.00  0.00     0.031 C 
ATOM     61  C   UNL A   1      42.117  35.314  33.223  1.00  0.00     0.029 A 
ATOM     62  C   UNL A   1      42.381  33.960  33.352  1.00  0.00     0.049 A 
ATOM     63  H   UNL A   1      43.179  32.621  31.928  1.00  0.00     0.167 HD
ATOM     64  C   UNL A   1      42.456  31.783  34.536  1.00  0.00     0.074 A 
ATOM     65  C   UNL A   1      42.265  30.945  35.701  1.00  0.00     0.031 C 
ATOM     66  C   UNL A   1      42.183  33.112  34.500  1.00  0.00     0.037 A 
BRANCH  53  67
ATOM     67  C   UNL A   1      43.524  35.803  29.104  1.00  0.00     0.064 A 
ATOM     68  C   UNL A   1      42.459  36.220  28.291  1.00  0.00     0.173 A 
ATOM     69  C   UNL A   1      44.657  36.629  29.174  1.00  0.00     0.173 A 
ATOM     70  F   UNL A   1      41.359  35.461  28.177  1.00  0.00    -0.203 F 
ATOM     71  C   UNL A   1      42.537  37.402  27.559  1.00  0.00     0.198 A 
ATOM     72  C   UNL A   1      44.717  37.826  28.468  1.00  0.00     0.198 A 
ATOM     73  F   UNL A   1      45.703  36.279  29.937  1.00  0.00    -0.203 F 
ATOM     74  F   UNL A   1      41.528  37.754  26.750  1.00  0.00    -0.200 F 
ATOM     75  C   UNL A   1      43.661  38.208  27.654  1.00  0.00     0.200 A 
ATOM     76  F   UNL A   1      45.798  38.611  28.573  1.00  0.00    -0.200 F 
ATOM     77  F   UNL A   1      43.729  39.350  26.957  1.00  0.00    -0.200 F 
ENDBRANCH  53  67
BRANCH  54  78
ATOM     78  C   UNL A   1      43.507  27.206  34.196  1.00  0.00     0.064 A 
ATOM     79  C   UNL A   1      42.324  26.501  34.463  1.00  0.00     0.173 A 
ATOM     80  C   UNL A   1      44.700  26.698  34.730  1.00  0.00     0.173 A 
ATOM     81  F   UNL A   1      41.152  26.962  33.999  1.00  0.00    -0.203 F 
ATOM     82  C   UNL A   1      42.331  25.352  35.251  1.00  0.00     0.198 A 
ATOM     83  C   UNL A   1      44.711  25.530  35.491  1.00  0.00     0.198 A 
ATOM     84  F   UNL A   1      45.860  27.334  34.511  1.00  0.00    -0.203 F 
ATOM     85  F   UNL A   1      41.178  24.733  35.538  1.00  0.00    -0.200 F 
ATOM     86  C   UNL A   1      43.525  24.864  35.759  1.00  0.00     0.200 A 
ATOM     87  F   UNL A   1      45.869  25.055  35.969  1.00  0.00    -0.200 F 
ATOM     88  F   UNL A   1      43.531  23.759  36.518  1.00  0.00    -0.200 F 
ENDBRANCH  54  78
BRANCH  66  89
ATOM     89  C   UNL A   1      41.600  33.737  35.737  1.00  0.00     0.064 A 
ATOM     90  C   UNL A   1      42.398  34.393  36.686  1.00  0.00     0.173 A 
ATOM     91  C   UNL A   1      40.212  33.719  35.950  1.00  0.00     0.173 A 
ATOM     92  F   UNL A   1      43.731  34.430  36.539  1.00  0.00    -0.203 F 
ATOM     93  C   UNL A   1      41.832  34.979  37.815  1.00  0.00     0.198 A 
ATOM     94  C   UNL A   1      39.646  34.339  37.060  1.00  0.00     0.198 A 
ATOM     95  F   UNL A   1      39.400  33.115  35.069  1.00  0.00    -0.203 F 
ATOM     96  F   UNL A   1      42.619  35.553  38.736  1.00  0.00    -0.200 F 
ATOM     97  C   UNL A   1      40.457  34.960  37.997  1.00  0.00     0.200 A 
ATOM     98  F   UNL A   1      38.316  34.336  37.222  1.00  0.00    -0.200 F 
ATOM     99  F   UNL A   1      39.913  35.535  39.079  1.00  0.00    -0.200 F 
ENDBRANCH  66  89
ENDBRANCH  40  41
ENDBRANCH  33  35
ENDBRANCH  32  33
ENDBRANCH  31  32
ENDBRANCH  30  31
ENDBRANCH  29  30
ENDBRANCH  28  29
ENDBRANCH  27  28
ENDBRANCH  26  27
ENDBRANCH   1  26
TORSDOF 23
ENDMDL
MODEL 3
REMARK VINA RESULT:      -7.4      5.009     10.660
REMARK SMILES CC1(C)CCCN(C(=O)c2csc(/C=C/C(=O)OCCOCCOCCOCCOC(=O)c3ccc(-c4c5nc(c(-c6c(F)c(F)c(F)c(F)c6F)c6ccc([nH]6)c(-c6c(F)c(F)c(F)c(F)c6F)c6nc(c(-c7c(F)c(F)c(F)c(F)c7F)c7ccc4[nH]7)C=C6)C=C5)cc3)c2)C1
REMARK SMILES IDX 23 1 22 2 21 3 20 4 19 5 18 6 16 7 17 8 15 9 14 10 13 11
REMARK SMILES IDX 10 12 11 13 96 14 12 15 8 16 9 17 7 18 1 19 2 20 3 21 4 22
REMARK SMILES IDX 97 23 5 24 6 25 24 26 25 27 26 28 27 29 28 30 29 31 30 32
REMARK SMILES IDX 31 33 32 34 33 35 34 36 95 37 35 38 94 39 36 40 37 41 38 42
REMARK SMILES IDX 88 43 39 44 93 45 87 46 89 47 40 48 92 49 86 50 85 51 41 53
REMARK SMILES IDX 73 54 53 55 72 56 54 57 57 58 71 59 90 60 55 61 56 62 70 64
REMARK SMILES IDX 91 65 58 66 42 67 43 68 51 69 44 70 45 71 49 72 52 73 46 74
REMARK SMILES IDX 47 75 50 76 48 77 74 78 75 79 83 80 76 81 77 82 81 83 84 84
REMARK SMILES IDX 78 85 79 86 82 87 80 88 59 89 60 90 68 91 61 92 62 93 66 94
REMARK SMILES IDX 69 95 63 96 64 97 67 98 65 99
REMARK H PARENT 89 52 57 63
REMARK Flexibility Score: inf
ROOT
ATOM      1  C   UNL A   1      34.153  36.033  32.816  1.00  0.00     0.188 C 
ENDROOT
BRANCH   1   2
ATOM      2  C   UNL A   1      33.341  34.804  32.359  1.00  0.00     0.188 C 
BRANCH   2   3
ATOM      3  O   UNL A   1      33.013  34.829  30.981  1.00  0.00    -0.376 OA
BRANCH   3   4
ATOM      4  C   UNL A   1      34.008  34.541  30.018  1.00  0.00     0.202 C 
BRANCH   4   5
ATOM      5  C   UNL A   1      34.956  33.348  30.225  1.00  0.00     0.261 C 
BRANCH   5   6
ATOM      6  O   UNL A   1      34.672  32.169  29.467  1.00  0.00    -0.460 OA
BRANCH   6   7
ATOM      7  C   UNL A   1      34.992  32.195  28.156  1.00  0.00     0.330 C 
ATOM      8  O   UNL A   1      35.638  33.064  27.593  1.00  0.00    -0.247 OA
BRANCH   7   9
ATOM      9  C   UNL A   1      34.588  30.940  27.487  1.00  0.00     0.095 C 
ATOM     10  C   UNL A   1      33.325  30.484  27.443  1.00  0.00     0.026 C 
BRANCH  10  11
ATOM     11  C   UNL A   1      32.955  29.278  26.773  1.00  0.00     0.028 A 
ATOM     12  C   UNL A   1      32.969  27.502  25.205  1.00  0.00     0.051 A 
ATOM     13  C   UNL A   1      32.023  27.072  26.113  1.00  0.00     0.079 A 
ATOM     14  C   UNL A   1      33.490  28.783  25.596  1.00  0.00     0.033 A 
ATOM     15  S   UNL A   1      31.716  28.221  27.337  1.00  0.00    -0.144 S 
BRANCH  12  16
ATOM     16  C   UNL A   1      33.488  26.722  24.080  1.00  0.00     0.254 C 
ATOM     17  O   UNL A   1      33.508  27.237  22.963  1.00  0.00    -0.269 OA
BRANCH  16  18
ATOM     18  N   UNL A   1      33.920  25.412  24.294  1.00  0.00    -0.338 N 
ATOM     19  C   UNL A   1      31.275  23.849  24.377  1.00  0.00     0.013 C 
ATOM     20  C   UNL A   1      32.657  23.285  23.988  1.00  0.00    -0.018 C 
ATOM     21  C   UNL A   1      32.441  22.140  22.983  1.00  0.00     0.013 C 
ATOM     22  C   UNL A   1      33.391  22.733  25.232  1.00  0.00     0.010 C 
ATOM     23  C   UNL A   1      33.522  24.384  23.331  1.00  0.00     0.126 C 
ATOM     24  C   UNL A   1      33.839  23.838  26.188  1.00  0.00     0.022 C 
ATOM     25  C   UNL A   1      34.642  24.917  25.466  1.00  0.00     0.120 C 
ENDBRANCH  16  18
ENDBRANCH  12  16
ENDBRANCH  10  11
ENDBRANCH   7   9
ENDBRANCH   6   7
ENDBRANCH   5   6
ENDBRANCH   4   5
ENDBRANCH   3   4
ENDBRANCH   2   3
ENDBRANCH   1   2
BRANCH   1  26
ATOM     26  O   UNL A   1      35.513  35.834  33.177  1.00  0.00    -0.377 OA
BRANCH  26  27
ATOM     27  C   UNL A   1      35.978  34.527  33.515  1.00  0.00     0.188 C 
BRANCH  27  28
ATOM     28  C   UNL A   1      35.794  33.905  34.922  1.00  0.00     0.188 C 
BRANCH  28  29
ATOM     29  O   UNL A   1      36.677  32.838  35.219  1.00  0.00    -0.376 OA
BRANCH  29  30
ATOM     30  C   UNL A   1      37.087  32.004  34.152  1.00  0.00     0.202 C 
BRANCH  30  31
ATOM     31  C   UNL A   1      38.297  31.097  34.414  1.00  0.00     0.261 C 
BRANCH  31  32
ATOM     32  O   UNL A   1      38.201  29.756  33.909  1.00  0.00    -0.460 OA
BRANCH  32  33
ATOM     33  C   UNL A   1      37.977  29.605  32.587  1.00  0.00     0.338 C 
ATOM     34  O   UNL A   1      36.919  29.330  32.042  1.00  0.00    -0.246 OA
BRANCH  33  35
ATOM     35  C   UNL A   1      39.206  30.008  31.877  1.00  0.00     0.060 A 
ATOM     36  C   UNL A   1      40.417  30.080  32.581  1.00  0.00     0.016 A 
ATOM     37  C   UNL A   1      39.164  30.304  30.512  1.00  0.00     0.016 A 
ATOM     38  C   UNL A   1      41.583  30.482  31.928  1.00  0.00     0.010 A 
ATOM     39  C   UNL A   1      40.327  30.725  29.864  1.00  0.00     0.010 A 
ATOM     40  C   UNL A   1      41.535  30.848  30.575  1.00  0.00    -0.014 A 
BRANCH  40  41
ATOM     41  C   UNL A   1      42.689  31.540  29.951  1.00  0.00     0.031 A 
ATOM     42  C   UNL A   1      43.858  30.709  29.498  1.00  0.00     0.074 A 
ATOM     43  C   UNL A   1      42.702  32.874  29.782  1.00  0.00     0.049 A 
ATOM     44  N   UNL A   1      45.004  31.086  28.992  1.00  0.00    -0.248 NA
ATOM     45  C   UNL A   1      43.714  29.251  29.642  1.00  0.00     0.031 C 
ATOM     46  C   UNL A   1      41.615  33.782  30.139  1.00  0.00     0.029 A 
ATOM     47  N   UNL A   1      43.677  33.697  29.276  1.00  0.00    -0.354 N 
ATOM     48  C   UNL A   1      45.720  29.917  28.771  1.00  0.00     0.074 A 
ATOM     49  C   UNL A   1      44.893  28.820  29.223  1.00  0.00     0.031 C 
ATOM     50  C   UNL A   1      41.988  35.041  29.851  1.00  0.00     0.029 A 
ATOM     51  C   UNL A   1      43.354  35.030  29.326  1.00  0.00     0.049 A 
ATOM     52  H   UNL A   1      44.528  33.362  28.909  1.00  0.00     0.167 HD
ATOM     53  C   UNL A   1      46.953  29.771  28.231  1.00  0.00     0.037 A 
ATOM     54  C   UNL A   1      44.089  36.115  29.010  1.00  0.00     0.037 A 
ATOM     55  C   UNL A   1      47.772  30.866  27.781  1.00  0.00     0.049 A 
ATOM     56  C   UNL A   1      45.493  35.930  28.487  1.00  0.00     0.074 A 
ATOM     57  C   UNL A   1      49.026  30.821  27.196  1.00  0.00     0.029 A 
ATOM     58  N   UNL A   1      47.423  32.205  27.880  1.00  0.00    -0.354 N 
ATOM     59  N   UNL A   1      46.152  34.821  28.248  1.00  0.00    -0.248 NA
ATOM     60  C   UNL A   1      46.256  37.151  28.188  1.00  0.00     0.031 C 
ATOM     61  C   UNL A   1      49.463  32.135  27.003  1.00  0.00     0.029 A 
ATOM     62  C   UNL A   1      48.453  32.997  27.398  1.00  0.00     0.049 A 
ATOM     63  H   UNL A   1      46.570  32.542  28.237  1.00  0.00     0.167 HD
ATOM     64  C   UNL A   1      47.385  35.209  27.738  1.00  0.00     0.074 A 
ATOM     65  C   UNL A   1      47.379  36.655  27.690  1.00  0.00     0.031 C 
ATOM     66  C   UNL A   1      48.429  34.437  27.342  1.00  0.00     0.037 A 
BRANCH  53  67
ATOM     67  C   UNL A   1      47.511  28.380  28.132  1.00  0.00     0.064 A 
ATOM     68  C   UNL A   1      47.351  27.596  26.980  1.00  0.00     0.173 A 
ATOM     69  C   UNL A   1      48.246  27.836  29.197  1.00  0.00     0.173 A 
ATOM     70  F   UNL A   1      46.645  28.061  25.938  1.00  0.00    -0.203 F 
ATOM     71  C   UNL A   1      47.883  26.311  26.908  1.00  0.00     0.198 A 
ATOM     72  C   UNL A   1      48.805  26.565  29.108  1.00  0.00     0.198 A 
ATOM     73  F   UNL A   1      48.431  28.543  30.322  1.00  0.00    -0.203 F 
ATOM     74  F   UNL A   1      47.675  25.561  25.817  1.00  0.00    -0.200 F 
ATOM     75  C   UNL A   1      48.617  25.800  27.968  1.00  0.00     0.200 A 
ATOM     76  F   UNL A   1      49.526  26.079  30.129  1.00  0.00    -0.200 F 
ATOM     77  F   UNL A   1      49.137  24.568  27.893  1.00  0.00    -0.200 F 
ENDBRANCH  53  67
BRANCH  54  78
ATOM     78  C   UNL A   1      43.525  37.481  29.188  1.00  0.00     0.064 A 
ATOM     79  C   UNL A   1      42.627  38.021  28.257  1.00  0.00     0.173 A 
ATOM     80  C   UNL A   1      43.902  38.289  30.271  1.00  0.00     0.173 A 
ATOM     81  F   UNL A   1      42.257  37.299  27.188  1.00  0.00    -0.203 F 
ATOM     82  C   UNL A   1      42.146  39.323  28.388  1.00  0.00     0.198 A 
ATOM     83  C   UNL A   1      43.396  39.579  30.420  1.00  0.00     0.198 A 
ATOM     84  F   UNL A   1      44.762  37.825  31.189  1.00  0.00    -0.203 F 
ATOM     85  F   UNL A   1      41.336  39.833  27.451  1.00  0.00    -0.200 F 
ATOM     86  C   UNL A   1      42.527  40.099  29.472  1.00  0.00     0.200 A 
ATOM     87  F   UNL A   1      43.756  40.321  31.475  1.00  0.00    -0.200 F 
ATOM     88  F   UNL A   1      42.065  41.351  29.598  1.00  0.00    -0.200 F 
ENDBRANCH  54  78
BRANCH  66  89
ATOM     89  C   UNL A   1      49.633  35.134  26.772  1.00  0.00     0.064 A 
ATOM     90  C   UNL A   1      49.729  35.460  25.411  1.00  0.00     0.173 A 
ATOM     91  C   UNL A   1      50.687  35.524  27.614  1.00  0.00     0.173 A 
ATOM     92  F   UNL A   1      48.756  35.101  24.560  1.00  0.00    -0.203 F 
ATOM     93  C   UNL A   1      50.847  36.121  24.910  1.00  0.00     0.198 A 
ATOM     94  C   UNL A   1      51.786  36.219  27.117  1.00  0.00     0.198 A 
ATOM     95  F   UNL A   1      50.644  35.248  28.926  1.00  0.00    -0.203 F 
ATOM     96  F   UNL A   1      50.942  36.374  23.597  1.00  0.00    -0.200 F 
ATOM     97  C   UNL A   1      51.871  36.508  25.764  1.00  0.00     0.200 A 
ATOM     98  F   UNL A   1      52.763  36.608  27.947  1.00  0.00    -0.200 F 
ATOM     99  F   UNL A   1      52.941  37.154  25.280  1.00  0.00    -0.200 F 
ENDBRANCH  66  89
ENDBRANCH  40  41
ENDBRANCH  33  35
ENDBRANCH  32  33
ENDBRANCH  31  32
ENDBRANCH  30  31
ENDBRANCH  29  30
ENDBRANCH  28  29
ENDBRANCH  27  28
ENDBRANCH  26  27
ENDBRANCH   1  26
TORSDOF 23
ENDMDL
