MODEL 1
REMARK VINA RESULT:     -10.2      0.000      0.000
REMARK SMILES O=C(OCCOCCOCCOCCOC(=O)[C@@H](Cc1ccc(O)cc1)Nc1c2ccccc2nc2ccccc12)c1ccc(-c2c3nc(c(-c4c(F)c(F)c(F)c(F)c4F)c4ccc([nH]4)c(-c4c(F)c(F)c(F)c(F)c4F)c4nc(c(-c5c(F)c(F)c(F)c(F)c5F)c5ccc2[nH]5)C=C4)C=C3)cc1
REMARK SMILES IDX 10 1 9 2 8 3 7 4 6 5 5 6 4 7 3 8 2 9 1 10 42 11 43 12 104 13
REMARK SMILES IDX 44 14 103 15 45 16 46 17 47 18 97 19 48 20 102 21 96 22
REMARK SMILES IDX 98 23 49 24 101 25 95 26 94 27 50 29 82 30 62 31 81 32 63 33
REMARK SMILES IDX 66 34 80 35 99 36 64 37 65 38 79 40 100 41 67 42 51 43 52 44
REMARK SMILES IDX 60 45 53 46 54 47 58 48 61 49 55 50 56 51 59 52 57 53 83 54
REMARK SMILES IDX 84 55 92 56 85 57 86 58 90 59 93 60 87 61 88 62 91 63 89 64
REMARK SMILES IDX 68 65 69 66 77 67 70 68 71 69 75 70 78 71 72 72 73 73 76 74
REMARK SMILES IDX 74 75 11 76 12 77 13 78 14 79 15 80 16 81 17 82 18 83 19 84
REMARK SMILES IDX 20 85 21 86 26 87 22 88 25 89 23 90 24 91 27 93 28 95 29 96
REMARK SMILES IDX 41 97 30 98 34 99 36 100 40 101 31 102 33 103 35 104 37 105
REMARK SMILES IDX 39 106 32 107 38 108
REMARK H PARENT 98 28 66 39 24 92 27 94
REMARK Flexibility Score: inf
ROOT
ATOM      1  C   UNL A   1      34.347  34.137  30.947  1.00  0.00     0.188 C 
ENDROOT
BRANCH   1   2
ATOM      2  O   UNL A   1      35.699  34.530  31.150  1.00  0.00    -0.377 OA
BRANCH   2   3
ATOM      3  C   UNL A   1      36.753  33.650  30.765  1.00  0.00     0.188 C 
BRANCH   3   4
ATOM      4  C   UNL A   1      36.742  32.341  31.530  1.00  0.00     0.188 C 
BRANCH   4   5
ATOM      5  O   UNL A   1      37.562  32.472  32.687  1.00  0.00    -0.376 OA
BRANCH   5   6
ATOM      6  C   UNL A   1      37.076  31.767  33.826  1.00  0.00     0.202 C 
BRANCH   6   7
ATOM      7  C   UNL A   1      38.130  30.819  34.393  1.00  0.00     0.261 C 
BRANCH   7   8
ATOM      8  O   UNL A   1      38.142  29.551  33.718  1.00  0.00    -0.460 OA
BRANCH   8   9
ATOM      9  C   UNL A   1      38.603  29.249  32.478  1.00  0.00     0.338 C 
ATOM     10  O   UNL A   1      37.923  28.485  31.793  1.00  0.00    -0.246 OA
BRANCH   9  11
ATOM     11  C   UNL A   1      39.892  29.746  31.876  1.00  0.00     0.060 A 
ATOM     12  C   UNL A   1      41.037  30.137  32.575  1.00  0.00     0.016 A 
ATOM     13  C   UNL A   1      39.964  29.773  30.467  1.00  0.00     0.016 A 
ATOM     14  C   UNL A   1      42.204  30.521  31.928  1.00  0.00     0.010 A 
ATOM     15  C   UNL A   1      41.118  30.203  29.800  1.00  0.00     0.010 A 
ATOM     16  C   UNL A   1      42.233  30.597  30.541  1.00  0.00    -0.014 A 
BRANCH  16  17
ATOM     17  C   UNL A   1      43.349  31.351  29.950  1.00  0.00     0.031 A 
ATOM     18  C   UNL A   1      44.561  30.566  29.550  1.00  0.00     0.074 A 
ATOM     19  C   UNL A   1      43.193  32.640  29.606  1.00  0.00     0.049 A 
ATOM     20  N   UNL A   1      45.667  30.967  28.986  1.00  0.00    -0.248 NA
ATOM     21  C   UNL A   1      44.499  29.112  29.788  1.00  0.00     0.031 C 
ATOM     22  C   UNL A   1      41.974  33.423  29.806  1.00  0.00     0.029 A 
ATOM     23  N   UNL A   1      44.053  33.504  28.985  1.00  0.00    -0.354 N 
ATOM     24  C   UNL A   1      46.433  29.822  28.817  1.00  0.00     0.074 A 
ATOM     25  C   UNL A   1      45.669  28.707  29.324  1.00  0.00     0.031 C 
ATOM     26  C   UNL A   1      42.168  34.660  29.319  1.00  0.00     0.029 A 
ATOM     27  C   UNL A   1      43.538  34.766  28.825  1.00  0.00     0.049 A 
ATOM     28  H   UNL A   1      44.954  33.246  28.683  1.00  0.00     0.167 HD
ATOM     29  C   UNL A   1      47.677  29.722  28.299  1.00  0.00     0.037 A 
ATOM     30  C   UNL A   1      44.136  35.880  28.364  1.00  0.00     0.037 A 
ATOM     31  C   UNL A   1      48.422  30.857  27.832  1.00  0.00     0.049 A 
ATOM     32  C   UNL A   1      45.570  35.771  27.910  1.00  0.00     0.074 A 
ATOM     33  C   UNL A   1      49.725  30.918  27.381  1.00  0.00     0.029 A 
ATOM     34  N   UNL A   1      47.909  32.147  27.772  1.00  0.00    -0.354 N 
ATOM     35  N   UNL A   1      46.332  34.704  27.828  1.00  0.00    -0.248 NA
ATOM     36  C   UNL A   1      46.235  37.014  27.501  1.00  0.00     0.031 C 
ATOM     37  C   UNL A   1      50.015  32.256  27.091  1.00  0.00     0.029 A 
ATOM     38  C   UNL A   1      48.876  33.019  27.312  1.00  0.00     0.049 A 
ATOM     39  H   UNL A   1      46.990  32.402  28.020  1.00  0.00     0.167 HD
ATOM     40  C   UNL A   1      47.560  35.142  27.353  1.00  0.00     0.074 A 
ATOM     41  C   UNL A   1      47.433  36.571  27.142  1.00  0.00     0.031 C 
ATOM     42  C   UNL A   1      48.695  34.436  27.117  1.00  0.00     0.037 A 
BRANCH  29  43
ATOM     43  C   UNL A   1      48.311  28.363  28.326  1.00  0.00     0.064 A 
ATOM     44  C   UNL A   1      49.060  27.913  29.424  1.00  0.00     0.173 A 
ATOM     45  C   UNL A   1      48.237  27.534  27.198  1.00  0.00     0.173 A 
ATOM     46  F   UNL A   1      49.195  28.686  30.513  1.00  0.00    -0.203 F 
ATOM     47  C   UNL A   1      49.741  26.698  29.376  1.00  0.00     0.198 A 
ATOM     48  C   UNL A   1      48.899  26.309  27.163  1.00  0.00     0.198 A 
ATOM     49  F   UNL A   1      47.549  27.925  26.115  1.00  0.00    -0.203 F 
ATOM     50  F   UNL A   1      50.509  26.319  30.407  1.00  0.00    -0.200 F 
ATOM     51  C   UNL A   1      49.659  25.897  28.246  1.00  0.00     0.200 A 
ATOM     52  F   UNL A   1      48.822  25.540  26.068  1.00  0.00    -0.200 F 
ATOM     53  F   UNL A   1      50.332  24.739  28.193  1.00  0.00    -0.200 F 
ENDBRANCH  29  43
BRANCH  30  54
ATOM     54  C   UNL A   1      43.415  37.181  28.379  1.00  0.00     0.064 A 
ATOM     55  C   UNL A   1      42.580  37.574  27.325  1.00  0.00     0.173 A 
ATOM     56  C   UNL A   1      43.557  38.071  29.457  1.00  0.00     0.173 A 
ATOM     57  F   UNL A   1      42.427  36.776  26.258  1.00  0.00    -0.203 F 
ATOM     58  C   UNL A   1      41.924  38.805  27.344  1.00  0.00     0.198 A 
ATOM     59  C   UNL A   1      42.878  39.287  29.489  1.00  0.00     0.198 A 
ATOM     60  F   UNL A   1      44.351  37.754  30.490  1.00  0.00    -0.203 F 
ATOM     61  F   UNL A   1      41.164  39.174  26.302  1.00  0.00    -0.200 F 
ATOM     62  C   UNL A   1      42.068  39.657  28.428  1.00  0.00     0.200 A 
ATOM     63  F   UNL A   1      43.012  40.101  30.546  1.00  0.00    -0.200 F 
ATOM     64  F   UNL A   1      41.432  40.838  28.447  1.00  0.00    -0.200 F 
ENDBRANCH  30  54
BRANCH  42  65
ATOM     65  C   UNL A   1      49.870  35.201  26.591  1.00  0.00     0.064 A 
ATOM     66  C   UNL A   1      49.966  35.553  25.237  1.00  0.00     0.173 A 
ATOM     67  C   UNL A   1      50.873  35.643  27.466  1.00  0.00     0.173 A 
ATOM     68  F   UNL A   1      49.035  35.140  24.364  1.00  0.00    -0.203 F 
ATOM     69  C   UNL A   1      51.037  36.310  24.774  1.00  0.00     0.198 A 
ATOM     70  C   UNL A   1      51.927  36.424  27.004  1.00  0.00     0.198 A 
ATOM     71  F   UNL A   1      50.817  35.337  28.770  1.00  0.00    -0.203 F 
ATOM     72  F   UNL A   1      51.131  36.608  23.471  1.00  0.00    -0.200 F 
ATOM     73  C   UNL A   1      52.011  36.753  25.659  1.00  0.00     0.200 A 
ATOM     74  F   UNL A   1      52.859  36.863  27.861  1.00  0.00    -0.200 F 
ATOM     75  F   UNL A   1      53.034  37.494  25.213  1.00  0.00    -0.200 F 
ENDBRANCH  42  65
ENDBRANCH  16  17
ENDBRANCH   9  11
ENDBRANCH   8   9
ENDBRANCH   7   8
ENDBRANCH   6   7
ENDBRANCH   5   6
ENDBRANCH   4   5
ENDBRANCH   3   4
ENDBRANCH   2   3
ENDBRANCH   1   2
BRANCH   1  76
ATOM     76  C   UNL A   1      33.450  35.032  30.087  1.00  0.00     0.188 C 
BRANCH  76  77
ATOM     77  O   UNL A   1      32.745  34.327  29.083  1.00  0.00    -0.376 OA
BRANCH  77  78
ATOM     78  C   UNL A   1      33.559  33.798  28.047  1.00  0.00     0.202 C 
BRANCH  78  79
ATOM     79  C   UNL A   1      33.940  32.298  28.065  1.00  0.00     0.261 C 
BRANCH  79  80
ATOM     80  O   UNL A   1      33.205  31.385  27.227  1.00  0.00    -0.462 OA
BRANCH  80  81
ATOM     81  C   UNL A   1      33.809  30.223  26.899  1.00  0.00     0.328 C 
ATOM     82  O   UNL A   1      34.961  29.963  27.260  1.00  0.00    -0.250 OA
BRANCH  81  83
ATOM     83  C   UNL A   1      32.962  29.223  26.062  1.00  0.00     0.194 C 
BRANCH  83  84
ATOM     84  C   UNL A   1      31.771  28.405  26.625  1.00  0.00     0.072 C 
BRANCH  84  85
ATOM     85  C   UNL A   1      31.522  26.947  26.317  1.00  0.00    -0.045 A 
ATOM     86  C   UNL A   1      30.201  26.559  26.012  1.00  0.00     0.007 A 
ATOM     87  C   UNL A   1      32.503  25.958  26.390  1.00  0.00     0.007 A 
ATOM     88  C   UNL A   1      29.887  25.240  25.681  1.00  0.00     0.046 A 
ATOM     89  C   UNL A   1      32.188  24.631  26.077  1.00  0.00     0.046 A 
ATOM     90  C   UNL A   1      30.895  24.288  25.700  1.00  0.00     0.115 A 
BRANCH  90  91
ATOM     91  O   UNL A   1      30.651  22.995  25.344  1.00  0.00    -0.508 OA
ATOM     92  H   UNL A   1      29.817  22.608  25.526  1.00  0.00     0.293 HD
ENDBRANCH  90  91
ENDBRANCH  84  85
ENDBRANCH  83  84
BRANCH  83  93
ATOM     93  N   UNL A   1      32.518  29.837  24.796  1.00  0.00    -0.371 N 
ATOM     94  H   UNL A   1      32.807  30.754  24.584  1.00  0.00     0.161 HD
BRANCH  93  95
ATOM     95  C   UNL A   1      31.698  29.155  23.881  1.00  0.00     0.054 A 
ATOM     96  C   UNL A   1      32.137  27.989  23.183  1.00  0.00     0.024 A 
ATOM     97  C   UNL A   1      30.389  29.657  23.642  1.00  0.00     0.024 A 
ATOM     98  C   UNL A   1      33.433  27.409  23.270  1.00  0.00     0.012 A 
ATOM     99  C   UNL A   1      31.191  27.342  22.365  1.00  0.00     0.073 A 
ATOM    100  C   UNL A   1      29.538  28.891  22.828  1.00  0.00     0.073 A 
ATOM    101  C   UNL A   1      29.902  30.888  24.158  1.00  0.00     0.012 A 
ATOM    102  C   UNL A   1      33.793  26.280  22.533  1.00  0.00     0.001 A 
ATOM    103  C   UNL A   1      31.560  26.198  21.665  1.00  0.00     0.029 A 
ATOM    104  N   UNL A   1      29.929  27.763  22.224  1.00  0.00    -0.248 NA
ATOM    105  C   UNL A   1      28.233  29.322  22.626  1.00  0.00     0.029 A 
ATOM    106  C   UNL A   1      28.602  31.320  23.912  1.00  0.00     0.001 A 
ATOM    107  C   UNL A   1      32.850  25.669  21.727  1.00  0.00     0.002 A 
ATOM    108  C   UNL A   1      27.756  30.522  23.159  1.00  0.00     0.002 A 
ENDBRANCH  93  95
ENDBRANCH  83  93
ENDBRANCH  81  83
ENDBRANCH  80  81
ENDBRANCH  79  80
ENDBRANCH  78  79
ENDBRANCH  77  78
ENDBRANCH  76  77
ENDBRANCH   1  76
TORSDOF 25
ENDMDL
MODEL 2
REMARK VINA RESULT:      -9.8      5.535     12.286
REMARK SMILES O=C(OCCOCCOCCOCCOC(=O)[C@@H](Cc1ccc(O)cc1)Nc1c2ccccc2nc2ccccc12)c1ccc(-c2c3nc(c(-c4c(F)c(F)c(F)c(F)c4F)c4ccc([nH]4)c(-c4c(F)c(F)c(F)c(F)c4F)c4nc(c(-c5c(F)c(F)c(F)c(F)c5F)c5ccc2[nH]5)C=C4)C=C3)cc1
REMARK SMILES IDX 10 1 9 2 8 3 7 4 6 5 5 6 4 7 3 8 2 9 1 10 42 11 43 12 104 13
REMARK SMILES IDX 44 14 103 15 45 16 46 17 47 18 97 19 48 20 102 21 96 22
REMARK SMILES IDX 98 23 49 24 101 25 95 26 94 27 50 29 82 30 62 31 81 32 63 33
REMARK SMILES IDX 66 34 80 35 99 36 64 37 65 38 79 40 100 41 67 42 51 43 52 44
REMARK SMILES IDX 60 45 53 46 54 47 58 48 61 49 55 50 56 51 59 52 57 53 83 54
REMARK SMILES IDX 84 55 92 56 85 57 86 58 90 59 93 60 87 61 88 62 91 63 89 64
REMARK SMILES IDX 68 65 69 66 77 67 70 68 71 69 75 70 78 71 72 72 73 73 76 74
REMARK SMILES IDX 74 75 11 76 12 77 13 78 14 79 15 80 16 81 17 82 18 83 19 84
REMARK SMILES IDX 20 85 21 86 26 87 22 88 25 89 23 90 24 91 27 93 28 95 29 96
REMARK SMILES IDX 41 97 30 98 34 99 36 100 40 101 31 102 33 103 35 104 37 105
REMARK SMILES IDX 39 106 32 107 38 108
REMARK H PARENT 98 28 66 39 24 92 27 94
REMARK Flexibility Score: inf
ROOT
ATOM      1  C   UNL A   1      35.688  34.372  34.357  1.00  0.00     0.188 C 
ENDROOT
BRANCH   1   2
ATOM      2  O   UNL A   1      35.043  33.128  34.112  1.00  0.00    -0.377 OA
BRANCH   2   3
ATOM      3  C   UNL A   1      33.937  33.075  33.212  1.00  0.00     0.188 C 
BRANCH   3   4
ATOM      4  C   UNL A   1      34.038  34.085  32.086  1.00  0.00     0.188 C 
BRANCH   4   5
ATOM      5  O   UNL A   1      34.107  33.391  30.844  1.00  0.00    -0.376 OA
BRANCH   5   6
ATOM      6  C   UNL A   1      34.565  34.189  29.757  1.00  0.00     0.202 C 
BRANCH   6   7
ATOM      7  C   UNL A   1      33.720  33.972  28.504  1.00  0.00     0.261 C 
BRANCH   7   8
ATOM      8  O   UNL A   1      34.310  33.017  27.607  1.00  0.00    -0.460 OA
BRANCH   8   9
ATOM      9  C   UNL A   1      34.463  31.678  27.767  1.00  0.00     0.338 C 
ATOM     10  O   UNL A   1      33.462  30.974  27.631  1.00  0.00    -0.246 OA
BRANCH   9  11
ATOM     11  C   UNL A   1      35.749  30.979  28.125  1.00  0.00     0.060 A 
ATOM     12  C   UNL A   1      35.923  29.605  28.307  1.00  0.00     0.016 A 
ATOM     13  C   UNL A   1      36.899  31.789  28.242  1.00  0.00     0.016 A 
ATOM     14  C   UNL A   1      37.165  29.045  28.575  1.00  0.00     0.010 A 
ATOM     15  C   UNL A   1      38.150  31.245  28.557  1.00  0.00     0.010 A 
ATOM     16  C   UNL A   1      38.273  29.867  28.743  1.00  0.00    -0.014 A 
BRANCH  16  17
ATOM     17  C   UNL A   1      39.450  29.256  29.380  1.00  0.00     0.031 A 
ATOM     18  C   UNL A   1      39.805  29.741  30.753  1.00  0.00     0.074 A 
ATOM     19  C   UNL A   1      40.038  28.181  28.833  1.00  0.00     0.049 A 
ATOM     20  N   UNL A   1      40.765  29.361  31.550  1.00  0.00    -0.248 NA
ATOM     21  C   UNL A   1      38.926  30.780  31.321  1.00  0.00     0.031 C 
ATOM     22  C   UNL A   1      39.631  27.544  27.581  1.00  0.00     0.029 A 
ATOM     23  N   UNL A   1      41.080  27.415  29.280  1.00  0.00    -0.354 N 
ATOM     24  C   UNL A   1      40.614  30.122  32.701  1.00  0.00     0.074 A 
ATOM     25  C   UNL A   1      39.467  30.977  32.511  1.00  0.00     0.031 C 
ATOM     26  C   UNL A   1      40.423  26.482  27.356  1.00  0.00     0.029 A 
ATOM     27  C   UNL A   1      41.420  26.401  28.419  1.00  0.00     0.049 A 
ATOM     28  H   UNL A   1      41.542  27.576  30.134  1.00  0.00     0.167 HD
ATOM     29  C   UNL A   1      41.384  30.113  33.811  1.00  0.00     0.037 A 
ATOM     30  C   UNL A   1      42.451  25.537  28.483  1.00  0.00     0.037 A 
ATOM     31  C   UNL A   1      42.538  29.271  33.954  1.00  0.00     0.049 A 
ATOM     32  C   UNL A   1      43.376  25.632  29.671  1.00  0.00     0.074 A 
ATOM     33  C   UNL A   1      43.467  29.232  34.974  1.00  0.00     0.029 A 
ATOM     34  N   UNL A   1      42.920  28.316  33.019  1.00  0.00    -0.354 N 
ATOM     35  N   UNL A   1      43.288  26.410  30.726  1.00  0.00    -0.248 NA
ATOM     36  C   UNL A   1      44.547  24.748  29.675  1.00  0.00     0.031 C 
ATOM     37  C   UNL A   1      44.438  28.283  34.634  1.00  0.00     0.029 A 
ATOM     38  C   UNL A   1      44.085  27.695  33.426  1.00  0.00     0.049 A 
ATOM     39  H   UNL A   1      42.431  28.111  32.189  1.00  0.00     0.167 HD
ATOM     40  C   UNL A   1      44.384  26.107  31.521  1.00  0.00     0.074 A 
ATOM     41  C   UNL A   1      45.109  25.054  30.836  1.00  0.00     0.031 C 
ATOM     42  C   UNL A   1      44.766  26.648  32.706  1.00  0.00     0.037 A 
BRANCH  29  43
ATOM     43  C   UNL A   1      41.047  31.116  34.873  1.00  0.00     0.064 A 
ATOM     44  C   UNL A   1      39.943  30.956  35.724  1.00  0.00     0.173 A 
ATOM     45  C   UNL A   1      41.794  32.298  34.981  1.00  0.00     0.173 A 
ATOM     46  F   UNL A   1      39.172  29.862  35.634  1.00  0.00    -0.203 F 
ATOM     47  C   UNL A   1      39.579  31.961  36.620  1.00  0.00     0.198 A 
ATOM     48  C   UNL A   1      41.441  33.289  35.894  1.00  0.00     0.198 A 
ATOM     49  F   UNL A   1      42.848  32.508  34.178  1.00  0.00    -0.203 F 
ATOM     50  F   UNL A   1      38.479  31.820  37.373  1.00  0.00    -0.200 F 
ATOM     51  C   UNL A   1      40.329  33.125  36.705  1.00  0.00     0.200 A 
ATOM     52  F   UNL A   1      42.165  34.414  35.970  1.00  0.00    -0.200 F 
ATOM     53  F   UNL A   1      39.965  34.099  37.550  1.00  0.00    -0.200 F 
ENDBRANCH  29  43
BRANCH  30  54
ATOM     54  C   UNL A   1      42.697  24.579  27.372  1.00  0.00     0.064 A 
ATOM     55  C   UNL A   1      41.950  23.401  27.235  1.00  0.00     0.173 A 
ATOM     56  C   UNL A   1      43.702  24.820  26.421  1.00  0.00     0.173 A 
ATOM     57  F   UNL A   1      40.995  23.106  28.129  1.00  0.00    -0.203 F 
ATOM     58  C   UNL A   1      42.204  22.501  26.199  1.00  0.00     0.198 A 
ATOM     59  C   UNL A   1      43.936  23.937  25.369  1.00  0.00     0.198 A 
ATOM     60  F   UNL A   1      44.457  25.926  26.507  1.00  0.00    -0.203 F 
ATOM     61  F   UNL A   1      41.502  21.362  26.117  1.00  0.00    -0.200 F 
ATOM     62  C   UNL A   1      43.191  22.773  25.264  1.00  0.00     0.200 A 
ATOM     63  F   UNL A   1      44.882  24.212  24.462  1.00  0.00    -0.200 F 
ATOM     64  F   UNL A   1      43.430  21.910  24.266  1.00  0.00    -0.200 F 
ENDBRANCH  30  54
BRANCH  42  65
ATOM     65  C   UNL A   1      46.008  26.095  33.332  1.00  0.00     0.064 A 
ATOM     66  C   UNL A   1      47.264  26.671  33.095  1.00  0.00     0.173 A 
ATOM     67  C   UNL A   1      45.927  25.024  34.234  1.00  0.00     0.173 A 
ATOM     68  F   UNL A   1      47.388  27.689  32.230  1.00  0.00    -0.203 F 
ATOM     69  C   UNL A   1      48.402  26.180  33.727  1.00  0.00     0.198 A 
ATOM     70  C   UNL A   1      47.063  24.555  34.885  1.00  0.00     0.198 A 
ATOM     71  F   UNL A   1      44.745  24.449  34.498  1.00  0.00    -0.203 F 
ATOM     72  F   UNL A   1      49.599  26.720  33.461  1.00  0.00    -0.200 F 
ATOM     73  C   UNL A   1      48.299  25.130  34.629  1.00  0.00     0.200 A 
ATOM     74  F   UNL A   1      46.960  23.550  35.766  1.00  0.00    -0.200 F 
ATOM     75  F   UNL A   1      49.394  24.668  35.247  1.00  0.00    -0.200 F 
ENDBRANCH  42  65
ENDBRANCH  16  17
ENDBRANCH   9  11
ENDBRANCH   8   9
ENDBRANCH   7   8
ENDBRANCH   6   7
ENDBRANCH   5   6
ENDBRANCH   4   5
ENDBRANCH   3   4
ENDBRANCH   2   3
ENDBRANCH   1   2
BRANCH   1  76
ATOM     76  C   UNL A   1      36.668  34.903  33.307  1.00  0.00     0.188 C 
BRANCH  76  77
ATOM     77  O   UNL A   1      37.977  35.101  33.806  1.00  0.00    -0.376 OA
BRANCH  77  78
ATOM     78  C   UNL A   1      38.924  34.128  33.391  1.00  0.00     0.202 C 
BRANCH  78  79
ATOM     79  C   UNL A   1      40.205  34.576  32.647  1.00  0.00     0.261 C 
BRANCH  79  80
ATOM     80  O   UNL A   1      40.903  33.617  31.829  1.00  0.00    -0.462 OA
BRANCH  80  81
ATOM     81  C   UNL A   1      41.265  34.009  30.588  1.00  0.00     0.328 C 
ATOM     82  O   UNL A   1      40.668  34.909  29.989  1.00  0.00    -0.250 OA
BRANCH  81  83
ATOM     83  C   UNL A   1      42.493  33.281  29.971  1.00  0.00     0.194 C 
BRANCH  83  84
ATOM     84  C   UNL A   1      43.794  33.994  29.521  1.00  0.00     0.072 C 
BRANCH  84  85
ATOM     85  C   UNL A   1      44.237  34.125  28.083  1.00  0.00    -0.045 A 
ATOM     86  C   UNL A   1      45.190  35.119  27.779  1.00  0.00     0.007 A 
ATOM     87  C   UNL A   1      43.706  33.373  27.034  1.00  0.00     0.007 A 
ATOM     88  C   UNL A   1      45.681  35.286  26.484  1.00  0.00     0.046 A 
ATOM     89  C   UNL A   1      44.183  33.550  25.731  1.00  0.00     0.046 A 
ATOM     90  C   UNL A   1      45.182  34.482  25.471  1.00  0.00     0.115 A 
BRANCH  90  91
ATOM     91  O   UNL A   1      45.658  34.575  24.197  1.00  0.00    -0.508 OA
ATOM     92  H   UNL A   1      46.303  35.220  23.983  1.00  0.00     0.293 HD
ENDBRANCH  90  91
ENDBRANCH  84  85
ENDBRANCH  83  84
BRANCH  83  93
ATOM     93  N   UNL A   1      42.885  32.119  30.791  1.00  0.00    -0.371 N 
ATOM     94  H   UNL A   1      42.410  31.951  31.637  1.00  0.00     0.161 HD
BRANCH  93  95
ATOM     95  C   UNL A   1      43.913  31.243  30.403  1.00  0.00     0.054 A 
ATOM     96  C   UNL A   1      43.846  30.470  29.203  1.00  0.00     0.024 A 
ATOM     97  C   UNL A   1      45.052  31.122  31.247  1.00  0.00     0.024 A 
ATOM     98  C   UNL A   1      42.750  30.438  28.297  1.00  0.00     0.012 A 
ATOM     99  C   UNL A   1      44.980  29.701  28.878  1.00  0.00     0.073 A 
ATOM    100  C   UNL A   1      46.125  30.345  30.780  1.00  0.00     0.073 A 
ATOM    101  C   UNL A   1      45.158  31.719  32.531  1.00  0.00     0.012 A 
ATOM    102  C   UNL A   1      42.752  29.634  27.157  1.00  0.00     0.001 A 
ATOM    103  C   UNL A   1      44.975  28.933  27.718  1.00  0.00     0.029 A 
ATOM    104  N   UNL A   1      46.089  29.671  29.625  1.00  0.00    -0.248 NA
ATOM    105  C   UNL A   1      47.276  30.258  31.552  1.00  0.00     0.029 A 
ATOM    106  C   UNL A   1      46.308  31.588  33.305  1.00  0.00     0.001 A 
ATOM    107  C   UNL A   1      43.872  28.878  26.865  1.00  0.00     0.002 A 
ATOM    108  C   UNL A   1      47.382  30.870  32.803  1.00  0.00     0.002 A 
ENDBRANCH  93  95
ENDBRANCH  83  93
ENDBRANCH  81  83
ENDBRANCH  80  81
ENDBRANCH  79  80
ENDBRANCH  78  79
ENDBRANCH  77  78
ENDBRANCH  76  77
ENDBRANCH   1  76
TORSDOF 25
ENDMDL
MODEL 3
REMARK VINA RESULT:      -9.7      3.882      7.549
REMARK SMILES O=C(OCCOCCOCCOCCOC(=O)[C@@H](Cc1ccc(O)cc1)Nc1c2ccccc2nc2ccccc12)c1ccc(-c2c3nc(c(-c4c(F)c(F)c(F)c(F)c4F)c4ccc([nH]4)c(-c4c(F)c(F)c(F)c(F)c4F)c4nc(c(-c5c(F)c(F)c(F)c(F)c5F)c5ccc2[nH]5)C=C4)C=C3)cc1
REMARK SMILES IDX 10 1 9 2 8 3 7 4 6 5 5 6 4 7 3 8 2 9 1 10 42 11 43 12 104 13
REMARK SMILES IDX 44 14 103 15 45 16 46 17 47 18 97 19 48 20 102 21 96 22
REMARK SMILES IDX 98 23 49 24 101 25 95 26 94 27 50 29 82 30 62 31 81 32 63 33
REMARK SMILES IDX 66 34 80 35 99 36 64 37 65 38 79 40 100 41 67 42 51 43 52 44
REMARK SMILES IDX 60 45 53 46 54 47 58 48 61 49 55 50 56 51 59 52 57 53 83 54
REMARK SMILES IDX 84 55 92 56 85 57 86 58 90 59 93 60 87 61 88 62 91 63 89 64
REMARK SMILES IDX 68 65 69 66 77 67 70 68 71 69 75 70 78 71 72 72 73 73 76 74
REMARK SMILES IDX 74 75 11 76 12 77 13 78 14 79 15 80 16 81 17 82 18 83 19 84
REMARK SMILES IDX 20 85 21 86 26 87 22 88 25 89 23 90 24 91 27 93 28 95 29 96
REMARK SMILES IDX 41 97 30 98 34 99 36 100 40 101 31 102 33 103 35 104 37 105
REMARK SMILES IDX 39 106 32 107 38 108
REMARK H PARENT 98 28 66 39 24 92 27 94
REMARK Flexibility Score: inf
ROOT
ATOM      1  C   UNL A   1      38.698  23.619  26.454  1.00  0.00     0.188 C 
ENDROOT
BRANCH   1   2
ATOM      2  O   UNL A   1      38.519  24.496  27.559  1.00  0.00    -0.377 OA
BRANCH   2   3
ATOM      3  C   UNL A   1      39.655  25.121  28.153  1.00  0.00     0.188 C 
BRANCH   3   4
ATOM      4  C   UNL A   1      40.964  24.707  27.510  1.00  0.00     0.188 C 
BRANCH   4   5
ATOM      5  O   UNL A   1      41.356  23.440  28.029  1.00  0.00    -0.376 OA
BRANCH   5   6
ATOM      6  C   UNL A   1      42.765  23.279  28.166  1.00  0.00     0.202 C 
BRANCH   6   7
ATOM      7  C   UNL A   1      43.348  22.430  27.040  1.00  0.00     0.261 C 
BRANCH   7   8
ATOM      8  O   UNL A   1      43.310  23.104  25.772  1.00  0.00    -0.460 OA
BRANCH   8   9
ATOM      9  C   UNL A   1      44.114  24.092  25.306  1.00  0.00     0.338 C 
ATOM     10  O   UNL A   1      44.788  23.848  24.305  1.00  0.00    -0.246 OA
BRANCH   9  11
ATOM     11  C   UNL A   1      44.278  25.456  25.927  1.00  0.00     0.060 A 
ATOM     12  C   UNL A   1      45.079  25.777  27.026  1.00  0.00     0.016 A 
ATOM     13  C   UNL A   1      43.590  26.520  25.306  1.00  0.00     0.016 A 
ATOM     14  C   UNL A   1      45.215  27.079  27.488  1.00  0.00     0.010 A 
ATOM     15  C   UNL A   1      43.680  27.832  25.789  1.00  0.00     0.010 A 
ATOM     16  C   UNL A   1      44.483  28.102  26.899  1.00  0.00    -0.014 A 
BRANCH  16  17
ATOM     17  C   UNL A   1      44.389  29.359  27.657  1.00  0.00     0.031 A 
ATOM     18  C   UNL A   1      45.509  30.340  27.484  1.00  0.00     0.074 A 
ATOM     19  C   UNL A   1      43.256  29.681  28.302  1.00  0.00     0.049 A 
ATOM     20  N   UNL A   1      45.667  31.526  28.003  1.00  0.00    -0.248 NA
ATOM     21  C   UNL A   1      46.586  29.937  26.561  1.00  0.00     0.031 C 
ATOM     22  C   UNL A   1      42.056  28.847  28.364  1.00  0.00     0.029 A 
ATOM     23  N   UNL A   1      42.920  30.811  28.997  1.00  0.00    -0.354 N 
ATOM     24  C   UNL A   1      46.864  32.000  27.485  1.00  0.00     0.074 A 
ATOM     25  C   UNL A   1      47.389  30.987  26.601  1.00  0.00     0.031 C 
ATOM     26  C   UNL A   1      41.113  29.495  29.069  1.00  0.00     0.029 A 
ATOM     27  C   UNL A   1      41.663  30.760  29.546  1.00  0.00     0.049 A 
ATOM     28  H   UNL A   1      43.522  31.585  29.094  1.00  0.00     0.167 HD
ATOM     29  C   UNL A   1      47.474  33.178  27.745  1.00  0.00     0.037 A 
ATOM     30  C   UNL A   1      41.058  31.633  30.373  1.00  0.00     0.037 A 
ATOM     31  C   UNL A   1      46.939  34.151  28.654  1.00  0.00     0.049 A 
ATOM     32  C   UNL A   1      41.813  32.882  30.753  1.00  0.00     0.074 A 
ATOM     33  C   UNL A   1      47.498  35.335  29.092  1.00  0.00     0.029 A 
ATOM     34  N   UNL A   1      45.702  34.030  29.277  1.00  0.00    -0.354 N 
ATOM     35  N   UNL A   1      42.986  33.298  30.333  1.00  0.00    -0.248 NA
ATOM     36  C   UNL A   1      41.177  33.774  31.730  1.00  0.00     0.031 C 
ATOM     37  C   UNL A   1      46.618  35.908  30.016  1.00  0.00     0.029 A 
ATOM     38  C   UNL A   1      45.488  35.107  30.115  1.00  0.00     0.049 A 
ATOM     39  H   UNL A   1      45.072  33.286  29.141  1.00  0.00     0.167 HD
ATOM     40  C   UNL A   1      43.226  34.500  30.984  1.00  0.00     0.074 A 
ATOM     41  C   UNL A   1      42.063  34.757  31.811  1.00  0.00     0.031 C 
ATOM     42  C   UNL A   1      44.307  35.317  30.916  1.00  0.00     0.037 A 
BRANCH  29  43
ATOM     43  C   UNL A   1      48.818  33.392  27.116  1.00  0.00     0.064 A 
ATOM     44  C   UNL A   1      49.997  32.894  27.690  1.00  0.00     0.173 A 
ATOM     45  C   UNL A   1      48.933  34.184  25.964  1.00  0.00     0.173 A 
ATOM     46  F   UNL A   1      49.946  32.165  28.816  1.00  0.00    -0.203 F 
ATOM     47  C   UNL A   1      51.245  33.211  27.154  1.00  0.00     0.198 A 
ATOM     48  C   UNL A   1      50.179  34.478  25.417  1.00  0.00     0.198 A 
ATOM     49  F   UNL A   1      47.838  34.699  25.386  1.00  0.00    -0.203 F 
ATOM     50  F   UNL A   1      52.362  32.785  27.760  1.00  0.00    -0.200 F 
ATOM     51  C   UNL A   1      51.334  34.002  26.017  1.00  0.00     0.200 A 
ATOM     52  F   UNL A   1      50.262  35.246  24.321  1.00  0.00    -0.200 F 
ATOM     53  F   UNL A   1      52.534  34.324  25.515  1.00  0.00    -0.200 F 
ENDBRANCH  29  43
BRANCH  30  54
ATOM     54  C   UNL A   1      39.719  31.322  30.943  1.00  0.00     0.064 A 
ATOM     55  C   UNL A   1      39.573  30.566  32.113  1.00  0.00     0.173 A 
ATOM     56  C   UNL A   1      38.547  31.772  30.313  1.00  0.00     0.173 A 
ATOM     57  F   UNL A   1      40.656  30.089  32.742  1.00  0.00    -0.203 F 
ATOM     58  C   UNL A   1      38.310  30.266  32.626  1.00  0.00     0.198 A 
ATOM     59  C   UNL A   1      37.287  31.498  30.841  1.00  0.00     0.198 A 
ATOM     60  F   UNL A   1      38.624  32.491  29.184  1.00  0.00    -0.203 F 
ATOM     61  F   UNL A   1      38.198  29.506  33.724  1.00  0.00    -0.200 F 
ATOM     62  C   UNL A   1      37.169  30.738  31.994  1.00  0.00     0.200 A 
ATOM     63  F   UNL A   1      36.189  31.967  30.233  1.00  0.00    -0.200 F 
ATOM     64  F   UNL A   1      35.957  30.453  32.491  1.00  0.00    -0.200 F 
ENDBRANCH  30  54
BRANCH  42  65
ATOM     65  C   UNL A   1      44.266  36.564  31.743  1.00  0.00     0.064 A 
ATOM     66  C   UNL A   1      44.629  36.555  33.097  1.00  0.00     0.173 A 
ATOM     67  C   UNL A   1      43.927  37.791  31.154  1.00  0.00     0.173 A 
ATOM     68  F   UNL A   1      44.948  35.401  33.703  1.00  0.00    -0.203 F 
ATOM     69  C   UNL A   1      44.638  37.732  33.839  1.00  0.00     0.198 A 
ATOM     70  C   UNL A   1      43.965  38.969  31.892  1.00  0.00     0.198 A 
ATOM     71  F   UNL A   1      43.582  37.847  29.859  1.00  0.00    -0.203 F 
ATOM     72  F   UNL A   1      44.953  37.699  35.141  1.00  0.00    -0.200 F 
ATOM     73  C   UNL A   1      44.316  38.939  33.233  1.00  0.00     0.200 A 
ATOM     74  F   UNL A   1      43.667  40.135  31.302  1.00  0.00    -0.200 F 
ATOM     75  F   UNL A   1      44.338  40.072  33.946  1.00  0.00    -0.200 F 
ENDBRANCH  42  65
ENDBRANCH  16  17
ENDBRANCH   9  11
ENDBRANCH   8   9
ENDBRANCH   7   8
ENDBRANCH   6   7
ENDBRANCH   5   6
ENDBRANCH   4   5
ENDBRANCH   3   4
ENDBRANCH   2   3
ENDBRANCH   1   2
BRANCH   1  76
ATOM     76  C   UNL A   1      37.538  23.440  25.470  1.00  0.00     0.188 C 
BRANCH  76  77
ATOM     77  O   UNL A   1      36.361  24.126  25.854  1.00  0.00    -0.376 OA
BRANCH  77  78
ATOM     78  C   UNL A   1      35.183  23.702  25.186  1.00  0.00     0.202 C 
BRANCH  78  79
ATOM     79  C   UNL A   1      34.810  24.329  23.821  1.00  0.00     0.261 C 
BRANCH  79  80
ATOM     80  O   UNL A   1      34.283  25.670  23.794  1.00  0.00    -0.462 OA
BRANCH  80  81
ATOM     81  C   UNL A   1      33.399  25.968  22.818  1.00  0.00     0.328 C 
ATOM     82  O   UNL A   1      33.766  26.314  21.691  1.00  0.00    -0.250 OA
BRANCH  81  83
ATOM     83  C   UNL A   1      31.895  25.825  23.189  1.00  0.00     0.194 C 
BRANCH  83  84
ATOM     84  C   UNL A   1      31.085  24.510  23.054  1.00  0.00     0.072 C 
BRANCH  84  85
ATOM     85  C   UNL A   1      31.401  23.237  23.802  1.00  0.00    -0.045 A 
ATOM     86  C   UNL A   1      32.076  22.215  23.102  1.00  0.00     0.007 A 
ATOM     87  C   UNL A   1      31.002  22.988  25.116  1.00  0.00     0.007 A 
ATOM     88  C   UNL A   1      32.439  21.021  23.726  1.00  0.00     0.046 A 
ATOM     89  C   UNL A   1      31.348  21.784  25.739  1.00  0.00     0.046 A 
ATOM     90  C   UNL A   1      32.085  20.825  25.051  1.00  0.00     0.115 A 
BRANCH  90  91
ATOM     91  O   UNL A   1      32.451  19.696  25.720  1.00  0.00    -0.508 OA
ATOM     92  H   UNL A   1      33.310  19.627  26.089  1.00  0.00     0.293 HD
ENDBRANCH  90  91
ENDBRANCH  84  85
ENDBRANCH  83  84
BRANCH  83  93
ATOM     93  N   UNL A   1      31.628  26.373  24.532  1.00  0.00    -0.371 N 
ATOM     94  H   UNL A   1      31.551  25.754  25.293  1.00  0.00     0.161 HD
BRANCH  93  95
ATOM     95  C   UNL A   1      31.483  27.752  24.761  1.00  0.00     0.054 A 
ATOM     96  C   UNL A   1      32.352  28.478  25.631  1.00  0.00     0.024 A 
ATOM     97  C   UNL A   1      30.424  28.438  24.104  1.00  0.00     0.024 A 
ATOM     98  C   UNL A   1      33.410  27.920  26.402  1.00  0.00     0.012 A 
ATOM     99  C   UNL A   1      32.162  29.872  25.704  1.00  0.00     0.073 A 
ATOM    100  C   UNL A   1      30.373  29.835  24.239  1.00  0.00     0.073 A 
ATOM    101  C   UNL A   1      29.411  27.796  23.343  1.00  0.00     0.012 A 
ATOM    102  C   UNL A   1      34.200  28.696  27.251  1.00  0.00     0.001 A 
ATOM    103  C   UNL A   1      32.983  30.632  26.531  1.00  0.00     0.029 A 
ATOM    104  N   UNL A   1      31.226  30.525  25.005  1.00  0.00    -0.248 NA
ATOM    105  C   UNL A   1      29.388  30.541  23.560  1.00  0.00     0.029 A 
ATOM    106  C   UNL A   1      28.410  28.520  22.701  1.00  0.00     0.001 A 
ATOM    107  C   UNL A   1      33.986  30.061  27.315  1.00  0.00     0.002 A 
ATOM    108  C   UNL A   1      28.411  29.902  22.793  1.00  0.00     0.002 A 
ENDBRANCH  93  95
ENDBRANCH  83  93
ENDBRANCH  81  83
ENDBRANCH  80  81
ENDBRANCH  79  80
ENDBRANCH  78  79
ENDBRANCH  77  78
ENDBRANCH  76  77
ENDBRANCH   1  76
TORSDOF 25
ENDMDL
