MODEL 1
REMARK VINA RESULT:     -10.4      0.000      0.000
REMARK SMILES C[C@H]1CC[C@H]([NH2+]Cc2c(C(=O)OCCOCCOCCOCCOC(=O)c3ccc(-c4c5nc(c(-c6c(F)c(F)c(F)c(F)c6F)c6ccc([nH]6)c(-c6c(F)c(F)c(F)c(F)c6F)c6nc(c(-c7c(F)c(F)c(F)c(F)c7F)c7ccc4[nH]7)C=C6)C=C5)cc3)n(Cc3ccccc3F)c3ccccc23)CC1
REMARK SMILES IDX 17 1 16 2 15 3 14 4 13 5 12 6 10 7 11 8 9 9 8 10 104 11
REMARK SMILES IDX 90 12 99 13 103 14 100 15 102 16 101 17 7 18 6 19 5 22 1 23
REMARK SMILES IDX 2 24 3 25 106 26 4 27 105 28 91 29 92 30 93 31 97 32 94 33
REMARK SMILES IDX 96 34 98 35 95 36 18 37 19 38 20 39 21 40 22 41 23 42 24 43
REMARK SMILES IDX 25 44 26 45 27 46 28 47 89 48 29 49 88 50 30 51 31 52 32 53
REMARK SMILES IDX 82 54 33 55 87 56 81 57 83 58 34 59 86 60 80 61 79 62 35 64
REMARK SMILES IDX 67 65 47 66 66 67 48 68 51 69 65 70 84 71 49 72 50 73 64 75
REMARK SMILES IDX 85 76 52 77 36 78 37 79 45 80 38 81 39 82 43 83 46 84 40 85
REMARK SMILES IDX 41 86 44 87 42 88 68 89 69 90 77 91 70 92 71 93 75 94 78 95
REMARK SMILES IDX 72 96 73 97 76 98 74 99 53 100 54 101 62 102 55 103 56 104
REMARK SMILES IDX 60 105 63 106 57 107 58 108 61 109 59 110
REMARK H PARENT 6 20 6 21 83 63 51 74
REMARK Flexibility Score: inf
ROOT
ATOM      1  C   UNL A   1      35.918  32.299  29.570  1.00  0.00     0.188 C 
ENDROOT
BRANCH   1   2
ATOM      2  C   UNL A   1      34.606  32.165  28.784  1.00  0.00     0.188 C 
BRANCH   2   3
ATOM      3  O   UNL A   1      34.701  31.381  27.606  1.00  0.00    -0.376 OA
BRANCH   3   4
ATOM      4  C   UNL A   1      34.729  29.978  27.782  1.00  0.00     0.202 C 
BRANCH   4   5
ATOM      5  C   UNL A   1      34.088  29.112  26.700  1.00  0.00     0.261 C 
BRANCH   5   6
ATOM      6  O   UNL A   1      32.650  29.139  26.544  1.00  0.00    -0.459 OA
BRANCH   6   7
ATOM      7  C   UNL A   1      31.906  28.005  26.562  1.00  0.00     0.355 C 
ATOM      8  O   UNL A   1      31.281  27.631  27.544  1.00  0.00    -0.244 OA
BRANCH   7   9
ATOM      9  C   UNL A   1      31.922  27.327  25.259  1.00  0.00     0.137 A 
ATOM     10  C   UNL A   1      31.309  27.655  24.029  1.00  0.00     0.047 A 
ATOM     11  C   UNL A   1      31.800  26.728  23.044  1.00  0.00     0.009 A 
ATOM     12  N   UNL A   1      32.677  26.170  25.011  1.00  0.00    -0.330 N 
ATOM     13  C   UNL A   1      32.777  25.950  23.647  1.00  0.00     0.050 A 
ATOM     14  C   UNL A   1      31.554  26.561  21.661  1.00  0.00     0.011 A 
ATOM     15  C   UNL A   1      33.613  25.110  22.890  1.00  0.00     0.027 A 
ATOM     16  C   UNL A   1      32.326  25.666  20.917  1.00  0.00     0.001 A 
ATOM     17  C   UNL A   1      33.362  24.969  21.523  1.00  0.00     0.002 A 
BRANCH  10  18
ATOM     18  C   UNL A   1      30.406  28.782  23.579  1.00  0.00     0.300 C 
BRANCH  18  19
ATOM     19  N   UNL A   1      29.043  28.407  23.298  1.00  0.00    -0.340 N 
ATOM     20  H   UNL A   1      29.078  27.528  22.783  1.00  0.00     0.346 HD
ATOM     21  H   UNL A   1      28.606  28.388  24.220  1.00  0.00     0.346 HD
BRANCH  19  22
ATOM     22  C   UNL A   1      28.184  29.316  22.532  1.00  0.00     0.182 C 
ATOM     23  C   UNL A   1      29.014  33.601  23.162  1.00  0.00     0.007 C 
ATOM     24  C   UNL A   1      28.771  32.112  22.953  1.00  0.00    -0.014 C 
ATOM     25  C   UNL A   1      28.787  31.678  21.503  1.00  0.00     0.009 C 
ATOM     26  C   UNL A   1      27.486  31.603  23.583  1.00  0.00     0.009 C 
ATOM     27  C   UNL A   1      28.859  30.153  21.412  1.00  0.00     0.065 C 
ATOM     28  C   UNL A   1      27.376  30.088  23.600  1.00  0.00     0.065 C 
ENDBRANCH  19  22
ENDBRANCH  18  19
ENDBRANCH  10  18
BRANCH  12  29
ATOM     29  C   UNL A   1      33.359  25.327  26.010  1.00  0.00     0.161 C 
BRANCH  29  30
ATOM     30  C   UNL A   1      33.200  23.831  25.794  1.00  0.00     0.008 A 
ATOM     31  C   UNL A   1      34.288  22.954  25.670  1.00  0.00     0.008 A 
ATOM     32  C   UNL A   1      31.928  23.250  25.802  1.00  0.00     0.128 A 
ATOM     33  C   UNL A   1      34.106  21.575  25.512  1.00  0.00     0.001 A 
ATOM     34  C   UNL A   1      31.730  21.881  25.608  1.00  0.00     0.039 A 
ATOM     35  F   UNL A   1      30.850  24.008  26.038  1.00  0.00    -0.207 F 
ATOM     36  C   UNL A   1      32.825  21.038  25.462  1.00  0.00     0.003 A 
ENDBRANCH  29  30
ENDBRANCH  12  29
ENDBRANCH   7   9
ENDBRANCH   6   7
ENDBRANCH   5   6
ENDBRANCH   4   5
ENDBRANCH   3   4
ENDBRANCH   2   3
ENDBRANCH   1   2
BRANCH   1  37
ATOM     37  O   UNL A   1      36.159  31.294  30.533  1.00  0.00    -0.377 OA
BRANCH  37  38
ATOM     38  C   UNL A   1      36.108  31.637  31.913  1.00  0.00     0.188 C 
BRANCH  38  39
ATOM     39  C   UNL A   1      35.669  33.037  32.380  1.00  0.00     0.188 C 
BRANCH  39  40
ATOM     40  O   UNL A   1      36.609  33.637  33.252  1.00  0.00    -0.376 OA
BRANCH  40  41
ATOM     41  C   UNL A   1      36.549  33.224  34.609  1.00  0.00     0.202 C 
BRANCH  41  42
ATOM     42  C   UNL A   1      37.804  32.535  35.173  1.00  0.00     0.261 C 
BRANCH  42  43
ATOM     43  O   UNL A   1      38.985  32.635  34.348  1.00  0.00    -0.460 OA
BRANCH  43  44
ATOM     44  C   UNL A   1      40.200  32.346  34.876  1.00  0.00     0.338 C 
ATOM     45  O   UNL A   1      40.466  31.416  35.609  1.00  0.00    -0.246 OA
BRANCH  44  46
ATOM     46  C   UNL A   1      41.201  33.155  34.109  1.00  0.00     0.060 A 
ATOM     47  C   UNL A   1      42.168  33.933  34.755  1.00  0.00     0.016 A 
ATOM     48  C   UNL A   1      40.972  33.342  32.735  1.00  0.00     0.016 A 
ATOM     49  C   UNL A   1      42.827  34.942  34.048  1.00  0.00     0.010 A 
ATOM     50  C   UNL A   1      41.635  34.357  32.029  1.00  0.00     0.010 A 
ATOM     51  C   UNL A   1      42.550  35.181  32.685  1.00  0.00    -0.014 A 
BRANCH  51  52
ATOM     52  C   UNL A   1      43.426  36.138  31.976  1.00  0.00     0.031 A 
ATOM     53  C   UNL A   1      43.785  37.321  32.807  1.00  0.00     0.074 A 
ATOM     54  C   UNL A   1      44.060  36.024  30.785  1.00  0.00     0.049 A 
ATOM     55  N   UNL A   1      43.589  38.571  32.541  1.00  0.00    -0.248 NA
ATOM     56  C   UNL A   1      44.384  37.066  34.126  1.00  0.00     0.031 C 
ATOM     57  C   UNL A   1      44.163  34.840  29.935  1.00  0.00     0.029 A 
ATOM     58  N   UNL A   1      44.852  36.948  30.132  1.00  0.00    -0.354 N 
ATOM     59  C   UNL A   1      44.151  39.273  33.600  1.00  0.00     0.074 A 
ATOM     60  C   UNL A   1      44.536  38.304  34.594  1.00  0.00     0.031 C 
ATOM     61  C   UNL A   1      45.124  35.044  29.005  1.00  0.00     0.029 A 
ATOM     62  C   UNL A   1      45.634  36.406  29.119  1.00  0.00     0.049 A 
ATOM     63  H   UNL A   1      44.862  37.905  30.362  1.00  0.00     0.167 HD
ATOM     64  C   UNL A   1      44.450  40.593  33.505  1.00  0.00     0.037 A 
ATOM     65  C   UNL A   1      46.667  36.988  28.456  1.00  0.00     0.037 A 
ATOM     66  C   UNL A   1      43.862  41.213  32.354  1.00  0.00     0.049 A 
ATOM     67  C   UNL A   1      46.630  38.458  28.619  1.00  0.00     0.074 A 
ATOM     68  C   UNL A   1      42.609  41.607  31.954  1.00  0.00     0.029 A 
ATOM     69  N   UNL A   1      44.671  41.268  31.256  1.00  0.00    -0.354 N 
ATOM     70  N   UNL A   1      45.879  39.262  27.932  1.00  0.00    -0.248 NA
ATOM     71  C   UNL A   1      47.393  39.092  29.686  1.00  0.00     0.031 C 
ATOM     72  C   UNL A   1      42.656  41.683  30.530  1.00  0.00     0.029 A 
ATOM     73  C   UNL A   1      43.944  41.363  30.099  1.00  0.00     0.049 A 
ATOM     74  H   UNL A   1      45.655  41.242  31.291  1.00  0.00     0.167 HD
ATOM     75  C   UNL A   1      45.725  40.372  28.724  1.00  0.00     0.074 A 
ATOM     76  C   UNL A   1      46.839  40.306  29.656  1.00  0.00     0.031 C 
ATOM     77  C   UNL A   1      44.503  40.980  28.808  1.00  0.00     0.037 A 
BRANCH  64  78
ATOM     78  C   UNL A   1      45.610  41.239  34.214  1.00  0.00     0.064 A 
ATOM     79  C   UNL A   1      45.391  42.369  35.024  1.00  0.00     0.173 A 
ATOM     80  C   UNL A   1      46.952  40.981  33.858  1.00  0.00     0.173 A 
ATOM     81  F   UNL A   1      44.145  42.721  35.374  1.00  0.00    -0.203 F 
ATOM     82  C   UNL A   1      46.440  43.206  35.412  1.00  0.00     0.198 A 
ATOM     83  C   UNL A   1      48.001  41.790  34.290  1.00  0.00     0.198 A 
ATOM     84  F   UNL A   1      47.271  40.015  32.986  1.00  0.00    -0.203 F 
ATOM     85  F   UNL A   1      46.179  44.332  36.090  1.00  0.00    -0.200 F 
ATOM     86  C   UNL A   1      47.743  42.915  35.045  1.00  0.00     0.200 A 
ATOM     87  F   UNL A   1      49.253  41.512  33.898  1.00  0.00    -0.200 F 
ATOM     88  F   UNL A   1      48.742  43.746  35.372  1.00  0.00    -0.200 F 
ENDBRANCH  64  78
BRANCH  65  89
ATOM     89  C   UNL A   1      47.827  36.385  27.753  1.00  0.00     0.064 A 
ATOM     90  C   UNL A   1      47.993  36.531  26.362  1.00  0.00     0.173 A 
ATOM     91  C   UNL A   1      48.946  35.935  28.473  1.00  0.00     0.173 A 
ATOM     92  F   UNL A   1      46.984  36.972  25.597  1.00  0.00    -0.203 F 
ATOM     93  C   UNL A   1      49.222  36.301  25.741  1.00  0.00     0.198 A 
ATOM     94  C   UNL A   1      50.171  35.693  27.848  1.00  0.00     0.198 A 
ATOM     95  F   UNL A   1      48.900  35.824  29.808  1.00  0.00    -0.203 F 
ATOM     96  F   UNL A   1      49.364  36.537  24.428  1.00  0.00    -0.200 F 
ATOM     97  C   UNL A   1      50.315  35.899  26.488  1.00  0.00     0.200 A 
ATOM     98  F   UNL A   1      51.230  35.330  28.585  1.00  0.00    -0.200 F 
ATOM     99  F   UNL A   1      51.514  35.754  25.908  1.00  0.00    -0.200 F 
ENDBRANCH  65  89
BRANCH  77 100
ATOM    100  C   UNL A   1      43.655  41.083  27.552  1.00  0.00     0.064 A 
ATOM    101  C   UNL A   1      42.495  40.341  27.257  1.00  0.00     0.173 A 
ATOM    102  C   UNL A   1      44.060  41.997  26.557  1.00  0.00     0.173 A 
ATOM    103  F   UNL A   1      41.861  39.597  28.175  1.00  0.00    -0.203 F 
ATOM    104  C   UNL A   1      41.850  40.443  26.021  1.00  0.00     0.198 A 
ATOM    105  C   UNL A   1      43.335  42.189  25.381  1.00  0.00     0.198 A 
ATOM    106  F   UNL A   1      45.172  42.732  26.716  1.00  0.00    -0.203 F 
ATOM    107  F   UNL A   1      40.788  39.668  25.763  1.00  0.00    -0.200 F 
ATOM    108  C   UNL A   1      42.240  41.397  25.104  1.00  0.00     0.200 A 
ATOM    109  F   UNL A   1      43.703  43.148  24.519  1.00  0.00    -0.200 F 
ATOM    110  F   UNL A   1      41.534  41.581  23.980  1.00  0.00    -0.200 F 
ENDBRANCH  77 100
ENDBRANCH  51  52
ENDBRANCH  44  46
ENDBRANCH  43  44
ENDBRANCH  42  43
ENDBRANCH  41  42
ENDBRANCH  40  41
ENDBRANCH  39  40
ENDBRANCH  38  39
ENDBRANCH  37  38
ENDBRANCH   1  37
TORSDOF 25
ENDMDL
MODEL 2
REMARK VINA RESULT:     -10.0      7.437     12.079
REMARK SMILES C[C@H]1CC[C@H]([NH2+]Cc2c(C(=O)OCCOCCOCCOCCOC(=O)c3ccc(-c4c5nc(c(-c6c(F)c(F)c(F)c(F)c6F)c6ccc([nH]6)c(-c6c(F)c(F)c(F)c(F)c6F)c6nc(c(-c7c(F)c(F)c(F)c(F)c7F)c7ccc4[nH]7)C=C6)C=C5)cc3)n(Cc3ccccc3F)c3ccccc23)CC1
REMARK SMILES IDX 17 1 16 2 15 3 14 4 13 5 12 6 10 7 11 8 9 9 8 10 104 11
REMARK SMILES IDX 90 12 99 13 103 14 100 15 102 16 101 17 7 18 6 19 5 22 1 23
REMARK SMILES IDX 2 24 3 25 106 26 4 27 105 28 91 29 92 30 93 31 97 32 94 33
REMARK SMILES IDX 96 34 98 35 95 36 18 37 19 38 20 39 21 40 22 41 23 42 24 43
REMARK SMILES IDX 25 44 26 45 27 46 28 47 89 48 29 49 88 50 30 51 31 52 32 53
REMARK SMILES IDX 82 54 33 55 87 56 81 57 83 58 34 59 86 60 80 61 79 62 35 64
REMARK SMILES IDX 67 65 47 66 66 67 48 68 51 69 65 70 84 71 49 72 50 73 64 75
REMARK SMILES IDX 85 76 52 77 36 78 37 79 45 80 38 81 39 82 43 83 46 84 40 85
REMARK SMILES IDX 41 86 44 87 42 88 68 89 69 90 77 91 70 92 71 93 75 94 78 95
REMARK SMILES IDX 72 96 73 97 76 98 74 99 53 100 54 101 62 102 55 103 56 104
REMARK SMILES IDX 60 105 63 106 57 107 58 108 61 109 59 110
REMARK H PARENT 6 20 6 21 83 63 51 74
REMARK Flexibility Score: inf
ROOT
ATOM      1  C   UNL A   1      40.047  28.381  27.087  1.00  0.00     0.188 C 
ENDROOT
BRANCH   1   2
ATOM      2  C   UNL A   1      40.697  29.137  28.256  1.00  0.00     0.188 C 
BRANCH   2   3
ATOM      3  O   UNL A   1      41.139  28.310  29.320  1.00  0.00    -0.376 OA
BRANCH   3   4
ATOM      4  C   UNL A   1      40.245  27.306  29.754  1.00  0.00     0.202 C 
BRANCH   4   5
ATOM      5  C   UNL A   1      38.844  27.736  30.183  1.00  0.00     0.261 C 
BRANCH   5   6
ATOM      6  O   UNL A   1      38.706  28.802  31.151  1.00  0.00    -0.459 OA
BRANCH   6   7
ATOM      7  C   UNL A   1      37.575  29.547  31.242  1.00  0.00     0.355 C 
ATOM      8  O   UNL A   1      36.482  29.071  31.512  1.00  0.00    -0.244 OA
BRANCH   7   9
ATOM      9  C   UNL A   1      37.847  30.972  31.016  1.00  0.00     0.137 A 
ATOM     10  C   UNL A   1      38.042  32.040  31.920  1.00  0.00     0.047 A 
ATOM     11  C   UNL A   1      38.438  33.188  31.150  1.00  0.00     0.009 A 
ATOM     12  N   UNL A   1      38.032  31.519  29.736  1.00  0.00    -0.330 N 
ATOM     13  C   UNL A   1      38.600  32.779  29.834  1.00  0.00     0.050 A 
ATOM     14  C   UNL A   1      38.766  34.521  31.492  1.00  0.00     0.011 A 
ATOM     15  C   UNL A   1      39.208  33.611  28.878  1.00  0.00     0.027 A 
ATOM     16  C   UNL A   1      39.294  35.382  30.527  1.00  0.00     0.001 A 
ATOM     17  C   UNL A   1      39.537  34.920  29.242  1.00  0.00     0.002 A 
BRANCH  10  18
ATOM     18  C   UNL A   1      38.027  32.147  33.429  1.00  0.00     0.300 C 
BRANCH  18  19
ATOM     19  N   UNL A   1      37.255  33.240  33.964  1.00  0.00    -0.340 N 
ATOM     20  H   UNL A   1      37.500  33.323  34.950  1.00  0.00     0.346 HD
ATOM     21  H   UNL A   1      37.500  34.024  33.358  1.00  0.00     0.346 HD
BRANCH  19  22
ATOM     22  C   UNL A   1      35.791  33.198  33.891  1.00  0.00     0.182 C 
ATOM     23  C   UNL A   1      34.065  35.176  30.349  1.00  0.00     0.007 C 
ATOM     24  C   UNL A   1      34.698  34.484  31.548  1.00  0.00    -0.014 C 
ATOM     25  C   UNL A   1      34.251  33.051  31.745  1.00  0.00     0.009 C 
ATOM     26  C   UNL A   1      34.504  35.222  32.861  1.00  0.00     0.009 C 
ATOM     27  C   UNL A   1      35.163  32.349  32.752  1.00  0.00     0.065 C 
ATOM     28  C   UNL A   1      35.348  34.674  33.998  1.00  0.00     0.065 C 
ENDBRANCH  19  22
ENDBRANCH  18  19
ENDBRANCH  10  18
BRANCH  12  29
ATOM     29  C   UNL A   1      37.763  30.861  28.445  1.00  0.00     0.161 C 
BRANCH  29  30
ATOM     30  C   UNL A   1      36.290  30.732  28.092  1.00  0.00     0.008 A 
ATOM     31  C   UNL A   1      35.677  29.505  27.794  1.00  0.00     0.008 A 
ATOM     32  C   UNL A   1      35.454  31.852  28.141  1.00  0.00     0.128 A 
ATOM     33  C   UNL A   1      34.308  29.417  27.512  1.00  0.00     0.001 A 
ATOM     34  C   UNL A   1      34.095  31.785  27.826  1.00  0.00     0.039 A 
ATOM     35  F   UNL A   1      35.943  33.033  28.537  1.00  0.00    -0.207 F 
ATOM     36  C   UNL A   1      33.518  30.561  27.509  1.00  0.00     0.003 A 
ENDBRANCH  29  30
ENDBRANCH  12  29
ENDBRANCH   7   9
ENDBRANCH   6   7
ENDBRANCH   5   6
ENDBRANCH   4   5
ENDBRANCH   3   4
ENDBRANCH   2   3
ENDBRANCH   1   2
BRANCH   1  37
ATOM     37  O   UNL A   1      40.936  27.671  26.249  1.00  0.00    -0.377 OA
BRANCH  37  38
ATOM     38  C   UNL A   1      40.889  26.249  26.245  1.00  0.00     0.188 C 
BRANCH  38  39
ATOM     39  C   UNL A   1      39.646  25.482  26.733  1.00  0.00     0.188 C 
BRANCH  39  40
ATOM     40  O   UNL A   1      39.312  24.398  25.887  1.00  0.00    -0.376 OA
BRANCH  40  41
ATOM     41  C   UNL A   1      38.081  23.748  26.167  1.00  0.00     0.202 C 
BRANCH  41  42
ATOM     42  C   UNL A   1      38.062  22.217  26.014  1.00  0.00     0.261 C 
BRANCH  42  43
ATOM     43  O   UNL A   1      39.257  21.640  25.444  1.00  0.00    -0.460 OA
BRANCH  43  44
ATOM     44  C   UNL A   1      39.984  20.752  26.164  1.00  0.00     0.338 C 
ATOM     45  O   UNL A   1      39.909  19.542  26.108  1.00  0.00    -0.246 OA
BRANCH  44  46
ATOM     46  C   UNL A   1      41.127  21.520  26.757  1.00  0.00     0.060 A 
ATOM     47  C   UNL A   1      41.022  22.154  27.999  1.00  0.00     0.016 A 
ATOM     48  C   UNL A   1      42.210  21.828  25.915  1.00  0.00     0.016 A 
ATOM     49  C   UNL A   1      41.941  23.148  28.347  1.00  0.00     0.010 A 
ATOM     50  C   UNL A   1      43.130  22.827  26.267  1.00  0.00     0.010 A 
ATOM     51  C   UNL A   1      42.990  23.511  27.475  1.00  0.00    -0.014 A 
BRANCH  51  52
ATOM     52  C   UNL A   1      44.018  24.433  28.004  1.00  0.00     0.031 A 
ATOM     53  C   UNL A   1      44.111  24.408  29.491  1.00  0.00     0.074 A 
ATOM     54  C   UNL A   1      44.965  25.149  27.354  1.00  0.00     0.049 A 
ATOM     55  N   UNL A   1      43.982  25.395  30.314  1.00  0.00    -0.248 NA
ATOM     56  C   UNL A   1      44.314  23.100  30.134  1.00  0.00     0.031 C 
ATOM     57  C   UNL A   1      45.321  25.086  25.938  1.00  0.00     0.029 A 
ATOM     58  N   UNL A   1      45.898  26.027  27.872  1.00  0.00    -0.354 N 
ATOM     59  C   UNL A   1      44.211  24.864  31.577  1.00  0.00     0.074 A 
ATOM     60  C   UNL A   1      44.311  23.435  31.423  1.00  0.00     0.031 C 
ATOM     61  C   UNL A   1      46.504  25.717  25.750  1.00  0.00     0.029 A 
ATOM     62  C   UNL A   1      46.942  26.319  27.004  1.00  0.00     0.049 A 
ATOM     63  H   UNL A   1      45.829  26.411  28.776  1.00  0.00     0.167 HD
ATOM     64  C   UNL A   1      44.507  25.650  32.642  1.00  0.00     0.037 A 
ATOM     65  C   UNL A   1      48.112  26.949  27.283  1.00  0.00     0.037 A 
ATOM     66  C   UNL A   1      44.262  27.040  32.389  1.00  0.00     0.049 A 
ATOM     67  C   UNL A   1      48.012  27.698  28.554  1.00  0.00     0.074 A 
ATOM     68  C   UNL A   1      43.169  27.861  32.259  1.00  0.00     0.029 A 
ATOM     69  N   UNL A   1      45.348  27.745  31.959  1.00  0.00    -0.354 N 
ATOM     70  N   UNL A   1      47.475  28.873  28.682  1.00  0.00    -0.248 NA
ATOM     71  C   UNL A   1      48.432  27.076  29.803  1.00  0.00     0.031 C 
ATOM     72  C   UNL A   1      43.616  29.001  31.527  1.00  0.00     0.029 A 
ATOM     73  C   UNL A   1      44.978  28.860  31.254  1.00  0.00     0.049 A 
ATOM     74  H   UNL A   1      46.281  27.485  32.133  1.00  0.00     0.167 HD
ATOM     75  C   UNL A   1      47.088  28.948  29.997  1.00  0.00     0.074 A 
ATOM     76  C   UNL A   1      47.893  27.939  30.667  1.00  0.00     0.031 C 
ATOM     77  C   UNL A   1      45.885  29.512  30.318  1.00  0.00     0.037 A 
BRANCH  64  78
ATOM     78  C   UNL A   1      45.410  25.225  33.769  1.00  0.00     0.064 A 
ATOM     79  C   UNL A   1      44.929  25.241  35.091  1.00  0.00     0.173 A 
ATOM     80  C   UNL A   1      46.810  25.124  33.618  1.00  0.00     0.173 A 
ATOM     81  F   UNL A   1      43.618  25.381  35.335  1.00  0.00    -0.203 F 
ATOM     82  C   UNL A   1      45.797  25.201  36.186  1.00  0.00     0.198 A 
ATOM     83  C   UNL A   1      47.668  25.034  34.713  1.00  0.00     0.198 A 
ATOM     84  F   UNL A   1      47.395  25.232  32.417  1.00  0.00    -0.203 F 
ATOM     85  F   UNL A   1      45.309  25.328  37.428  1.00  0.00    -0.200 F 
ATOM     86  C   UNL A   1      47.164  25.098  35.996  1.00  0.00     0.200 A 
ATOM     87  F   UNL A   1      48.991  24.967  34.510  1.00  0.00    -0.200 F 
ATOM     88  F   UNL A   1      47.999  25.114  37.043  1.00  0.00    -0.200 F 
ENDBRANCH  64  78
BRANCH  65  89
ATOM     89  C   UNL A   1      49.432  26.881  26.607  1.00  0.00     0.064 A 
ATOM     90  C   UNL A   1      50.330  25.826  26.864  1.00  0.00     0.173 A 
ATOM     91  C   UNL A   1      49.697  27.665  25.472  1.00  0.00     0.173 A 
ATOM     92  F   UNL A   1      50.146  25.015  27.915  1.00  0.00    -0.203 F 
ATOM     93  C   UNL A   1      51.389  25.537  26.002  1.00  0.00     0.198 A 
ATOM     94  C   UNL A   1      50.764  27.382  24.618  1.00  0.00     0.198 A 
ATOM     95  F   UNL A   1      48.863  28.652  25.114  1.00  0.00    -0.203 F 
ATOM     96  F   UNL A   1      52.169  24.470  26.233  1.00  0.00    -0.200 F 
ATOM     97  C   UNL A   1      51.595  26.305  24.870  1.00  0.00     0.200 A 
ATOM     98  F   UNL A   1      50.938  28.116  23.510  1.00  0.00    -0.200 F 
ATOM     99  F   UNL A   1      52.561  25.982  24.000  1.00  0.00    -0.200 F 
ENDBRANCH  65  89
BRANCH  77 100
ATOM    100  C   UNL A   1      45.427  30.735  29.543  1.00  0.00     0.064 A 
ATOM    101  C   UNL A   1      44.686  30.744  28.344  1.00  0.00     0.173 A 
ATOM    102  C   UNL A   1      45.781  32.005  30.045  1.00  0.00     0.173 A 
ATOM    103  F   UNL A   1      44.091  29.646  27.856  1.00  0.00    -0.203 F 
ATOM    104  C   UNL A   1      44.407  31.929  27.659  1.00  0.00     0.198 A 
ATOM    105  C   UNL A   1      45.385  33.191  29.425  1.00  0.00     0.198 A 
ATOM    106  F   UNL A   1      46.518  32.116  31.162  1.00  0.00    -0.203 F 
ATOM    107  F   UNL A   1      43.756  31.880  26.490  1.00  0.00    -0.200 F 
ATOM    108  C   UNL A   1      44.714  33.152  28.220  1.00  0.00     0.200 A 
ATOM    109  F   UNL A   1      45.656  34.369  30.004  1.00  0.00    -0.200 F 
ATOM    110  F   UNL A   1      44.323  34.286  27.624  1.00  0.00    -0.200 F 
ENDBRANCH  77 100
ENDBRANCH  51  52
ENDBRANCH  44  46
ENDBRANCH  43  44
ENDBRANCH  42  43
ENDBRANCH  41  42
ENDBRANCH  40  41
ENDBRANCH  39  40
ENDBRANCH  38  39
ENDBRANCH  37  38
ENDBRANCH   1  37
TORSDOF 25
ENDMDL
MODEL 3
REMARK VINA RESULT:      -9.6      7.319     13.219
REMARK SMILES C[C@H]1CC[C@H]([NH2+]Cc2c(C(=O)OCCOCCOCCOCCOC(=O)c3ccc(-c4c5nc(c(-c6c(F)c(F)c(F)c(F)c6F)c6ccc([nH]6)c(-c6c(F)c(F)c(F)c(F)c6F)c6nc(c(-c7c(F)c(F)c(F)c(F)c7F)c7ccc4[nH]7)C=C6)C=C5)cc3)n(Cc3ccccc3F)c3ccccc23)CC1
REMARK SMILES IDX 17 1 16 2 15 3 14 4 13 5 12 6 10 7 11 8 9 9 8 10 104 11
REMARK SMILES IDX 90 12 99 13 103 14 100 15 102 16 101 17 7 18 6 19 5 22 1 23
REMARK SMILES IDX 2 24 3 25 106 26 4 27 105 28 91 29 92 30 93 31 97 32 94 33
REMARK SMILES IDX 96 34 98 35 95 36 18 37 19 38 20 39 21 40 22 41 23 42 24 43
REMARK SMILES IDX 25 44 26 45 27 46 28 47 89 48 29 49 88 50 30 51 31 52 32 53
REMARK SMILES IDX 82 54 33 55 87 56 81 57 83 58 34 59 86 60 80 61 79 62 35 64
REMARK SMILES IDX 67 65 47 66 66 67 48 68 51 69 65 70 84 71 49 72 50 73 64 75
REMARK SMILES IDX 85 76 52 77 36 78 37 79 45 80 38 81 39 82 43 83 46 84 40 85
REMARK SMILES IDX 41 86 44 87 42 88 68 89 69 90 77 91 70 92 71 93 75 94 78 95
REMARK SMILES IDX 72 96 73 97 76 98 74 99 53 100 54 101 62 102 55 103 56 104
REMARK SMILES IDX 60 105 63 106 57 107 58 108 61 109 59 110
REMARK H PARENT 6 20 6 21 83 63 51 74
REMARK Flexibility Score: inf
ROOT
ATOM      1  C   UNL A   1      39.359  28.307  27.800  1.00  0.00     0.188 C 
ENDROOT
BRANCH   1   2
ATOM      2  C   UNL A   1      39.562  28.726  29.263  1.00  0.00     0.188 C 
BRANCH   2   3
ATOM      3  O   UNL A   1      39.938  27.670  30.132  1.00  0.00    -0.376 OA
BRANCH   3   4
ATOM      4  C   UNL A   1      38.964  27.237  31.060  1.00  0.00     0.202 C 
BRANCH   4   5
ATOM      5  C   UNL A   1      38.521  28.221  32.140  1.00  0.00     0.261 C 
BRANCH   5   6
ATOM      6  O   UNL A   1      39.518  28.788  33.020  1.00  0.00    -0.459 OA
BRANCH   6   7
ATOM      7  C   UNL A   1      39.272  29.897  33.763  1.00  0.00     0.355 C 
ATOM      8  O   UNL A   1      38.601  29.881  34.785  1.00  0.00    -0.244 OA
BRANCH   7   9
ATOM      9  C   UNL A   1      39.939  31.080  33.206  1.00  0.00     0.137 A 
ATOM     10  C   UNL A   1      41.248  31.583  33.381  1.00  0.00     0.047 A 
ATOM     11  C   UNL A   1      41.413  32.679  32.465  1.00  0.00     0.009 A 
ATOM     12  N   UNL A   1      39.325  31.933  32.275  1.00  0.00    -0.330 N 
ATOM     13  C   UNL A   1      40.275  32.744  31.674  1.00  0.00     0.050 A 
ATOM     14  C   UNL A   1      42.487  33.558  32.185  1.00  0.00     0.011 A 
ATOM     15  C   UNL A   1      40.225  33.557  30.528  1.00  0.00     0.027 A 
ATOM     16  C   UNL A   1      42.411  34.429  31.096  1.00  0.00     0.001 A 
ATOM     17  C   UNL A   1      41.302  34.407  30.262  1.00  0.00     0.002 A 
BRANCH  10  18
ATOM     18  C   UNL A   1      42.439  31.135  34.200  1.00  0.00     0.300 C 
BRANCH  18  19
ATOM     19  N   UNL A   1      43.312  32.189  34.648  1.00  0.00    -0.340 N 
ATOM     20  H   UNL A   1      44.244  31.785  34.737  1.00  0.00     0.346 HD
ATOM     21  H   UNL A   1      43.188  32.917  33.944  1.00  0.00     0.346 HD
BRANCH  19  22
ATOM     22  C   UNL A   1      43.026  32.881  35.909  1.00  0.00     0.182 C 
ATOM     23  C   UNL A   1      39.797  35.874  35.674  1.00  0.00     0.007 C 
ATOM     24  C   UNL A   1      40.892  34.817  35.722  1.00  0.00    -0.014 C 
ATOM     25  C   UNL A   1      40.705  33.778  36.807  1.00  0.00     0.009 C 
ATOM     26  C   UNL A   1      42.293  35.387  35.852  1.00  0.00     0.009 C 
ATOM     27  C   UNL A   1      41.652  32.600  36.575  1.00  0.00     0.065 C 
ATOM     28  C   UNL A   1      43.390  34.359  35.639  1.00  0.00     0.065 C 
ENDBRANCH  19  22
ENDBRANCH  18  19
ENDBRANCH  10  18
BRANCH  12  29
ATOM     29  C   UNL A   1      37.903  31.946  31.890  1.00  0.00     0.161 C 
BRANCH  29  30
ATOM     30  C   UNL A   1      36.993  32.706  32.842  1.00  0.00     0.008 A 
ATOM     31  C   UNL A   1      37.476  33.552  33.852  1.00  0.00     0.008 A 
ATOM     32  C   UNL A   1      35.605  32.655  32.681  1.00  0.00     0.128 A 
ATOM     33  C   UNL A   1      36.610  34.268  34.687  1.00  0.00     0.001 A 
ATOM     34  C   UNL A   1      34.729  33.334  33.530  1.00  0.00     0.039 A 
ATOM     35  F   UNL A   1      35.076  31.966  31.663  1.00  0.00    -0.207 F 
ATOM     36  C   UNL A   1      35.233  34.146  34.539  1.00  0.00     0.003 A 
ENDBRANCH  29  30
ENDBRANCH  12  29
ENDBRANCH   7   9
ENDBRANCH   6   7
ENDBRANCH   5   6
ENDBRANCH   4   5
ENDBRANCH   3   4
ENDBRANCH   2   3
ENDBRANCH   1   2
BRANCH   1  37
ATOM     37  O   UNL A   1      40.468  27.686  27.182  1.00  0.00    -0.377 OA
BRANCH  37  38
ATOM     38  C   UNL A   1      40.443  26.278  26.980  1.00  0.00     0.188 C 
BRANCH  38  39
ATOM     39  C   UNL A   1      39.160  25.455  27.199  1.00  0.00     0.188 C 
BRANCH  39  40
ATOM     40  O   UNL A   1      38.989  24.446  26.220  1.00  0.00    -0.376 OA
BRANCH  40  41
ATOM     41  C   UNL A   1      37.760  23.738  26.267  1.00  0.00     0.202 C 
BRANCH  41  42
ATOM     42  C   UNL A   1      37.829  22.225  25.995  1.00  0.00     0.261 C 
BRANCH  42  43
ATOM     43  O   UNL A   1      39.064  21.759  25.409  1.00  0.00    -0.460 OA
BRANCH  43  44
ATOM     44  C   UNL A   1      39.817  20.844  26.066  1.00  0.00     0.338 C 
ATOM     45  O   UNL A   1      39.743  19.637  25.959  1.00  0.00    -0.246 OA
BRANCH  44  46
ATOM     46  C   UNL A   1      40.976  21.589  26.655  1.00  0.00     0.060 A 
ATOM     47  C   UNL A   1      40.893  22.208  27.907  1.00  0.00     0.016 A 
ATOM     48  C   UNL A   1      42.053  21.895  25.806  1.00  0.00     0.016 A 
ATOM     49  C   UNL A   1      41.829  23.185  28.258  1.00  0.00     0.010 A 
ATOM     50  C   UNL A   1      42.990  22.877  26.161  1.00  0.00     0.010 A 
ATOM     51  C   UNL A   1      42.872  23.547  27.379  1.00  0.00    -0.014 A 
BRANCH  51  52
ATOM     52  C   UNL A   1      43.917  24.448  27.908  1.00  0.00     0.031 A 
ATOM     53  C   UNL A   1      44.036  24.393  29.393  1.00  0.00     0.074 A 
ATOM     54  C   UNL A   1      44.860  25.168  27.257  1.00  0.00     0.049 A 
ATOM     55  N   UNL A   1      43.930  25.365  30.237  1.00  0.00    -0.248 NA
ATOM     56  C   UNL A   1      44.236  23.071  30.007  1.00  0.00     0.031 C 
ATOM     57  C   UNL A   1      45.192  25.130  25.834  1.00  0.00     0.029 A 
ATOM     58  N   UNL A   1      45.810  26.026  27.776  1.00  0.00    -0.354 N 
ATOM     59  C   UNL A   1      44.174  24.807  31.486  1.00  0.00     0.074 A 
ATOM     60  C   UNL A   1      44.259  23.380  31.302  1.00  0.00     0.031 C 
ATOM     61  C   UNL A   1      46.378  25.753  25.638  1.00  0.00     0.029 A 
ATOM     62  C   UNL A   1      46.843  26.326  26.896  1.00  0.00     0.049 A 
ATOM     63  H   UNL A   1      45.761  26.393  28.688  1.00  0.00     0.167 HD
ATOM     64  C   UNL A   1      44.496  25.569  32.560  1.00  0.00     0.037 A 
ATOM     65  C   UNL A   1      48.024  26.939  27.168  1.00  0.00     0.037 A 
ATOM     66  C   UNL A   1      44.260  26.966  32.339  1.00  0.00     0.049 A 
ATOM     67  C   UNL A   1      47.951  27.664  28.455  1.00  0.00     0.074 A 
ATOM     68  C   UNL A   1      43.173  27.799  32.244  1.00  0.00     0.029 A 
ATOM     69  N   UNL A   1      45.346  27.669  31.905  1.00  0.00    -0.354 N 
ATOM     70  N   UNL A   1      47.429  28.841  28.615  1.00  0.00    -0.248 NA
ATOM     71  C   UNL A   1      48.387  27.014  29.684  1.00  0.00     0.031 C 
ATOM     72  C   UNL A   1      43.619  28.949  31.526  1.00  0.00     0.029 A 
ATOM     73  C   UNL A   1      44.974  28.801  31.228  1.00  0.00     0.049 A 
ATOM     74  H   UNL A   1      46.279  27.397  32.057  1.00  0.00     0.167 HD
ATOM     75  C   UNL A   1      47.064  28.894  29.937  1.00  0.00     0.074 A 
ATOM     76  C   UNL A   1      47.871  27.864  30.573  1.00  0.00     0.031 C 
ATOM     77  C   UNL A   1      45.872  29.463  30.290  1.00  0.00     0.037 A 
BRANCH  64  78
ATOM     78  C   UNL A   1      45.414  25.113  33.664  1.00  0.00     0.064 A 
ATOM     79  C   UNL A   1      44.927  25.018  34.981  1.00  0.00     0.173 A 
ATOM     80  C   UNL A   1      46.817  25.088  33.516  1.00  0.00     0.173 A 
ATOM     81  F   UNL A   1      43.610  25.081  35.224  1.00  0.00    -0.203 F 
ATOM     82  C   UNL A   1      45.791  24.948  36.076  1.00  0.00     0.198 A 
ATOM     83  C   UNL A   1      47.674  24.967  34.609  1.00  0.00     0.198 A 
ATOM     84  F   UNL A   1      47.401  25.304  32.330  1.00  0.00    -0.203 F 
ATOM     85  F   UNL A   1      45.292  24.969  37.320  1.00  0.00    -0.200 F 
ATOM     86  C   UNL A   1      47.162  24.922  35.890  1.00  0.00     0.200 A 
ATOM     87  F   UNL A   1      49.000  24.976  34.412  1.00  0.00    -0.200 F 
ATOM     88  F   UNL A   1      47.991  24.908  36.942  1.00  0.00    -0.200 F 
ENDBRANCH  64  78
BRANCH  65  89
ATOM     89  C   UNL A   1      49.331  26.873  26.468  1.00  0.00     0.064 A 
ATOM     90  C   UNL A   1      49.952  28.036  25.970  1.00  0.00     0.173 A 
ATOM     91  C   UNL A   1      50.135  25.724  26.559  1.00  0.00     0.173 A 
ATOM     92  F   UNL A   1      49.267  29.183  25.866  1.00  0.00    -0.203 F 
ATOM     93  C   UNL A   1      51.309  28.061  25.645  1.00  0.00     0.198 A 
ATOM     94  C   UNL A   1      51.489  25.748  26.220  1.00  0.00     0.198 A 
ATOM     95  F   UNL A   1      49.647  24.588  27.076  1.00  0.00    -0.203 F 
ATOM     96  F   UNL A   1      51.884  29.210  25.259  1.00  0.00    -0.200 F 
ATOM     97  C   UNL A   1      52.081  26.921  25.786  1.00  0.00     0.200 A 
ATOM     98  F   UNL A   1      52.233  24.646  26.387  1.00  0.00    -0.200 F 
ATOM     99  F   UNL A   1      53.399  26.963  25.550  1.00  0.00    -0.200 F 
ENDBRANCH  65  89
BRANCH  77 100
ATOM    100  C   UNL A   1      45.413  30.705  29.546  1.00  0.00     0.064 A 
ATOM    101  C   UNL A   1      44.698  30.745  28.333  1.00  0.00     0.173 A 
ATOM    102  C   UNL A   1      45.738  31.962  30.099  1.00  0.00     0.173 A 
ATOM    103  F   UNL A   1      44.129  29.656  27.795  1.00  0.00    -0.203 F 
ATOM    104  C   UNL A   1      44.416  31.949  27.682  1.00  0.00     0.198 A 
ATOM    105  C   UNL A   1      45.338  33.162  29.511  1.00  0.00     0.198 A 
ATOM    106  F   UNL A   1      46.450  32.045  31.235  1.00  0.00    -0.203 F 
ATOM    107  F   UNL A   1      43.791  31.930  26.498  1.00  0.00    -0.200 F 
ATOM    108  C   UNL A   1      44.694  33.155  28.291  1.00  0.00     0.200 A 
ATOM    109  F   UNL A   1      45.580  34.324  30.135  1.00  0.00    -0.200 F 
ATOM    110  F   UNL A   1      44.299  34.304  27.725  1.00  0.00    -0.200 F 
ENDBRANCH  77 100
ENDBRANCH  51  52
ENDBRANCH  44  46
ENDBRANCH  43  44
ENDBRANCH  42  43
ENDBRANCH  41  42
ENDBRANCH  40  41
ENDBRANCH  39  40
ENDBRANCH  38  39
ENDBRANCH  37  38
ENDBRANCH   1  37
TORSDOF 25
ENDMDL
