MODEL 1
REMARK VINA RESULT:     -10.8      0.000      0.000
REMARK SMILES CC(C)(C)OC(=O)N1CCC[C@H]1C(=O)N[C@@H](Cc1ccccc1)C(=O)OCCOCCOCCOCCOC(=O)c1ccc(-c2c3nc(c(-c4c(F)c(F)c(F)c(F)c4F)c4ccc([nH]4)c(-c4c(F)c(F)c(F)c(F)c4F)c4nc(c(-c5c(F)c(F)c(F)c(F)c5F)c5ccc2[nH]5)C=C4)C=C3)cc1
REMARK SMILES IDX 30 1 29 2 28 3 27 4 26 5 24 6 25 7 16 8 15 9 13 10 14 11
REMARK SMILES IDX 12 13 8 14 9 15 10 16 11 17 6 18 7 19 5 20 2 21 1 22 3 23
REMARK SMILES IDX 4 24 17 25 18 26 19 27 23 28 20 29 22 30 21 31 31 32 32 33
REMARK SMILES IDX 33 34 34 35 35 36 36 37 37 38 38 39 39 40 40 41 41 42 42 43
REMARK SMILES IDX 103 44 43 45 102 46 44 47 45 48 46 49 96 50 47 51 101 52
REMARK SMILES IDX 95 53 97 54 48 55 100 56 94 57 93 58 49 60 81 61 61 62 80 63
REMARK SMILES IDX 62 64 65 65 79 66 98 67 63 68 64 69 78 71 99 72 66 73 50 74
REMARK SMILES IDX 51 75 59 76 52 77 53 78 57 79 60 80 54 81 55 82 58 83 56 84
REMARK SMILES IDX 82 85 83 86 91 87 84 88 85 89 89 90 92 91 86 92 87 93 90 94
REMARK SMILES IDX 88 95 67 96 68 97 76 98 69 99 70 100 74 101 77 102 71 103
REMARK SMILES IDX 72 104 75 105 73 106
REMARK H PARENT 15 12 97 59 65 70
REMARK Flexibility Score: inf
ROOT
ATOM      1  C   UNL A   1      38.482  21.848  25.743  1.00  0.00     0.188 C 
ENDROOT
BRANCH   1   2
ATOM      2  O   UNL A   1      38.551  23.161  26.286  1.00  0.00    -0.376 OA
BRANCH   2   3
ATOM      3  C   UNL A   1      37.419  24.021  26.270  1.00  0.00     0.202 C 
BRANCH   3   4
ATOM      4  C   UNL A   1      36.097  23.580  25.628  1.00  0.00     0.261 C 
BRANCH   4   5
ATOM      5  O   UNL A   1      35.253  24.662  25.202  1.00  0.00    -0.462 OA
BRANCH   5   6
ATOM      6  C   UNL A   1      33.959  24.606  25.573  1.00  0.00     0.329 C 
ATOM      7  O   UNL A   1      33.562  24.084  26.612  1.00  0.00    -0.250 OA
BRANCH   6   8
ATOM      8  C   UNL A   1      32.970  25.142  24.512  1.00  0.00     0.196 C 
BRANCH   8   9
ATOM      9  N   UNL A   1      33.250  25.413  23.081  1.00  0.00    -0.341 N 
ATOM     10  C   UNL A   1      33.061  26.486  22.251  1.00  0.00     0.243 C 
ATOM     11  O   UNL A   1      33.072  26.218  21.044  1.00  0.00    -0.273 OA
ATOM     12  H   UNL A   1      33.666  24.648  22.622  1.00  0.00     0.164 HD
BRANCH  10  13
ATOM     13  C   UNL A   1      33.000  27.955  22.754  1.00  0.00     0.178 C 
ATOM     14  N   UNL A   1      31.762  28.255  23.497  1.00  0.00    -0.296 N 
ATOM     15  C   UNL A   1      32.032  28.435  24.908  1.00  0.00     0.124 C 
ATOM     16  C   UNL A   1      33.405  29.067  24.892  1.00  0.00     0.024 C 
ATOM     17  C   UNL A   1      34.097  28.319  23.762  1.00  0.00     0.037 C 
BRANCH  14  18
ATOM     18  C   UNL A   1      30.557  28.526  22.891  1.00  0.00     0.410 C 
ATOM     19  O   UNL A   1      30.100  27.872  21.960  1.00  0.00    -0.224 OA
BRANCH  18  20
ATOM     20  O   UNL A   1      29.987  29.646  23.407  1.00  0.00    -0.444 OA
BRANCH  20  21
ATOM     21  C   UNL A   1      28.756  30.245  22.918  1.00  0.00     0.106 C 
ATOM     22  C   UNL A   1      29.024  30.555  21.434  1.00  0.00     0.056 C 
ATOM     23  C   UNL A   1      28.531  31.559  23.668  1.00  0.00     0.056 C 
ATOM     24  C   UNL A   1      27.524  29.337  22.994  1.00  0.00     0.056 C 
ENDBRANCH  20  21
ENDBRANCH  18  20
ENDBRANCH  14  18
ENDBRANCH  10  13
ENDBRANCH   8   9
BRANCH   8  25
ATOM     25  C   UNL A   1      31.752  24.200  24.586  1.00  0.00     0.072 C 
BRANCH  25  26
ATOM     26  C   UNL A   1      31.959  22.735  24.222  1.00  0.00    -0.045 A 
ATOM     27  C   UNL A   1      32.001  22.414  22.857  1.00  0.00     0.004 A 
ATOM     28  C   UNL A   1      32.125  21.685  25.141  1.00  0.00     0.004 A 
ATOM     29  C   UNL A   1      32.177  21.095  22.432  1.00  0.00     0.000 A 
ATOM     30  C   UNL A   1      32.312  20.368  24.717  1.00  0.00     0.000 A 
ATOM     31  C   UNL A   1      32.334  20.072  23.361  1.00  0.00     0.000 A 
ENDBRANCH  25  26
ENDBRANCH   8  25
ENDBRANCH   6   8
ENDBRANCH   5   6
ENDBRANCH   4   5
ENDBRANCH   3   4
ENDBRANCH   2   3
ENDBRANCH   1   2
BRANCH   1  32
ATOM     32  C   UNL A   1      39.529  20.780  26.111  1.00  0.00     0.188 C 
BRANCH  32  33
ATOM     33  O   UNL A   1      40.114  20.924  27.390  1.00  0.00    -0.377 OA
BRANCH  33  34
ATOM     34  C   UNL A   1      41.473  21.340  27.421  1.00  0.00     0.188 C 
BRANCH  34  35
ATOM     35  C   UNL A   1      42.471  20.618  26.491  1.00  0.00     0.188 C 
BRANCH  35  36
ATOM     36  O   UNL A   1      42.833  21.352  25.331  1.00  0.00    -0.376 OA
BRANCH  36  37
ATOM     37  C   UNL A   1      44.208  21.545  25.030  1.00  0.00     0.202 C 
BRANCH  37  38
ATOM     38  C   UNL A   1      44.605  22.684  24.073  1.00  0.00     0.261 C 
BRANCH  38  39
ATOM     39  O   UNL A   1      44.065  23.984  24.362  1.00  0.00    -0.460 OA
BRANCH  39  40
ATOM     40  C   UNL A   1      44.857  24.873  24.997  1.00  0.00     0.338 C 
ATOM     41  O   UNL A   1      46.019  25.132  24.753  1.00  0.00    -0.246 OA
BRANCH  40  42
ATOM     42  C   UNL A   1      44.003  25.652  25.921  1.00  0.00     0.060 A 
ATOM     43  C   UNL A   1      44.082  27.051  25.891  1.00  0.00     0.016 A 
ATOM     44  C   UNL A   1      43.132  25.013  26.806  1.00  0.00     0.016 A 
ATOM     45  C   UNL A   1      43.322  27.814  26.779  1.00  0.00     0.010 A 
ATOM     46  C   UNL A   1      42.393  25.776  27.714  1.00  0.00     0.010 A 
ATOM     47  C   UNL A   1      42.514  27.178  27.729  1.00  0.00    -0.014 A 
BRANCH  47  48
ATOM     48  C   UNL A   1      41.976  27.964  28.865  1.00  0.00     0.031 A 
ATOM     49  C   UNL A   1      42.750  27.975  30.155  1.00  0.00     0.074 A 
ATOM     50  C   UNL A   1      40.850  28.689  28.746  1.00  0.00     0.049 A 
ATOM     51  N   UNL A   1      42.473  28.561  31.291  1.00  0.00    -0.248 NA
ATOM     52  C   UNL A   1      44.014  27.219  30.160  1.00  0.00     0.031 C 
ATOM     53  C   UNL A   1      40.042  28.804  27.535  1.00  0.00     0.029 A 
ATOM     54  N   UNL A   1      40.193  29.467  29.667  1.00  0.00    -0.354 N 
ATOM     55  C   UNL A   1      43.521  28.241  32.145  1.00  0.00     0.074 A 
ATOM     56  C   UNL A   1      44.421  27.381  31.409  1.00  0.00     0.031 C 
ATOM     57  C   UNL A   1      38.988  29.599  27.791  1.00  0.00     0.029 A 
ATOM     58  C   UNL A   1      39.030  30.019  29.191  1.00  0.00     0.049 A 
ATOM     59  H   UNL A   1      40.524  29.616  30.583  1.00  0.00     0.167 HD
ATOM     60  C   UNL A   1      43.719  28.637  33.424  1.00  0.00     0.037 A 
ATOM     61  C   UNL A   1      38.097  30.759  29.824  1.00  0.00     0.037 A 
ATOM     62  C   UNL A   1      42.817  29.486  34.156  1.00  0.00     0.049 A 
ATOM     63  C   UNL A   1      38.296  31.111  31.278  1.00  0.00     0.074 A 
ATOM     64  C   UNL A   1      42.930  29.951  35.454  1.00  0.00     0.029 A 
ATOM     65  N   UNL A   1      41.625  29.988  33.654  1.00  0.00    -0.354 N 
ATOM     66  N   UNL A   1      39.299  30.825  32.073  1.00  0.00    -0.248 NA
ATOM     67  C   UNL A   1      37.231  31.894  31.921  1.00  0.00     0.031 C 
ATOM     68  C   UNL A   1      41.777  30.681  35.759  1.00  0.00     0.029 A 
ATOM     69  C   UNL A   1      40.978  30.732  34.628  1.00  0.00     0.049 A 
ATOM     70  H   UNL A   1      41.288  29.837  32.742  1.00  0.00     0.167 HD
ATOM     71  C   UNL A   1      39.004  31.420  33.294  1.00  0.00     0.074 A 
ATOM     72  C   UNL A   1      37.735  32.097  33.130  1.00  0.00     0.031 C 
ATOM     73  C   UNL A   1      39.718  31.408  34.448  1.00  0.00     0.037 A 
BRANCH  60  74
ATOM     74  C   UNL A   1      44.946  28.126  34.125  1.00  0.00     0.064 A 
ATOM     75  C   UNL A   1      44.938  26.927  34.854  1.00  0.00     0.173 A 
ATOM     76  C   UNL A   1      46.155  28.834  34.044  1.00  0.00     0.173 A 
ATOM     77  F   UNL A   1      43.805  26.218  34.977  1.00  0.00    -0.203 F 
ATOM     78  C   UNL A   1      46.086  26.472  35.498  1.00  0.00     0.198 A 
ATOM     79  C   UNL A   1      47.309  28.359  34.661  1.00  0.00     0.198 A 
ATOM     80  F   UNL A   1      46.219  29.986  33.359  1.00  0.00    -0.203 F 
ATOM     81  F   UNL A   1      46.040  25.351  36.233  1.00  0.00    -0.200 F 
ATOM     82  C   UNL A   1      47.272  27.184  35.395  1.00  0.00     0.200 A 
ATOM     83  F   UNL A   1      48.457  29.041  34.547  1.00  0.00    -0.200 F 
ATOM     84  F   UNL A   1      48.377  26.740  36.008  1.00  0.00    -0.200 F 
ENDBRANCH  60  74
BRANCH  61  85
ATOM     85  C   UNL A   1      36.880  31.208  29.097  1.00  0.00     0.064 A 
ATOM     86  C   UNL A   1      36.754  32.528  28.639  1.00  0.00     0.173 A 
ATOM     87  C   UNL A   1      35.803  30.337  28.871  1.00  0.00     0.173 A 
ATOM     88  F   UNL A   1      37.743  33.408  28.853  1.00  0.00    -0.203 F 
ATOM     89  C   UNL A   1      35.591  32.964  28.008  1.00  0.00     0.198 A 
ATOM     90  C   UNL A   1      34.655  30.765  28.209  1.00  0.00     0.198 A 
ATOM     91  F   UNL A   1      35.870  29.065  29.290  1.00  0.00    -0.203 F 
ATOM     92  F   UNL A   1      35.475  34.245  27.632  1.00  0.00    -0.200 F 
ATOM     93  C   UNL A   1      34.545  32.082  27.788  1.00  0.00     0.200 A 
ATOM     94  F   UNL A   1      33.653  29.903  27.984  1.00  0.00    -0.200 F 
ATOM     95  F   UNL A   1      33.428  32.500  27.178  1.00  0.00    -0.200 F 
ENDBRANCH  61  85
BRANCH  73  96
ATOM     96  C   UNL A   1      39.169  32.188  35.611  1.00  0.00     0.064 A 
ATOM     97  C   UNL A   1      38.334  31.600  36.573  1.00  0.00     0.173 A 
ATOM     98  C   UNL A   1      39.513  33.539  35.783  1.00  0.00     0.173 A 
ATOM     99  F   UNL A   1      37.965  30.316  36.451  1.00  0.00    -0.203 F 
ATOM    100  C   UNL A   1      37.836  32.343  37.641  1.00  0.00     0.198 A 
ATOM    101  C   UNL A   1      39.045  34.268  36.872  1.00  0.00     0.198 A 
ATOM    102  F   UNL A   1      40.317  34.151  34.899  1.00  0.00    -0.203 F 
ATOM    103  F   UNL A   1      36.992  31.775  38.513  1.00  0.00    -0.200 F 
ATOM    104  C   UNL A   1      38.198  33.673  37.794  1.00  0.00     0.200 A 
ATOM    105  F   UNL A   1      39.411  35.548  37.028  1.00  0.00    -0.200 F 
ATOM    106  F   UNL A   1      37.723  34.383  38.827  1.00  0.00    -0.200 F 
ENDBRANCH  73  96
ENDBRANCH  47  48
ENDBRANCH  40  42
ENDBRANCH  39  40
ENDBRANCH  38  39
ENDBRANCH  37  38
ENDBRANCH  36  37
ENDBRANCH  35  36
ENDBRANCH  34  35
ENDBRANCH  33  34
ENDBRANCH  32  33
ENDBRANCH   1  32
TORSDOF 27
ENDMDL
MODEL 2
REMARK VINA RESULT:     -10.0      1.507      4.505
REMARK SMILES CC(C)(C)OC(=O)N1CCC[C@H]1C(=O)N[C@@H](Cc1ccccc1)C(=O)OCCOCCOCCOCCOC(=O)c1ccc(-c2c3nc(c(-c4c(F)c(F)c(F)c(F)c4F)c4ccc([nH]4)c(-c4c(F)c(F)c(F)c(F)c4F)c4nc(c(-c5c(F)c(F)c(F)c(F)c5F)c5ccc2[nH]5)C=C4)C=C3)cc1
REMARK SMILES IDX 30 1 29 2 28 3 27 4 26 5 24 6 25 7 16 8 15 9 13 10 14 11
REMARK SMILES IDX 12 13 8 14 9 15 10 16 11 17 6 18 7 19 5 20 2 21 1 22 3 23
REMARK SMILES IDX 4 24 17 25 18 26 19 27 23 28 20 29 22 30 21 31 31 32 32 33
REMARK SMILES IDX 33 34 34 35 35 36 36 37 37 38 38 39 39 40 40 41 41 42 42 43
REMARK SMILES IDX 103 44 43 45 102 46 44 47 45 48 46 49 96 50 47 51 101 52
REMARK SMILES IDX 95 53 97 54 48 55 100 56 94 57 93 58 49 60 81 61 61 62 80 63
REMARK SMILES IDX 62 64 65 65 79 66 98 67 63 68 64 69 78 71 99 72 66 73 50 74
REMARK SMILES IDX 51 75 59 76 52 77 53 78 57 79 60 80 54 81 55 82 58 83 56 84
REMARK SMILES IDX 82 85 83 86 91 87 84 88 85 89 89 90 92 91 86 92 87 93 90 94
REMARK SMILES IDX 88 95 67 96 68 97 76 98 69 99 70 100 74 101 77 102 71 103
REMARK SMILES IDX 72 104 75 105 73 106
REMARK H PARENT 15 12 97 59 65 70
REMARK Flexibility Score: inf
ROOT
ATOM      1  C   UNL A   1      38.762  21.877  25.802  1.00  0.00     0.188 C 
ENDROOT
BRANCH   1   2
ATOM      2  O   UNL A   1      38.904  23.171  26.377  1.00  0.00    -0.376 OA
BRANCH   2   3
ATOM      3  C   UNL A   1      37.848  24.121  26.311  1.00  0.00     0.202 C 
BRANCH   3   4
ATOM      4  C   UNL A   1      36.575  23.838  25.501  1.00  0.00     0.261 C 
BRANCH   4   5
ATOM      5  O   UNL A   1      35.705  24.971  25.347  1.00  0.00    -0.462 OA
BRANCH   5   6
ATOM      6  C   UNL A   1      34.380  24.731  25.403  1.00  0.00     0.329 C 
ATOM      7  O   UNL A   1      33.683  24.938  26.394  1.00  0.00    -0.250 OA
BRANCH   6   8
ATOM      8  C   UNL A   1      33.807  24.037  24.146  1.00  0.00     0.196 C 
BRANCH   8   9
ATOM      9  N   UNL A   1      32.433  23.509  23.960  1.00  0.00    -0.341 N 
ATOM     10  C   UNL A   1      31.806  22.331  24.265  1.00  0.00     0.243 C 
ATOM     11  O   UNL A   1      30.770  22.113  23.628  1.00  0.00    -0.273 OA
ATOM     12  H   UNL A   1      31.834  24.153  23.516  1.00  0.00     0.164 HD
BRANCH  10  13
ATOM     13  C   UNL A   1      32.251  21.402  25.428  1.00  0.00     0.178 C 
ATOM     14  N   UNL A   1      33.398  20.546  25.072  1.00  0.00    -0.296 N 
ATOM     15  C   UNL A   1      34.596  20.963  25.770  1.00  0.00     0.124 C 
ATOM     16  C   UNL A   1      34.044  21.452  27.089  1.00  0.00     0.024 C 
ATOM     17  C   UNL A   1      32.759  22.150  26.668  1.00  0.00     0.037 C 
BRANCH  14  18
ATOM     18  C   UNL A   1      33.284  19.389  24.337  1.00  0.00     0.410 C 
ATOM     19  O   UNL A   1      32.484  19.241  23.419  1.00  0.00    -0.224 OA
BRANCH  18  20
ATOM     20  O   UNL A   1      34.114  18.422  24.808  1.00  0.00    -0.444 OA
BRANCH  20  21
ATOM     21  C   UNL A   1      34.033  17.017  24.445  1.00  0.00     0.106 C 
ATOM     22  C   UNL A   1      32.723  16.514  25.076  1.00  0.00     0.056 C 
ATOM     23  C   UNL A   1      35.210  16.285  25.091  1.00  0.00     0.056 C 
ATOM     24  C   UNL A   1      33.963  16.746  22.938  1.00  0.00     0.056 C 
ENDBRANCH  20  21
ENDBRANCH  18  20
ENDBRANCH  14  18
ENDBRANCH  10  13
ENDBRANCH   8   9
BRANCH   8  25
ATOM     25  C   UNL A   1      34.103  25.005  22.983  1.00  0.00     0.072 C 
BRANCH  25  26
ATOM     26  C   UNL A   1      33.326  26.314  22.927  1.00  0.00    -0.045 A 
ATOM     27  C   UNL A   1      33.978  27.466  23.391  1.00  0.00     0.004 A 
ATOM     28  C   UNL A   1      32.018  26.461  22.436  1.00  0.00     0.004 A 
ATOM     29  C   UNL A   1      33.339  28.708  23.385  1.00  0.00     0.000 A 
ATOM     30  C   UNL A   1      31.381  27.704  22.420  1.00  0.00     0.000 A 
ATOM     31  C   UNL A   1      32.041  28.828  22.899  1.00  0.00     0.000 A 
ENDBRANCH  25  26
ENDBRANCH   8  25
ENDBRANCH   6   8
ENDBRANCH   5   6
ENDBRANCH   4   5
ENDBRANCH   3   4
ENDBRANCH   2   3
ENDBRANCH   1   2
BRANCH   1  32
ATOM     32  C   UNL A   1      39.717  20.730  26.184  1.00  0.00     0.188 C 
BRANCH  32  33
ATOM     33  O   UNL A   1      40.342  20.860  27.446  1.00  0.00    -0.377 OA
BRANCH  33  34
ATOM     34  C   UNL A   1      41.710  21.243  27.437  1.00  0.00     0.188 C 
BRANCH  34  35
ATOM     35  C   UNL A   1      42.648  20.555  26.422  1.00  0.00     0.188 C 
BRANCH  35  36
ATOM     36  O   UNL A   1      42.947  21.333  25.273  1.00  0.00    -0.376 OA
BRANCH  36  37
ATOM     37  C   UNL A   1      44.301  21.496  24.876  1.00  0.00     0.202 C 
BRANCH  37  38
ATOM     38  C   UNL A   1      44.656  22.634  23.902  1.00  0.00     0.261 C 
BRANCH  38  39
ATOM     39  O   UNL A   1      44.141  23.937  24.220  1.00  0.00    -0.460 OA
BRANCH  39  40
ATOM     40  C   UNL A   1      44.940  24.789  24.894  1.00  0.00     0.338 C 
ATOM     41  O   UNL A   1      46.113  25.028  24.680  1.00  0.00    -0.246 OA
BRANCH  40  42
ATOM     42  C   UNL A   1      44.087  25.561  25.825  1.00  0.00     0.060 A 
ATOM     43  C   UNL A   1      44.161  26.960  25.801  1.00  0.00     0.016 A 
ATOM     44  C   UNL A   1      43.223  24.915  26.711  1.00  0.00     0.016 A 
ATOM     45  C   UNL A   1      43.402  27.717  26.694  1.00  0.00     0.010 A 
ATOM     46  C   UNL A   1      42.484  25.672  27.625  1.00  0.00     0.010 A 
ATOM     47  C   UNL A   1      42.601  27.074  27.646  1.00  0.00    -0.014 A 
BRANCH  47  48
ATOM     48  C   UNL A   1      42.064  27.854  28.786  1.00  0.00     0.031 A 
ATOM     49  C   UNL A   1      42.838  27.855  30.076  1.00  0.00     0.074 A 
ATOM     50  C   UNL A   1      40.940  28.583  28.673  1.00  0.00     0.049 A 
ATOM     51  N   UNL A   1      42.562  28.434  31.217  1.00  0.00    -0.248 NA
ATOM     52  C   UNL A   1      44.101  27.097  30.076  1.00  0.00     0.031 C 
ATOM     53  C   UNL A   1      40.131  28.707  27.463  1.00  0.00     0.029 A 
ATOM     54  N   UNL A   1      40.284  29.356  29.599  1.00  0.00    -0.354 N 
ATOM     55  C   UNL A   1      43.610  28.106  32.068  1.00  0.00     0.074 A 
ATOM     56  C   UNL A   1      44.508  27.249  31.326  1.00  0.00     0.031 C 
ATOM     57  C   UNL A   1      39.079  29.502  27.723  1.00  0.00     0.029 A 
ATOM     58  C   UNL A   1      39.122  29.913  29.126  1.00  0.00     0.049 A 
ATOM     59  H   UNL A   1      40.615  29.497  30.515  1.00  0.00     0.167 HD
ATOM     60  C   UNL A   1      43.809  28.493  33.349  1.00  0.00     0.037 A 
ATOM     61  C   UNL A   1      38.191  30.651  29.764  1.00  0.00     0.037 A 
ATOM     62  C   UNL A   1      42.908  29.339  34.087  1.00  0.00     0.049 A 
ATOM     63  C   UNL A   1      38.391  30.992  31.220  1.00  0.00     0.074 A 
ATOM     64  C   UNL A   1      43.023  29.796  35.388  1.00  0.00     0.029 A 
ATOM     65  N   UNL A   1      41.717  29.847  33.589  1.00  0.00    -0.354 N 
ATOM     66  N   UNL A   1      39.393  30.699  32.014  1.00  0.00    -0.248 NA
ATOM     67  C   UNL A   1      37.328  31.774  31.868  1.00  0.00     0.031 C 
ATOM     68  C   UNL A   1      41.871  30.526  35.698  1.00  0.00     0.029 A 
ATOM     69  C   UNL A   1      41.072  30.586  34.567  1.00  0.00     0.049 A 
ATOM     70  H   UNL A   1      41.380  29.703  32.675  1.00  0.00     0.167 HD
ATOM     71  C   UNL A   1      39.099  31.287  33.239  1.00  0.00     0.074 A 
ATOM     72  C   UNL A   1      37.832  31.968  33.079  1.00  0.00     0.031 C 
ATOM     73  C   UNL A   1      39.814  31.266  34.392  1.00  0.00     0.037 A 
BRANCH  60  74
ATOM     74  C   UNL A   1      45.035  27.975  34.047  1.00  0.00     0.064 A 
ATOM     75  C   UNL A   1      46.245  28.685  34.045  1.00  0.00     0.173 A 
ATOM     76  C   UNL A   1      44.989  26.762  34.751  1.00  0.00     0.173 A 
ATOM     77  F   UNL A   1      46.348  29.843  33.375  1.00  0.00    -0.203 F 
ATOM     78  C   UNL A   1      47.370  28.186  34.697  1.00  0.00     0.198 A 
ATOM     79  C   UNL A   1      46.106  26.282  35.430  1.00  0.00     0.198 A 
ATOM     80  F   UNL A   1      43.857  26.043  34.787  1.00  0.00    -0.203 F 
ATOM     81  F   UNL A   1      48.530  28.855  34.636  1.00  0.00    -0.200 F 
ATOM     82  C   UNL A   1      47.298  26.989  35.395  1.00  0.00     0.200 A 
ATOM     83  F   UNL A   1      46.029  25.134  36.116  1.00  0.00    -0.200 F 
ATOM     84  F   UNL A   1      48.378  26.516  36.030  1.00  0.00    -0.200 F 
ENDBRANCH  60  74
BRANCH  61  85
ATOM     85  C   UNL A   1      36.975  31.107  29.040  1.00  0.00     0.064 A 
ATOM     86  C   UNL A   1      36.828  32.443  28.639  1.00  0.00     0.173 A 
ATOM     87  C   UNL A   1      35.920  30.225  28.761  1.00  0.00     0.173 A 
ATOM     88  F   UNL A   1      37.795  33.332  28.906  1.00  0.00    -0.203 F 
ATOM     89  C   UNL A   1      35.664  32.884  28.011  1.00  0.00     0.198 A 
ATOM     90  C   UNL A   1      34.771  30.660  28.102  1.00  0.00     0.198 A 
ATOM     91  F   UNL A   1      36.006  28.937  29.124  1.00  0.00    -0.203 F 
ATOM     92  F   UNL A   1      35.527  34.178  27.691  1.00  0.00    -0.200 F 
ATOM     93  C   UNL A   1      34.640  31.991  27.737  1.00  0.00     0.200 A 
ATOM     94  F   UNL A   1      33.791  29.788  27.825  1.00  0.00    -0.200 F 
ATOM     95  F   UNL A   1      33.522  32.413  27.131  1.00  0.00    -0.200 F 
ENDBRANCH  61  85
BRANCH  73  96
ATOM     96  C   UNL A   1      39.267  32.039  35.561  1.00  0.00     0.064 A 
ATOM     97  C   UNL A   1      39.544  33.403  35.745  1.00  0.00     0.173 A 
ATOM     98  C   UNL A   1      38.424  31.413  36.493  1.00  0.00     0.173 A 
ATOM     99  F   UNL A   1      40.353  34.048  34.891  1.00  0.00    -0.203 F 
ATOM    100  C   UNL A   1      39.028  34.098  36.835  1.00  0.00     0.198 A 
ATOM    101  C   UNL A   1      37.878  32.121  37.560  1.00  0.00     0.198 A 
ATOM    102  F   UNL A   1      38.116  30.113  36.361  1.00  0.00    -0.203 F 
ATOM    103  F   UNL A   1      39.356  35.384  37.022  1.00  0.00    -0.200 F 
ATOM    104  C   UNL A   1      38.190  33.460  37.737  1.00  0.00     0.200 A 
ATOM    105  F   UNL A   1      37.054  31.506  38.419  1.00  0.00    -0.200 F 
ATOM    106  F   UNL A   1      37.689  34.134  38.782  1.00  0.00    -0.200 F 
ENDBRANCH  73  96
ENDBRANCH  47  48
ENDBRANCH  40  42
ENDBRANCH  39  40
ENDBRANCH  38  39
ENDBRANCH  37  38
ENDBRANCH  36  37
ENDBRANCH  35  36
ENDBRANCH  34  35
ENDBRANCH  33  34
ENDBRANCH  32  33
ENDBRANCH   1  32
TORSDOF 27
ENDMDL
MODEL 3
REMARK VINA RESULT:      -9.1      3.083      8.031
REMARK SMILES CC(C)(C)OC(=O)N1CCC[C@H]1C(=O)N[C@@H](Cc1ccccc1)C(=O)OCCOCCOCCOCCOC(=O)c1ccc(-c2c3nc(c(-c4c(F)c(F)c(F)c(F)c4F)c4ccc([nH]4)c(-c4c(F)c(F)c(F)c(F)c4F)c4nc(c(-c5c(F)c(F)c(F)c(F)c5F)c5ccc2[nH]5)C=C4)C=C3)cc1
REMARK SMILES IDX 30 1 29 2 28 3 27 4 26 5 24 6 25 7 16 8 15 9 13 10 14 11
REMARK SMILES IDX 12 13 8 14 9 15 10 16 11 17 6 18 7 19 5 20 2 21 1 22 3 23
REMARK SMILES IDX 4 24 17 25 18 26 19 27 23 28 20 29 22 30 21 31 31 32 32 33
REMARK SMILES IDX 33 34 34 35 35 36 36 37 37 38 38 39 39 40 40 41 41 42 42 43
REMARK SMILES IDX 103 44 43 45 102 46 44 47 45 48 46 49 96 50 47 51 101 52
REMARK SMILES IDX 95 53 97 54 48 55 100 56 94 57 93 58 49 60 81 61 61 62 80 63
REMARK SMILES IDX 62 64 65 65 79 66 98 67 63 68 64 69 78 71 99 72 66 73 50 74
REMARK SMILES IDX 51 75 59 76 52 77 53 78 57 79 60 80 54 81 55 82 58 83 56 84
REMARK SMILES IDX 82 85 83 86 91 87 84 88 85 89 89 90 92 91 86 92 87 93 90 94
REMARK SMILES IDX 88 95 67 96 68 97 76 98 69 99 70 100 74 101 77 102 71 103
REMARK SMILES IDX 72 104 75 105 73 106
REMARK H PARENT 15 12 97 59 65 70
REMARK Flexibility Score: inf
ROOT
ATOM      1  C   UNL A   1      39.199  22.408  26.095  1.00  0.00     0.188 C 
ENDROOT
BRANCH   1   2
ATOM      2  O   UNL A   1      37.816  22.083  26.030  1.00  0.00    -0.376 OA
BRANCH   2   3
ATOM      3  C   UNL A   1      36.987  22.611  25.003  1.00  0.00     0.202 C 
BRANCH   3   4
ATOM      4  C   UNL A   1      35.686  21.907  24.592  1.00  0.00     0.261 C 
BRANCH   4   5
ATOM      5  O   UNL A   1      34.949  22.577  23.558  1.00  0.00    -0.462 OA
BRANCH   5   6
ATOM      6  C   UNL A   1      33.653  22.233  23.415  1.00  0.00     0.329 C 
ATOM      7  O   UNL A   1      32.983  22.471  22.414  1.00  0.00    -0.250 OA
BRANCH   6   8
ATOM      8  C   UNL A   1      33.017  21.616  24.682  1.00  0.00     0.196 C 
BRANCH   8   9
ATOM      9  N   UNL A   1      32.245  22.322  25.734  1.00  0.00    -0.341 N 
ATOM     10  C   UNL A   1      32.247  23.595  26.237  1.00  0.00     0.243 C 
ATOM     11  O   UNL A   1      31.728  23.714  27.352  1.00  0.00    -0.273 OA
ATOM     12  H   UNL A   1      31.577  21.743  26.169  1.00  0.00     0.164 HD
BRANCH  10  13
ATOM     13  C   UNL A   1      32.708  24.835  25.422  1.00  0.00     0.178 C 
ATOM     14  N   UNL A   1      31.928  26.047  25.732  1.00  0.00    -0.296 N 
ATOM     15  C   UNL A   1      32.725  27.006  26.469  1.00  0.00     0.124 C 
ATOM     16  C   UNL A   1      34.103  26.786  25.890  1.00  0.00     0.024 C 
ATOM     17  C   UNL A   1      34.149  25.275  25.714  1.00  0.00     0.037 C 
BRANCH  14  18
ATOM     18  C   UNL A   1      30.682  26.304  25.210  1.00  0.00     0.410 C 
ATOM     19  O   UNL A   1      29.795  25.461  25.115  1.00  0.00    -0.224 OA
BRANCH  18  20
ATOM     20  O   UNL A   1      30.592  27.580  24.752  1.00  0.00    -0.444 OA
BRANCH  20  21
ATOM     21  C   UNL A   1      29.886  27.975  23.544  1.00  0.00     0.106 C 
ATOM     22  C   UNL A   1      30.665  27.319  22.391  1.00  0.00     0.056 C 
ATOM     23  C   UNL A   1      29.981  29.496  23.408  1.00  0.00     0.056 C 
ATOM     24  C   UNL A   1      28.433  27.495  23.464  1.00  0.00     0.056 C 
ENDBRANCH  20  21
ENDBRANCH  18  20
ENDBRANCH  14  18
ENDBRANCH  10  13
ENDBRANCH   8   9
BRANCH   8  25
ATOM     25  C   UNL A   1      32.157  20.444  24.170  1.00  0.00     0.072 C 
BRANCH  25  26
ATOM     26  C   UNL A   1      32.676  19.028  24.389  1.00  0.00    -0.045 A 
ATOM     27  C   UNL A   1      33.319  18.407  23.309  1.00  0.00     0.004 A 
ATOM     28  C   UNL A   1      32.574  18.303  25.588  1.00  0.00     0.004 A 
ATOM     29  C   UNL A   1      33.817  17.107  23.417  1.00  0.00     0.000 A 
ATOM     30  C   UNL A   1      33.081  17.006  25.702  1.00  0.00     0.000 A 
ATOM     31  C   UNL A   1      33.700  16.406  24.613  1.00  0.00     0.000 A 
ENDBRANCH  25  26
ENDBRANCH   8  25
ENDBRANCH   6   8
ENDBRANCH   5   6
ENDBRANCH   4   5
ENDBRANCH   3   4
ENDBRANCH   2   3
ENDBRANCH   1   2
BRANCH   1  32
ATOM     32  C   UNL A   1      40.186  21.526  26.883  1.00  0.00     0.188 C 
BRANCH  32  33
ATOM     33  O   UNL A   1      41.534  21.954  26.852  1.00  0.00    -0.377 OA
BRANCH  33  34
ATOM     34  C   UNL A   1      42.498  20.979  26.482  1.00  0.00     0.188 C 
BRANCH  34  35
ATOM     35  C   UNL A   1      43.573  21.379  25.449  1.00  0.00     0.188 C 
BRANCH  35  36
ATOM     36  O   UNL A   1      43.201  22.450  24.595  1.00  0.00    -0.376 OA
BRANCH  36  37
ATOM     37  C   UNL A   1      44.025  23.604  24.526  1.00  0.00     0.202 C 
BRANCH  37  38
ATOM     38  C   UNL A   1      43.788  24.746  25.530  1.00  0.00     0.261 C 
BRANCH  38  39
ATOM     39  O   UNL A   1      42.577  25.504  25.370  1.00  0.00    -0.460 OA
BRANCH  39  40
ATOM     40  C   UNL A   1      42.652  26.847  25.454  1.00  0.00     0.338 C 
ATOM     41  O   UNL A   1      42.461  27.655  24.565  1.00  0.00    -0.246 OA
BRANCH  40  42
ATOM     42  C   UNL A   1      42.801  27.198  26.884  1.00  0.00     0.060 A 
ATOM     43  C   UNL A   1      43.656  28.252  27.232  1.00  0.00     0.016 A 
ATOM     44  C   UNL A   1      42.105  26.499  27.872  1.00  0.00     0.016 A 
ATOM     45  C   UNL A   1      43.852  28.581  28.573  1.00  0.00     0.010 A 
ATOM     46  C   UNL A   1      42.323  26.810  29.217  1.00  0.00     0.010 A 
ATOM     47  C   UNL A   1      43.227  27.827  29.574  1.00  0.00    -0.014 A 
BRANCH  47  48
ATOM     48  C   UNL A   1      43.687  27.962  30.977  1.00  0.00     0.031 A 
ATOM     49  C   UNL A   1      42.975  28.944  31.868  1.00  0.00     0.074 A 
ATOM     50  C   UNL A   1      44.681  27.203  31.468  1.00  0.00     0.049 A 
ATOM     51  N   UNL A   1      43.207  29.260  33.116  1.00  0.00    -0.248 NA
ATOM     52  C   UNL A   1      41.844  29.668  31.264  1.00  0.00     0.031 C 
ATOM     53  C   UNL A   1      45.411  26.180  30.722  1.00  0.00     0.029 A 
ATOM     54  N   UNL A   1      45.249  27.181  32.717  1.00  0.00    -0.354 N 
ATOM     55  C   UNL A   1      42.257  30.221  33.443  1.00  0.00     0.074 A 
ATOM     56  C   UNL A   1      41.469  30.461  32.255  1.00  0.00     0.031 C 
ATOM     57  C   UNL A   1      46.340  25.636  31.527  1.00  0.00     0.029 A 
ATOM     58  C   UNL A   1      46.293  26.296  32.831  1.00  0.00     0.049 A 
ATOM     59  H   UNL A   1      44.939  27.746  33.461  1.00  0.00     0.167 HD
ATOM     60  C   UNL A   1      42.055  30.837  34.630  1.00  0.00     0.037 A 
ATOM     61  C   UNL A   1      47.127  26.066  33.865  1.00  0.00     0.037 A 
ATOM     62  C   UNL A   1      42.847  30.601  35.809  1.00  0.00     0.049 A 
ATOM     63  C   UNL A   1      46.938  26.835  35.151  1.00  0.00     0.074 A 
ATOM     64  C   UNL A   1      42.718  31.169  37.064  1.00  0.00     0.029 A 
ATOM     65  N   UNL A   1      43.925  29.731  35.873  1.00  0.00    -0.354 N 
ATOM     66  N   UNL A   1      46.026  27.724  35.462  1.00  0.00    -0.248 NA
ATOM     67  C   UNL A   1      47.896  26.562  36.231  1.00  0.00     0.031 C 
ATOM     68  C   UNL A   1      43.757  30.692  37.868  1.00  0.00     0.029 A 
ATOM     69  C   UNL A   1      44.491  29.771  37.137  1.00  0.00     0.049 A 
ATOM     70  H   UNL A   1      44.242  29.169  35.130  1.00  0.00     0.167 HD
ATOM     71  C   UNL A   1      46.278  28.089  36.779  1.00  0.00     0.074 A 
ATOM     72  C   UNL A   1      47.419  27.312  37.214  1.00  0.00     0.031 C 
ATOM     73  C   UNL A   1      45.623  28.986  37.559  1.00  0.00     0.037 A 
BRANCH  60  74
ATOM     74  C   UNL A   1      40.952  31.856  34.704  1.00  0.00     0.064 A 
ATOM     75  C   UNL A   1      39.639  31.502  35.050  1.00  0.00     0.173 A 
ATOM     76  C   UNL A   1      41.220  33.209  34.449  1.00  0.00     0.173 A 
ATOM     77  F   UNL A   1      39.324  30.220  35.288  1.00  0.00    -0.203 F 
ATOM     78  C   UNL A   1      38.631  32.462  35.110  1.00  0.00     0.198 A 
ATOM     79  C   UNL A   1      40.218  34.171  34.543  1.00  0.00     0.198 A 
ATOM     80  F   UNL A   1      42.459  33.602  34.115  1.00  0.00    -0.203 F 
ATOM     81  F   UNL A   1      37.373  32.093  35.390  1.00  0.00    -0.200 F 
ATOM     82  C   UNL A   1      38.923  33.795  34.865  1.00  0.00     0.200 A 
ATOM     83  F   UNL A   1      40.505  35.460  34.320  1.00  0.00    -0.200 F 
ATOM     84  F   UNL A   1      37.954  34.718  34.932  1.00  0.00    -0.200 F 
ENDBRANCH  60  74
BRANCH  61  85
ATOM     85  C   UNL A   1      48.229  25.076  33.731  1.00  0.00     0.064 A 
ATOM     86  C   UNL A   1      49.405  25.390  33.036  1.00  0.00     0.173 A 
ATOM     87  C   UNL A   1      48.116  23.785  34.269  1.00  0.00     0.173 A 
ATOM     88  F   UNL A   1      49.551  26.601  32.480  1.00  0.00    -0.203 F 
ATOM     89  C   UNL A   1      50.414  24.444  32.862  1.00  0.00     0.198 A 
ATOM     90  C   UNL A   1      49.140  22.851  34.124  1.00  0.00     0.198 A 
ATOM     91  F   UNL A   1      47.011  23.431  34.941  1.00  0.00    -0.203 F 
ATOM     92  F   UNL A   1      51.502  24.753  32.143  1.00  0.00    -0.200 F 
ATOM     93  C   UNL A   1      50.283  23.178  33.411  1.00  0.00     0.200 A 
ATOM     94  F   UNL A   1      49.016  21.634  34.670  1.00  0.00    -0.200 F 
ATOM     95  F   UNL A   1      51.254  22.269  33.246  1.00  0.00    -0.200 F 
ENDBRANCH  61  85
BRANCH  73  96
ATOM     96  C   UNL A   1      46.094  29.143  38.980  1.00  0.00     0.064 A 
ATOM     97  C   UNL A   1      45.710  28.251  39.993  1.00  0.00     0.173 A 
ATOM     98  C   UNL A   1      46.971  30.184  39.323  1.00  0.00     0.173 A 
ATOM     99  F   UNL A   1      44.865  27.245  39.722  1.00  0.00    -0.203 F 
ATOM    100  C   UNL A   1      46.158  28.417  41.301  1.00  0.00     0.198 A 
ATOM    101  C   UNL A   1      47.447  30.325  40.624  1.00  0.00     0.198 A 
ATOM    102  F   UNL A   1      47.379  31.061  38.393  1.00  0.00    -0.203 F 
ATOM    103  F   UNL A   1      45.730  27.589  42.263  1.00  0.00    -0.200 F 
ATOM    104  C   UNL A   1      47.031  29.448  41.615  1.00  0.00     0.200 A 
ATOM    105  F   UNL A   1      48.305  31.310  40.920  1.00  0.00    -0.200 F 
ATOM    106  F   UNL A   1      47.466  29.602  42.873  1.00  0.00    -0.200 F 
ENDBRANCH  73  96
ENDBRANCH  47  48
ENDBRANCH  40  42
ENDBRANCH  39  40
ENDBRANCH  38  39
ENDBRANCH  37  38
ENDBRANCH  36  37
ENDBRANCH  35  36
ENDBRANCH  34  35
ENDBRANCH  33  34
ENDBRANCH  32  33
ENDBRANCH   1  32
TORSDOF 27
ENDMDL
