MODEL 1
REMARK VINA RESULT:     -10.1      0.000      0.000
REMARK SMILES COc1ccc2c(c1)[C@H]([NH2+][C@@H](C(=O)OCCOCCOCCOCCOC(=O)c1ccc(-c3c4nc(c(-c5c(F)c(F)c(F)c(F)c5F)c5ccc([nH]5)c(-c5c(F)c(F)c(F)c(F)c5F)c5nc(c(-c6c(F)c(F)c(F)c(F)c6F)c6ccc3[nH]6)C=C5)C=C4)cc1)C1CC1)CC2
REMARK SMILES IDX 19 1 18 2 17 3 16 4 15 5 14 6 12 7 13 8 11 9 10 10 9 13 3 14
REMARK SMILES IDX 4 15 8 16 5 17 7 18 6 19 96 20 95 21 2 22 1 23 92 24 93 25
REMARK SMILES IDX 94 26 20 27 21 28 22 29 23 30 24 31 25 32 26 33 27 34 28 35
REMARK SMILES IDX 29 36 30 37 91 38 31 39 90 40 32 41 33 42 34 43 84 44 35 45
REMARK SMILES IDX 89 46 83 47 85 48 36 49 88 50 82 51 81 52 37 54 69 55 49 56
REMARK SMILES IDX 68 57 50 58 53 59 67 60 86 61 51 62 52 63 66 65 87 66 54 67
REMARK SMILES IDX 38 68 39 69 47 70 40 71 41 72 45 73 48 74 42 75 43 76 46 77
REMARK SMILES IDX 44 78 70 79 71 80 79 81 72 82 73 83 77 84 80 85 74 86 75 87
REMARK SMILES IDX 78 88 76 89 55 90 56 91 64 92 57 93 58 94 62 95 65 96 59 97
REMARK SMILES IDX 60 98 63 99 61 100
REMARK H PARENT 10 11 10 12 85 53 53 64
REMARK Flexibility Score: inf
ROOT
ATOM      1  C   UNL A   1      33.587  31.411  27.771  1.00  0.00     0.188 C 
ENDROOT
BRANCH   1   2
ATOM      2  C   UNL A   1      34.827  30.518  27.659  1.00  0.00     0.188 C 
BRANCH   2   3
ATOM      3  O   UNL A   1      34.861  29.645  26.555  1.00  0.00    -0.376 OA
BRANCH   3   4
ATOM      4  C   UNL A   1      34.108  28.444  26.551  1.00  0.00     0.202 C 
BRANCH   4   5
ATOM      5  C   UNL A   1      33.518  27.718  25.320  1.00  0.00     0.261 C 
BRANCH   5   6
ATOM      6  O   UNL A   1      33.749  28.257  24.017  1.00  0.00    -0.459 OA
BRANCH   6   7
ATOM      7  C   UNL A   1      33.528  27.425  22.962  1.00  0.00     0.365 C 
ATOM      8  O   UNL A   1      33.995  27.619  21.843  1.00  0.00    -0.245 OA
BRANCH   7   9
ATOM      9  C   UNL A   1      32.634  26.208  23.318  1.00  0.00     0.297 C 
BRANCH   9  10
ATOM     10  N   UNL A   1      33.261  24.902  23.012  1.00  0.00    -0.328 N 
ATOM     11  H   UNL A   1      32.494  24.245  22.865  1.00  0.00     0.347 HD
ATOM     12  H   UNL A   1      33.871  25.137  22.228  1.00  0.00     0.347 HD
BRANCH  10  13
ATOM     13  C   UNL A   1      34.184  24.252  23.931  1.00  0.00     0.215 C 
ATOM     14  C   UNL A   1      31.760  21.856  25.567  1.00  0.00     0.119 A 
ATOM     15  C   UNL A   1      32.520  20.683  25.454  1.00  0.00     0.047 A 
ATOM     16  C   UNL A   1      32.307  23.081  25.225  1.00  0.00     0.056 A 
ATOM     17  C   UNL A   1      33.845  20.734  24.994  1.00  0.00     0.008 A 
ATOM     18  C   UNL A   1      33.571  23.099  24.658  1.00  0.00     0.016 A 
ATOM     19  C   UNL A   1      34.355  21.952  24.577  1.00  0.00    -0.038 A 
ATOM     20  C   UNL A   1      35.691  22.261  23.984  1.00  0.00     0.042 C 
ATOM     21  C   UNL A   1      35.458  23.628  23.314  1.00  0.00     0.075 C 
BRANCH  14  22
ATOM     22  O   UNL A   1      30.417  21.868  25.818  1.00  0.00    -0.497 OA
ATOM     23  C   UNL A   1      30.052  22.760  26.858  1.00  0.00     0.278 C 
ENDBRANCH  14  22
ENDBRANCH  10  13
ENDBRANCH   9  10
BRANCH   9  24
ATOM     24  C   UNL A   1      31.166  26.354  22.965  1.00  0.00     0.059 C 
ATOM     25  C   UNL A   1      30.048  26.408  23.994  1.00  0.00     0.011 C 
ATOM     26  C   UNL A   1      30.314  27.598  23.131  1.00  0.00     0.011 C 
ENDBRANCH   9  24
ENDBRANCH   7   9
ENDBRANCH   6   7
ENDBRANCH   5   6
ENDBRANCH   4   5
ENDBRANCH   3   4
ENDBRANCH   2   3
ENDBRANCH   1   2
BRANCH   1  27
ATOM     27  O   UNL A   1      33.814  32.796  27.601  1.00  0.00    -0.377 OA
BRANCH  27  28
ATOM     28  C   UNL A   1      34.584  33.469  28.593  1.00  0.00     0.188 C 
BRANCH  28  29
ATOM     29  C   UNL A   1      34.370  33.185  30.099  1.00  0.00     0.188 C 
BRANCH  29  30
ATOM     30  O   UNL A   1      33.856  34.266  30.860  1.00  0.00    -0.376 OA
BRANCH  30  31
ATOM     31  C   UNL A   1      34.362  34.513  32.162  1.00  0.00     0.202 C 
BRANCH  31  32
ATOM     32  C   UNL A   1      34.345  33.362  33.183  1.00  0.00     0.261 C 
BRANCH  32  33
ATOM     33  O   UNL A   1      35.216  32.256  32.905  1.00  0.00    -0.460 OA
BRANCH  33  34
ATOM     34  C   UNL A   1      36.427  32.252  33.505  1.00  0.00     0.338 C 
ATOM     35  O   UNL A   1      36.690  32.598  34.637  1.00  0.00    -0.246 OA
BRANCH  34  36
ATOM     36  C   UNL A   1      37.365  31.538  32.609  1.00  0.00     0.060 A 
ATOM     37  C   UNL A   1      38.393  30.784  33.188  1.00  0.00     0.016 A 
ATOM     38  C   UNL A   1      37.228  31.605  31.221  1.00  0.00     0.016 A 
ATOM     39  C   UNL A   1      39.311  30.121  32.378  1.00  0.00     0.010 A 
ATOM     40  C   UNL A   1      38.169  30.963  30.409  1.00  0.00     0.010 A 
ATOM     41  C   UNL A   1      39.233  30.249  30.986  1.00  0.00    -0.014 A 
BRANCH  41  42
ATOM     42  C   UNL A   1      40.383  29.803  30.166  1.00  0.00     0.031 A 
ATOM     43  C   UNL A   1      41.513  30.768  29.932  1.00  0.00     0.074 A 
ATOM     44  C   UNL A   1      40.459  28.544  29.699  1.00  0.00     0.049 A 
ATOM     45  N   UNL A   1      42.630  30.602  29.271  1.00  0.00    -0.248 NA
ATOM     46  C   UNL A   1      41.361  32.105  30.529  1.00  0.00     0.031 C 
ATOM     47  C   UNL A   1      39.450  27.507  29.900  1.00  0.00     0.029 A 
ATOM     48  N   UNL A   1      41.436  27.928  28.959  1.00  0.00    -0.354 N 
ATOM     49  C   UNL A   1      43.310  31.808  29.372  1.00  0.00     0.074 A 
ATOM     50  C   UNL A   1      42.468  32.710  30.128  1.00  0.00     0.031 C 
ATOM     51  C   UNL A   1      39.858  26.380  29.290  1.00  0.00     0.029 A 
ATOM     52  C   UNL A   1      41.140  26.627  28.633  1.00  0.00     0.049 A 
ATOM     53  H   UNL A   1      42.271  28.375  28.687  1.00  0.00     0.167 HD
ATOM     54  C   UNL A   1      44.532  32.130  28.887  1.00  0.00     0.037 A 
ATOM     55  C   UNL A   1      41.822  25.748  27.872  1.00  0.00     0.037 A 
ATOM     56  C   UNL A   1      45.364  31.231  28.133  1.00  0.00     0.049 A 
ATOM     57  C   UNL A   1      43.147  26.159  27.280  1.00  0.00     0.074 A 
ATOM     58  C   UNL A   1      46.626  31.456  27.611  1.00  0.00     0.029 A 
ATOM     59  N   UNL A   1      45.011  29.936  27.781  1.00  0.00    -0.354 N 
ATOM     60  N   UNL A   1      43.799  27.290  27.406  1.00  0.00    -0.248 NA
ATOM     61  C   UNL A   1      43.835  25.164  26.446  1.00  0.00     0.031 C 
ATOM     62  C   UNL A   1      47.009  30.321  26.888  1.00  0.00     0.029 A 
ATOM     63  C   UNL A   1      46.017  29.362  27.019  1.00  0.00     0.049 A 
ATOM     64  H   UNL A   1      44.171  29.491  28.035  1.00  0.00     0.167 HD
ATOM     65  C   UNL A   1      44.981  27.133  26.692  1.00  0.00     0.074 A 
ATOM     66  C   UNL A   1      44.968  25.787  26.160  1.00  0.00     0.031 C 
ATOM     67  C   UNL A   1      45.988  28.021  26.491  1.00  0.00     0.037 A 
BRANCH  54  68
ATOM     68  C   UNL A   1      45.027  33.528  29.124  1.00  0.00     0.064 A 
ATOM     69  C   UNL A   1      45.820  33.856  30.235  1.00  0.00     0.173 A 
ATOM     70  C   UNL A   1      44.737  34.547  28.204  1.00  0.00     0.173 A 
ATOM     71  F   UNL A   1      46.113  32.925  31.156  1.00  0.00    -0.203 F 
ATOM     72  C   UNL A   1      46.282  35.156  30.428  1.00  0.00     0.198 A 
ATOM     73  C   UNL A   1      45.228  35.837  28.382  1.00  0.00     0.198 A 
ATOM     74  F   UNL A   1      43.983  34.288  27.124  1.00  0.00    -0.203 F 
ATOM     75  F   UNL A   1      46.996  35.458  31.521  1.00  0.00    -0.200 F 
ATOM     76  C   UNL A   1      45.993  36.143  29.496  1.00  0.00     0.200 A 
ATOM     77  F   UNL A   1      44.959  36.785  27.474  1.00  0.00    -0.200 F 
ATOM     78  F   UNL A   1      46.449  37.391  29.676  1.00  0.00    -0.200 F 
ENDBRANCH  54  68
BRANCH  55  79
ATOM     79  C   UNL A   1      41.259  24.397  27.604  1.00  0.00     0.064 A 
ATOM     80  C   UNL A   1      41.830  23.246  28.164  1.00  0.00     0.173 A 
ATOM     81  C   UNL A   1      40.158  24.227  26.750  1.00  0.00     0.173 A 
ATOM     82  F   UNL A   1      42.901  23.350  28.964  1.00  0.00    -0.203 F 
ATOM     83  C   UNL A   1      41.341  21.976  27.857  1.00  0.00     0.198 A 
ATOM     84  C   UNL A   1      39.648  22.961  26.473  1.00  0.00     0.198 A 
ATOM     85  F   UNL A   1      39.576  25.296  26.185  1.00  0.00    -0.203 F 
ATOM     86  F   UNL A   1      41.946  20.890  28.356  1.00  0.00    -0.200 F 
ATOM     87  C   UNL A   1      40.247  21.836  27.016  1.00  0.00     0.200 A 
ATOM     88  F   UNL A   1      38.584  22.832  25.670  1.00  0.00    -0.200 F 
ATOM     89  F   UNL A   1      39.778  20.616  26.722  1.00  0.00    -0.200 F 
ENDBRANCH  55  79
BRANCH  67  90
ATOM     90  C   UNL A   1      47.170  27.552  25.688  1.00  0.00     0.064 A 
ATOM     91  C   UNL A   1      48.275  26.931  26.291  1.00  0.00     0.173 A 
ATOM     92  C   UNL A   1      47.193  27.715  24.294  1.00  0.00     0.173 A 
ATOM     93  F   UNL A   1      48.310  26.759  27.621  1.00  0.00    -0.203 F 
ATOM     94  C   UNL A   1      49.376  26.535  25.535  1.00  0.00     0.198 A 
ATOM     95  C   UNL A   1      48.279  27.282  23.537  1.00  0.00     0.198 A 
ATOM     96  F   UNL A   1      46.159  28.291  23.662  1.00  0.00    -0.203 F 
ATOM     97  F   UNL A   1      50.448  26.010  26.143  1.00  0.00    -0.200 F 
ATOM     98  C   UNL A   1      49.375  26.705  24.160  1.00  0.00     0.200 A 
ATOM     99  F   UNL A   1      48.267  27.430  22.205  1.00  0.00    -0.200 F 
ATOM    100  F   UNL A   1      50.435  26.325  23.434  1.00  0.00    -0.200 F 
ENDBRANCH  67  90
ENDBRANCH  41  42
ENDBRANCH  34  36
ENDBRANCH  33  34
ENDBRANCH  32  33
ENDBRANCH  31  32
ENDBRANCH  30  31
ENDBRANCH  29  30
ENDBRANCH  28  29
ENDBRANCH  27  28
ENDBRANCH   1  27
TORSDOF 24
ENDMDL
MODEL 2
REMARK VINA RESULT:      -9.3      4.849      9.214
REMARK SMILES COc1ccc2c(c1)[C@H]([NH2+][C@@H](C(=O)OCCOCCOCCOCCOC(=O)c1ccc(-c3c4nc(c(-c5c(F)c(F)c(F)c(F)c5F)c5ccc([nH]5)c(-c5c(F)c(F)c(F)c(F)c5F)c5nc(c(-c6c(F)c(F)c(F)c(F)c6F)c6ccc3[nH]6)C=C5)C=C4)cc1)C1CC1)CC2
REMARK SMILES IDX 19 1 18 2 17 3 16 4 15 5 14 6 12 7 13 8 11 9 10 10 9 13 3 14
REMARK SMILES IDX 4 15 8 16 5 17 7 18 6 19 96 20 95 21 2 22 1 23 92 24 93 25
REMARK SMILES IDX 94 26 20 27 21 28 22 29 23 30 24 31 25 32 26 33 27 34 28 35
REMARK SMILES IDX 29 36 30 37 91 38 31 39 90 40 32 41 33 42 34 43 84 44 35 45
REMARK SMILES IDX 89 46 83 47 85 48 36 49 88 50 82 51 81 52 37 54 69 55 49 56
REMARK SMILES IDX 68 57 50 58 53 59 67 60 86 61 51 62 52 63 66 65 87 66 54 67
REMARK SMILES IDX 38 68 39 69 47 70 40 71 41 72 45 73 48 74 42 75 43 76 46 77
REMARK SMILES IDX 44 78 70 79 71 80 79 81 72 82 73 83 77 84 80 85 74 86 75 87
REMARK SMILES IDX 78 88 76 89 55 90 56 91 64 92 57 93 58 94 62 95 65 96 59 97
REMARK SMILES IDX 60 98 63 99 61 100
REMARK H PARENT 10 11 10 12 85 53 53 64
REMARK Flexibility Score: inf
ROOT
ATOM      1  C   UNL A   1      35.042  30.180  28.028  1.00  0.00     0.188 C 
ENDROOT
BRANCH   1   2
ATOM      2  C   UNL A   1      34.035  30.333  26.883  1.00  0.00     0.188 C 
BRANCH   2   3
ATOM      3  O   UNL A   1      32.685  30.458  27.261  1.00  0.00    -0.376 OA
BRANCH   3   4
ATOM      4  C   UNL A   1      31.837  29.324  27.324  1.00  0.00     0.202 C 
BRANCH   4   5
ATOM      5  C   UNL A   1      32.219  27.857  27.016  1.00  0.00     0.261 C 
BRANCH   5   6
ATOM      6  O   UNL A   1      31.311  27.043  26.271  1.00  0.00    -0.459 OA
BRANCH   6   7
ATOM      7  C   UNL A   1      31.296  27.220  24.921  1.00  0.00     0.365 C 
ATOM      8  O   UNL A   1      30.489  27.945  24.346  1.00  0.00    -0.245 OA
BRANCH   7   9
ATOM      9  C   UNL A   1      32.404  26.420  24.186  1.00  0.00     0.297 C 
BRANCH   9  10
ATOM     10  N   UNL A   1      32.748  25.139  24.846  1.00  0.00    -0.328 N 
ATOM     11  H   UNL A   1      33.756  25.027  24.743  1.00  0.00     0.347 HD
ATOM     12  H   UNL A   1      32.356  25.269  25.779  1.00  0.00     0.347 HD
BRANCH  10  13
ATOM     13  C   UNL A   1      32.153  23.875  24.440  1.00  0.00     0.215 C 
ATOM     14  C   UNL A   1      35.282  21.754  24.432  1.00  0.00     0.119 A 
ATOM     15  C   UNL A   1      34.798  20.668  25.175  1.00  0.00     0.047 A 
ATOM     16  C   UNL A   1      34.426  22.765  24.030  1.00  0.00     0.056 A 
ATOM     17  C   UNL A   1      33.440  20.589  25.521  1.00  0.00     0.008 A 
ATOM     18  C   UNL A   1      33.118  22.734  24.483  1.00  0.00     0.016 A 
ATOM     19  C   UNL A   1      32.609  21.645  25.184  1.00  0.00    -0.038 A 
ATOM     20  C   UNL A   1      31.161  21.840  25.496  1.00  0.00     0.042 C 
ATOM     21  C   UNL A   1      30.971  23.355  25.292  1.00  0.00     0.075 C 
BRANCH  14  22
ATOM     22  O   UNL A   1      36.610  21.999  24.227  1.00  0.00    -0.497 OA
ATOM     23  C   UNL A   1      36.863  22.745  23.047  1.00  0.00     0.278 C 
ENDBRANCH  14  22
ENDBRANCH  10  13
ENDBRANCH   9  10
BRANCH   9  24
ATOM     24  C   UNL A   1      33.565  27.245  23.664  1.00  0.00     0.059 C 
ATOM     25  C   UNL A   1      33.680  27.734  22.230  1.00  0.00     0.011 C 
ATOM     26  C   UNL A   1      33.547  28.727  23.337  1.00  0.00     0.011 C 
ENDBRANCH   9  24
ENDBRANCH   7   9
ENDBRANCH   6   7
ENDBRANCH   5   6
ENDBRANCH   4   5
ENDBRANCH   3   4
ENDBRANCH   2   3
ENDBRANCH   1   2
BRANCH   1  27
ATOM     27  O   UNL A   1      35.445  31.384  28.652  1.00  0.00    -0.377 OA
BRANCH  27  28
ATOM     28  C   UNL A   1      34.504  32.453  28.700  1.00  0.00     0.188 C 
BRANCH  28  29
ATOM     29  C   UNL A   1      34.750  33.769  27.926  1.00  0.00     0.188 C 
BRANCH  29  30
ATOM     30  O   UNL A   1      34.902  34.932  28.725  1.00  0.00    -0.376 OA
BRANCH  30  31
ATOM     31  C   UNL A   1      33.859  35.893  28.773  1.00  0.00     0.202 C 
BRANCH  31  32
ATOM     32  C   UNL A   1      32.718  35.684  29.783  1.00  0.00     0.261 C 
BRANCH  32  33
ATOM     33  O   UNL A   1      32.901  36.278  31.077  1.00  0.00    -0.460 OA
BRANCH  33  34
ATOM     34  C   UNL A   1      32.787  35.471  32.154  1.00  0.00     0.338 C 
ATOM     35  O   UNL A   1      31.782  35.222  32.786  1.00  0.00    -0.246 OA
BRANCH  34  36
ATOM     36  C   UNL A   1      34.072  34.753  32.311  1.00  0.00     0.060 A 
ATOM     37  C   UNL A   1      34.039  33.404  32.686  1.00  0.00     0.016 A 
ATOM     38  C   UNL A   1      35.290  35.397  32.083  1.00  0.00     0.016 A 
ATOM     39  C   UNL A   1      35.229  32.704  32.870  1.00  0.00     0.010 A 
ATOM     40  C   UNL A   1      36.484  34.701  32.297  1.00  0.00     0.010 A 
ATOM     41  C   UNL A   1      36.456  33.362  32.726  1.00  0.00    -0.014 A 
BRANCH  41  42
ATOM     42  C   UNL A   1      37.682  32.696  33.223  1.00  0.00     0.031 A 
ATOM     43  C   UNL A   1      38.347  31.674  32.343  1.00  0.00     0.074 A 
ATOM     44  C   UNL A   1      38.235  33.043  34.398  1.00  0.00     0.049 A 
ATOM     45  N   UNL A   1      39.436  30.978  32.548  1.00  0.00    -0.248 NA
ATOM     46  C   UNL A   1      37.695  31.402  31.051  1.00  0.00     0.031 C 
ATOM     47  C   UNL A   1      37.708  34.051  35.315  1.00  0.00     0.029 A 
ATOM     48  N   UNL A   1      39.368  32.580  35.018  1.00  0.00    -0.354 N 
ATOM     49  C   UNL A   1      39.597  30.188  31.417  1.00  0.00     0.074 A 
ATOM     50  C   UNL A   1      38.478  30.464  30.542  1.00  0.00     0.031 C 
ATOM     51  C   UNL A   1      38.516  34.127  36.388  1.00  0.00     0.029 A 
ATOM     52  C   UNL A   1      39.596  33.153  36.245  1.00  0.00     0.049 A 
ATOM     53  H   UNL A   1      39.963  31.902  34.621  1.00  0.00     0.167 HD
ATOM     54  C   UNL A   1      40.595  29.320  31.130  1.00  0.00     0.037 A 
ATOM     55  C   UNL A   1      40.559  32.900  37.154  1.00  0.00     0.037 A 
ATOM     56  C   UNL A   1      41.705  29.047  32.005  1.00  0.00     0.049 A 
ATOM     57  C   UNL A   1      41.616  31.872  36.839  1.00  0.00     0.074 A 
ATOM     58  C   UNL A   1      42.777  28.196  31.798  1.00  0.00     0.029 A 
ATOM     59  N   UNL A   1      41.878  29.611  33.260  1.00  0.00    -0.354 N 
ATOM     60  N   UNL A   1      41.781  31.152  35.755  1.00  0.00    -0.248 NA
ATOM     61  C   UNL A   1      42.629  31.628  37.877  1.00  0.00     0.031 C 
ATOM     62  C   UNL A   1      43.563  28.196  32.955  1.00  0.00     0.029 A 
ATOM     63  C   UNL A   1      43.021  29.100  33.855  1.00  0.00     0.049 A 
ATOM     64  H   UNL A   1      41.278  30.276  33.669  1.00  0.00     0.167 HD
ATOM     65  C   UNL A   1      42.926  30.393  35.968  1.00  0.00     0.074 A 
ATOM     66  C   UNL A   1      43.431  30.762  37.274  1.00  0.00     0.031 C 
ATOM     67  C   UNL A   1      43.509  29.473  35.159  1.00  0.00     0.037 A 
BRANCH  54  68
ATOM     68  C   UNL A   1      40.513  28.572  29.830  1.00  0.00     0.064 A 
ATOM     69  C   UNL A   1      41.198  29.001  28.682  1.00  0.00     0.173 A 
ATOM     70  C   UNL A   1      39.768  27.386  29.742  1.00  0.00     0.173 A 
ATOM     71  F   UNL A   1      41.910  30.138  28.705  1.00  0.00    -0.203 F 
ATOM     72  C   UNL A   1      41.120  28.283  27.491  1.00  0.00     0.198 A 
ATOM     73  C   UNL A   1      39.720  26.654  28.560  1.00  0.00     0.198 A 
ATOM     74  F   UNL A   1      39.094  26.931  30.810  1.00  0.00    -0.203 F 
ATOM     75  F   UNL A   1      41.743  28.737  26.394  1.00  0.00    -0.200 F 
ATOM     76  C   UNL A   1      40.389  27.106  27.434  1.00  0.00     0.200 A 
ATOM     77  F   UNL A   1      39.024  25.510  28.512  1.00  0.00    -0.200 F 
ATOM     78  F   UNL A   1      40.325  26.409  26.290  1.00  0.00    -0.200 F 
ENDBRANCH  54  68
BRANCH  55  79
ATOM     79  C   UNL A   1      40.560  33.614  38.459  1.00  0.00     0.064 A 
ATOM     80  C   UNL A   1      39.678  33.255  39.487  1.00  0.00     0.173 A 
ATOM     81  C   UNL A   1      41.421  34.698  38.692  1.00  0.00     0.173 A 
ATOM     82  F   UNL A   1      38.815  32.244  39.307  1.00  0.00    -0.203 F 
ATOM     83  C   UNL A   1      39.635  33.968  40.684  1.00  0.00     0.198 A 
ATOM     84  C   UNL A   1      41.403  35.388  39.901  1.00  0.00     0.198 A 
ATOM     85  F   UNL A   1      42.283  35.087  37.740  1.00  0.00    -0.203 F 
ATOM     86  F   UNL A   1      38.739  33.642  41.624  1.00  0.00    -0.200 F 
ATOM     87  C   UNL A   1      40.502  35.031  40.892  1.00  0.00     0.200 A 
ATOM     88  F   UNL A   1      42.251  36.406  40.101  1.00  0.00    -0.200 F 
ATOM     89  F   UNL A   1      40.461  35.717  42.042  1.00  0.00    -0.200 F 
ENDBRANCH  55  79
BRANCH  67  90
ATOM     90  C   UNL A   1      44.773  28.825  35.652  1.00  0.00     0.064 A 
ATOM     91  C   UNL A   1      44.753  27.642  36.407  1.00  0.00     0.173 A 
ATOM     92  C   UNL A   1      46.025  29.389  35.356  1.00  0.00     0.173 A 
ATOM     93  F   UNL A   1      43.585  27.065  36.728  1.00  0.00    -0.203 F 
ATOM     94  C   UNL A   1      45.932  27.075  36.885  1.00  0.00     0.198 A 
ATOM     95  C   UNL A   1      47.204  28.798  35.802  1.00  0.00     0.198 A 
ATOM     96  F   UNL A   1      46.105  30.513  34.628  1.00  0.00    -0.203 F 
ATOM     97  F   UNL A   1      45.882  25.986  37.664  1.00  0.00    -0.200 F 
ATOM     98  C   UNL A   1      47.156  27.650  36.578  1.00  0.00     0.200 A 
ATOM     99  F   UNL A   1      48.386  29.344  35.487  1.00  0.00    -0.200 F 
ATOM    100  F   UNL A   1      48.290  27.104  37.039  1.00  0.00    -0.200 F 
ENDBRANCH  67  90
ENDBRANCH  41  42
ENDBRANCH  34  36
ENDBRANCH  33  34
ENDBRANCH  32  33
ENDBRANCH  31  32
ENDBRANCH  30  31
ENDBRANCH  29  30
ENDBRANCH  28  29
ENDBRANCH  27  28
ENDBRANCH   1  27
TORSDOF 24
ENDMDL
MODEL 3
REMARK VINA RESULT:      -9.2      4.684      7.134
REMARK SMILES COc1ccc2c(c1)[C@H]([NH2+][C@@H](C(=O)OCCOCCOCCOCCOC(=O)c1ccc(-c3c4nc(c(-c5c(F)c(F)c(F)c(F)c5F)c5ccc([nH]5)c(-c5c(F)c(F)c(F)c(F)c5F)c5nc(c(-c6c(F)c(F)c(F)c(F)c6F)c6ccc3[nH]6)C=C5)C=C4)cc1)C1CC1)CC2
REMARK SMILES IDX 19 1 18 2 17 3 16 4 15 5 14 6 12 7 13 8 11 9 10 10 9 13 3 14
REMARK SMILES IDX 4 15 8 16 5 17 7 18 6 19 96 20 95 21 2 22 1 23 92 24 93 25
REMARK SMILES IDX 94 26 20 27 21 28 22 29 23 30 24 31 25 32 26 33 27 34 28 35
REMARK SMILES IDX 29 36 30 37 91 38 31 39 90 40 32 41 33 42 34 43 84 44 35 45
REMARK SMILES IDX 89 46 83 47 85 48 36 49 88 50 82 51 81 52 37 54 69 55 49 56
REMARK SMILES IDX 68 57 50 58 53 59 67 60 86 61 51 62 52 63 66 65 87 66 54 67
REMARK SMILES IDX 38 68 39 69 47 70 40 71 41 72 45 73 48 74 42 75 43 76 46 77
REMARK SMILES IDX 44 78 70 79 71 80 79 81 72 82 73 83 77 84 80 85 74 86 75 87
REMARK SMILES IDX 78 88 76 89 55 90 56 91 64 92 57 93 58 94 62 95 65 96 59 97
REMARK SMILES IDX 60 98 63 99 61 100
REMARK H PARENT 10 11 10 12 85 53 53 64
REMARK Flexibility Score: inf
ROOT
ATOM      1  C   UNL A   1      34.841  30.318  27.898  1.00  0.00     0.188 C 
ENDROOT
BRANCH   1   2
ATOM      2  C   UNL A   1      33.678  30.461  26.910  1.00  0.00     0.188 C 
BRANCH   2   3
ATOM      3  O   UNL A   1      32.408  30.099  27.396  1.00  0.00    -0.376 OA
BRANCH   3   4
ATOM      4  C   UNL A   1      31.849  28.830  27.103  1.00  0.00     0.202 C 
BRANCH   4   5
ATOM      5  C   UNL A   1      32.524  27.669  26.335  1.00  0.00     0.261 C 
BRANCH   5   6
ATOM      6  O   UNL A   1      32.110  26.327  26.597  1.00  0.00    -0.459 OA
BRANCH   6   7
ATOM      7  C   UNL A   1      31.023  25.876  25.911  1.00  0.00     0.365 C 
ATOM      8  O   UNL A   1      29.899  25.810  26.400  1.00  0.00    -0.245 OA
BRANCH   7   9
ATOM      9  C   UNL A   1      31.348  25.463  24.451  1.00  0.00     0.297 C 
BRANCH   9  10
ATOM     10  N   UNL A   1      32.132  24.211  24.350  1.00  0.00    -0.328 N 
ATOM     11  H   UNL A   1      31.489  23.452  24.577  1.00  0.00     0.347 HD
ATOM     12  H   UNL A   1      32.512  24.273  23.404  1.00  0.00     0.347 HD
BRANCH  10  13
ATOM     13  C   UNL A   1      33.331  23.981  25.143  1.00  0.00     0.215 C 
ATOM     14  C   UNL A   1      33.211  20.205  25.268  1.00  0.00     0.119 A 
ATOM     15  C   UNL A   1      34.539  19.943  24.901  1.00  0.00     0.047 A 
ATOM     16  C   UNL A   1      32.793  21.502  25.510  1.00  0.00     0.056 A 
ATOM     17  C   UNL A   1      35.463  20.992  24.776  1.00  0.00     0.008 A 
ATOM     18  C   UNL A   1      33.684  22.533  25.263  1.00  0.00     0.016 A 
ATOM     19  C   UNL A   1      35.016  22.292  24.940  1.00  0.00    -0.038 A 
ATOM     20  C   UNL A   1      35.769  23.573  24.790  1.00  0.00     0.042 C 
ATOM     21  C   UNL A   1      34.644  24.611  24.622  1.00  0.00     0.075 C 
BRANCH  14  22
ATOM     22  O   UNL A   1      32.214  19.271  25.221  1.00  0.00    -0.497 OA
ATOM     23  C   UNL A   1      32.442  18.261  24.253  1.00  0.00     0.278 C 
ENDBRANCH  14  22
ENDBRANCH  10  13
ENDBRANCH   9  10
BRANCH   9  24
ATOM     24  C   UNL A   1      31.760  26.596  23.531  1.00  0.00     0.059 C 
ATOM     25  C   UNL A   1      31.492  26.613  22.035  1.00  0.00     0.011 C 
ATOM     26  C   UNL A   1      30.846  27.636  22.911  1.00  0.00     0.011 C 
ENDBRANCH   9  24
ENDBRANCH   7   9
ENDBRANCH   6   7
ENDBRANCH   5   6
ENDBRANCH   4   5
ENDBRANCH   3   4
ENDBRANCH   2   3
ENDBRANCH   1   2
BRANCH   1  27
ATOM     27  O   UNL A   1      35.323  31.526  28.453  1.00  0.00    -0.377 OA
BRANCH  27  28
ATOM     28  C   UNL A   1      34.383  32.573  28.681  1.00  0.00     0.188 C 
BRANCH  28  29
ATOM     29  C   UNL A   1      34.455  33.898  27.887  1.00  0.00     0.188 C 
BRANCH  29  30
ATOM     30  O   UNL A   1      34.605  35.074  28.666  1.00  0.00    -0.376 OA
BRANCH  30  31
ATOM     31  C   UNL A   1      33.514  35.971  28.804  1.00  0.00     0.202 C 
BRANCH  31  32
ATOM     32  C   UNL A   1      32.549  35.772  29.985  1.00  0.00     0.261 C 
BRANCH  32  33
ATOM     33  O   UNL A   1      32.919  36.406  31.219  1.00  0.00    -0.460 OA
BRANCH  33  34
ATOM     34  C   UNL A   1      32.894  35.649  32.338  1.00  0.00     0.338 C 
ATOM     35  O   UNL A   1      31.972  35.510  33.113  1.00  0.00    -0.246 OA
BRANCH  34  36
ATOM     36  C   UNL A   1      34.127  34.830  32.349  1.00  0.00     0.060 A 
ATOM     37  C   UNL A   1      34.053  33.525  32.851  1.00  0.00     0.016 A 
ATOM     38  C   UNL A   1      35.335  35.338  31.865  1.00  0.00     0.016 A 
ATOM     39  C   UNL A   1      35.198  32.734  32.903  1.00  0.00     0.010 A 
ATOM     40  C   UNL A   1      36.489  34.553  31.946  1.00  0.00     0.010 A 
ATOM     41  C   UNL A   1      36.430  33.261  32.498  1.00  0.00    -0.014 A 
BRANCH  41  42
ATOM     42  C   UNL A   1      37.667  32.526  32.849  1.00  0.00     0.031 A 
ATOM     43  C   UNL A   1      38.338  32.838  34.158  1.00  0.00     0.074 A 
ATOM     44  C   UNL A   1      38.146  31.551  32.056  1.00  0.00     0.049 A 
ATOM     45  N   UNL A   1      39.412  32.315  34.691  1.00  0.00    -0.248 NA
ATOM     46  C   UNL A   1      37.707  33.884  34.981  1.00  0.00     0.031 C 
ATOM     47  C   UNL A   1      37.557  31.129  30.788  1.00  0.00     0.029 A 
ATOM     48  N   UNL A   1      39.242  30.739  32.209  1.00  0.00    -0.354 N 
ATOM     49  C   UNL A   1      39.585  32.966  35.906  1.00  0.00     0.074 A 
ATOM     50  C   UNL A   1      38.528  33.946  36.018  1.00  0.00     0.031 C 
ATOM     51  C   UNL A   1      38.304  30.136  30.272  1.00  0.00     0.029 A 
ATOM     52  C   UNL A   1      39.437  29.877  31.159  1.00  0.00     0.049 A 
ATOM     53  H   UNL A   1      39.832  30.771  32.997  1.00  0.00     0.167 HD
ATOM     54  C   UNL A   1      40.535  32.756  36.847  1.00  0.00     0.037 A 
ATOM     55  C   UNL A   1      40.431  28.995  30.936  1.00  0.00     0.037 A 
ATOM     56  C   UNL A   1      41.587  31.781  36.730  1.00  0.00     0.049 A 
ATOM     57  C   UNL A   1      41.519  28.835  31.968  1.00  0.00     0.074 A 
ATOM     58  C   UNL A   1      42.588  31.480  37.637  1.00  0.00     0.029 A 
ATOM     59  N   UNL A   1      41.781  30.957  35.631  1.00  0.00    -0.354 N 
ATOM     60  N   UNL A   1      41.660  29.431  33.128  1.00  0.00    -0.248 NA
ATOM     61  C   UNL A   1      42.585  27.870  31.660  1.00  0.00     0.031 C 
ATOM     62  C   UNL A   1      43.427  30.521  37.058  1.00  0.00     0.029 A 
ATOM     63  C   UNL A   1      42.908  30.172  35.821  1.00  0.00     0.049 A 
ATOM     64  H   UNL A   1      41.205  30.934  34.833  1.00  0.00     0.167 HD
ATOM     65  C   UNL A   1      42.809  28.896  33.698  1.00  0.00     0.074 A 
ATOM     66  C   UNL A   1      43.311  27.907  32.767  1.00  0.00     0.031 C 
ATOM     67  C   UNL A   1      43.399  29.195  34.882  1.00  0.00     0.037 A 
BRANCH  54  68
ATOM     68  C   UNL A   1      40.502  33.624  38.073  1.00  0.00     0.064 A 
ATOM     69  C   UNL A   1      39.647  33.353  39.152  1.00  0.00     0.173 A 
ATOM     70  C   UNL A   1      41.369  34.722  38.185  1.00  0.00     0.173 A 
ATOM     71  F   UNL A   1      38.784  32.327  39.090  1.00  0.00    -0.203 F 
ATOM     72  C   UNL A   1      39.644  34.162  40.285  1.00  0.00     0.198 A 
ATOM     73  C   UNL A   1      41.388  35.509  39.333  1.00  0.00     0.198 A 
ATOM     74  F   UNL A   1      42.209  35.025  37.182  1.00  0.00    -0.203 F 
ATOM     75  F   UNL A   1      38.784  33.914  41.283  1.00  0.00    -0.200 F 
ATOM     76  C   UNL A   1      40.521  35.233  40.379  1.00  0.00     0.200 A 
ATOM     77  F   UNL A   1      42.245  36.534  39.425  1.00  0.00    -0.200 F 
ATOM     78  F   UNL A   1      40.526  36.004  41.475  1.00  0.00    -0.200 F 
ENDBRANCH  54  68
BRANCH  55  79
ATOM     79  C   UNL A   1      40.462  28.206  29.674  1.00  0.00     0.064 A 
ATOM     80  C   UNL A   1      41.267  28.592  28.593  1.00  0.00     0.173 A 
ATOM     81  C   UNL A   1      39.655  27.069  29.510  1.00  0.00     0.173 A 
ATOM     82  F   UNL A   1      42.035  29.687  28.688  1.00  0.00    -0.203 F 
ATOM     83  C   UNL A   1      41.242  27.890  27.389  1.00  0.00     0.198 A 
ATOM     84  C   UNL A   1      39.658  26.348  28.319  1.00  0.00     0.198 A 
ATOM     85  F   UNL A   1      38.863  26.659  30.511  1.00  0.00    -0.203 F 
ATOM     86  F   UNL A   1      41.975  28.318  26.352  1.00  0.00    -0.200 F 
ATOM     87  C   UNL A   1      40.442  26.765  27.255  1.00  0.00     0.200 A 
ATOM     88  F   UNL A   1      38.893  25.255  28.199  1.00  0.00    -0.200 F 
ATOM     89  F   UNL A   1      40.419  26.091  26.098  1.00  0.00    -0.200 F 
ENDBRANCH  55  79
BRANCH  67  90
ATOM     90  C   UNL A   1      44.635  28.421  35.251  1.00  0.00     0.064 A 
ATOM     91  C   UNL A   1      45.922  28.894  34.947  1.00  0.00     0.173 A 
ATOM     92  C   UNL A   1      44.533  27.195  35.927  1.00  0.00     0.173 A 
ATOM     93  F   UNL A   1      46.078  30.055  34.293  1.00  0.00    -0.203 F 
ATOM     94  C   UNL A   1      47.054  28.147  35.265  1.00  0.00     0.198 A 
ATOM     95  C   UNL A   1      45.669  26.470  36.278  1.00  0.00     0.198 A 
ATOM     96  F   UNL A   1      43.329  26.700  36.253  1.00  0.00    -0.203 F 
ATOM     97  F   UNL A   1      48.267  28.586  34.901  1.00  0.00    -0.200 F 
ATOM     98  C   UNL A   1      46.927  26.940  35.934  1.00  0.00     0.200 A 
ATOM     99  F   UNL A   1      45.545  25.313  36.942  1.00  0.00    -0.200 F 
ATOM    100  F   UNL A   1      48.017  26.222  36.238  1.00  0.00    -0.200 F 
ENDBRANCH  67  90
ENDBRANCH  41  42
ENDBRANCH  34  36
ENDBRANCH  33  34
ENDBRANCH  32  33
ENDBRANCH  31  32
ENDBRANCH  30  31
ENDBRANCH  29  30
ENDBRANCH  28  29
ENDBRANCH  27  28
ENDBRANCH   1  27
TORSDOF 24
ENDMDL
