MODEL 1
REMARK VINA RESULT:     -10.0      0.000      0.000
REMARK SMILES CCOC[C@@H](O)C[C@]1(C(=O)OCCOCCOCCOCCOC(=O)c2ccc(-c3c4nc(c(-c5c(F)c(F)c(F)c(F)c5F)c5ccc([nH]5)c(-c5c(F)c(F)c(F)c(F)c5F)c5nc(c(-c6c(F)c(F)c(F)c(F)c6F)c6ccc3[nH]6)C=C5)C=C4)cc2)CCc2ccccc21
REMARK SMILES IDX 15 1 14 2 13 3 12 4 11 5 9 6 10 7 8 8 89 9 96 10 90 11 91 12
REMARK SMILES IDX 95 13 92 14 94 15 93 16 7 17 5 18 4 19 3 20 2 21 1 22 6 23
REMARK SMILES IDX 16 25 17 26 18 27 19 28 20 29 21 30 22 31 23 32 24 33 25 34
REMARK SMILES IDX 26 35 27 36 88 37 28 38 87 39 29 40 30 41 31 42 81 43 32 44
REMARK SMILES IDX 86 45 80 46 82 47 33 48 85 49 79 50 78 51 34 53 66 54 46 55
REMARK SMILES IDX 65 56 47 57 50 58 64 59 83 60 48 61 49 62 63 64 84 65 51 66
REMARK SMILES IDX 35 67 36 68 44 69 37 70 38 71 42 72 45 73 39 74 40 75 43 76
REMARK SMILES IDX 41 77 67 78 68 79 76 80 69 81 70 82 74 83 77 84 71 85 72 86
REMARK SMILES IDX 75 87 73 88 52 89 53 90 61 91 54 92 55 93 59 94 62 95 56 96
REMARK SMILES IDX 57 97 60 98 58 99
REMARK H PARENT 6 24 82 52 50 63
REMARK Flexibility Score: inf
ROOT
ATOM      1  C   UNL A   1      34.114  21.444  25.990  1.00  0.00     0.188 C 
ENDROOT
BRANCH   1   2
ATOM      2  O   UNL A   1      33.552  20.918  24.810  1.00  0.00    -0.376 OA
BRANCH   2   3
ATOM      3  C   UNL A   1      32.370  21.455  24.238  1.00  0.00     0.202 C 
BRANCH   3   4
ATOM      4  C   UNL A   1      31.464  22.555  24.830  1.00  0.00     0.261 C 
BRANCH   4   5
ATOM      5  O   UNL A   1      31.510  23.863  24.253  1.00  0.00    -0.463 OA
BRANCH   5   6
ATOM      6  C   UNL A   1      31.940  24.848  25.080  1.00  0.00     0.316 C 
ATOM      7  O   UNL A   1      32.867  24.701  25.875  1.00  0.00    -0.251 OA
BRANCH   6   8
ATOM      8  C   UNL A   1      31.224  26.210  24.886  1.00  0.00     0.096 C 
ATOM      9  C   UNL A   1      31.021  27.079  26.166  1.00  0.00     0.028 C 
ATOM     10  C   UNL A   1      32.174  27.092  24.102  1.00  0.00    -0.027 A 
ATOM     11  C   UNL A   1      32.181  28.073  26.286  1.00  0.00     0.037 C 
ATOM     12  C   UNL A   1      32.710  28.110  24.896  1.00  0.00    -0.044 A 
ATOM     13  C   UNL A   1      32.645  26.882  22.813  1.00  0.00     0.005 A 
ATOM     14  C   UNL A   1      33.700  28.949  24.412  1.00  0.00     0.004 A 
ATOM     15  C   UNL A   1      33.655  27.706  22.325  1.00  0.00     0.000 A 
ATOM     16  C   UNL A   1      34.174  28.738  23.117  1.00  0.00     0.000 A 
BRANCH   8  17
ATOM     17  C   UNL A   1      29.910  25.860  24.122  1.00  0.00     0.057 C 
BRANCH  17  18
ATOM     18  C   UNL A   1      28.760  26.866  24.013  1.00  0.00     0.141 C 
BRANCH  18  19
ATOM     19  C   UNL A   1      28.901  27.819  22.819  1.00  0.00     0.191 C 
BRANCH  19  20
ATOM     20  O   UNL A   1      28.953  29.199  23.192  1.00  0.00    -0.379 OA
BRANCH  20  21
ATOM     21  C   UNL A   1      27.949  30.061  22.660  1.00  0.00     0.157 C 
ATOM     22  C   UNL A   1      27.649  31.290  23.500  1.00  0.00     0.035 C 
ENDBRANCH  20  21
ENDBRANCH  19  20
ENDBRANCH  18  19
BRANCH  18  23
ATOM     23  O   UNL A   1      27.578  26.059  23.875  1.00  0.00    -0.391 OA
ATOM     24  H   UNL A   1      27.266  25.788  24.752  1.00  0.00     0.211 HD
ENDBRANCH  18  23
ENDBRANCH  17  18
ENDBRANCH   8  17
ENDBRANCH   6   8
ENDBRANCH   5   6
ENDBRANCH   4   5
ENDBRANCH   3   4
ENDBRANCH   2   3
ENDBRANCH   1   2
BRANCH   1  25
ATOM     25  C   UNL A   1      35.493  22.107  25.875  1.00  0.00     0.188 C 
BRANCH  25  26
ATOM     26  O   UNL A   1      36.556  21.262  25.483  1.00  0.00    -0.377 OA
BRANCH  26  27
ATOM     27  C   UNL A   1      37.797  21.826  25.091  1.00  0.00     0.188 C 
BRANCH  27  28
ATOM     28  C   UNL A   1      39.045  21.704  25.986  1.00  0.00     0.188 C 
BRANCH  28  29
ATOM     29  O   UNL A   1      39.743  20.478  25.867  1.00  0.00    -0.376 OA
BRANCH  29  30
ATOM     30  C   UNL A   1      40.894  20.268  26.669  1.00  0.00     0.202 C 
BRANCH  30  31
ATOM     31  C   UNL A   1      42.270  20.558  26.049  1.00  0.00     0.261 C 
BRANCH  31  32
ATOM     32  O   UNL A   1      42.956  21.738  26.505  1.00  0.00    -0.460 OA
BRANCH  32  33
ATOM     33  C   UNL A   1      42.933  22.848  25.738  1.00  0.00     0.338 C 
ATOM     34  O   UNL A   1      43.028  22.914  24.525  1.00  0.00    -0.246 OA
BRANCH  33  35
ATOM     35  C   UNL A   1      42.571  23.979  26.619  1.00  0.00     0.060 A 
ATOM     36  C   UNL A   1      43.236  25.206  26.474  1.00  0.00     0.016 A 
ATOM     37  C   UNL A   1      41.548  23.841  27.557  1.00  0.00     0.016 A 
ATOM     38  C   UNL A   1      42.877  26.297  27.271  1.00  0.00     0.010 A 
ATOM     39  C   UNL A   1      41.211  24.924  28.374  1.00  0.00     0.010 A 
ATOM     40  C   UNL A   1      41.882  26.154  28.246  1.00  0.00    -0.014 A 
BRANCH  40  41
ATOM     41  C   UNL A   1      41.627  27.232  29.233  1.00  0.00     0.031 A 
ATOM     42  C   UNL A   1      42.480  27.289  30.470  1.00  0.00     0.074 A 
ATOM     43  C   UNL A   1      40.642  28.131  29.048  1.00  0.00     0.049 A 
ATOM     44  N   UNL A   1      42.349  28.033  31.537  1.00  0.00    -0.248 NA
ATOM     45  C   UNL A   1      43.637  26.381  30.505  1.00  0.00     0.031 C 
ATOM     46  C   UNL A   1      39.786  28.218  27.869  1.00  0.00     0.029 A 
ATOM     47  N   UNL A   1      40.183  29.130  29.872  1.00  0.00    -0.354 N 
ATOM     48  C   UNL A   1      43.403  27.684  32.370  1.00  0.00     0.074 A 
ATOM     49  C   UNL A   1      44.150  26.642  31.699  1.00  0.00     0.031 C 
ATOM     50  C   UNL A   1      38.882  29.197  28.057  1.00  0.00     0.029 A 
ATOM     51  C   UNL A   1      39.067  29.770  29.389  1.00  0.00     0.049 A 
ATOM     52  H   UNL A   1      40.612  29.365  30.727  1.00  0.00     0.167 HD
ATOM     53  C   UNL A   1      43.725  28.194  33.582  1.00  0.00     0.037 A 
ATOM     54  C   UNL A   1      38.263  30.680  29.977  1.00  0.00     0.037 A 
ATOM     55  C   UNL A   1      42.976  29.225  34.250  1.00  0.00     0.049 A 
ATOM     56  C   UNL A   1      38.573  31.140  31.383  1.00  0.00     0.074 A 
ATOM     57  C   UNL A   1      43.221  29.807  35.482  1.00  0.00     0.029 A 
ATOM     58  N   UNL A   1      41.832  29.823  33.745  1.00  0.00    -0.354 N 
ATOM     59  N   UNL A   1      39.580  30.821  32.160  1.00  0.00    -0.248 NA
ATOM     60  C   UNL A   1      37.625  32.083  32.000  1.00  0.00     0.031 C 
ATOM     61  C   UNL A   1      42.195  30.719  35.747  1.00  0.00     0.029 A 
ATOM     62  C   UNL A   1      41.341  30.745  34.655  1.00  0.00     0.049 A 
ATOM     63  H   UNL A   1      41.429  29.623  32.870  1.00  0.00     0.167 HD
ATOM     64  C   UNL A   1      39.402  31.540  33.335  1.00  0.00     0.074 A 
ATOM     65  C   UNL A   1      38.204  32.332  33.164  1.00  0.00     0.031 C 
ATOM     66  C   UNL A   1      40.156  31.538  34.463  1.00  0.00     0.037 A 
BRANCH  53  67
ATOM     67  C   UNL A   1      44.933  27.644  34.277  1.00  0.00     0.064 A 
ATOM     68  C   UNL A   1      46.197  28.230  34.124  1.00  0.00     0.173 A 
ATOM     69  C   UNL A   1      44.812  26.566  35.168  1.00  0.00     0.173 A 
ATOM     70  F   UNL A   1      46.368  29.254  33.274  1.00  0.00    -0.203 F 
ATOM     71  C   UNL A   1      47.298  27.752  34.829  1.00  0.00     0.198 A 
ATOM     72  C   UNL A   1      45.909  26.108  35.893  1.00  0.00     0.198 A 
ATOM     73  F   UNL A   1      43.623  25.972  35.354  1.00  0.00    -0.203 F 
ATOM     74  F   UNL A   1      48.503  28.309  34.645  1.00  0.00    -0.200 F 
ATOM     75  C   UNL A   1      47.151  26.700  35.721  1.00  0.00     0.200 A 
ATOM     76  F   UNL A   1      45.761  25.102  36.765  1.00  0.00    -0.200 F 
ATOM     77  F   UNL A   1      48.208  26.255  36.415  1.00  0.00    -0.200 F 
ENDBRANCH  53  67
BRANCH  54  78
ATOM     78  C   UNL A   1      37.045  31.181  29.280  1.00  0.00     0.064 A 
ATOM     79  C   UNL A   1      35.942  30.344  29.055  1.00  0.00     0.173 A 
ATOM     80  C   UNL A   1      36.991  32.481  28.753  1.00  0.00     0.173 A 
ATOM     81  F   UNL A   1      35.955  29.082  29.509  1.00  0.00    -0.203 F 
ATOM     82  C   UNL A   1      34.852  30.773  28.298  1.00  0.00     0.198 A 
ATOM     83  C   UNL A   1      35.883  32.922  28.030  1.00  0.00     0.198 A 
ATOM     84  F   UNL A   1      38.019  33.323  28.930  1.00  0.00    -0.203 F 
ATOM     85  F   UNL A   1      33.849  29.926  28.032  1.00  0.00    -0.200 F 
ATOM     86  C   UNL A   1      34.823  32.063  27.790  1.00  0.00     0.200 A 
ATOM     87  F   UNL A   1      35.856  34.172  27.550  1.00  0.00    -0.200 F 
ATOM     88  F   UNL A   1      33.781  32.472  27.052  1.00  0.00    -0.200 F 
ENDBRANCH  54  78
BRANCH  66  89
ATOM     89  C   UNL A   1      39.730  32.437  35.588  1.00  0.00     0.064 A 
ATOM     90  C   UNL A   1      40.239  33.736  35.724  1.00  0.00     0.173 A 
ATOM     91  C   UNL A   1      38.751  32.016  36.505  1.00  0.00     0.173 A 
ATOM     92  F   UNL A   1      41.185  34.181  34.884  1.00  0.00    -0.203 F 
ATOM     93  C   UNL A   1      39.799  34.575  36.745  1.00  0.00     0.198 A 
ATOM     94  C   UNL A   1      38.291  32.869  37.504  1.00  0.00     0.198 A 
ATOM     95  F   UNL A   1      38.224  30.786  36.414  1.00  0.00    -0.203 F 
ATOM     96  F   UNL A   1      40.331  35.798  36.880  1.00  0.00    -0.200 F 
ATOM     97  C   UNL A   1      38.819  34.145  37.627  1.00  0.00     0.200 A 
ATOM     98  F   UNL A   1      37.330  32.458  38.343  1.00  0.00    -0.200 F 
ATOM     99  F   UNL A   1      38.386  34.960  38.599  1.00  0.00    -0.200 F 
ENDBRANCH  66  89
ENDBRANCH  40  41
ENDBRANCH  33  35
ENDBRANCH  32  33
ENDBRANCH  31  32
ENDBRANCH  30  31
ENDBRANCH  29  30
ENDBRANCH  28  29
ENDBRANCH  27  28
ENDBRANCH  26  27
ENDBRANCH  25  26
ENDBRANCH   1  25
TORSDOF 26
ENDMDL
MODEL 2
REMARK VINA RESULT:      -8.9      5.921      9.373
REMARK SMILES CCOC[C@@H](O)C[C@]1(C(=O)OCCOCCOCCOCCOC(=O)c2ccc(-c3c4nc(c(-c5c(F)c(F)c(F)c(F)c5F)c5ccc([nH]5)c(-c5c(F)c(F)c(F)c(F)c5F)c5nc(c(-c6c(F)c(F)c(F)c(F)c6F)c6ccc3[nH]6)C=C5)C=C4)cc2)CCc2ccccc21
REMARK SMILES IDX 15 1 14 2 13 3 12 4 11 5 9 6 10 7 8 8 89 9 96 10 90 11 91 12
REMARK SMILES IDX 95 13 92 14 94 15 93 16 7 17 5 18 4 19 3 20 2 21 1 22 6 23
REMARK SMILES IDX 16 25 17 26 18 27 19 28 20 29 21 30 22 31 23 32 24 33 25 34
REMARK SMILES IDX 26 35 27 36 88 37 28 38 87 39 29 40 30 41 31 42 81 43 32 44
REMARK SMILES IDX 86 45 80 46 82 47 33 48 85 49 79 50 78 51 34 53 66 54 46 55
REMARK SMILES IDX 65 56 47 57 50 58 64 59 83 60 48 61 49 62 63 64 84 65 51 66
REMARK SMILES IDX 35 67 36 68 44 69 37 70 38 71 42 72 45 73 39 74 40 75 43 76
REMARK SMILES IDX 41 77 67 78 68 79 76 80 69 81 70 82 74 83 77 84 71 85 72 86
REMARK SMILES IDX 75 87 73 88 52 89 53 90 61 91 54 92 55 93 59 94 62 95 56 96
REMARK SMILES IDX 57 97 60 98 58 99
REMARK H PARENT 6 24 82 52 50 63
REMARK Flexibility Score: inf
ROOT
ATOM      1  C   UNL A   1      42.300  19.380  26.004  1.00  0.00     0.188 C 
ENDROOT
BRANCH   1   2
ATOM      2  O   UNL A   1      41.879  20.011  27.192  1.00  0.00    -0.376 OA
BRANCH   2   3
ATOM      3  C   UNL A   1      41.741  21.419  27.285  1.00  0.00     0.202 C 
BRANCH   3   4
ATOM      4  C   UNL A   1      40.440  22.217  27.518  1.00  0.00     0.261 C 
BRANCH   4   5
ATOM      5  O   UNL A   1      40.533  23.528  28.083  1.00  0.00    -0.463 OA
BRANCH   5   6
ATOM      6  C   UNL A   1      40.592  24.543  27.186  1.00  0.00     0.316 C 
ATOM      7  O   UNL A   1      39.911  24.575  26.162  1.00  0.00    -0.251 OA
BRANCH   6   8
ATOM      8  C   UNL A   1      41.527  25.710  27.595  1.00  0.00     0.096 C 
ATOM      9  C   UNL A   1      42.467  26.274  26.483  1.00  0.00     0.028 C 
ATOM     10  C   UNL A   1      40.639  26.913  27.840  1.00  0.00    -0.027 A 
ATOM     11  C   UNL A   1      41.790  27.476  25.818  1.00  0.00     0.037 C 
ATOM     12  C   UNL A   1      40.783  27.876  26.837  1.00  0.00    -0.044 A 
ATOM     13  C   UNL A   1      39.652  27.045  28.808  1.00  0.00     0.005 A 
ATOM     14  C   UNL A   1      39.967  28.995  26.798  1.00  0.00     0.004 A 
ATOM     15  C   UNL A   1      38.813  28.155  28.764  1.00  0.00     0.000 A 
ATOM     16  C   UNL A   1      38.975  29.128  27.770  1.00  0.00     0.000 A 
BRANCH   8  17
ATOM     17  C   UNL A   1      42.264  25.197  28.871  1.00  0.00     0.057 C 
BRANCH  17  18
ATOM     18  C   UNL A   1      43.776  25.370  29.040  1.00  0.00     0.141 C 
BRANCH  18  19
ATOM     19  C   UNL A   1      44.166  26.014  30.377  1.00  0.00     0.191 C 
BRANCH  19  20
ATOM     20  O   UNL A   1      44.173  25.095  31.474  1.00  0.00    -0.379 OA
BRANCH  20  21
ATOM     21  C   UNL A   1      45.412  24.884  32.145  1.00  0.00     0.157 C 
ATOM     22  C   UNL A   1      46.521  25.849  31.761  1.00  0.00     0.035 C 
ENDBRANCH  20  21
ENDBRANCH  19  20
ENDBRANCH  18  19
BRANCH  18  23
ATOM     23  O   UNL A   1      44.310  24.037  28.950  1.00  0.00    -0.391 OA
ATOM     24  H   UNL A   1      43.611  23.394  29.147  1.00  0.00     0.211 HD
ENDBRANCH  18  23
ENDBRANCH  17  18
ENDBRANCH   8  17
ENDBRANCH   6   8
ENDBRANCH   5   6
ENDBRANCH   4   5
ENDBRANCH   3   4
ENDBRANCH   2   3
ENDBRANCH   1   2
BRANCH   1  25
ATOM     25  C   UNL A   1      43.393  18.311  26.128  1.00  0.00     0.188 C 
BRANCH  25  26
ATOM     26  O   UNL A   1      44.167  18.078  24.968  1.00  0.00    -0.377 OA
BRANCH  26  27
ATOM     27  C   UNL A   1      44.737  19.173  24.269  1.00  0.00     0.188 C 
BRANCH  27  28
ATOM     28  C   UNL A   1      46.113  19.740  24.665  1.00  0.00     0.188 C 
BRANCH  28  29
ATOM     29  O   UNL A   1      46.068  20.959  25.385  1.00  0.00    -0.376 OA
BRANCH  29  30
ATOM     30  C   UNL A   1      45.248  22.009  24.897  1.00  0.00     0.202 C 
BRANCH  30  31
ATOM     31  C   UNL A   1      45.878  23.403  24.740  1.00  0.00     0.261 C 
BRANCH  31  32
ATOM     32  O   UNL A   1      45.709  24.323  25.833  1.00  0.00    -0.460 OA
BRANCH  32  33
ATOM     33  C   UNL A   1      46.803  24.820  26.447  1.00  0.00     0.338 C 
ATOM     34  O   UNL A   1      47.900  24.299  26.547  1.00  0.00    -0.246 OA
BRANCH  33  35
ATOM     35  C   UNL A   1      46.497  26.218  26.820  1.00  0.00     0.060 A 
ATOM     36  C   UNL A   1      46.931  26.713  28.058  1.00  0.00     0.016 A 
ATOM     37  C   UNL A   1      45.818  27.051  25.930  1.00  0.00     0.016 A 
ATOM     38  C   UNL A   1      46.685  28.044  28.408  1.00  0.00     0.010 A 
ATOM     39  C   UNL A   1      45.546  28.373  26.293  1.00  0.00     0.010 A 
ATOM     40  C   UNL A   1      45.965  28.873  27.539  1.00  0.00    -0.014 A 
BRANCH  40  41
ATOM     41  C   UNL A   1      45.519  30.221  27.973  1.00  0.00     0.031 A 
ATOM     42  C   UNL A   1      46.427  31.392  27.720  1.00  0.00     0.074 A 
ATOM     43  C   UNL A   1      44.342  30.400  28.599  1.00  0.00     0.049 A 
ATOM     44  N   UNL A   1      46.328  32.627  28.140  1.00  0.00    -0.248 NA
ATOM     45  C   UNL A   1      47.607  31.134  26.879  1.00  0.00     0.031 C 
ATOM     46  C   UNL A   1      43.349  29.359  28.850  1.00  0.00     0.029 A 
ATOM     47  N   UNL A   1      43.795  31.529  29.160  1.00  0.00    -0.354 N 
ATOM     48  C   UNL A   1      47.430  33.291  27.617  1.00  0.00     0.074 A 
ATOM     49  C   UNL A   1      48.200  32.318  26.873  1.00  0.00     0.031 C 
ATOM     50  C   UNL A   1      42.327  29.890  29.546  1.00  0.00     0.029 A 
ATOM     51  C   UNL A   1      42.617  31.294  29.828  1.00  0.00     0.049 A 
ATOM     52  H   UNL A   1      44.208  32.421  29.091  1.00  0.00     0.167 HD
ATOM     53  C   UNL A   1      47.763  34.597  27.740  1.00  0.00     0.037 A 
ATOM     54  C   UNL A   1      41.885  32.110  30.615  1.00  0.00     0.037 A 
ATOM     55  C   UNL A   1      47.000  35.560  28.488  1.00  0.00     0.049 A 
ATOM     56  C   UNL A   1      42.349  33.531  30.839  1.00  0.00     0.074 A 
ATOM     57  C   UNL A   1      47.257  36.908  28.674  1.00  0.00     0.029 A 
ATOM     58  N   UNL A   1      45.832  35.277  29.180  1.00  0.00    -0.354 N 
ATOM     59  N   UNL A   1      43.381  34.159  30.328  1.00  0.00    -0.248 NA
ATOM     60  C   UNL A   1      41.549  34.356  31.759  1.00  0.00     0.031 C 
ATOM     61  C   UNL A   1      46.275  37.427  29.522  1.00  0.00     0.029 A 
ATOM     62  C   UNL A   1      45.375  36.417  29.821  1.00  0.00     0.049 A 
ATOM     63  H   UNL A   1      45.393  34.396  29.211  1.00  0.00     0.167 HD
ATOM     64  C   UNL A   1      43.336  35.450  30.841  1.00  0.00     0.074 A 
ATOM     65  C   UNL A   1      42.163  35.526  31.683  1.00  0.00     0.031 C 
ATOM     66  C   UNL A   1      44.195  36.480  30.642  1.00  0.00     0.037 A 
BRANCH  53  67
ATOM     67  C   UNL A   1      49.014  35.069  27.062  1.00  0.00     0.064 A 
ATOM     68  C   UNL A   1      49.002  35.517  25.733  1.00  0.00     0.173 A 
ATOM     69  C   UNL A   1      50.222  35.148  27.772  1.00  0.00     0.173 A 
ATOM     70  F   UNL A   1      47.876  35.450  25.008  1.00  0.00    -0.203 F 
ATOM     71  C   UNL A   1      50.156  36.018  25.137  1.00  0.00     0.198 A 
ATOM     72  C   UNL A   1      51.367  35.676  27.181  1.00  0.00     0.198 A 
ATOM     73  F   UNL A   1      50.286  34.735  29.047  1.00  0.00    -0.203 F 
ATOM     74  F   UNL A   1      50.128  36.414  23.857  1.00  0.00    -0.200 F 
ATOM     75  C   UNL A   1      51.334  36.108  25.864  1.00  0.00     0.200 A 
ATOM     76  F   UNL A   1      52.500  35.775  27.891  1.00  0.00    -0.200 F 
ATOM     77  F   UNL A   1      52.438  36.610  25.295  1.00  0.00    -0.200 F 
ENDBRANCH  53  67
BRANCH  54  78
ATOM     78  C   UNL A   1      40.668  31.604  31.310  1.00  0.00     0.064 A 
ATOM     79  C   UNL A   1      39.402  31.693  30.713  1.00  0.00     0.173 A 
ATOM     80  C   UNL A   1      40.734  31.097  32.617  1.00  0.00     0.173 A 
ATOM     81  F   UNL A   1      39.278  32.200  29.478  1.00  0.00    -0.203 F 
ATOM     82  C   UNL A   1      38.248  31.332  31.409  1.00  0.00     0.198 A 
ATOM     83  C   UNL A   1      39.584  30.699  33.298  1.00  0.00     0.198 A 
ATOM     84  F   UNL A   1      41.917  30.996  33.242  1.00  0.00    -0.203 F 
ATOM     85  F   UNL A   1      37.046  31.503  30.842  1.00  0.00    -0.200 F 
ATOM     86  C   UNL A   1      38.342  30.832  32.699  1.00  0.00     0.200 A 
ATOM     87  F   UNL A   1      39.681  30.208  34.540  1.00  0.00    -0.200 F 
ATOM     88  F   UNL A   1      37.232  30.498  33.372  1.00  0.00    -0.200 F 
ENDBRANCH  54  78
BRANCH  66  89
ATOM     89  C   UNL A   1      43.889  37.785  31.319  1.00  0.00     0.064 A 
ATOM     90  C   UNL A   1      44.140  37.980  32.685  1.00  0.00     0.173 A 
ATOM     91  C   UNL A   1      43.399  38.875  30.580  1.00  0.00     0.173 A 
ATOM     92  F   UNL A   1      44.594  36.968  33.439  1.00  0.00    -0.203 F 
ATOM     93  C   UNL A   1      43.895  39.210  33.290  1.00  0.00     0.198 A 
ATOM     94  C   UNL A   1      43.187  40.112  31.182  1.00  0.00     0.198 A 
ATOM     95  F   UNL A   1      43.151  38.745  29.268  1.00  0.00    -0.203 F 
ATOM     96  F   UNL A   1      44.103  39.360  34.606  1.00  0.00    -0.200 F 
ATOM     97  C   UNL A   1      43.429  40.277  32.536  1.00  0.00     0.200 A 
ATOM     98  F   UNL A   1      42.754  41.146  30.448  1.00  0.00    -0.200 F 
ATOM     99  F   UNL A   1      43.210  41.465  33.118  1.00  0.00    -0.200 F 
ENDBRANCH  66  89
ENDBRANCH  40  41
ENDBRANCH  33  35
ENDBRANCH  32  33
ENDBRANCH  31  32
ENDBRANCH  30  31
ENDBRANCH  29  30
ENDBRANCH  28  29
ENDBRANCH  27  28
ENDBRANCH  26  27
ENDBRANCH  25  26
ENDBRANCH   1  25
TORSDOF 26
ENDMDL
MODEL 3
REMARK VINA RESULT:      -8.7      5.926      8.780
REMARK SMILES CCOC[C@@H](O)C[C@]1(C(=O)OCCOCCOCCOCCOC(=O)c2ccc(-c3c4nc(c(-c5c(F)c(F)c(F)c(F)c5F)c5ccc([nH]5)c(-c5c(F)c(F)c(F)c(F)c5F)c5nc(c(-c6c(F)c(F)c(F)c(F)c6F)c6ccc3[nH]6)C=C5)C=C4)cc2)CCc2ccccc21
REMARK SMILES IDX 15 1 14 2 13 3 12 4 11 5 9 6 10 7 8 8 89 9 96 10 90 11 91 12
REMARK SMILES IDX 95 13 92 14 94 15 93 16 7 17 5 18 4 19 3 20 2 21 1 22 6 23
REMARK SMILES IDX 16 25 17 26 18 27 19 28 20 29 21 30 22 31 23 32 24 33 25 34
REMARK SMILES IDX 26 35 27 36 88 37 28 38 87 39 29 40 30 41 31 42 81 43 32 44
REMARK SMILES IDX 86 45 80 46 82 47 33 48 85 49 79 50 78 51 34 53 66 54 46 55
REMARK SMILES IDX 65 56 47 57 50 58 64 59 83 60 48 61 49 62 63 64 84 65 51 66
REMARK SMILES IDX 35 67 36 68 44 69 37 70 38 71 42 72 45 73 39 74 40 75 43 76
REMARK SMILES IDX 41 77 67 78 68 79 76 80 69 81 70 82 74 83 77 84 71 85 72 86
REMARK SMILES IDX 75 87 73 88 52 89 53 90 61 91 54 92 55 93 59 94 62 95 56 96
REMARK SMILES IDX 57 97 60 98 58 99
REMARK H PARENT 6 24 82 52 50 63
REMARK Flexibility Score: inf
ROOT
ATOM      1  C   UNL A   1      42.473  19.249  26.053  1.00  0.00     0.188 C 
ENDROOT
BRANCH   1   2
ATOM      2  O   UNL A   1      41.818  19.577  27.257  1.00  0.00    -0.376 OA
BRANCH   2   3
ATOM      3  C   UNL A   1      41.544  20.921  27.620  1.00  0.00     0.202 C 
BRANCH   3   4
ATOM      4  C   UNL A   1      42.259  22.190  27.109  1.00  0.00     0.261 C 
BRANCH   4   5
ATOM      5  O   UNL A   1      41.462  23.296  26.678  1.00  0.00    -0.463 OA
BRANCH   5   6
ATOM      6  C   UNL A   1      41.323  24.298  27.581  1.00  0.00     0.316 C 
ATOM      7  O   UNL A   1      42.097  24.468  28.521  1.00  0.00    -0.251 OA
BRANCH   6   8
ATOM      8  C   UNL A   1      40.153  25.273  27.286  1.00  0.00     0.096 C 
ATOM      9  C   UNL A   1      39.372  25.819  28.522  1.00  0.00     0.028 C 
ATOM     10  C   UNL A   1      40.774  26.553  26.766  1.00  0.00    -0.027 A 
ATOM     11  C   UNL A   1      39.967  27.169  28.933  1.00  0.00     0.037 C 
ATOM     12  C   UNL A   1      40.679  27.591  27.696  1.00  0.00    -0.044 A 
ATOM     13  C   UNL A   1      41.519  26.713  25.605  1.00  0.00     0.005 A 
ATOM     14  C   UNL A   1      41.299  28.809  27.475  1.00  0.00     0.004 A 
ATOM     15  C   UNL A   1      42.164  27.927  25.384  1.00  0.00     0.000 A 
ATOM     16  C   UNL A   1      42.048  28.971  26.309  1.00  0.00     0.000 A 
BRANCH   8  17
ATOM     17  C   UNL A   1      39.272  24.526  26.238  1.00  0.00     0.057 C 
BRANCH  17  18
ATOM     18  C   UNL A   1      38.094  23.646  26.670  1.00  0.00     0.141 C 
BRANCH  18  19
ATOM     19  C   UNL A   1      36.834  23.864  25.823  1.00  0.00     0.191 C 
BRANCH  19  20
ATOM     20  O   UNL A   1      35.904  22.778  25.892  1.00  0.00    -0.379 OA
BRANCH  20  21
ATOM     21  C   UNL A   1      34.759  22.946  26.725  1.00  0.00     0.157 C 
ATOM     22  C   UNL A   1      34.221  21.666  27.340  1.00  0.00     0.035 C 
ENDBRANCH  20  21
ENDBRANCH  19  20
ENDBRANCH  18  19
BRANCH  18  23
ATOM     23  O   UNL A   1      38.571  22.297  26.525  1.00  0.00    -0.391 OA
ATOM     24  H   UNL A   1      39.319  22.282  25.908  1.00  0.00     0.211 HD
ENDBRANCH  18  23
ENDBRANCH  17  18
ENDBRANCH   8  17
ENDBRANCH   6   8
ENDBRANCH   5   6
ENDBRANCH   4   5
ENDBRANCH   3   4
ENDBRANCH   2   3
ENDBRANCH   1   2
BRANCH   1  25
ATOM     25  C   UNL A   1      43.699  18.333  26.150  1.00  0.00     0.188 C 
BRANCH  25  26
ATOM     26  O   UNL A   1      44.489  18.229  24.982  1.00  0.00    -0.377 OA
BRANCH  26  27
ATOM     27  C   UNL A   1      44.947  19.405  24.333  1.00  0.00     0.188 C 
BRANCH  27  28
ATOM     28  C   UNL A   1      46.340  19.990  24.636  1.00  0.00     0.188 C 
BRANCH  28  29
ATOM     29  O   UNL A   1      46.335  21.122  25.488  1.00  0.00    -0.376 OA
BRANCH  29  30
ATOM     30  C   UNL A   1      45.391  22.152  25.247  1.00  0.00     0.202 C 
BRANCH  30  31
ATOM     31  C   UNL A   1      45.902  23.601  25.191  1.00  0.00     0.261 C 
BRANCH  31  32
ATOM     32  O   UNL A   1      45.776  24.384  26.391  1.00  0.00    -0.460 OA
BRANCH  32  33
ATOM     33  C   UNL A   1      46.891  24.851  26.990  1.00  0.00     0.338 C 
ATOM     34  O   UNL A   1      47.978  24.305  27.064  1.00  0.00    -0.246 OA
BRANCH  33  35
ATOM     35  C   UNL A   1      46.622  26.252  27.383  1.00  0.00     0.060 A 
ATOM     36  C   UNL A   1      47.146  26.743  28.588  1.00  0.00     0.016 A 
ATOM     37  C   UNL A   1      45.889  27.089  26.542  1.00  0.00     0.016 A 
ATOM     38  C   UNL A   1      46.936  28.076  28.953  1.00  0.00     0.010 A 
ATOM     39  C   UNL A   1      45.653  28.413  26.923  1.00  0.00     0.010 A 
ATOM     40  C   UNL A   1      46.163  28.911  28.136  1.00  0.00    -0.014 A 
BRANCH  40  41
ATOM     41  C   UNL A   1      45.759  30.262  28.599  1.00  0.00     0.031 A 
ATOM     42  C   UNL A   1      46.602  31.439  28.198  1.00  0.00     0.074 A 
ATOM     43  C   UNL A   1      44.677  30.439  29.380  1.00  0.00     0.049 A 
ATOM     44  N   UNL A   1      46.541  32.682  28.601  1.00  0.00    -0.248 NA
ATOM     45  C   UNL A   1      47.658  31.178  27.206  1.00  0.00     0.031 C 
ATOM     46  C   UNL A   1      43.747  29.390  29.789  1.00  0.00     0.029 A 
ATOM     47  N   UNL A   1      44.194  31.573  29.988  1.00  0.00    -0.354 N 
ATOM     48  C   UNL A   1      47.549  33.349  27.916  1.00  0.00     0.074 A 
ATOM     49  C   UNL A   1      48.224  32.370  27.092  1.00  0.00     0.031 C 
ATOM     50  C   UNL A   1      42.822  29.922  30.609  1.00  0.00     0.029 A 
ATOM     51  C   UNL A   1      43.125  31.337  30.819  1.00  0.00     0.049 A 
ATOM     52  H   UNL A   1      44.578  32.468  29.844  1.00  0.00     0.167 HD
ATOM     53  C   UNL A   1      47.873  34.662  27.964  1.00  0.00     0.037 A 
ATOM     54  C   UNL A   1      42.496  32.160  31.682  1.00  0.00     0.037 A 
ATOM     55  C   UNL A   1      47.205  35.631  28.791  1.00  0.00     0.049 A 
ATOM     56  C   UNL A   1      42.962  33.593  31.810  1.00  0.00     0.074 A 
ATOM     57  C   UNL A   1      47.463  36.986  28.911  1.00  0.00     0.029 A 
ATOM     58  N   UNL A   1      46.150  35.348  29.645  1.00  0.00    -0.354 N 
ATOM     59  N   UNL A   1      43.902  34.223  31.147  1.00  0.00    -0.248 NA
ATOM     60  C   UNL A   1      42.284  34.427  32.815  1.00  0.00     0.031 C 
ATOM     61  C   UNL A   1      46.600  37.512  29.877  1.00  0.00     0.029 A 
ATOM     62  C   UNL A   1      45.768  36.496  30.319  1.00  0.00     0.049 A 
ATOM     63  H   UNL A   1      45.735  34.462  29.755  1.00  0.00     0.167 HD
ATOM     64  C   UNL A   1      43.907  35.525  31.633  1.00  0.00     0.074 A 
ATOM     65  C   UNL A   1      42.862  35.604  32.629  1.00  0.00     0.031 C 
ATOM     66  C   UNL A   1      44.713  36.562  31.295  1.00  0.00     0.037 A 
BRANCH  53  67
ATOM     67  C   UNL A   1      49.009  35.135  27.108  1.00  0.00     0.064 A 
ATOM     68  C   UNL A   1      48.794  35.644  25.820  1.00  0.00     0.173 A 
ATOM     69  C   UNL A   1      50.320  35.155  27.611  1.00  0.00     0.173 A 
ATOM     70  F   UNL A   1      47.561  35.635  25.288  1.00  0.00    -0.203 F 
ATOM     71  C   UNL A   1      49.848  36.144  25.062  1.00  0.00     0.198 A 
ATOM     72  C   UNL A   1      51.368  35.682  26.861  1.00  0.00     0.198 A 
ATOM     73  F   UNL A   1      50.579  34.683  28.840  1.00  0.00    -0.203 F 
ATOM     74  F   UNL A   1      49.622  36.598  23.821  1.00  0.00    -0.200 F 
ATOM     75  C   UNL A   1      51.131  36.174  25.587  1.00  0.00     0.200 A 
ATOM     76  F   UNL A   1      52.604  35.723  27.377  1.00  0.00    -0.200 F 
ATOM     77  F   UNL A   1      52.142  36.676  24.864  1.00  0.00    -0.200 F 
ENDBRANCH  53  67
BRANCH  54  78
ATOM     78  C   UNL A   1      41.397  31.654  32.551  1.00  0.00     0.064 A 
ATOM     79  C   UNL A   1      40.059  31.705  32.132  1.00  0.00     0.173 A 
ATOM     80  C   UNL A   1      41.652  31.184  33.849  1.00  0.00     0.173 A 
ATOM     81  F   UNL A   1      39.757  32.174  30.913  1.00  0.00    -0.203 F 
ATOM     82  C   UNL A   1      39.019  31.344  32.989  1.00  0.00     0.198 A 
ATOM     83  C   UNL A   1      40.614  30.787  34.691  1.00  0.00     0.198 A 
ATOM     84  F   UNL A   1      42.910  31.121  34.308  1.00  0.00    -0.203 F 
ATOM     85  F   UNL A   1      37.748  31.479  32.589  1.00  0.00    -0.200 F 
ATOM     86  C   UNL A   1      39.299  30.883  34.266  1.00  0.00     0.200 A 
ATOM     87  F   UNL A   1      40.890  30.333  35.921  1.00  0.00    -0.200 F 
ATOM     88  F   UNL A   1      38.299  30.548  35.094  1.00  0.00    -0.200 F 
ENDBRANCH  54  78
BRANCH  66  89
ATOM     89  C   UNL A   1      44.481  37.878  31.981  1.00  0.00     0.064 A 
ATOM     90  C   UNL A   1      45.020  38.151  33.247  1.00  0.00     0.173 A 
ATOM     91  C   UNL A   1      43.768  38.902  31.337  1.00  0.00     0.173 A 
ATOM     92  F   UNL A   1      45.697  37.202  33.910  1.00  0.00    -0.203 F 
ATOM     93  C   UNL A   1      44.837  39.392  33.851  1.00  0.00     0.198 A 
ATOM     94  C   UNL A   1      43.615  40.152  31.930  1.00  0.00     0.198 A 
ATOM     95  F   UNL A   1      43.240  38.697  30.121  1.00  0.00    -0.203 F 
ATOM     96  F   UNL A   1      45.325  39.615  35.079  1.00  0.00    -0.200 F 
ATOM     97  C   UNL A   1      44.144  40.394  33.188  1.00  0.00     0.200 A 
ATOM     98  F   UNL A   1      42.961  41.125  31.280  1.00  0.00    -0.200 F 
ATOM     99  F   UNL A   1      43.984  41.594  33.765  1.00  0.00    -0.200 F 
ENDBRANCH  66  89
ENDBRANCH  40  41
ENDBRANCH  33  35
ENDBRANCH  32  33
ENDBRANCH  31  32
ENDBRANCH  30  31
ENDBRANCH  29  30
ENDBRANCH  28  29
ENDBRANCH  27  28
ENDBRANCH  26  27
ENDBRANCH  25  26
ENDBRANCH   1  25
TORSDOF 26
ENDMDL
